drugbank_target|P29813 Genome polyprotein (DB08231)
 OpenBabel12092120493D

  0  0  0     0  0            999 V3000
M  V30 BEGIN CTAB
M  V30 COUNTS 34205 34629 0 0 0
M  V30 BEGIN ATOM
M  V30 1 H -0.908 1.98254 -0.117106 0
M  V30 2 N 0 1.576 0 0
M  V30 3 C 0.933 2.03868 1.02534 0
M  V30 4 C 1.911 0.928543 1.3348 0
M  V30 5 O 3.095 1.19667 1.45644 0
M  V30 6 C 0.222 2.43627 2.35294 0
M  V30 7 C -0.732 3.65373 2.2001 0
M  V30 8 S 0.101 5.13292 1.52614 0
M  V30 9 C 1.257 5.56322 2.86805 0
M  V30 10 H 1.49 2.90518 0.631377 0
M  V30 11 H -0.977 1.52953 0.210867 0
M  V30 12 H 0.981 2.67203 3.11629 0
M  V30 13 H -0.358 1.57376 2.7183 0
M  V30 14 H -1.165 3.90944 3.18086 0
M  V30 15 H -1.563 3.418 1.51819 0
M  V30 16 H 0.729 5.58782 3.83104 0
M  V30 17 H 1.672 6.56266 2.65933 0
M  V30 18 H 2.08 4.83886 2.90714 0
M  V30 19 N 1.4781 -0.272755 1.55222 0
M  V30 20 C 2.7261 -1.00234 1.75492 0
M  V30 21 C 3.0471 -1.8681 0.5592 0
M  V30 22 O 2.3171 -1.91215 -0.425882 0
M  V30 23 H 0.8971 -0.373076 0.647166 0
M  V30 24 H 3.5591 -0.296926 1.92625 0
M  V30 25 H 2.6551 -1.63913 2.65592 0
M  V30 26 N 2.9562 -1.48159 -0.537278 0
M  V30 27 C 3.9192 -1.61665 -1.62472 0
M  V30 28 C 4.9192 -0.490395 -1.5314 0
M  V30 29 O 6.1092 -0.755998 -1.5694 0
M  V30 30 C 3.2412 -1.57997 -3.02076 0
M  V30 31 H 4.4342 -2.58621 -1.51839 0
M  V30 32 H 1.9872 -1.36647 -0.758771 0
M  V30 33 H 2.7222 -0.624913 -3.18222 0
M  V30 34 H 2.5072 -2.39755 -3.10258 0
M  V30 35 H 3.9972 -1.70627 -3.81151 0
M  V30 36 N 4.4343 0.785586 -1.36625 0
M  V30 37 C 5.3663 1.90711 -1.2713 0
M  V30 38 C 6.3793 1.61688 -0.189986 0
M  V30 39 O 7.5683 1.72864 -0.445014 0
M  V30 40 C 4.6683 3.25611 -0.939713 0
M  V30 41 C 3.8413 3.82385 -2.12369 0
M  V30 42 C 2.9003 4.95732 -1.76456 0
M  V30 43 O 1.9263 5.12047 -2.48589 0
M  V30 44 N 3.1283 5.76258 -0.700492 0
M  V30 45 H 5.8933 1.99376 -2.23762 0
M  V30 46 H 3.4543 0.964041 -1.30069 0
M  V30 47 H 5.4463 3.98937 -0.680554 0
M  V30 48 H 4.0163 3.12538 -0.0624074 0
M  V30 49 H 3.2363 3.01001 -2.54543 0
M  V30 50 H 4.5243 4.17047 -2.9146 0
M  V30 51 H 3.9223 5.65609 -0.101624 0
M  V30 52 H 2.4793 6.4987 -0.501165 0
M  V30 53 N 5.9124 1.20967 1.01018 0
M  V30 54 C 7.1584 1.02526 1.74975 0
M  V30 55 C 7.4914 -0.4408 1.89131 0
M  V30 56 O 6.7664 -1.32718 1.42184 0
M  V30 57 C 7.0494 1.71699 3.1653 0
M  V30 58 C 6.9024 3.25791 3.10129 0
M  V30 59 C 8.2214 1.45531 4.15342 0
M  V30 60 H 5.3404 0.373863 0.635134 0
M  V30 61 H 7.9824 1.49071 1.17805 0
M  V30 62 H 6.1324 1.32128 3.65341 0
M  V30 63 H 7.8044 3.74697 2.69072 0
M  V30 64 H 6.0474 3.56363 2.47362 0
M  V30 65 H 6.7184 3.69353 4.10222 0
M  V30 66 H 9.1944 1.79872 3.75213 0
M  V30 67 H 8.0704 1.96453 5.1254 0
M  V30 68 H 8.3314 0.384237 4.40427 0
M  V30 69 N 7.3905 -1.2043 1.01659 0
M  V30 70 C 8.6155 -1.94318 0.724942 0
M  V30 71 C 9.0405 -1.74266 -0.708034 0
M  V30 72 O 8.3985 -1.03694 -1.48719 0
M  V30 73 C 8.4465 -3.44486 1.06591 0
M  V30 74 O 7.5505 -4.12017 0.177599 0
M  V30 75 H 6.8915 -0.60708 0.26898 0
M  V30 76 H 9.4215 -1.52861 1.35995 0
M  V30 77 H 9.4315 -3.95106 1.01762 0
M  V30 78 H 8.1065 -3.58404 2.10997 0
M  V30 79 H 6.6835 -3.71821 0.283421 0
M  V30 80 N 8.8686 -0.792821 -1.36206 0
M  V30 81 C 10.0966 -0.378825 -2.03402 0
M  V30 82 C 10.5116 1.00586 -1.59774 0
M  V30 83 O 9.8686 1.64574 -0.788764 0
M  V30 84 C 9.9196 -0.43683 -3.58851 0
M  V30 85 O 9.6406 -1.76691 -4.00889 0
M  V30 86 C 11.1416 -0.0138943 -4.43298 0
M  V30 87 H 8.3616 -0.155673 -0.652692 0
M  V30 88 H 10.9056 -1.07261 -1.74113 0
M  V30 89 H 9.0606 0.208575 -3.86838 0
M  V30 90 H 9.4746 -1.72011 -4.95492 0
M  V30 91 H 10.9486 -0.105615 -5.51899 0
M  V30 92 H 11.4256 1.03915 -4.2673 0
M  V30 93 H 12.0316 -0.63192 -4.20579 0
M  V30 94 N 10.3467 1.47872 -0.545128 0
M  V30 95 C 11.2787 2.27869 0.246621 0
M  V30 96 C 12.2917 1.36282 0.890561 0
M  V30 97 O 13.4807 1.61207 0.766449 0
M  V30 98 C 10.5807 3.10159 1.36582 0
M  V30 99 C 9.7537 4.29627 0.820954 0
M  V30 100 C 8.8127 4.93607 1.82314 0
M  V30 101 O 7.8387 5.52366 1.37406 0
M  V30 102 N 9.0407 4.87211 3.15603 0
M  V30 103 H 11.8057 2.96459 -0.439539 0
M  V30 104 H 9.3667 1.57367 -0.380421 0
M  V30 105 H 11.3587 3.49829 2.03474 0
M  V30 106 H 9.9287 2.43891 1.9554 0
M  V30 107 H 9.1487 3.94192 -0.0244032 0
M  V30 108 H 10.4367 5.06928 0.436063 0
M  V30 109 H 9.8347 4.40651 3.54744 0
M  V30 110 H 8.3917 5.30937 3.78087 0
M  V30 111 N 11.8248 0.280983 1.55075 0
M  V30 112 C 12.7718 -0.603937 2.22758 0
M  V30 113 C 13.7418 -1.1452 1.20309 0
M  V30 114 O 14.9268 -1.19343 1.48869 0
M  V30 115 C 12.0668 -1.77947 2.95684 0
M  V30 116 C 11.1798 -1.2715 4.12864 0
M  V30 117 C 10.3148 -2.4093 4.7342 0
M  V30 118 C 9.3538 -1.87165 5.82783 0
M  V30 119 N 8.4908 -2.94441 6.37377 0
M  V30 120 H 13.3308 -0.020124 2.97993 0
M  V30 121 H 10.8678 0.00183425 1.471 0
M  V30 122 H 12.8258 -2.47055 3.36184 0
M  V30 123 H 11.4558 -2.33522 2.22861 0
M  V30 124 H 10.5078 -0.473331 3.77444 0
M  V30 125 H 11.8198 -0.837751 4.91715 0
M  V30 126 H 10.9738 -3.18021 5.1667 0
M  V30 127 H 9.7128 -2.87623 3.93859 0
M  V30 128 H 8.7178 -1.08556 5.38976 0
M  V30 129 H 9.9428 -1.41401 6.64216 0
M  V30 130 H 7.8888 -3.40505 5.60707 0
M  V30 131 H 7.8058 -2.55501 7.11516 0
M  V30 132 H 9.0738 -3.71489 6.85285 0
M  V30 133 N 13.3029 -1.57598 0.00835791 0
M  V30 134 C 14.5309 -1.95214 -0.68549 0
M  V30 135 C 14.9459 -0.883706 -1.66841 0
M  V30 136 O 14.3029 0.136565 -1.81988 0
M  V30 137 C 14.3539 -3.32865 -1.41007 0
M  V30 138 O 14.0749 -4.35609 -0.466552 0
M  V30 139 C 15.5759 -3.84991 -2.19765 0
M  V30 140 H 12.7959 -0.643422 -0.190392 0
M  V30 141 H 15.3399 -2.04406 0.0619607 0
M  V30 142 H 13.4949 -3.24956 -2.10908 0
M  V30 143 H 13.9089 -5.15288 -0.978699 0
M  V30 144 H 15.3829 -4.8371 -2.65948 0
M  V30 145 H 15.8599 -3.18137 -3.02796 0
M  V30 146 H 16.4659 -3.96103 -1.54864 0
M  V30 147 N 14.781 0.264519 -1.55364 0
M  V30 148 C 16.029 0.993021 -1.76021 0
M  V30 149 C 16.35 1.86511 -0.569099 0
M  V30 150 O 15.62 1.91438 0.415735 0
M  V30 151 H 14.2 0.369639 -0.649135 0
M  V30 152 H 16.862 0.286707 -1.9278 0
M  V30 153 H 15.958 1.62502 -2.66457 0
M  V30 154 N 16.2591 1.48442 0.529413 0
M  V30 155 C 17.2221 1.62524 1.61612 0
M  V30 156 C 18.2221 0.498509 1.52877 0
M  V30 157 O 19.4121 0.76431 1.56537 0
M  V30 158 C 16.5441 1.59597 3.01233 0
M  V30 159 H 17.7371 2.59423 1.50465 0
M  V30 160 H 15.2901 1.37047 0.751514 0
M  V30 161 H 16.0251 0.641781 3.17886 0
M  V30 162 H 15.8101 2.41397 3.08982 0
M  V30 163 H 17.3001 1.72646 3.80241 0
M  V30 164 N 17.7372 -0.778329 1.37039 0
M  V30 165 C 18.6872 -1.88142 1.28789 0
M  V30 166 C 19.6712 -1.59923 0.177063 0
M  V30 167 O 20.8632 -1.72165 0.410873 0
M  V30 168 C 17.9922 -3.25518 1.09055 0
M  V30 169 C 17.0782 -3.5971 2.24654 0
M  V30 170 N 17.4692 -3.65131 3.50018 0
M  V30 171 C 15.7672 -3.89837 2.16663 0
M  V30 172 C 16.4682 -3.95882 4.26207 0
M  V30 173 N 15.4442 -4.11441 3.55271 0
M  V30 174 H 19.2462 -1.90575 2.23737 0
M  V30 175 H 16.7602 -0.974435 1.29917 0
M  V30 176 H 18.7572 -4.04423 1.0123 0
M  V30 177 H 17.4172 -3.24353 0.15018 0
M  V30 178 H 18.4282 -3.475 3.84011 0
M  V30 179 H 15.1052 -3.96533 1.30645 0
M  V30 180 H 16.4952 -4.06907 5.34674 0
M  V30 181 N 19.2153 -1.21501 -1.00376 0
M  V30 182 C 20.1253 -0.991447 -2.12621 0
M  V30 183 C 21.1413 0.0568446 -1.73907 0
M  V30 184 O 22.3173 -0.13348 -2.00957 0
M  V30 185 C 19.3823 -0.560312 -3.42142 0
M  V30 186 C 18.4433 -1.68096 -3.95022 0
M  V30 187 C 17.6763 -1.2703 -5.18362 0
M  V30 188 O 17.8993 -0.144438 -5.70217 0
M  V30 189 O 16.8333 -2.08269 -5.64719 0
M  V30 190 H 20.6593 -1.93158 -2.34358 0
M  V30 191 H 18.2443 -0.999999 -1.10997 0
M  V30 192 H 20.1263 -0.329724 -4.20108 0
M  V30 193 H 18.8013 0.351089 -3.2179 0
M  V30 194 H 17.7083 -1.96597 -3.18278 0
M  V30 195 H 19.0413 -2.56983 -4.19786 0
M  V30 196 N 20.6934 1.19889 -1.02296 0
M  V30 197 C 21.9214 1.9339 -0.735399 0
M  V30 198 C 22.3364 1.75148 0.704887 0
M  V30 199 O 21.6934 1.06954 1.47875 0
M  V30 200 C 21.7444 3.45313 -1.06962 0
M  V30 201 O 21.4654 3.62964 -2.45334 0
M  V30 202 C 22.9664 4.35948 -0.804021 0
M  V30 203 H 20.1864 0.61448 -0.269546 0
M  V30 204 H 22.7304 1.522 -1.36585 0
M  V30 205 H 20.8854 3.84359 -0.484455 0
M  V30 206 H 21.2994 4.56886 -2.57595 0
M  V30 207 H 22.7734 5.41174 -1.0879 0
M  V30 208 H 23.2504 4.3842 0.261691 0
M  V30 209 H 23.8564 4.02574 -1.37164 0
M  V30 210 N 22.1715 0.800033 1.35784 0
M  V30 211 C 23.4195 0.376597 1.9856 0
M  V30 212 C 23.7405 -1.05812 1.63795 0
M  V30 213 O 23.0105 -1.73103 0.917171 0
M  V30 214 H 21.5905 0.136261 0.734467 0
M  V30 215 H 24.2525 1.02442 1.65806 0
M  V30 216 H 23.3485 0.477002 3.08433 0
M  V30 217 N 23.6496 -1.47581 0.552962 0
M  V30 218 C 24.5796 -2.32762 -0.185451 0
M  V30 219 C 25.5606 -1.43527 -0.912905 0
M  V30 220 O 26.7456 -1.72388 -0.894201 0
M  V30 221 C 23.8756 -3.25219 -1.21859 0
M  V30 222 C 22.8296 -4.23661 -0.607864 0
M  V30 223 C 22.1556 -5.05413 -1.74533 0
M  V30 224 C 23.4556 -5.20481 0.435582 0
M  V30 225 H 25.1496 -2.94749 0.525684 0
M  V30 226 H 22.6956 -1.41738 0.254251 0
M  V30 227 H 24.6486 -3.8365 -1.7433 0
M  V30 228 H 23.3726 -2.61279 -1.95961 0
M  V30 229 H 22.0316 -3.66451 -0.104489 0
M  V30 230 H 21.6796 -4.3788 -2.47529 0
M  V30 231 H 21.3796 -5.72059 -1.34249 0
M  V30 232 H 22.9036 -5.66701 -2.27338 0
M  V30 233 H 24.3176 -5.733 -0.00290157 0
M  V30 234 H 22.7146 -5.95305 0.757067 0
M  V30 235 H 23.7846 -4.66217 1.33303 0
M  V30 236 N 25.1277 -0.289203 -1.54924 0
M  V30 237 C 26.0757 0.607966 -2.24514 0
M  V30 238 C 27.0697 1.14655 -1.24702 0
M  V30 239 O 28.2757 1.09856 -1.4259 0
M  V30 240 H 24.6507 0.21464 -0.720718 0
M  V30 241 H 26.6217 -0.00164182 -2.984 0
M  V30 242 C 25.3707 1.77406 -2.99036 0
M  V30 243 H 24.6937 1.36884 -3.75637 0
M  V30 244 H 26.1337 2.37814 -3.51028 0
M  V30 245 C 24.5927 2.67107 -2.05318 0
M  V30 246 O 25.1227 3.6787 -1.61353 0
M  V30 247 N 23.3287 2.34582 -1.71521 0
M  V30 248 H 22.8757 1.52688 -2.07471 0
M  V30 249 H 22.8337 2.94867 -1.0909 0
M  V30 250 N 26.6058 1.57591 -0.0167156 0
M  V30 251 C 27.5688 2.08393 0.954204 0
M  V30 252 C 28.5688 0.996531 1.26198 0
M  V30 253 O 29.7588 1.25858 1.20438 0
M  V30 254 C 26.8908 2.5394 2.27436 0
M  V30 255 H 28.0838 2.95455 0.514451 0
M  V30 256 H 25.6368 1.54582 0.231089 0
M  V30 257 H 26.3718 1.70171 2.76066 0
M  V30 258 H 26.1568 3.33371 2.06412 0
M  V30 259 H 27.6468 2.93512 2.97053 0
M  V30 260 N 28.0839 -0.256276 1.55502 0
M  V30 261 C 29.3089 -1.00766 1.81276 0
M  V30 262 C 29.7339 -1.78524 0.59252 0
M  V30 263 O 29.0919 -1.75413 -0.45827 0
M  V30 264 C 29.1399 -1.92869 3.04687 0
M  V30 265 O 28.2439 -3.019 2.80945 0
M  V30 266 H 27.5849 -0.287224 0.598664 0
M  V30 267 H 30.1149 -0.280109 2.02674 0
M  V30 268 H 30.1249 -2.34511 3.33869 0
M  V30 269 H 28.7999 -1.35689 3.93143 0
M  V30 270 H 27.3769 -2.64454 2.62904 0
M  V30 271 N 29.562 -1.4872 -0.521534 0
M  V30 272 C 30.81 -1.56857 -1.27437 0
M  V30 273 C 31.131 -0.247982 -1.93417 0
M  V30 274 O 30.401 0.731151 -1.81744 0
M  V30 275 H 28.981 -0.577885 -0.473347 0
M  V30 276 H 31.643 -1.85233 -0.606205 0
M  V30 277 H 30.739 -2.35402 -2.0492 0
M  V30 278 N 31.0401 0.771051 -1.3745 0
M  V30 279 C 32.2651 1.56529 -1.36065 0
M  V30 280 C 32.6901 1.88029 0.0515859 0
M  V30 281 O 32.0481 1.49282 1.02882 0
M  V30 282 C 32.0961 2.85187 -2.20683 0
M  V30 283 O 31.2001 3.79593 -1.61193 0
M  V30 284 H 30.5411 0.47411 -0.464883 0
M  V30 285 H 33.0711 0.954269 -1.80983 0
M  V30 286 H 33.0811 3.34283 -2.33921 0
M  V30 287 H 31.7561 2.61588 -3.23334 0
M  V30 288 H 30.3331 3.38239 -1.56999 0
M  V30 289 N 32.5182 1.22032 0.997298 0
M  V30 290 C 33.7432 1.06921 1.77715 0
M  V30 291 C 34.1682 -0.376226 1.84299 0
M  V30 292 O 33.5262 -1.27165 1.29223 0
M  V30 293 C 33.5742 1.67996 3.19076 0
M  V30 294 O 32.6782 0.930653 4.01762 0
M  V30 295 H 32.0192 0.375814 0.547412 0
M  V30 296 H 34.5492 1.61737 1.25309 0
M  V30 297 H 34.5592 1.72538 3.69723 0
M  V30 298 H 33.2342 2.73182 3.13599 0
M  V30 299 H 31.8112 0.960917 3.60307 0
M  V30 300 N 33.9963 -1.19345 1.0293 0
M  V30 301 C 35.2453 -1.88363 0.721256 0
M  V30 302 C 35.5583 -1.80514 -0.753254 0
M  V30 303 O 36.7643 -2.44788 -1.17436 0
M  V30 304 C 35.2203 -3.37872 1.23978 0
M  V30 305 C 34.8283 -3.54278 2.74211 0
M  V30 306 C 36.5723 -4.12365 1.00775 0
M  V30 307 C 34.4793 -4.97682 3.19479 0
M  V30 308 H 33.4093 -0.705484 0.266098 0
M  V30 309 H 36.0603 -1.34928 1.24365 0
M  V30 310 H 34.4423 -3.90707 0.6453 0
M  V30 311 H 35.6163 -3.11769 3.39318 0
M  V30 312 H 33.9313 -2.93174 2.95699 0
M  V30 313 H 36.5283 -5.18119 1.32123 0
M  V30 314 H 36.8713 -4.16263 -0.0554308 0
M  V30 315 H 37.4043 -3.65668 1.56625 0
M  V30 316 H 34.1433 -4.98945 4.25128 0
M  V30 317 H 33.6633 -5.4095 2.591 0
M  V30 318 H 35.3423 -5.66337 3.12845 0
M  V30 319 N 35.4744 -0.807222 -1.35358 0
M  V30 320 C 36.7234 -0.384376 -1.98004 0
M  V30 321 C 37.0364 1.0543 -1.64754 0
M  V30 322 O 38.2424 1.58029 -2.20769 0
M  V30 323 C 36.6984 -0.636326 -3.5423 0
M  V30 324 C 36.3064 -2.08759 -3.96388 0
M  V30 325 C 38.0504 -0.278869 -4.23583 0
M  V30 326 C 35.9574 -2.28525 -5.45463 0
M  V30 327 H 34.8874 -0.139986 -0.740891 0
M  V30 328 H 37.5384 -0.991369 -1.54415 0
M  V30 329 H 35.9204 0.0406256 -3.95979 0
M  V30 330 H 37.0944 -2.8024 -3.6579 0
M  V30 331 H 35.4094 -2.40497 -3.39926 0
M  V30 332 H 38.0064 -0.404599 -5.33167 0
M  V30 333 H 38.3494 0.775012 -4.09022 0
M  V30 334 H 38.8824 -0.909764 -3.87257 0
M  V30 335 H 35.6214 -3.32361 -5.64992 0
M  V30 336 H 35.1414 -1.61569 -5.77629 0
M  V30 337 H 36.8204 -2.10109 -6.11934 0
M  V30 338 N 36.9525 1.47285 -0.560781 0
M  V30 339 C 37.9025 2.27073 0.205384 0
M  V30 340 C 38.8865 1.34569 0.882044 0
M  V30 341 O 40.0785 1.58899 0.77976 0
M  V30 342 C 37.2075 3.20414 1.23247 0
M  V30 343 C 36.2935 4.20399 0.559041 0
M  V30 344 N 36.6845 5.04423 -0.372927 0
M  V30 345 C 34.9825 4.38536 0.812522 0
M  V30 346 C 35.6835 5.76655 -0.764446 0
M  V30 347 N 34.6595 5.43471 -0.11848 0
M  V30 348 H 38.4615 2.89422 -0.511117 0
M  V30 349 H 35.9755 1.57868 -0.380975 0
M  V30 350 H 37.9725 3.76262 1.79534 0
M  V30 351 H 36.6325 2.59623 1.95002 0
M  V30 352 H 37.6435 5.1248 -0.747287 0
M  V30 353 H 34.3205 3.88913 1.51832 0
M  V30 354 H 35.7105 6.54238 -1.53045 0
M  V30 355 N 38.4306 0.297415 1.54768 0
M  V30 356 C 39.6606 -0.315165 2.04182 0
M  V30 357 C 40.0686 -1.4834 1.17439 0
M  V30 358 O 39.4116 -1.82695 0.191891 0
M  V30 359 C 39.4736 -0.837583 3.49607 0
M  V30 360 C 39.1376 0.204912 4.5654 0
M  V30 361 C 40.1346 1.03214 5.09552 0
M  V30 362 C 37.8196 0.345578 5.0111 0
M  V30 363 C 39.8136 1.986 6.05671 0
M  V30 364 C 37.5006 1.30289 5.97049 0
M  V30 365 C 38.4986 2.12159 6.49213 0
M  V30 366 O 38.1866 3.06268 7.43273 0
M  V30 367 H 37.9186 -0.0729646 0.672051 0
M  V30 368 H 40.4726 0.433907 2.00765 0
M  V30 369 H 38.7026 -1.63712 3.50336 0
M  V30 370 H 40.3916 -1.36566 3.82236 0
M  V30 371 H 41.1576 0.934312 4.75916 0
M  V30 372 H 37.0366 -0.28171 4.60138 0
M  V30 373 H 40.5806 2.62542 6.46311 0
M  V30 374 H 36.4776 1.40145 6.30103 0
M  V30 375 H 37.2456 3.01205 7.61064 0
M  V30 376 N 39.9087 -1.5758 0.0250728 0
M  V30 377 C 41.1367 -1.9593 -0.664747 0
M  V30 378 C 41.5517 -0.901352 -1.65895 0
M  V30 379 O 40.9087 0.117255 -1.82123 0
M  V30 380 C 40.9597 -3.34342 -1.37468 0
M  V30 381 O 40.6807 -4.36079 -0.420324 0
M  V30 382 C 42.1817 -3.873 -2.1567 0
M  V30 383 H 39.4017 -0.645405 -0.183557 0
M  V30 384 H 41.9457 -2.04329 0.0836372 0
M  V30 385 H 40.1007 -3.27175 -2.0745 0
M  V30 386 H 40.5147 -5.16297 -0.923991 0
M  V30 387 H 41.9887 -4.86504 -2.60803 0
M  V30 388 H 42.4657 -3.21331 -2.99405 0
M  V30 389 H 43.0717 -3.97723 -1.50654 0
M  V30 390 N 41.3868 0.248026 -1.55636 0
M  V30 391 C 42.3348 1.32683 -1.91045 0
M  V30 392 C 43.3288 1.49883 -0.789401 0
M  V30 393 O 44.5348 1.51371 -0.974007 0
M  V30 394 H 40.9098 0.444272 -0.606734 0
M  V30 395 H 42.8808 1.00085 -2.81115 0
M  V30 396 C 41.6298 2.6755 -2.22064 0
M  V30 397 H 40.9528 2.55114 -3.07826 0
M  V30 398 H 42.3928 3.41912 -2.50743 0
M  V30 399 C 40.8518 3.20556 -1.0366 0
M  V30 400 O 41.3818 4.00695 -0.284016 0
M  V30 401 N 39.5878 2.78568 -0.82753 0
M  V30 402 H 39.1348 2.1351 -1.44123 0
M  V30 403 H 39.0928 3.14378 -0.0369803 0
M  V30 404 N 42.8649 1.48995 0.513639 0
M  V30 405 C 44.1139 1.57093 1.2651 0
M  V30 406 C 44.4269 0.257091 1.93903 0
M  V30 407 O 45.6329 0.216478 2.70636 0
M  V30 408 C 44.0889 2.77118 2.29638 0
M  V30 409 C 43.6969 4.15209 1.68241 0
M  V30 410 C 45.4409 2.94538 3.05692 0
M  V30 411 C 43.3479 5.26474 2.69406 0
M  V30 412 H 42.2779 0.584876 0.475854 0
M  V30 413 H 44.9289 1.7536 0.540487 0
M  V30 414 H 43.3109 2.52319 3.05207 0
M  V30 415 H 44.4849 4.50094 0.987505 0
M  V30 416 H 42.7999 4.03042 1.04623 0
M  V30 417 H 45.3969 3.74832 3.8132 0
M  V30 418 H 45.7399 2.04614 3.62545 0
M  V30 419 H 46.2729 3.19316 2.37238 0
M  V30 420 H 43.0119 6.18417 2.17351 0
M  V30 421 H 42.5319 4.96058 3.37175 0
M  V30 422 H 44.2109 5.55277 3.32078 0
M  V30 423 N 44.343 -0.763751 1.37857 0
M  V30 424 C 45.291 -1.89864 1.34367 0
M  V30 425 C 46.285 -1.67816 0.231143 0
M  V30 426 O 47.491 -1.75508 0.399617 0
M  V30 427 H 43.866 -0.624501 0.41893 0
M  V30 428 H 45.837 -1.89925 2.30155 0
M  V30 429 C 44.586 -3.27227 1.1755 0
M  V30 430 H 43.909 -3.44773 2.02414 0
M  V30 431 H 45.349 -4.06911 1.1916 0
M  V30 432 C 43.808 -3.36692 -0.118311 0
M  V30 433 O 44.338 -3.86374 -1.09902 0
M  V30 434 N 42.544 -2.90092 -0.171717 0
M  V30 435 H 42.091 -2.49853 0.627012 0
M  V30 436 H 42.049 -2.96806 -1.03699 0
M  V30 437 N 45.8211 -1.22559 -0.990812 0
M  V30 438 C 47.0511 -1.07623 -1.76355 0
M  V30 439 C 47.4591 0.37601 -1.85426 0
M  V30 440 O 46.8021 1.27228 -1.32509 0
M  V30 441 C 46.8641 -1.61507 -3.21179 0
M  V30 442 C 46.5281 -3.10146 -3.35646 0
M  V30 443 C 47.5251 -4.07553 -3.22796 0
M  V30 444 C 45.2101 -3.49644 -3.60631 0
M  V30 445 C 47.2041 -5.42442 -3.34716 0
M  V30 446 C 44.8911 -4.84682 -3.72192 0
M  V30 447 C 45.8891 -5.8089 -3.59243 0
M  V30 448 O 45.5771 -7.13476 -3.70415 0
M  V30 449 H 45.3091 -0.377745 -0.560611 0
M  V30 450 H 47.8631 -1.62658 -1.25425 0
M  V30 451 H 46.0931 -1.00881 -3.73309 0
M  V30 452 H 47.7821 -1.42202 -3.80175 0
M  V30 453 H 48.5481 -3.78381 -3.03403 0
M  V30 454 H 44.4271 -2.75282 -3.69785 0
M  V30 455 H 47.9711 -6.17518 -3.24526 0
M  V30 456 H 43.8681 -5.13534 -3.91092 0
M  V30 457 H 44.6361 -7.21083 -3.87275 0
M  V30 458 N 47.2992 1.18797 -1.03562 0
M  V30 459 C 48.5292 1.92319 -0.754773 0
M  V30 460 C 48.9372 1.7612 0.691248 0
M  V30 461 O 48.2802 1.08491 1.48241 0
M  V30 462 C 48.3422 3.44284 -1.03484 0
M  V30 463 C 48.0062 3.84258 -2.47376 0
M  V30 464 C 49.0032 3.88459 -3.45537 0
M  V30 465 C 46.6882 4.15701 -2.81954 0
M  V30 466 C 48.6822 4.23545 -4.76328 0
M  V30 467 C 46.3692 4.50458 -4.12954 0
M  V30 468 C 47.3672 4.54356 -5.09951 0
M  V30 469 O 47.0552 4.88305 -6.38603 0
M  V30 470 H 46.7872 0.617527 -0.275021 0
M  V30 471 H 49.3412 1.51683 -1.38497 0
M  V30 472 H 47.5712 3.85135 -0.347513 0
M  V30 473 H 49.2602 3.99049 -0.7426 0
M  V30 474 H 50.0262 3.6431 -3.20162 0
M  V30 475 H 45.9052 4.11847 -2.0713 0
M  V30 476 H 49.4492 4.26502 -5.52035 0
M  V30 477 H 45.3462 4.74067 -4.38099 0
M  V30 478 H 46.1142 5.06227 -6.43177 0
M  V30 479 N 48.7773 0.814389 1.34928 0
M  V30 480 C 49.7243 0.22822 2.29669 0
M  V30 481 C 50.6943 -0.642164 1.53184 0
M  V30 482 O 51.8793 -0.585605 1.81591 0
M  V30 483 C 49.0193 -0.61089 3.3965 0
M  V30 484 C 48.1323 0.280792 4.31086 0
M  V30 485 C 47.2673 -0.567067 5.28165 0
M  V30 486 C 46.3063 0.324531 6.11239 0
M  V30 487 N 45.4433 -0.483756 7.00431 0
M  V30 488 H 50.2833 1.04153 2.79206 0
M  V30 489 H 47.8203 0.525133 1.37407 0
M  V30 490 H 49.7783 -1.11263 4.0209 0
M  V30 491 H 48.4083 -1.38939 2.91369 0
M  V30 492 H 47.4603 0.900688 3.69583 0
M  V30 493 H 48.7723 0.966723 4.89342 0
M  V30 494 H 47.9263 -1.13363 5.96015 0
M  V30 495 H 46.6653 -1.28654 4.70425 0
M  V30 496 H 45.6703 0.903298 5.42329 0
M  V30 497 H 46.8953 1.04198 6.71059 0
M  V30 498 H 44.8413 -1.18706 6.45171 0
M  V30 499 H 44.7583 0.143965 7.55863 0
M  V30 500 H 46.0263 -1.03334 7.7262 0
M  V30 501 N 50.2554 -1.46986 0.568584 0
M  V30 502 C 51.5324 -1.95592 -0.0174074 0
M  V30 503 C 51.9124 -1.51124 -1.47393 0
M  V30 504 O 51.2604 -0.755329 -2.15655 0
M  V30 505 C 51.4704 -3.48719 0.139913 0
M  V30 506 C 52.8184 -4.246 0.000426376 0
M  V30 507 O 53.8424 -3.56135 0.0680316 0
M  V30 508 O 52.7014 -5.46302 -0.146988 0
M  V30 509 H 49.7954 -0.82498 -0.0577599 0
M  V30 510 H 52.3414 -1.57335 0.635909 0
M  V30 511 H 51.1134 -3.73927 1.15301 0
M  V30 512 H 50.7364 -3.93771 -0.550491 0
M  V30 513 N 51.7335 -0.305618 -1.54608 0
M  V30 514 C 52.6965 0.555591 -2.22364 0
M  V30 515 C 53.6965 1.05768 -1.21119 0
M  V30 516 O 54.8865 0.952972 -1.45822 0
M  V30 517 C 52.0185 1.76974 -2.91364 0
M  V30 518 H 53.2115 -0.0364572 -2.99878 0
M  V30 519 H 50.7645 -0.0565007 -1.56198 0
M  V30 520 H 51.4995 2.40151 -2.17941 0
M  V30 521 H 51.2845 1.41732 -3.65588 0
M  V30 522 H 52.7745 2.38148 -3.43038 0
M  V30 523 N 53.2116 1.57565 -0.0334293 0
M  V30 524 C 54.1746 2.09393 0.932048 0
M  V30 525 C 55.1746 1.00986 1.25134 0
M  V30 526 O 56.3646 1.27129 1.19096 0
M  V30 527 C 53.4966 2.56338 2.2473 0
M  V30 528 H 54.6896 2.95984 0.483085 0
M  V30 529 H 52.2426 1.54819 0.21468 0
M  V30 530 H 52.9776 1.7309 2.74245 0
M  V30 531 H 52.7626 3.35542 2.02865 0
M  V30 532 H 54.2526 2.96646 2.93923 0
M  V30 533 N 54.6897 -0.239769 1.55765 0
M  V30 534 C 55.9147 -0.988373 1.82335 0
M  V30 535 C 56.3397 -1.77886 0.611421 0
M  V30 536 O 55.6977 -1.75889 -0.439639 0
M  V30 537 C 55.7457 -1.89627 3.06715 0
M  V30 538 O 54.8497 -2.98904 2.84131 0
M  V30 539 H 54.1907 -0.280858 0.601677 0
M  V30 540 H 56.7207 -0.258597 2.02959 0
M  V30 541 H 56.7307 -2.30957 3.36338 0
M  V30 542 H 55.4057 -1.31511 3.9456 0
M  V30 543 H 53.9827 -2.61651 2.65694 0
M  V30 544 N 56.1678 -1.49265 -0.50573 0
M  V30 545 C 57.1158 -1.66065 -1.62866 0
M  V30 546 C 58.1098 -0.526636 -1.61006 0
M  V30 547 O 59.3158 -0.706126 -1.65571 0
M  V30 548 H 55.6908 -0.52356 -0.539805 0
M  V30 549 H 57.6618 -2.60329 -1.45848 0
M  V30 550 C 56.4108 -1.74008 -3.01026 0
M  V30 551 H 55.7338 -2.6064 -3.03161 0
M  V30 552 H 57.1738 -1.89798 -3.79147 0
M  V30 553 C 55.6328 -0.483868 -3.33407 0
M  V30 554 O 56.1628 0.392548 -3.99777 0
M  V30 555 N 54.3688 -0.348236 -2.88506 0
M  V30 556 H 53.9158 -1.06242 -2.34671 0
M  V30 557 H 53.8738 0.491204 -3.10539 0
M  V30 558 N 57.6459 0.756429 -1.3826 0
M  V30 559 C 58.8709 1.55077 -1.37717 0
M  V30 560 C 59.2959 1.88073 0.03164 0
M  V30 561 O 58.6539 1.50364 1.01293 0
M  V30 562 C 58.7019 2.8283 -2.23695 0
M  V30 563 O 57.8059 3.77862 -1.6521 0
M  V30 564 H 57.1469 0.469152 -0.469885 0
M  V30 565 H 59.6769 0.935019 -1.81985 0
M  V30 566 H 59.6869 3.31783 -2.37453 0
M  V30 567 H 58.3619 2.58144 -3.2609 0
M  V30 568 H 56.9389 3.36555 -1.60578 0
M  V30 569 N 59.124 1.23083 0.984299 0
M  V30 570 C 60.087 1.00979 2.05757 0
M  V30 571 C 61.087 -0.0269573 1.60777 0
M  V30 572 O 62.277 0.212403 1.729 0
M  V30 573 C 59.409 0.527072 3.36801 0
M  V30 574 H 60.602 1.9622 2.26799 0
M  V30 575 H 58.155 1.05072 1.15714 0
M  V30 576 H 58.89 -0.429294 3.21446 0
M  V30 577 H 58.675 1.27515 3.70786 0
M  V30 578 H 60.165 0.392942 4.15747 0
M  V30 579 N 60.6021 -1.18246 1.0419 0
M  V30 580 C 61.5501 -2.23968 0.627792 0
M  V30 581 C 62.5441 -1.65828 -0.346019 0
M  V30 582 O 63.7501 -1.78733 -0.213175 0
M  V30 583 H 60.1251 -0.728939 0.184802 0
M  V30 584 H 62.0961 -2.56202 1.52981 0
M  V30 585 C 60.8451 -3.47699 0.00796591 0
M  V30 586 H 60.1681 -3.92734 0.748347 0
M  V30 587 H 61.6081 -4.23294 -0.24455 0
M  V30 588 C 60.0671 -3.13153 -1.24246 0
M  V30 589 O 60.5971 -3.27003 -2.33307 0
M  V30 590 N 58.8031 -2.67467 -1.13622 0
M  V30 591 H 58.3501 -2.56396 -0.248734 0
M  V30 592 H 58.3081 -2.44724 -1.97377 0
M  V30 593 N 62.0802 -0.821533 -1.34494 0
M  V30 594 C 63.4962 -0.507117 -1.51329 0
M  V30 595 C 63.6962 0.968964 -1.76673 0
M  V30 596 O 62.7522 1.75348 -1.81685 0
M  V30 597 C 64.0652 -1.36544 -2.67911 0
M  V30 598 C 65.6132 -1.36242 -2.81793 0
M  V30 599 C 66.0882 -2.2052 -4.01416 0
M  V30 600 N 67.5792 -2.18136 -4.08621 0
M  V30 601 C 68.3142 -2.80095 -5.00334 0
M  V30 602 N 67.8102 -3.51039 -5.9728 0
M  V30 603 N 69.6032 -2.69656 -4.93196 0
M  V30 604 H 61.7542 -1.77729 -1.16302 0
M  V30 605 H 64.0172 -0.757291 -0.570276 0
M  V30 606 H 63.7232 -2.41361 -2.55808 0
M  V30 607 H 63.5972 -1.02917 -3.62888 0
M  V30 608 H 65.9842 -0.322041 -2.93338 0
M  V30 609 H 66.0652 -1.73866 -1.87628 0
M  V30 610 H 65.7092 -3.24607 -3.90631 0
M  V30 611 H 65.6392 -1.80247 -4.94791 0
M  V30 612 H 68.1302 -1.6653 -3.39229 0
M  V30 613 H 68.4432 -3.95565 -6.63889 0
M  V30 614 H 66.7882 -3.55145 -5.97409 0
M  V30 615 H 69.9792 -2.13808 -4.16418 0
M  V30 616 H 70.1522 -3.1823 -5.64476 0
M  V30 617 N 63.5583 1.46682 -0.576371 0
M  V30 618 C 64.4903 2.28341 0.198231 0
M  V30 619 C 65.5033 1.38141 0.861453 0
M  V30 620 O 66.6923 1.62797 0.732082 0
M  V30 621 C 63.7923 3.12986 1.29972 0
M  V30 622 C 62.9653 4.31271 0.729639 0
M  V30 623 C 62.0243 4.97363 1.71803 0
M  V30 624 O 61.0503 5.55156 1.25658 0
M  V30 625 N 62.2523 4.93796 3.05198 0
M  V30 626 H 65.0173 2.9546 -0.502324 0
M  V30 627 H 62.5783 1.56525 -0.413715 0
M  V30 628 H 64.5703 3.54066 1.96008 0
M  V30 629 H 63.1403 2.47984 1.90323 0
M  V30 630 H 62.3603 3.94052 -0.108012 0
M  V30 631 H 63.6483 5.07739 0.328438 0
M  V30 632 H 63.0463 4.48077 3.45317 0
M  V30 633 H 61.6033 5.38837 3.6674 0
M  V30 634 N 65.0364 0.313813 1.54444 0
M  V30 635 C 65.9464 -0.565714 2.27677 0
M  V30 636 C 66.9624 -1.13754 1.31666 0
M  V30 637 O 68.1384 -1.15959 1.64668 0
M  V30 638 C 65.2034 -1.71528 3.01296 0
M  V30 639 C 64.2644 -1.17624 4.12872 0
M  V30 640 C 63.4974 -2.27102 4.8297 0
M  V30 641 O 63.7204 -3.47256 4.52514 0
M  V30 642 O 62.6544 -1.9307 5.70094 0
M  V30 643 H 66.4804 0.0287296 3.03686 0
M  V30 644 H 64.0654 0.0798312 1.49187 0
M  V30 645 H 65.9474 -2.38476 3.4743 0
M  V30 646 H 64.6224 -2.29608 2.2817 0
M  V30 647 H 63.5294 -0.472124 3.71109 0
M  V30 648 H 64.8624 -0.640695 4.88012 0
M  V30 649 N 66.5145 -1.57545 0.0417849 0
M  V30 650 C 67.7615 -1.92317 -0.634082 0
M  V30 651 C 68.0895 -0.919334 -1.71402 0
M  V30 652 O 67.3445 0.0698253 -1.95575 0
M  V30 653 C 67.6435 -3.33794 -1.27735 0
M  V30 654 C 67.3095 -4.49716 -0.326543 0
M  V30 655 C 65.9715 -4.81156 -0.0648814 0
M  V30 656 C 68.3235 -5.20182 0.325623 0
M  V30 657 C 65.6515 -5.80414 0.856539 0
M  V30 658 C 68.0035 -6.20424 1.23518 0
M  V30 659 C 66.6675 -6.50298 1.5056 0
M  V30 660 H 65.9375 -0.703736 -0.232027 0
M  V30 661 H 68.5845 -1.91205 0.106259 0
M  V30 662 H 66.8895 -3.31228 -2.09274 0
M  V30 663 H 68.5865 -3.57975 -1.80707 0
M  V30 664 H 65.1765 -4.25176 -0.540665 0
M  V30 665 H 69.3605 -4.96112 0.136546 0
M  V30 666 H 64.6165 -6.019 1.07363 0
M  V30 667 H 68.7905 -6.74141 1.74664 0
M  V30 668 H 66.4175 -7.27025 2.22123 0
M  V30 669 N 67.9926 0.231505 -1.5589 0
M  V30 670 C 69.2176 0.978689 -1.82856 0
M  V30 671 C 69.6426 1.77559 -0.620846 0
M  V30 672 O 69.0006 1.76119 0.430305 0
M  V30 673 C 69.0486 1.87997 -3.07716 0
M  V30 674 O 68.1526 2.97393 -2.85712 0
M  V30 675 H 67.4936 0.277663 -0.603158 0
M  V30 676 H 70.0236 0.24783 -2.03093 0
M  V30 677 H 70.0336 2.2917 -3.37558 0
M  V30 678 H 68.7086 1.29417 -3.95252 0
M  V30 679 H 67.2856 2.60238 -2.67078 0
M  V30 680 N 69.4707 1.49531 0.497807 0
M  V30 681 C 70.4027 1.62559 1.61578 0
M  V30 682 C 71.4157 0.508134 1.54667 0
M  V30 683 O 72.6047 0.780309 1.60541 0
M  V30 684 C 69.7047 1.56925 3.00379 0
M  V30 685 C 68.8777 2.84257 3.3244 0
M  V30 686 C 67.9367 2.71632 4.50669 0
M  V30 687 O 66.9627 3.4557 4.52294 0
M  V30 688 N 68.1647 1.83391 5.5077 0
M  V30 689 H 70.9297 2.58981 1.50828 0
M  V30 690 H 68.4907 1.4666 0.685743 0
M  V30 691 H 70.4827 1.46129 3.77397 0
M  V30 692 H 69.0527 0.683483 3.05037 0
M  V30 693 H 68.2727 3.09381 2.44289 0
M  V30 694 H 69.5607 3.68666 3.5066 0
M  V30 695 H 68.9587 1.22583 5.52259 0
M  V30 696 H 67.5157 1.78515 6.26878 0
M  V30 697 N 70.9488 -0.749086 1.3866 0
M  V30 698 C 72.2258 -1.4992 1.25632 0
M  V30 699 C 72.6058 -2.10633 -0.140317 0
M  V30 700 O 71.9538 -1.97437 -1.15025 0
M  V30 701 C 72.1638 -2.56195 2.36992 0
M  V30 702 C 73.5118 -3.22972 2.75634 0
M  V30 703 O 74.5358 -2.66502 2.36337 0
M  V30 704 O 73.3948 -4.25122 3.43415 0
M  V30 705 H 70.4888 -0.665067 0.491544 0
M  V30 706 H 73.0348 -0.784113 1.50498 0
M  V30 707 H 71.8068 -2.09612 3.30422 0
M  V30 708 H 71.4298 -3.35279 2.13714 0
M  V30 709 N 72.4269 -1.23603 -0.977757 0
M  V30 710 C 73.8379 -1.06424 -1.53398 0
M  V30 711 C 74.1889 0.367578 -1.92726 0
M  V30 712 O 73.3139 1.25465 -1.76316 0
M  V30 713 C 73.9089 -1.92568 -2.78753 0
M  V30 714 C 72.4679 -1.79642 -3.30765 0
M  V30 715 C 71.6149 -1.88111 -2.03739 0
M  V30 716 H 74.5659 -1.37227 -0.797152 0
M  V30 717 H 74.5869 -1.45203 -3.51705 0
M  V30 718 H 74.0989 -2.96771 -2.50098 0
M  V30 719 H 72.1999 -0.782325 -3.64294 0
M  V30 720 H 72.3129 -2.63174 -4.00345 0
M  V30 721 H 70.6769 -1.31723 -2.17994 0
M  V30 722 H 71.4599 -2.93875 -1.77461 0
M  V30 723 N 73.905 1.17692 -1.04816 0
M  V30 724 C 75.153 1.87488 -0.754497 0
M  V30 725 C 75.474 1.81205 0.720407 0
M  V30 726 O 74.744 1.23544 1.52032 0
M  V30 727 H 73.324 0.694101 -0.276102 0
M  V30 728 H 75.986 1.42793 -1.32651 0
M  V30 729 H 75.082 2.93328 -1.06606 0
M  V30 730 N 75.3831 0.828654 1.34056 0
M  V30 731 C 76.3301 0.252567 2.29414 0
M  V30 732 C 77.3001 -0.62588 1.53857 0
M  V30 733 O 78.4851 -0.566312 1.82202 0
M  V30 734 C 75.6251 -0.574831 3.40279 0
M  V30 735 C 74.7381 0.326499 4.30764 0
M  V30 736 C 73.8731 -0.511016 5.28736 0
M  V30 737 C 72.9121 0.389342 6.1086 0
M  V30 738 N 72.0491 -0.409439 7.00905 0
M  V30 739 H 76.8891 1.07108 2.78086 0
M  V30 740 H 74.4261 0.539677 1.36843 0
M  V30 741 H 76.3841 -1.06992 4.03248 0
M  V30 742 H 75.0141 -1.35841 2.92826 0
M  V30 743 H 74.0661 0.939837 3.68607 0
M  V30 744 H 75.3781 1.01857 4.88289 0
M  V30 745 H 74.5321 -1.07035 5.97184 0
M  V30 746 H 73.2711 -1.23657 4.71763 0
M  V30 747 H 72.2761 0.960769 5.4134 0
M  V30 748 H 73.5011 1.1131 6.69916 0
M  V30 749 H 71.4471 -1.11856 6.46393 0
M  V30 750 H 71.3641 0.224126 7.55668 0
M  V30 751 H 72.6321 -0.951336 7.73673 0
M  V30 752 N 76.8612 -1.46375 0.584142 0
M  V30 753 C 78.1082 -2.02378 0.0702675 0
M  V30 754 C 78.4362 -1.45545 -1.29023 0
M  V30 755 O 77.6912 -0.610967 -1.85918 0
M  V30 756 C 77.9902 -3.57373 -0.0439342 0
M  V30 757 C 77.6562 -4.33252 1.24915 0
M  V30 758 C 76.3182 -4.53701 1.60341 0
M  V30 759 C 78.6702 -4.7681 2.1048 0
M  V30 760 C 75.9982 -5.1496 2.81128 0
M  V30 761 C 78.3502 -5.39404 3.30494 0
M  V30 762 C 77.0142 -5.5808 3.66201 0
M  V30 763 H 76.2842 -0.740554 0.0257127 0
M  V30 764 H 78.9312 -1.75727 0.761065 0
M  V30 765 H 77.2362 -3.83169 -0.817869 0
M  V30 766 H 78.9332 -3.98384 -0.457318 0
M  V30 767 H 75.5232 -4.17633 0.963364 0
M  V30 768 H 79.7072 -4.60766 1.84414 0
M  V30 769 H 74.9632 -5.27611 3.08928 0
M  V30 770 H 79.1372 -5.72114 3.97063 0
M  V30 771 H 76.7642 -6.05318 4.59885 0
M  V30 772 N 78.3393 -0.321999 -1.54275 0
M  V30 773 C 79.5673 0.283052 -2.04955 0
M  V30 774 C 79.9823 1.45904 -1.19823 0
M  V30 775 O 79.3393 1.81063 -0.228545 0
M  V30 776 C 79.3903 0.719028 -3.54277 0
M  V30 777 O 79.1113 -0.410175 -4.36176 0
M  V30 778 C 80.6123 1.38705 -4.21041 0
M  V30 779 H 77.8323 0.0584616 -0.668448 0
M  V30 780 H 80.3763 -0.467734 -1.99079 0
M  V30 781 H 78.5313 1.41979 -3.60445 0
M  V30 782 H 78.9453 -0.0669416 -5.24457 0
M  V30 783 H 80.4193 1.64306 -5.2698 0
M  V30 784 H 80.8963 2.33385 -3.72059 0
M  V30 785 H 81.5023 0.728906 -4.19007 0
M  V30 786 N 79.8174 1.5752 -0.0501392 0
M  V30 787 C 80.7274 2.14952 0.939827 0
M  V30 788 C 81.7434 1.10706 1.34239 0
M  V30 789 O 82.9194 1.42869 1.41952 0
M  V30 790 C 79.9844 2.68232 2.19665 0
M  V30 791 C 79.0454 3.87272 1.85253 0
M  V30 792 C 78.2784 4.38002 3.04943 0
M  V30 793 O 78.5014 3.87811 4.18281 0
M  V30 794 O 77.4354 5.29602 2.86017 0
M  V30 795 H 81.2614 2.9986 0.481392 0
M  V30 796 H 78.8464 1.4841 0.171699 0
M  V30 797 H 80.7284 3.02475 2.93406 0
M  V30 798 H 79.4034 1.86395 2.64648 0
M  V30 799 H 78.3104 3.5792 1.0883 0
M  V30 800 H 79.6434 4.70336 1.4507 0
M  V30 801 N 81.2955 -0.223234 1.56011 0
M  V30 802 C 82.7065 -0.790368 1.69145 0
M  V30 803 C 83.0575 -1.85055 0.651845 0
M  V30 804 O 82.1825 -2.15498 -0.197359 0
M  V30 805 C 82.7775 -1.4404 3.06656 0
M  V30 806 C 81.3365 -1.95494 3.2165 0
M  V30 807 C 80.4835 -0.814506 2.65068 0
M  V30 808 H 83.4345 0.00139011 1.587 0
M  V30 809 H 83.4555 -2.30916 3.0242 0
M  V30 810 H 82.9675 -0.668543 3.82298 0
M  V30 811 H 81.0685 -2.75487 2.50874 0
M  V30 812 H 81.1815 -2.13607 4.28846 0
M  V30 813 H 79.5455 -1.22137 2.23505 0
M  V30 814 H 80.3285 -0.0553515 3.43255 0
M  V30 815 N 82.7736 -1.49793 -0.48987 0
M  V30 816 C 84.0196 -1.60078 -1.24511 0
M  V30 817 C 84.3526 -0.291608 -1.91998 0
M  V30 818 O 83.6276 0.705647 -1.81248 0
M  V30 819 C 83.9106 -2.76791 -2.30345 0
M  V30 820 C 83.7636 -4.17535 -1.67286 0
M  V30 821 C 85.0826 -2.89111 -3.31817 0
M  V30 822 H 82.2016 -0.582645 -0.451324 0
M  V30 823 H 84.8436 -1.82117 -0.541612 0
M  V30 824 H 82.9936 -2.5813 -2.90346 0
M  V30 825 H 84.6656 -4.4774 -1.11026 0
M  V30 826 H 82.9086 -4.22665 -0.976577 0
M  V30 827 H 83.5796 -4.95094 -2.44103 0
M  V30 828 H 86.0556 -3.06133 -2.81819 0
M  V30 829 H 84.9316 -3.72433 -4.03219 0
M  V30 830 H 85.1926 -1.9893 -3.94815 0
M  V30 831 N 84.2517 0.741722 -1.39055 0
M  V30 832 C 85.1987 1.85566 -1.37237 0
M  V30 833 C 86.1687 1.64457 -0.233072 0
M  V30 834 O 87.3537 1.85957 -0.427147 0
M  V30 835 C 84.4937 3.23004 -1.215 0
M  V30 836 C 83.6067 3.55864 -2.44918 0
M  V30 837 C 82.7417 4.82669 -2.21821 0
M  V30 838 C 81.7807 5.08351 -3.40948 0
M  V30 839 N 80.9177 6.26356 -3.17211 0
M  V30 840 H 85.7577 1.86455 -2.32462 0
M  V30 841 H 83.2947 0.911176 -1.15482 0
M  V30 842 H 85.2527 4.02331 -1.10389 0
M  V30 843 H 83.8827 3.21411 -0.29908 0
M  V30 844 H 82.9347 2.7129 -2.66657 0
M  V30 845 H 84.2467 3.70765 -3.33668 0
M  V30 846 H 83.4007 5.69962 -2.07914 0
M  V30 847 H 82.1397 4.69929 -1.30454 0
M  V30 848 H 81.1447 4.19522 -3.55361 0
M  V30 849 H 82.3697 5.22981 -4.33207 0
M  V30 850 H 80.3157 6.14917 -2.28502 0
M  V30 851 H 80.2327 6.41813 -3.99515 0
M  V30 852 H 81.5007 7.16506 -3.06984 0
M  V30 853 N 85.7298 1.2412 0.971189 0
M  V30 854 C 87.0068 0.986867 1.6888 0
M  V30 855 C 87.3868 -0.491857 2.0529 0
M  V30 856 O 86.7348 -1.46531 1.75331 0
M  V30 857 C 86.9448 1.9063 2.92338 0
M  V30 858 C 88.2928 2.17515 3.64654 0
M  V30 859 O 89.3168 1.88254 3.02388 0
M  V30 860 O 88.1758 2.6719 4.7673 0
M  V30 861 H 85.2698 0.372944 0.738134 0
M  V30 862 H 87.8158 1.35203 1.02559 0
M  V30 863 H 86.5878 2.90552 2.62097 0
M  V30 864 H 86.2108 1.54408 3.66393 0
M  V30 865 N 87.2079 -1.17134 1.05439 0
M  V30 866 C 88.4569 -1.86791 0.761049 0
M  V30 867 C 88.7699 -1.82072 -0.714795 0
M  V30 868 O 89.9759 -2.47223 -1.12218 0
M  V30 869 C 88.4319 -3.35166 1.31117 0
M  V30 870 C 88.0399 -3.48381 2.81664 0
M  V30 871 C 89.7839 -4.10134 1.09499 0
M  V30 872 C 87.6909 -4.90793 3.29964 0
M  V30 873 H 86.6209 -0.699681 0.281002 0
M  V30 874 H 89.2719 -1.3226 1.27199 0
M  V30 875 H 87.6539 -3.8925 0.72803 0
M  V30 876 H 88.8279 -3.04502 3.45855 0
M  V30 877 H 87.1429 -2.86836 3.01851 0
M  V30 878 H 89.7399 -5.152 1.43084 0
M  V30 879 H 90.0829 -4.16287 0.0328772 0
M  V30 880 H 90.6159 -3.62264 1.64346 0
M  V30 881 H 87.3549 -4.89816 4.35616 0
M  V30 882 H 86.8749 -5.35333 2.70516 0
M  V30 883 H 88.5539 -5.59573 3.24787 0
M  V30 884 N 88.686 -0.835752 -1.33615 0
M  V30 885 C 89.619 -0.211815 -2.27215 0
M  V30 886 C 90.597 0.639249 -1.49507 0
M  V30 887 O 91.781 0.600193 -1.78689 0
M  V30 888 C 88.908 0.702893 -3.31326 0
M  V30 889 C 87.954 -0.0723049 -4.26439 0
M  V30 890 S 88.787 -1.42811 -5.16106 0
M  V30 891 C 89.943 -0.518613 -6.23748 0
M  V30 892 H 90.176 -1.00533 -2.79786 0
M  V30 893 H 87.709 -0.632336 -1.40858 0
M  V30 894 H 89.667 1.22505 -3.91794 0
M  V30 895 H 88.328 1.47004 -2.77576 0
M  V30 896 H 87.521 0.62359 -5.00127 0
M  V30 897 H 87.123 -0.525424 -3.70291 0
M  V30 898 H 89.415 0.284778 -6.76901 0
M  V30 899 H 90.358 -1.22556 -6.97413 0
M  V30 900 H 90.766 -0.101344 -5.64409 0
M  V30 901 N 90.1641 1.46063 -0.591896 0
M  V30 902 C 91.4101 2.02638 -0.0811191 0
M  V30 903 C 91.7431 1.4613 1.27905 0
M  V30 904 O 91.0181 0.629908 1.84017 0
M  V30 905 C 91.3011 3.60091 -0.0252436 0
M  V30 906 C 91.1541 4.26965 -1.41496 0
M  V30 907 C 92.4731 4.3496 0.670685 0
M  V30 908 H 89.5921 0.73635 -0.0309524 0
M  V30 909 H 92.2341 1.741 -0.760859 0
M  V30 910 H 90.3841 3.84535 0.553624 0
M  V30 911 H 92.0561 4.13756 -2.0397 0
M  V30 912 H 90.2991 3.85971 -1.98011 0
M  V30 913 H 90.9701 5.35781 -1.32825 0
M  V30 914 H 93.4461 4.15716 0.178825 0
M  V30 915 H 92.3221 5.44686 0.678837 0
M  V30 916 H 92.5831 4.06685 1.73379 0
M  V30 917 N 91.6422 0.330177 1.54103 0
M  V30 918 C 92.5892 -0.532762 2.24567 0
M  V30 919 C 93.5592 -1.10635 1.23892 0
M  V30 920 O 94.7442 -1.14546 1.5259 0
M  V30 921 C 91.8842 -1.6845 3.01195 0
M  V30 922 C 90.9972 -1.13951 4.167 0
M  V30 923 C 90.1322 -2.25746 4.80845 0
M  V30 924 C 89.1712 -1.6853 5.88442 0
M  V30 925 N 88.3082 -2.74014 6.46421 0
M  V30 926 H 93.1482 0.0746905 2.97906 0
M  V30 927 H 90.6852 0.048632 1.4702 0
M  V30 928 H 92.6432 -2.36234 3.43874 0
M  V30 929 H 91.2732 -2.26314 2.30178 0
M  V30 930 H 90.3252 -0.35301 3.78758 0
M  V30 931 H 91.6372 -0.680892 4.94131 0
M  V30 932 H 90.7912 -3.01422 5.26526 0
M  V30 933 H 89.5302 -2.74947 4.0281 0
M  V30 934 H 88.5352 -0.913543 5.42157 0
M  V30 935 H 89.7602 -1.20198 6.68378 0
M  V30 936 H 87.7062 -3.22494 5.71256 0
M  V30 937 H 87.6232 -2.32735 7.19285 0
M  V30 938 H 88.8912 -3.49499 6.96757 0
M  V30 939 N 93.1203 -1.57491 0.0584922 0
M  V30 940 C 94.3453 -1.97711 -0.62652 0
M  V30 941 C 94.7703 -0.936132 -1.63151 0
M  V30 942 O 94.1283 0.099811 -1.81025 0
M  V30 943 C 94.1763 -3.36989 -1.28338 0
M  V30 944 O 93.2803 -3.35433 -2.39913 0
M  V30 945 H 92.6213 -0.643868 -0.162266 0
M  V30 946 H 95.1513 -2.04193 0.129064 0
M  V30 947 H 95.1613 -3.73879 -1.63335 0
M  V30 948 H 93.8363 -4.12289 -0.546889 0
M  V30 949 H 92.4133 -3.10298 -2.06809 0
M  V30 950 N 94.5984 0.214957 -1.56127 0
M  V30 951 C 95.5284 1.2695 -1.95974 0
M  V30 952 C 96.5094 1.48539 -0.828868 0
M  V30 953 O 97.6944 1.60611 -1.09168 0
M  V30 954 C 94.8244 2.61794 -2.28214 0
M  V30 955 C 93.7784 2.54851 -3.43853 0
M  V30 956 C 93.1044 3.93785 -3.61715 0
M  V30 957 C 94.4044 2.09065 -4.78632 0
M  V30 958 H 96.0984 0.93846 -2.84312 0
M  V30 959 H 93.6444 0.449996 -1.36788 0
M  V30 960 H 95.5974 3.35731 -2.54682 0
M  V30 961 H 94.3214 2.96599 -1.36736 0
M  V30 962 H 92.9804 1.8337 -3.17444 0
M  V30 963 H 92.6284 4.25908 -2.67602 0
M  V30 964 H 92.3284 3.90019 -4.39498 0
M  V30 965 H 93.8524 4.69374 -3.90539 0
M  V30 966 H 95.2664 2.7275 -5.04262 0
M  V30 967 H 93.6634 2.16346 -5.59745 0
M  V30 968 H 94.7334 1.04315 -4.73547 0
M  V30 969 N 96.0765 1.50051 0.48192 0
M  V30 970 C 97.4875 1.5348 1.06305 0
M  V30 971 C 97.8385 0.331997 1.93371 0
M  V30 972 O 96.9635 -0.556256 2.09129 0
M  V30 973 C 97.5585 2.7813 1.93466 0
M  V30 974 C 96.1175 2.84275 2.46707 0
M  V30 975 C 95.2645 2.47637 1.24785 0
M  V30 976 H 98.2155 1.56472 0.264995 0
M  V30 977 H 98.2365 2.59372 2.78399 0
M  V30 978 H 97.7485 3.65654 1.30072 0
M  V30 979 H 95.8495 2.01077 3.13686 0
M  V30 980 H 95.9625 3.8691 2.82555 0
M  V30 981 H 94.3265 1.99835 1.57918 0
M  V30 982 H 95.1095 3.37457 0.630694 0
M  V30 983 N 97.5546 -0.734337 1.39446 0
M  V30 984 C 98.5176 -1.83004 1.37994 0
M  V30 985 C 99.5176 -1.58397 0.276938 0
M  V30 986 O 100.708 -1.65785 0.534875 0
M  V30 987 C 97.8396 -3.20802 1.1532 0
M  V30 988 H 99.0326 -1.85694 2.35494 0
M  V30 989 H 96.5856 -0.938059 1.25021 0
M  V30 990 H 97.3206 -3.23772 0.185036 0
M  V30 991 H 97.1056 -3.4006 1.95197 0
M  V30 992 H 98.5956 -4.00862 1.17046 0
M  V30 993 N 99.0327 -1.24633 -0.964593 0
M  V30 994 C 99.9627 -1.06611 -2.07741 0
M  V30 995 C 100.944 0.0218666 -1.70086 0
M  V30 996 O 102.129 -0.145793 -1.93652 0
M  V30 997 C 99.2587 -0.673444 -3.40708 0
M  V30 998 C 98.2127 -1.71054 -3.92332 0
M  V30 999 C 97.5387 -1.17285 -5.21678 0
M  V30 1000 C 98.8387 -3.10718 -4.19824 0
M  V30 1001 H 100.533 -1.99693 -2.23076 0
M  V30 1002 H 98.0787 -0.96152 -1.07195 0
M  V30 1003 H 100.032 -0.534345 -4.17998 0
M  V30 1004 H 98.7557 0.293073 -3.25282 0
M  V30 1005 H 97.4147 -1.83791 -3.17201 0
M  V30 1006 H 97.0627 -0.196847 -5.02615 0
M  V30 1007 H 96.7627 -1.86592 -5.57187 0
M  V30 1008 H 98.2867 -1.04593 -6.01575 0
M  V30 1009 H 99.7007 -3.01192 -4.87808 0
M  V30 1010 H 98.0977 -3.77406 -4.66567 0
M  V30 1011 H 99.1677 -3.58524 -3.26479 0
M  V30 1012 N 100.511 1.16574 -1.06058 0
M  V30 1013 C 101.459 2.22941 -0.663343 0
M  V30 1014 C 102.453 1.66358 0.319593 0
M  V30 1015 O 103.659 1.7905 0.184713 0
M  V30 1016 H 100.034 0.725907 -0.196376 0
M  V30 1017 H 102.005 2.53736 -1.57037 0
M  V30 1018 C 100.754 3.47642 -0.0632808 0
M  V30 1019 H 100.077 3.91493 -0.810733 0
M  V30 1020 H 101.517 4.2363 0.177177 0
M  V30 1021 C 99.9758 3.1509 1.19248 0
M  V30 1022 O 100.506 3.30673 2.28075 0
M  V30 1023 N 98.7118 2.6924 1.09353 0
M  V30 1024 H 98.2588 2.5676 0.207912 0
M  V30 1025 H 98.2168 2.47833 1.93458 0
M  V30 1026 N 101.989 0.842826 1.3317 0
M  V30 1027 C 103.214 0.453129 2.02389 0
M  V30 1028 C 103.639 -0.939105 1.6298 0
M  V30 1029 O 102.997 -1.61472 0.8244 0
M  V30 1030 C 103.045 0.586094 3.55805 0
M  V30 1031 O 102.149 -0.386029 4.10589 0
M  V30 1032 H 101.49 0.183664 0.638094 0
M  V30 1033 H 104.02 1.13875 1.69981 0
M  V30 1034 H 104.03 0.469209 4.05293 0
M  V30 1035 H 102.705 1.6014 3.83833 0
M  V30 1036 H 101.282 -0.226371 3.72212 0
M  V30 1037 N 103.467 -1.45747 0.599634 0
M  V30 1038 C 104.878 -1.85853 0.177681 0
M  V30 1039 C 105.229 -1.50102 -1.26348 0
M  V30 1040 O 104.354 -0.923905 -1.95686 0
M  V30 1041 C 104.949 -3.37326 0.315688 0
M  V30 1042 C 103.508 -3.76365 -0.0515144 0
M  V30 1043 C 102.655 -2.69722 0.643822 0
M  V30 1044 H 105.606 -1.36661 0.806814 0
M  V30 1045 H 105.627 -3.77778 -0.454321 0
M  V30 1046 H 105.139 -3.63315 1.36468 0
M  V30 1047 H 103.24 -3.55993 -1.09999 0
M  V30 1048 H 103.353 -4.77916 0.336594 0
M  V30 1049 H 101.717 -2.54567 0.0822881 0
M  V30 1050 H 102.5 -2.98549 1.6948 0
M  V30 1051 N 104.945 -0.338344 -1.53925 0
M  V30 1052 C 106.17 0.263987 -2.05713 0
M  V30 1053 C 106.595 1.43847 -1.21201 0
M  V30 1054 O 105.953 1.79904 -0.224535 0
M  V30 1055 C 106.001 0.662 -3.54471 0
M  V30 1056 O 105.105 1.76265 -3.72833 0
M  V30 1057 H 104.446 0.0448722 -0.662482 0
M  V30 1058 H 106.976 -0.491048 -1.9862 0
M  V30 1059 H 106.986 0.940594 -3.9701 0
M  V30 1060 H 105.661 -0.196937 -4.15433 0
M  V30 1061 H 104.238 1.48173 -3.42198 0
M  V30 1062 N 106.423 1.57458 -0.0668435 0
M  V30 1063 C 107.386 2.11323 0.887422 0
M  V30 1064 C 108.386 1.03618 1.22964 0
M  V30 1065 O 109.576 1.29626 1.16373 0
M  V30 1066 C 106.708 2.61048 2.19242 0
M  V30 1067 H 107.901 2.96942 0.420194 0
M  V30 1068 H 105.454 1.55239 0.181793 0
M  V30 1069 H 106.189 1.78868 2.70512 0
M  V30 1070 H 105.974 3.39769 1.95702 0
M  V30 1071 H 107.464 3.02814 2.87565 0
M  V30 1072 N 107.901 -0.206675 1.56239 0
M  V30 1073 C 108.811 -1.27686 1.96808 0
M  V30 1074 C 109.827 -1.50455 0.874035 0
M  V30 1075 O 111.003 -1.63295 1.17884 0
M  V30 1076 C 108.068 -2.60358 2.28942 0
M  V30 1077 C 107.129 -2.45762 3.51994 0
M  V30 1078 C 106.362 -3.72108 3.82585 0
M  V30 1079 O 106.585 -4.75776 3.14631 0
M  V30 1080 O 105.519 -3.6833 4.76043 0
M  V30 1081 H 109.345 -0.962593 2.88041 0
M  V30 1082 H 106.93 -0.410746 1.43643 0
M  V30 1083 H 108.812 -3.38687 2.50737 0
M  V30 1084 H 107.487 -2.91435 1.4088 0
M  V30 1085 H 106.394 -1.65584 3.35459 0
M  V30 1086 H 107.727 -2.19621 4.40486 0
M  V30 1087 N 109.379 -1.50304 -0.473955 0
M  V30 1088 C 110.289 -1.7174 -1.5982 0
M  V30 1089 C 111.305 -0.600457 -1.63311 0
M  V30 1090 O 112.481 -0.878441 -1.81233 0
M  V30 1091 C 109.546 -1.80427 -2.96052 0
M  V30 1092 C 108.607 -3.04148 -3.02972 0
M  V30 1093 C 107.84 -3.12411 -4.32706 0
M  V30 1094 O 108.063 -2.27542 -5.23049 0
M  V30 1095 O 106.997 -4.05113 -4.45159 0
M  V30 1096 H 110.823 -2.67035 -1.44657 0
M  V30 1097 H 108.408 -1.34366 -0.653148 0
M  V30 1098 H 110.29 -1.88338 -3.7697 0
M  V30 1099 H 108.965 -0.883156 -3.11419 0
M  V30 1100 H 107.872 -3.0174 -2.21142 0
M  V30 1101 H 109.205 -3.95829 -2.92541 0
M  V30 1102 N 110.857 0.726932 -1.39834 0
M  V30 1103 C 112.097 1.4992 -1.38936 0
M  V30 1104 C 112.461 1.91996 0.0126883 0
M  V30 1105 O 113.662 2.68399 0.146715 0
M  V30 1106 C 111.933 2.70013 -2.34153 0
M  V30 1107 S 113.492 3.59563 -2.51515 0
M  V30 1108 H 110.31 0.51271 -0.492595 0
M  V30 1109 H 112.912 0.85107 -1.76003 0
M  V30 1110 H 111.616 2.37254 -3.34871 0
M  V30 1111 H 111.147 3.39748 -1.98331 0
M  V30 1112 H 113.162 4.63973 -1.75909 0
M  V30 1113 N 112.336 1.25143 0.95797 0
M  V30 1114 C 113.584 1.09476 1.69881 0
M  V30 1115 C 113.905 -0.365502 1.91544 0
M  V30 1116 O 113.175 -1.25985 1.50015 0
M  V30 1117 H 111.755 0.402128 0.629525 0
M  V30 1118 H 114.417 1.57214 1.15194 0
M  V30 1119 H 113.513 1.60046 2.6794 0
M  V30 1120 N 113.814 -1.1601 1.06675 0
M  V30 1121 C 115.044 -1.90251 0.805497 0
M  V30 1122 C 115.452 -1.77891 -0.64431 0
M  V30 1123 O 114.795 -1.12383 -1.45313 0
M  V30 1124 C 114.857 -3.41419 1.12576 0
M  V30 1125 C 114.521 -3.77564 2.57477 0
M  V30 1126 C 115.518 -3.79161 3.55715 0
M  V30 1127 C 113.203 -4.08079 2.92877 0
M  V30 1128 C 115.197 -4.10767 4.8739 0
M  V30 1129 C 112.884 -4.39351 4.24751 0
M  V30 1130 C 113.882 -4.40675 5.21818 0
M  V30 1131 O 113.57 -4.71202 6.51325 0
M  V30 1132 H 113.302 -0.610018 0.291297 0
M  V30 1133 H 115.856 -1.47958 1.4247 0
M  V30 1134 H 114.086 -3.84079 0.449503 0
M  V30 1135 H 115.775 -3.9694 0.84814 0
M  V30 1136 H 116.541 -3.55693 3.29708 0
M  V30 1137 H 112.42 -4.06211 2.17976 0
M  V30 1138 H 115.964 -4.11715 5.63148 0
M  V30 1139 H 111.861 -4.62285 4.50514 0
M  V30 1140 H 112.629 -4.88996 6.56373 0
M  V30 1141 N 115.292 -0.849877 -1.32721 0
M  V30 1142 C 116.517 -0.463856 -2.02146 0
M  V30 1143 C 116.942 0.930449 -1.63476 0
M  V30 1144 O 116.3 1.61033 -0.832952 0
M  V30 1145 C 116.348 -0.604955 -3.55489 0
M  V30 1146 O 115.452 0.36425 -4.10788 0
M  V30 1147 H 114.793 -0.187046 -0.637111 0
M  V30 1148 H 117.323 -1.14775 -1.69375 0
M  V30 1149 H 117.333 -0.490696 -4.05038 0
M  V30 1150 H 116.008 -1.62174 -3.82978 0
M  V30 1151 H 114.585 0.206628 -3.72327 0
M  V30 1152 N 116.77 1.45427 -0.607355 0
M  V30 1153 C 118.047 1.9557 -0.0344566 0
M  V30 1154 C 118.427 1.54979 1.43334 0
M  V30 1155 O 117.775 0.812241 2.13576 0
M  V30 1156 C 117.985 3.48226 -0.232321 0
M  V30 1157 C 119.333 4.2445 -0.113001 0
M  V30 1158 O 120.357 3.55829 -0.162431 0
M  V30 1159 O 119.216 5.465 0.00209442 0
M  V30 1160 H 116.31 0.826222 0.0358667 0
M  V30 1161 H 118.856 1.55594 -0.6774 0
M  V30 1162 H 117.628 3.70739 -1.25174 0
M  V30 1163 H 117.251 3.95092 0.445896 0
M  V30 1164 N 118.248 0.346503 1.53744 0
M  V30 1165 C 119.664 -0.00530975 1.59599 0
M  V30 1166 C 119.864 -1.48465 1.36236 0
M  V30 1167 O 118.92 -2.24376 1.15808 0
M  V30 1168 C 120.233 0.433516 2.97559 0
M  V30 1169 C 121.781 0.386111 3.10609 0
M  V30 1170 C 122.256 0.800451 4.50951 0
M  V30 1171 N 123.747 0.754753 4.5701 0
M  V30 1172 C 124.482 1.04727 5.63755 0
M  V30 1173 N 123.978 1.4081 6.7834 0
M  V30 1174 N 125.771 0.971316 5.53644 0
M  V30 1175 H 117.922 1.31009 1.67184 0
M  V30 1176 H 120.185 0.534242 0.783128 0
M  V30 1177 H 119.891 1.46509 3.19731 0
M  V30 1178 H 119.765 -0.189753 3.76722 0
M  V30 1179 H 122.152 -0.636295 2.88158 0
M  V30 1180 H 122.233 1.04462 2.33498 0
M  V30 1181 H 121.877 1.82088 4.74137 0
M  V30 1182 H 121.807 0.119386 5.26465 0
M  V30 1183 H 124.298 0.488662 3.74727 0
M  V30 1184 H 124.611 1.61607 7.55714 0
M  V30 1185 H 122.956 1.44657 6.79779 0
M  V30 1186 H 126.147 0.688748 4.63005 0
M  V30 1187 H 126.32 1.20263 6.36742 0
M  V30 1188 N 119.726 -1.57421 0.075193 0
M  V30 1189 C 120.972 -1.93905 -0.594025 0
M  V30 1190 C 121.305 -0.955701 -1.69056 0
M  V30 1191 O 120.58 0.0145373 -1.94495 0
M  V30 1192 C 120.863 -3.40638 -1.1678 0
M  V30 1193 C 120.716 -4.49733 -0.0776792 0
M  V30 1194 C 122.035 -3.88259 -2.07228 0
M  V30 1195 H 119.154 -0.705105 -0.214466 0
M  V30 1196 H 121.796 -1.8947 0.141854 0
M  V30 1197 H 119.946 -3.44549 -1.79494 0
M  V30 1198 H 121.618 -4.57942 0.555573 0
M  V30 1199 H 119.861 -4.29751 0.591286 0
M  V30 1200 H 120.532 -5.49549 -0.519603 0
M  V30 1201 H 123.008 -3.86376 -1.54445 0
M  V30 1202 H 121.884 -4.91533 -2.44308 0
M  V30 1203 H 122.145 -3.26396 -2.98191 0
M  V30 1204 N 121.204 0.198386 -1.56346 0
M  V30 1205 C 122.62 0.549085 -1.49857 0
M  V30 1206 C 122.82 1.86016 -0.774611 0
M  V30 1207 O 121.876 2.50416 -0.323776 0
M  V30 1208 C 123.189 0.606868 -2.94512 0
M  V30 1209 C 124.737 0.695925 -3.05165 0
M  V30 1210 C 125.212 0.784848 -4.51225 0
M  V30 1211 N 126.703 0.848463 -4.55363 0
M  V30 1212 C 127.438 0.937378 -5.65686 0
M  V30 1213 N 126.934 0.9888 -6.85707 0
M  V30 1214 N 128.727 0.974312 -5.53592 0
M  V30 1215 H 120.878 -0.661655 -2.01831 0
M  V30 1216 H 123.141 -0.235261 -0.918344 0
M  V30 1217 H 122.847 -0.28732 -3.50524 0
M  V30 1218 H 122.721 1.46268 -3.47686 0
M  V30 1219 H 125.108 1.58055 -2.49204 0
M  V30 1220 H 125.189 -0.186022 -2.55123 0
M  V30 1221 H 124.833 -0.0954072 -5.0781 0
M  V30 1222 H 124.763 1.68255 -4.98997 0
M  V30 1223 H 127.254 0.818103 -3.68938 0
M  V30 1224 H 127.567 1.05707 -7.65536 0
M  V30 1225 H 125.912 0.957534 -6.88372 0
M  V30 1226 H 129.103 0.930954 -4.58749 0
M  V30 1227 H 129.276 1.04015 -6.39597 0
M  V30 1228 N 122.682 1.50554 0.465978 0
M  V30 1229 C 123.907 1.65838 1.24549 0
M  V30 1230 C 124.332 0.343486 1.84937 0
M  V30 1231 O 123.69 -0.69324 1.67523 0
M  V30 1232 C 123.738 2.75533 2.32624 0
M  V30 1233 O 122.842 2.37142 3.37398 0
M  V30 1234 H 122.183 0.553893 0.366194 0
M  V30 1235 H 124.713 1.96959 0.553927 0
M  V30 1236 H 124.723 2.98763 2.77857 0
M  V30 1237 H 123.398 3.70962 1.88043 0
M  V30 1238 H 121.975 2.24377 2.97841 0
M  V30 1239 N 124.16 -0.719506 1.40217 0
M  V30 1240 C 125.409 -1.47486 1.37589 0
M  V30 1241 C 125.722 -1.9559 -0.0201568 0
M  V30 1242 O 126.928 -2.70973 -0.169049 0
M  V30 1243 C 125.384 -2.66575 2.41796 0
M  V30 1244 C 124.992 -2.25358 3.87192 0
M  V30 1245 C 126.736 -3.4433 2.48269 0
M  V30 1246 C 124.643 -3.41262 4.83005 0
M  V30 1247 H 123.573 -0.553901 0.511576 0
M  V30 1248 H 126.224 -0.783427 1.65936 0
M  V30 1249 H 124.606 -3.3787 2.06543 0
M  V30 1250 H 125.78 -1.61509 4.31569 0
M  V30 1251 H 124.095 -1.60657 3.84159 0
M  V30 1252 H 126.692 -4.30569 3.17041 0
M  V30 1253 H 127.035 -3.87872 1.51198 0
M  V30 1254 H 127.568 -2.80076 2.82493 0
M  V30 1255 H 124.307 -3.02755 5.81394 0
M  V30 1256 H 123.827 -4.0404 4.43297 0
M  V30 1257 H 125.506 -4.07383 5.02641 0
M  V30 1258 N 125.638 -1.25649 -0.95132 0
M  V30 1259 C 126.866 -1.13343 -1.73092 0
M  V30 1260 C 127.281 0.312434 -1.86197 0
M  V30 1261 O 126.638 1.21465 -1.36207 0
M  V30 1262 C 126.689 -1.78602 -3.14299 0
M  V30 1263 O 126.41 -3.17537 -3.01831 0
M  V30 1264 C 127.911 -1.72119 -4.08522 0
M  V30 1265 H 125.131 -0.395181 -0.542285 0
M  V30 1266 H 127.675 -1.66076 -1.19328 0
M  V30 1267 H 125.83 -1.29832 -3.64996 0
M  V30 1268 H 126.244 -3.49676 -3.90931 0
M  V30 1269 H 127.718 -2.22435 -5.052 0
M  V30 1270 H 128.195 -0.685635 -4.33815 0
M  V30 1271 H 128.801 -2.20393 -3.63741 0
M  V30 1272 N 127.117 1.15442 -1.07289 0
M  V30 1273 C 128.047 2.22312 -0.714107 0
M  V30 1274 C 129.028 1.67467 0.298155 0
M  V30 1275 O 130.213 1.93445 0.171048 0
M  V30 1276 C 127.343 3.47124 -0.110448 0
M  V30 1277 C 126.297 4.14926 -1.04979 0
M  V30 1278 C 125.623 5.33807 -0.308924 0
M  V30 1279 C 126.923 4.64762 -2.38314 0
M  V30 1280 H 128.617 2.5258 -1.6076 0
M  V30 1281 H 126.163 1.21404 -0.77441 0
M  V30 1282 H 128.116 4.21124 0.152482 0
M  V30 1283 H 126.84 3.16187 0.81812 0
M  V30 1284 H 125.499 3.42866 -1.29764 0
M  V30 1285 H 125.147 4.99126 0.623084 0
M  V30 1286 H 124.847 5.80113 -0.935036 0
M  V30 1287 H 126.371 6.10576 -0.0537771 0
M  V30 1288 H 127.785 5.30292 -2.1786 0
M  V30 1289 H 126.182 5.21728 -2.96514 0
M  V30 1290 H 127.252 3.80434 -3.00663 0
M  V30 1291 N 128.595 0.856903 1.32268 0
M  V30 1292 C 129.843 0.460474 1.96784 0
M  V30 1293 C 130.164 -0.987701 1.68135 0
M  V30 1294 O 129.434 -1.69058 0.989765 0
M  V30 1295 H 128.014 0.167289 0.728027 0
M  V30 1296 H 130.676 1.09383 1.61312 0
M  V30 1297 H 129.772 0.60739 3.06133 0
M  V30 1298 N 130.073 -1.45103 0.615059 0
M  V30 1299 C 131.021 -2.32331 -0.111791 0
M  V30 1300 C 132.015 -1.46409 -0.852102 0
M  V30 1301 O 133.221 -1.62849 -0.766821 0
M  V30 1302 H 129.596 -0.749993 -0.0549072 0
M  V30 1303 H 131.567 -2.91407 0.642225 0
M  V30 1304 C 130.316 -3.3015 -1.09071 0
M  V30 1305 H 129.639 -3.96265 -0.530485 0
M  V30 1306 H 131.079 -3.93898 -1.56908 0
M  V30 1307 C 129.538 -2.57875 -2.168 0
M  V30 1308 O 130.068 -2.36567 -3.24652 0
M  V30 1309 N 128.274 -2.17884 -1.92289 0
M  V30 1310 H 127.821 -2.35413 -1.04587 0
M  V30 1311 H 127.779 -1.6985 -2.64572 0
M  V30 1312 N 131.551 -0.354651 -1.53558 0
M  V30 1313 C 132.776 0.242153 -2.05981 0
M  V30 1314 C 133.201 1.42553 -1.2272 0
M  V30 1315 O 132.559 1.79656 -0.243604 0
M  V30 1316 C 132.607 0.624367 -3.55154 0
M  V30 1317 O 131.711 1.72301 -3.74681 0
M  V30 1318 H 131.052 0.0378432 -0.662921 0
M  V30 1319 H 133.582 -0.512087 -1.98088 0
M  V30 1320 H 133.592 0.898433 -3.97985 0
M  V30 1321 H 132.267 -0.240989 -4.15201 0
M  V30 1322 H 130.844 1.44535 -3.4375 0
M  V30 1323 N 133.029 1.57378 -0.0835403 0
M  V30 1324 C 134.257 1.98263 0.59157 0
M  V30 1325 C 134.672 0.962302 1.62435 0
M  V30 1326 O 134.029 -0.049581 1.82433 0
M  V30 1327 C 134.08 3.39214 1.24965 0
M  V30 1328 O 133.801 4.37339 0.258186 0
M  V30 1329 C 135.302 3.95038 2.01147 0
M  V30 1330 H 132.522 0.651773 0.159477 0
M  V30 1331 H 135.066 2.03878 -0.159415 0
M  V30 1332 H 133.221 3.34649 1.95164 0
M  V30 1333 H 133.635 5.19371 0.731734 0
M  V30 1334 H 135.109 4.95848 2.42567 0
M  V30 1335 H 135.586 3.32222 2.87272 0
M  V30 1336 H 136.192 4.0304 1.35789 0
M  V30 1337 N 134.507 -0.190092 1.56449 0
M  V30 1338 C 135.756 -0.907912 1.80111 0
M  V30 1339 C 136.069 -1.84214 0.657619 0
M  V30 1340 O 137.275 -2.60094 0.778663 0
M  V30 1341 C 135.731 -1.66485 3.19078 0
M  V30 1342 C 135.339 -0.7752 4.41242 0
M  V30 1343 C 137.083 -2.37201 3.52045 0
M  V30 1344 C 134.99 -1.53129 5.71231 0
M  V30 1345 H 133.92 -0.34276 0.671589 0
M  V30 1346 H 136.571 -0.161109 1.82791 0
M  V30 1347 H 134.953 -2.45572 3.10661 0
M  V30 1348 H 136.127 -0.0226298 4.60794 0
M  V30 1349 H 134.442 -0.178627 4.16017 0
M  V30 1350 H 137.039 -2.94329 4.46402 0
M  V30 1351 H 137.382 -3.11632 2.76028 0
M  V30 1352 H 137.915 -1.65075 3.61932 0
M  V30 1353 H 134.654 -0.82967 6.50228 0
M  V30 1354 H 134.174 -2.25767 5.55688 0
M  V30 1355 H 135.853 -2.08377 6.12526 0
M  V30 1356 N 135.985 -1.50799 -0.457987 0
M  V30 1357 C 137.213 -1.66218 -1.23203 0
M  V30 1358 C 137.628 -0.350894 -1.85511 0
M  V30 1359 O 136.985 0.668546 -1.69814 0
M  V30 1360 C 137.036 -2.76291 -2.33121 0
M  V30 1361 O 136.757 -4.02338 -1.73366 0
M  V30 1362 C 138.258 -3.028 -3.2377 0
M  V30 1363 H 135.478 -0.558361 -0.372121 0
M  V30 1364 H 138.022 -1.97099 -0.545179 0
M  V30 1365 H 136.177 -2.48068 -2.97558 0
M  V30 1366 H 136.591 -4.63312 -2.4585 0
M  V30 1367 H 138.065 -3.8345 -3.97077 0
M  V30 1368 H 138.542 -2.14385 -3.83322 0
M  V30 1369 H 139.148 -3.32604 -2.65056 0
M  V30 1370 N 137.463 0.71206 -1.40597 0
M  V30 1371 C 138.691 1.50111 -1.42388 0
M  V30 1372 C 139.106 1.88784 -0.0245395 0
M  V30 1373 O 138.463 1.55681 0.952351 0
M  V30 1374 C 138.514 2.7742 -2.31776 0
M  V30 1375 O 138.235 2.40382 -3.66262 0
M  V30 1376 C 139.736 3.7129 -2.42196 0
M  V30 1377 H 136.956 0.46314 -0.485533 0
M  V30 1378 H 139.5 0.878068 -1.8469 0
M  V30 1379 H 137.655 3.36001 -1.92827 0
M  V30 1380 H 138.069 3.22324 -4.13772 0
M  V30 1381 H 139.543 4.57448 -3.08943 0
M  V30 1382 H 140.02 4.14641 -1.44809 0
M  V30 1383 H 140.626 3.18619 -2.81712 0
M  V30 1384 N 138.941 1.26152 0.944643 0
M  V30 1385 C 139.873 1.03199 2.04652 0
M  V30 1386 C 140.886 -0.00642356 1.62799 0
M  V30 1387 O 142.075 0.233263 1.76969 0
M  V30 1388 C 139.175 0.540111 3.34568 0
M  V30 1389 C 138.348 1.64697 4.05208 0
M  V30 1390 C 137.407 1.15374 5.13396 0
M  V30 1391 O 136.433 1.85013 5.38293 0
M  V30 1392 N 137.635 0.00031529 5.805 0
M  V30 1393 H 140.4 1.9808 2.2491 0
M  V30 1394 H 137.961 1.17491 1.11389 0
M  V30 1395 H 139.953 0.194401 4.04233 0
M  V30 1396 H 138.523 -0.315021 3.11009 0
M  V30 1397 H 137.743 2.16379 3.29506 0
M  V30 1398 H 139.031 2.3903 4.49157 0
M  V30 1399 H 138.429 -0.581336 5.62705 0
M  V30 1400 H 136.986 -0.286346 6.51171 0
M  V30 1401 N 140.419 -1.14872 1.07899 0
M  V30 1402 C 141.329 -2.2341 0.715915 0
M  V30 1403 C 142.345 -1.71808 -0.275306 0
M  V30 1404 O 143.521 -2.01039 -0.120545 0
M  V30 1405 C 140.586 -3.46474 0.125168 0
M  V30 1406 C 139.647 -4.13039 1.17034 0
M  V30 1407 C 138.88 -5.30229 0.607688 0
M  V30 1408 O 139.103 -5.675 -0.574497 0
M  V30 1409 O 138.037 -5.86444 1.35526 0
M  V30 1410 H 141.863 -2.56808 1.62121 0
M  V30 1411 H 139.448 -1.22702 0.852322 0
M  V30 1412 H 141.33 -4.20917 -0.201729 0
M  V30 1413 H 140.005 -3.14811 -0.753364 0
M  V30 1414 H 138.912 -3.40493 1.54968 0
M  V30 1415 H 140.245 -4.48796 2.02097 0
M  V30 1416 N 141.898 -0.863906 -1.31812 0
M  V30 1417 C 143.123 -0.48527 -2.01643 0
M  V30 1418 C 143.548 0.913058 -1.64453 0
M  V30 1419 O 142.906 1.6014 -0.849985 0
M  V30 1420 C 142.954 -0.642625 -3.54828 0
M  V30 1421 O 142.058 0.320659 -4.11151 0
M  V30 1422 H 141.399 -0.193793 -0.635091 0
M  V30 1423 H 143.929 -1.16565 -1.68148 0
M  V30 1424 H 143.939 -0.533628 -4.04495 0
M  V30 1425 H 142.614 -1.66227 -3.81237 0
M  V30 1426 H 141.191 0.167126 -3.72525 0
M  V30 1427 N 143.376 1.44774 -0.622745 0
M  V30 1428 C 144.339 2.29069 0.0774015 0
M  V30 1429 C 145.339 1.4059 0.780461 0
M  V30 1430 O 146.529 1.62551 0.626322 0
M  V30 1431 C 143.661 3.21974 1.12006 0
M  V30 1432 H 144.854 2.92459 -0.663901 0
M  V30 1433 H 142.407 1.51548 -0.382486 0
M  V30 1434 H 143.142 2.63417 1.89162 0
M  V30 1435 H 142.927 3.87168 0.619951 0
M  V30 1436 H 144.417 3.85318 1.60995 0
M  V30 1437 N 144.854 0.36279 1.53368 0
M  V30 1438 C 145.802 -0.500155 2.27159 0
M  V30 1439 C 146.796 -1.08575 1.3003 0
M  V30 1440 O 148.002 -1.02927 1.47668 0
M  V30 1441 H 144.377 -0.180009 0.730138 0
M  V30 1442 H 146.348 0.14401 2.98052 0
M  V30 1443 C 145.097 -1.62937 3.07159 0
M  V30 1444 H 144.42 -1.18806 3.8174 0
M  V30 1445 H 145.86 -2.20795 3.61975 0
M  V30 1446 C 144.319 -2.57007 2.17829 0
M  V30 1447 O 144.849 -3.59752 1.78721 0
M  V30 1448 N 143.055 -2.26131 1.82518 0
M  V30 1449 H 142.602 -1.42616 2.14519 0
M  V30 1450 H 142.56 -2.89327 1.23034 0
M  V30 1451 N 146.332 -1.57332 0.0918853 0
M  V30 1452 C 147.578 -1.94524 -0.573425 0
M  V30 1453 C 147.911 -0.973578 -1.68033 0
M  V30 1454 O 147.186 -0.00609226 -1.94499 0
M  V30 1455 C 147.469 -3.41858 -1.13161 0
M  V30 1456 C 147.322 -4.4979 -0.0299747 0
M  V30 1457 C 148.641 -3.90435 -2.03098 0
M  V30 1458 H 145.76 -0.70734 -0.206975 0
M  V30 1459 H 148.402 -1.89309 0.161942 0
M  V30 1460 H 146.552 -3.46433 -1.7583 0
M  V30 1461 H 148.224 -4.57327 0.604112 0
M  V30 1462 H 146.467 -4.291 0.636833 0
M  V30 1463 H 147.138 -5.50069 -0.461287 0
M  V30 1464 H 149.614 -3.87992 -1.50338 0
M  V30 1465 H 148.49 -4.94097 -2.39081 0
M  V30 1466 H 148.751 -3.29541 -2.94712 0
M  V30 1467 N 147.81 0.181792 -1.56548 0
M  V30 1468 C 149.056 0.901431 -1.81665 0
M  V30 1469 C 149.389 1.82347 -0.668075 0
M  V30 1470 O 148.664 1.91669 0.330615 0
M  V30 1471 C 148.947 1.70618 -3.17115 0
M  V30 1472 C 148.8 0.807964 -4.42484 0
M  V30 1473 C 150.119 2.67605 -3.49393 0
M  V30 1474 H 147.238 0.32627 -0.660846 0
M  V30 1475 H 149.88 0.168134 -1.89255 0
M  V30 1476 H 148.03 2.33133 -3.10775 0
M  V30 1477 H 149.702 0.19649 -4.60881 0
M  V30 1478 H 147.945 0.115411 -4.33646 0
M  V30 1479 H 148.616 1.40632 -5.33785 0
M  V30 1480 H 151.092 2.15218 -3.56118 0
M  V30 1481 H 149.968 3.20985 -4.45264 0
M  V30 1482 H 150.229 3.47298 -2.73563 0
M  V30 1483 N 149.288 1.51039 0.449983 0
M  V30 1484 C 150.534 1.63322 1.20223 0
M  V30 1485 C 150.867 0.34241 1.91158 0
M  V30 1486 O 150.142 -0.657344 1.83055 0
M  V30 1487 C 150.425 2.82801 2.22925 0
M  V30 1488 C 150.278 4.21823 1.56157 0
M  V30 1489 C 151.597 2.97807 3.24035 0
M  V30 1490 H 148.716 0.594407 0.435718 0
M  V30 1491 H 151.358 1.83489 0.493136 0
M  V30 1492 H 149.508 2.65738 2.834 0
M  V30 1493 H 151.18 4.50526 0.991162 0
M  V30 1494 H 149.423 4.25105 0.864172 0
M  V30 1495 H 150.094 5.01391 2.30891 0
M  V30 1496 H 152.57 3.13497 2.73603 0
M  V30 1497 H 151.446 3.82992 3.93202 0
M  V30 1498 H 151.707 2.09328 3.89402 0
M  V30 1499 N 150.766 -0.704594 1.40972 0
M  V30 1500 C 152.014 -1.46169 1.39568 0
M  V30 1501 C 152.335 -1.95 0.00253745 0
M  V30 1502 O 151.605 -1.71095 -0.954114 0
M  V30 1503 H 150.185 -0.542326 0.513704 0
M  V30 1504 H 152.847 -0.834553 1.76128 0
M  V30 1505 H 151.943 -2.32922 2.07735 0
M  V30 1506 N 152.244 -1.26651 -0.937939 0
M  V30 1507 C 153.474 -1.15006 -1.71631 0
M  V30 1508 C 153.882 0.297026 -1.86854 0
M  V30 1509 O 153.225 1.21493 -1.37786 0
M  V30 1510 C 153.287 -1.74984 -3.14039 0
M  V30 1511 C 152.951 -3.24103 -3.2219 0
M  V30 1512 C 153.948 -4.20877 -3.05219 0
M  V30 1513 C 151.633 -3.64625 -3.45476 0
M  V30 1514 C 153.627 -5.56151 -3.11408 0
M  V30 1515 C 151.314 -5.00032 -3.513 0
M  V30 1516 C 152.312 -5.95604 -3.34282 0
M  V30 1517 O 152 -7.28545 -3.3982 0
M  V30 1518 H 151.732 -0.401183 -0.544085 0
M  V30 1519 H 154.286 -1.67832 -1.18413 0
M  V30 1520 H 152.516 -1.16624 -3.68695 0
M  V30 1521 H 154.205 -1.58199 -3.73802 0
M  V30 1522 H 154.971 -3.90908 -2.87081 0
M  V30 1523 H 150.85 -2.90718 -3.57777 0
M  V30 1524 H 154.394 -6.30727 -2.98043 0
M  V30 1525 H 150.291 -5.29659 -3.68959 0
M  V30 1526 H 151.059 -7.3686 -3.56343 0
M  V30 1527 N 153.722 1.14298 -1.08507 0
M  V30 1528 C 154.97 1.84993 -0.813763 0
M  V30 1529 C 155.291 1.83405 0.662393 0
M  V30 1530 O 154.561 1.28319 1.48024 0
M  V30 1531 H 153.141 0.684966 -0.298045 0
M  V30 1532 H 155.803 1.385 -1.37126 0
M  V30 1533 H 154.899 2.89788 -1.15884 0
M  V30 1534 N 155.201 0.870884 1.31352 0
M  V30 1535 C 156.617 0.562932 1.49343 0
M  V30 1536 C 156.817 -0.902725 1.80148 0
M  V30 1537 O 155.873 -1.68484 1.88067 0
M  V30 1538 C 157.186 1.46393 2.62659 0
M  V30 1539 C 158.734 1.46607 2.76542 0
M  V30 1540 C 159.209 2.35266 3.92955 0
M  V30 1541 N 160.7 2.33151 4.00243 0
M  V30 1542 C 161.435 2.98471 4.89594 0
M  V30 1543 N 160.931 3.72964 5.8384 0
M  V30 1544 N 162.724 2.87775 4.82848 0
M  V30 1545 H 154.875 1.81923 1.09626 0
M  V30 1546 H 157.138 0.777934 0.541777 0
M  V30 1547 H 156.844 2.50689 2.46674 0
M  V30 1548 H 156.718 1.16314 3.58819 0
M  V30 1549 H 159.105 0.43069 2.9194 0
M  V30 1550 H 159.186 1.8071 1.81046 0
M  V30 1551 H 158.83 3.38881 3.78315 0
M  V30 1552 H 158.76 1.98487 4.87761 0
M  V30 1553 H 161.251 1.79006 3.32814 0
M  V30 1554 H 161.564 4.19932 6.4875 0
M  V30 1555 H 159.909 3.77073 5.83816 0
M  V30 1556 H 163.1 2.29116 4.08195 0
M  V30 1557 H 163.273 3.38961 5.52277 0
M  V30 1558 N 156.679 -1.44442 0.630414 0
M  V30 1559 C 157.925 -2.02894 0.143332 0
M  V30 1560 C 158.28 -1.48697 -1.22094 0
M  V30 1561 O 157.573 -0.661171 -1.79831 0
M  V30 1562 C 157.767 -3.57332 0.0697835 0
M  V30 1563 C 157.596 -4.26512 1.42539 0
M  V30 1564 C 156.366 -4.63516 2.01198 0
M  V30 1565 C 158.564 -4.57004 2.35907 0
M  V30 1566 N 156.546 -5.17661 3.30001 0
M  V30 1567 C 157.917 -5.12223 3.49324 0
M  V30 1568 C 159.972 -4.38955 2.34995 0
M  V30 1569 C 158.675 -5.51295 4.62024 0
M  V30 1570 C 160.701 -4.79075 3.46758 0
M  V30 1571 C 160.063 -5.34407 4.58899 0
M  V30 1572 H 156.162 -0.776041 0.0963523 0
M  V30 1573 H 158.746 -1.75945 0.833752 0
M  V30 1574 H 156.917 -3.83894 -0.589915 0
M  V30 1575 H 158.649 -4.02451 -0.42606 0
M  V30 1576 H 155.404 -4.47811 1.54151 0
M  V30 1577 H 155.828 -5.4921 3.95851 0
M  V30 1578 H 160.47 -3.95469 1.49545 0
M  V30 1579 H 158.188 -5.93736 5.48182 0
M  V30 1580 H 161.774 -4.66824 3.47227 0
M  V30 1581 H 160.654 -5.64878 5.4395 0
M  V30 1582 N 158.157 -0.370918 -1.53173 0
M  V30 1583 C 159.568 0.107139 -1.86392 0
M  V30 1584 C 159.919 1.47714 -1.29132 0
M  V30 1585 O 159.044 2.07464 -0.615439 0
M  V30 1586 C 159.639 0.201187 -3.38202 0
M  V30 1587 C 158.198 0.623507 -3.712 0
M  V30 1588 C 157.345 -0.225978 -2.76378 0
M  V30 1589 H 160.296 -0.58951 -1.47345 0
M  V30 1590 H 160.317 1.02377 -3.66468 0
M  V30 1591 H 159.829 -0.796058 -3.79848 0
M  V30 1592 H 157.93 1.62879 -3.35114 0
M  V30 1593 H 158.043 0.394414 -4.77474 0
M  V30 1594 H 156.407 0.305962 -2.52856 0
M  V30 1595 H 157.19 -1.22086 -3.20858 0
M  V30 1596 N 159.635 1.57281 -0.100228 0
M  V30 1597 C 160.545 2.17833 0.870965 0
M  V30 1598 C 161.561 1.14921 1.30649 0
M  V30 1599 O 162.737 1.47313 1.37335 0
M  V30 1600 C 159.802 2.75085 2.1102 0
M  V30 1601 C 158.863 3.9297 1.72838 0
M  V30 1602 C 158.096 4.47482 2.90854 0
M  V30 1603 O 158.319 4.00922 4.05731 0
M  V30 1604 O 157.253 5.38433 2.69023 0
M  V30 1605 H 161.079 3.0124 0.38575 0
M  V30 1606 H 158.664 1.48881 0.124397 0
M  V30 1607 H 160.546 3.11656 2.83634 0
M  V30 1608 H 159.221 1.94721 2.58584 0
M  V30 1609 H 158.128 3.61201 0.973883 0
M  V30 1610 H 159.461 4.74713 1.30033 0
M  V30 1611 N 161.113 -0.173488 1.56642 0
M  V30 1612 C 162.343 -0.904781 1.85734 0
M  V30 1613 C 162.751 -1.76431 0.68328 0
M  V30 1614 O 162.094 -1.802 -0.356865 0
M  V30 1615 C 162.156 -1.83382 3.09211 0
M  V30 1616 C 161.82 -1.15411 4.42187 0
M  V30 1617 C 162.817 -0.520609 5.17287 0
M  V30 1618 C 160.502 -1.15151 4.88923 0
M  V30 1619 C 162.496 0.106412 6.37311 0
M  V30 1620 C 160.183 -0.520664 6.08878 0
M  V30 1621 C 161.181 0.107196 6.82916 0
M  V30 1622 O 160.869 0.728102 8.00596 0
M  V30 1623 H 160.601 -0.268408 0.62043 0
M  V30 1624 H 163.155 -0.179096 2.04618 0
M  V30 1625 H 161.385 -2.59976 2.86268 0
M  V30 1626 H 163.074 -2.43476 3.24768 0
M  V30 1627 H 163.84 -0.514606 4.82262 0
M  V30 1628 H 159.719 -1.62961 4.31236 0
M  V30 1629 H 163.263 0.597081 6.9504 0
M  V30 1630 H 159.16 -0.524242 6.43368 0
M  V30 1631 H 159.928 0.627138 8.16094 0
M  V30 1632 N 162.591 -1.51276 -0.441967 0
M  V30 1633 C 163.521 -1.752 -1.54361 0
M  V30 1634 C 164.502 -0.601682 -1.59103 0
M  V30 1635 O 165.687 -0.843913 -1.74905 0
M  V30 1636 C 162.817 -1.87282 -2.92477 0
M  V30 1637 C 161.771 -3.02687 -3.02596 0
M  V30 1638 C 161.097 -2.99947 -4.42647 0
M  V30 1639 C 162.397 -4.4273 -2.77106 0
M  V30 1640 H 164.091 -2.67442 -1.34592 0
M  V30 1641 H 161.637 -1.28694 -0.646048 0
M  V30 1642 H 163.59 -2.02602 -3.695 0
M  V30 1643 H 162.314 -0.916844 -3.13467 0
M  V30 1644 H 160.973 -2.87065 -2.28012 0
M  V30 1645 H 160.621 -2.02136 -4.60597 0
M  V30 1646 H 160.321 -3.77439 -4.50348 0
M  V30 1647 H 161.845 -3.17354 -5.2165 0
M  V30 1648 H 163.259 -4.58727 -3.43864 0
M  V30 1649 H 161.656 -5.21893 -2.96222 0
M  V30 1650 H 162.726 -4.53087 -1.72744 0
M  V30 1651 N 164.069 0.697108 -1.41344 0
M  V30 1652 C 165.016 1.81106 -1.43071 0
M  V30 1653 C 165.986 1.63632 -0.285275 0
M  V30 1654 O 167.171 1.84504 -0.486091 0
M  V30 1655 C 164.311 3.18975 -1.31715 0
M  V30 1656 C 163.424 3.47892 -2.56115 0
M  V30 1657 C 162.559 4.75367 -2.37064 0
M  V30 1658 C 161.598 4.97247 -3.56948 0
M  V30 1659 N 160.735 6.15947 -3.36977 0
M  V30 1660 H 165.575 1.78965 -2.38276 0
M  V30 1661 H 163.112 0.873975 -1.18322 0
M  V30 1662 H 165.07 3.98615 -1.23133 0
M  V30 1663 H 163.7 3.20297 -0.401183 0
M  V30 1664 H 162.752 2.62669 -2.75153 0
M  V30 1665 H 164.064 3.59962 -3.45295 0
M  V30 1666 H 163.218 5.63059 -2.25941 0
M  V30 1667 H 161.957 4.65541 -1.45338 0
M  V30 1668 H 160.962 4.08004 -3.68527 0
M  V30 1669 H 162.187 5.08934 -4.49626 0
M  V30 1670 H 160.133 6.07336 -2.47949 0
M  V30 1671 H 160.05 6.28777 -4.19732 0
M  V30 1672 H 161.318 7.06377 -3.29623 0
M  V30 1673 N 165.547 1.27147 0.931209 0
M  V30 1674 C 166.824 1.0401 1.65654 0
M  V30 1675 C 167.204 -0.426297 2.06751 0
M  V30 1676 O 166.552 -1.40879 1.79904 0
M  V30 1677 C 166.762 1.99834 2.86125 0
M  V30 1678 C 168.11 2.29007 3.57549 0
M  V30 1679 O 169.134 1.97779 2.96246 0
M  V30 1680 O 167.993 2.82222 4.67989 0
M  V30 1681 H 165.087 0.396239 0.725895 0
M  V30 1682 H 167.633 1.38397 0.982056 0
M  V30 1683 H 166.405 2.98744 2.52721 0
M  V30 1684 H 166.028 1.65987 3.61295 0
M  V30 1685 N 167.025 -1.13721 1.09112 0
M  V30 1686 C 167.973 -2.21103 0.722219 0
M  V30 1687 C 168.967 -1.67147 -0.275374 0
M  V30 1688 O 170.173 -1.79477 -0.137176 0
M  V30 1689 H 166.548 -0.720445 0.215553 0
M  V30 1690 H 168.519 -2.49483 1.63709 0
M  V30 1691 C 167.268 -3.47352 0.15543 0
M  V30 1692 H 166.591 -3.89206 0.914246 0
M  V30 1693 H 168.031 -4.2395 -0.0647967 0
M  V30 1694 C 166.49 -3.1814 -1.10852 0
M  V30 1695 O 167.02 -3.36604 -2.19227 0
M  V30 1696 N 165.226 -2.72045 -1.02176 0
M  V30 1697 H 164.773 -2.57221 -0.139764 0
M  V30 1698 H 164.731 -2.52875 -1.8682 0
M  V30 1699 N 168.503 -0.877838 -1.30888 0
M  V30 1700 C 169.413 -0.343096 -2.32078 0
M  V30 1701 C 170.429 0.551022 -1.65045 0
M  V30 1702 O 171.605 0.445854 -1.96403 0
M  V30 1703 C 168.67 0.439905 -3.43898 0
M  V30 1704 C 167.731 -0.483111 -4.26573 0
M  V30 1705 C 166.964 0.262616 -5.33053 0
M  V30 1706 O 167.187 1.48967 -5.50604 0
M  V30 1707 O 166.121 -0.383593 -6.00676 0
M  V30 1708 H 169.947 -1.18203 -2.79753 0
M  V30 1709 H 167.532 -0.64145 -1.34929 0
M  V30 1710 H 169.414 0.883504 -4.12034 0
M  V30 1711 H 168.089 1.25526 -2.98371 0
M  V30 1712 H 166.996 -0.975374 -3.61161 0
M  V30 1713 H 168.329 -1.26427 -4.75686 0
M  V30 1714 N 169.982 1.44106 -0.638065 0
M  V30 1715 C 170.945 2.29138 0.0531013 0
M  V30 1716 C 171.945 1.41409 0.765506 0
M  V30 1717 O 173.135 1.63206 0.609046 0
M  V30 1718 C 170.267 3.23144 1.08584 0
M  V30 1719 H 171.46 2.91739 -0.694883 0
M  V30 1720 H 169.013 1.51134 -0.398538 0
M  V30 1721 H 169.748 2.65408 1.86357 0
M  V30 1722 H 169.533 3.87804 0.578852 0
M  V30 1723 H 171.023 3.87004 1.56899 0
M  V30 1724 N 171.46 0.379036 1.52974 0
M  V30 1725 C 172.688 -0.20679 2.05864 0
M  V30 1726 C 173.103 -1.41356 1.25155 0
M  V30 1727 O 172.46 -1.8009 0.295588 0
M  V30 1728 C 172.511 -0.587045 3.56702 0
M  V30 1729 O 172.232 0.571776 4.34353 0
M  V30 1730 C 173.733 -1.22983 4.25899 0
M  V30 1731 H 170.953 -0.0336123 0.670158 0
M  V30 1732 H 173.497 0.541298 1.97206 0
M  V30 1733 H 171.652 -1.28504 3.65466 0
M  V30 1734 H 172.066 0.261544 5.23847 0
M  V30 1735 H 173.54 -1.44635 5.32715 0
M  V30 1736 H 174.017 -2.19416 3.80465 0
M  V30 1737 H 174.623 -0.572892 4.21424 0
M  V30 1738 N 172.938 -1.57226 0.108567 0
M  V30 1739 C 173.901 -2.13602 -0.831082 0
M  V30 1740 C 174.901 -1.06841 -1.20173 0
M  V30 1741 O 176.091 -1.32666 -1.12895 0
M  V30 1742 C 173.223 -2.66769 -2.12243 0
M  V30 1743 H 174.416 -2.97951 -0.341317 0
M  V30 1744 H 171.969 -1.55667 -0.14057 0
M  V30 1745 H 172.704 -1.85977 -2.65675 0
M  V30 1746 H 172.489 -3.44839 -1.86625 0
M  V30 1747 H 173.979 -3.10332 -2.79435 0
M  V30 1748 N 174.416 0.165178 -1.56732 0
M  V30 1749 C 175.326 1.22423 -2.00125 0
M  V30 1750 C 176.342 1.48084 -0.913619 0
M  V30 1751 O 177.518 1.60112 -1.22172 0
M  V30 1752 C 174.583 2.54197 -2.35764 0
M  V30 1753 C 173.644 2.36343 -3.58386 0
M  V30 1754 C 172.877 3.61834 -3.92316 0
M  V30 1755 O 173.1 4.67267 -3.27135 0
M  V30 1756 O 172.034 3.55579 -4.85641 0
M  V30 1757 H 175.86 0.885886 -2.90492 0
M  V30 1758 H 173.445 0.372518 -1.44681 0
M  V30 1759 H 175.327 3.3192 -2.59629 0
M  V30 1760 H 174.002 2.87598 -1.48557 0
M  V30 1761 H 172.909 1.56632 -3.39731 0
M  V30 1762 H 174.242 2.07865 -4.46154 0
M  V30 1763 N 175.894 1.51508 0.433938 0
M  V30 1764 C 177.171 1.54888 1.19453 0
M  V30 1765 C 177.551 0.315154 2.08734 0
M  V30 1766 O 176.899 -0.699558 2.17528 0
M  V30 1767 C 177.109 2.86467 1.99342 0
M  V30 1768 C 178.457 3.38545 2.56267 0
M  V30 1769 O 179.481 2.88041 2.0955 0
M  V30 1770 O 178.34 4.26675 3.41483 0
M  V30 1771 H 175.434 0.622863 0.544032 0
M  V30 1772 H 177.98 1.63823 0.442732 0
M  V30 1773 H 176.752 3.67718 1.33788 0
M  V30 1774 H 176.375 2.8071 2.8158 0
M  V30 1775 N 177.372 -0.689602 1.41712 0
M  V30 1776 C 178.304 -1.815 1.39966 0
M  V30 1777 C 179.317 -1.59995 0.300917 0
M  V30 1778 O 180.506 -1.69387 0.563039 0
M  V30 1779 C 177.606 -3.18364 1.16179 0
M  V30 1780 C 176.779 -3.66847 2.38206 0
M  V30 1781 C 175.838 -4.82398 2.10186 0
M  V30 1782 O 174.864 -4.93706 2.83272 0
M  V30 1783 N 176.066 -5.70064 1.0958 0
M  V30 1784 H 178.831 -1.83488 2.36965 0
M  V30 1785 H 176.392 -0.872149 1.36401 0
M  V30 1786 H 178.384 -3.93301 0.953756 0
M  V30 1787 H 176.954 -3.11365 0.27756 0
M  V30 1788 H 176.174 -2.82751 2.74673 0
M  V30 1789 H 177.462 -3.95978 3.19498 0
M  V30 1790 H 176.86 -5.63565 0.491019 0
M  V30 1791 H 175.417 -6.44874 0.947656 0
M  V30 1792 N 178.85 -1.27639 -0.924453 0
M  V30 1793 C 180.261 -1.12834 -1.48746 0
M  V30 1794 C 180.612 0.285505 -1.94112 0
M  V30 1795 O 179.737 1.17874 -1.81479 0
M  V30 1796 C 180.332 -2.04217 -2.70334 0
M  V30 1797 C 178.891 -1.93509 -3.22848 0
M  V30 1798 C 178.038 -1.96583 -1.95577 0
M  V30 1799 H 180.989 -1.40484 -0.738233 0
M  V30 1800 H 181.01 -1.59989 -3.4523 0
M  V30 1801 H 180.522 -3.07111 -2.37285 0
M  V30 1802 H 178.623 -0.936131 -3.60649 0
M  V30 1803 H 178.736 -2.79917 -3.88823 0
M  V30 1804 H 177.1 -1.4085 -2.12211 0
M  V30 1805 H 177.883 -3.01137 -1.64837 0
M  V30 1806 N 180.328 1.1314 -1.09713 0
M  V30 1807 C 181.556 1.88321 -0.856898 0
M  V30 1808 C 181.971 1.79276 0.592073 0
M  V30 1809 O 181.328 1.16142 1.40774 0
M  V30 1810 C 181.379 3.37812 -1.28706 0
M  V30 1811 O 181.1 3.46627 -2.67921 0
M  V30 1812 C 182.601 4.29952 -1.07964 0
M  V30 1813 H 179.821 0.596094 -0.308079 0
M  V30 1814 H 182.365 1.43205 -1.45988 0
M  V30 1815 H 180.52 3.805 -0.727912 0
M  V30 1816 H 180.934 4.39579 -2.8613 0
M  V30 1817 H 182.408 5.33159 -1.42986 0
M  V30 1818 H 182.885 4.39196 -0.0176577 0
M  V30 1819 H 183.491 3.93036 -1.62489 0
M  V30 1820 N 181.806 0.884767 1.30421 0
M  V30 1821 C 182.738 0.308655 2.27112 0
M  V30 1822 C 183.751 -0.536655 1.53701 0
M  V30 1823 O 184.94 -0.35624 1.74909 0
M  V30 1824 C 182.04 -0.579782 3.33904 0
M  V30 1825 C 181.213 0.236417 4.36761 0
M  V30 1826 C 180.272 -0.582482 5.22966 0
M  V30 1827 O 179.298 -0.00525502 5.692 0
M  V30 1828 N 180.5 -1.89163 5.48815 0
M  V30 1829 H 183.265 1.13964 2.77186 0
M  V30 1830 H 180.826 0.747731 1.43599 0
M  V30 1831 H 182.818 -1.13366 3.88497 0
M  V30 1832 H 181.388 -1.31144 2.83761 0
M  V30 1833 H 180.608 0.97174 3.82035 0
M  V30 1834 H 181.896 0.795924 5.02536 0
M  V30 1835 H 181.294 -2.38352 5.13035 0
M  V30 1836 H 179.851 -2.39296 6.06284 0
M  V30 1837 N 183.284 -1.43765 0.645699 0
M  V30 1838 C 184.695 -1.85193 0.236719 0
M  V30 1839 C 185.046 -1.54045 -1.21509 0
M  V30 1840 O 184.171 -0.985694 -1.92647 0
M  V30 1841 C 184.766 -3.36151 0.422845 0
M  V30 1842 C 183.325 -3.76338 0.0682492 0
M  V30 1843 C 182.472 -2.67538 0.729306 0
M  V30 1844 H 185.423 -1.34025 0.849883 0
M  V30 1845 H 185.444 -3.79032 -0.333904 0
M  V30 1846 H 184.956 -3.5879 1.47958 0
M  V30 1847 H 183.057 -3.59312 -0.986179 0
M  V30 1848 H 183.17 -4.76603 0.488469 0
M  V30 1849 H 181.534 -2.54176 0.163235 0
M  V30 1850 H 182.317 -2.93006 1.78892 0
M  V30 1851 N 184.763 -0.387143 -1.52771 0
M  V30 1852 C 186.04 0.253197 -1.93954 0
M  V30 1853 C 186.42 1.64545 -1.32243 0
M  V30 1854 O 185.768 2.23191 -0.489699 0
M  V30 1855 C 185.978 0.281722 -3.47861 0
M  V30 1856 C 187.326 0.511715 -4.21505 0
M  V30 1857 O 188.35 0.362023 -3.54356 0
M  V30 1858 O 187.209 0.804847 -5.40541 0
M  V30 1859 H 184.303 0.156845 -0.811991 0
M  V30 1860 H 186.849 -0.441494 -1.63856 0
M  V30 1861 H 185.621 -0.693571 -3.85104 0
M  V30 1862 H 185.244 1.02142 -3.84256 0
M  V30 1863 N 186.241 1.57166 -0.116904 0
M  V30 1864 C 187.487 1.95412 0.542405 0
M  V30 1865 C 187.82 1.00019 1.66463 0
M  V30 1866 O 187.095 0.0370346 1.94465 0
M  V30 1867 C 187.378 3.43615 1.07708 0
M  V30 1868 C 187.231 4.49781 -0.0415868 0
M  V30 1869 C 188.55 3.93616 1.96861 0
M  V30 1870 H 185.669 0.710543 0.195696 0
M  V30 1871 H 188.311 1.89027 -0.192038 0
M  V30 1872 H 186.461 3.49187 1.70296 0
M  V30 1873 H 188.133 4.56308 -0.676793 0
M  V30 1874 H 186.376 4.28033 -0.705019 0
M  V30 1875 H 187.047 5.50733 0.373717 0
M  V30 1876 H 189.523 3.90335 1.44146 0
M  V30 1877 H 188.399 4.97838 2.3119 0
M  V30 1878 H 188.66 3.34188 2.89432 0
M  V30 1879 N 187.719 -0.156864 1.56817 0
M  V30 1880 C 188.682 -1.17781 1.96622 0
M  V30 1881 C 189.682 -1.36401 0.851555 0
M  V30 1882 O 190.872 -1.33561 1.11836 0
M  V30 1883 C 188.004 -2.54008 2.27361 0
M  V30 1884 H 189.197 -0.836564 2.87996 0
M  V30 1885 H 186.75 -0.39985 1.51099 0
M  V30 1886 H 187.485 -2.9312 1.38748 0
M  V30 1887 H 187.27 -2.41856 3.08623 0
M  V30 1888 H 188.76 -3.27558 2.59029 0
M  V30 1889 N 189.197 -1.51736 -0.425897 0
M  V30 1890 C 190.425 -1.68794 -1.1965 0
M  V30 1891 C 190.84 -0.390164 -1.84725 0
M  V30 1892 O 190.197 0.632376 -1.71194 0
M  V30 1893 C 190.248 -2.81174 -2.27208 0
M  V30 1894 O 189.969 -4.05925 -1.64793 0
M  V30 1895 C 191.47 -3.09599 -3.17275 0
M  V30 1896 H 188.69 -0.566128 -0.360194 0
M  V30 1897 H 191.234 -1.98211 -0.503249 0
M  V30 1898 H 189.389 -2.54324 -2.9223 0
M  V30 1899 H 189.803 -4.68423 -2.35967 0
M  V30 1900 H 191.277 -3.91786 -3.88854 0
M  V30 1901 H 191.754 -2.22468 -3.78688 0
M  V30 1902 H 192.36 -3.38151 -2.57941 0
M  V30 1903 N 190.675 0.682077 -1.42076 0
M  V30 1904 C 191.915 1.45424 -1.43636 0
M  V30 1905 C 192.279 1.91939 -0.0484001 0
M  V30 1906 O 193.48 2.6873 0.0612514 0
M  V30 1907 C 191.751 2.62427 -2.42625 0
M  V30 1908 S 193.31 3.51379 -2.62827 0
M  V30 1909 H 190.128 0.496779 -0.508657 0
M  V30 1910 H 192.73 0.794645 -1.78621 0
M  V30 1911 H 191.434 2.26481 -3.42249 0
M  V30 1912 H 190.965 3.33266 -2.09039 0
M  V30 1913 H 192.98 4.58141 -1.9058 0
M  V30 1914 N 192.153 1.28127 0.917671 0
M  V30 1915 C 193.569 1.05749 1.19538 0
M  V30 1916 C 193.769 -0.202633 2.00479 0
M  V30 1917 O 192.825 -0.905382 2.3571 0
M  V30 1918 C 194.138 2.30273 1.93378 0
M  V30 1919 C 195.686 2.35412 2.06277 0
M  V30 1920 C 196.161 3.59692 2.83524 0
M  V30 1921 N 197.652 3.60309 2.91087 0
M  V30 1922 C 198.387 4.53147 3.51348 0
M  V30 1923 N 197.883 5.563 4.12919 0
M  V30 1924 N 199.676 4.40751 3.48849 0
M  V30 1925 H 191.827 2.09024 0.377184 0
M  V30 1926 H 194.09 0.919798 0.22951 0
M  V30 1927 H 193.796 3.22055 1.41328 0
M  V30 1928 H 193.67 2.36378 2.93947 0
M  V30 1929 H 196.057 1.4413 2.57508 0
M  V30 1930 H 196.138 2.33304 1.04895 0
M  V30 1931 H 195.782 4.51316 2.32973 0
M  V30 1932 H 195.712 3.59054 3.85211 0
M  V30 1933 H 198.203 2.85714 2.47338 0
M  V30 1934 H 198.516 6.2329 4.56869 0
M  V30 1935 H 196.861 5.60131 4.11435 0
M  V30 1936 H 200.052 3.59367 2.99955 0
M  V30 1937 H 200.225 5.13291 3.9552 0
M  V30 1938 N 193.631 -1.12557 1.10312 0
M  V30 1939 C 194.878 -1.84038 0.844759 0
M  V30 1940 C 195.206 -1.84026 -0.629668 0
M  V30 1941 O 194.461 -1.28026 -1.48013 0
M  V30 1942 C 194.76 -3.31462 1.33669 0
M  V30 1943 C 194.426 -3.51647 2.82232 0
M  V30 1944 C 193.088 -3.56864 3.22802 0
M  V30 1945 C 195.44 -3.58867 3.77974 0
M  V30 1946 C 192.768 -3.66844 4.57867 0
M  V30 1947 C 195.12 -3.70375 5.1284 0
M  V30 1948 C 193.784 -3.73848 5.52986 0
M  V30 1949 H 193.054 -0.673444 0.309119 0
M  V30 1950 H 195.701 -1.32824 1.37949 0
M  V30 1951 H 194.006 -3.85091 0.721949 0
M  V30 1952 H 195.703 -3.85236 1.11329 0
M  V30 1953 H 192.293 -3.48249 2.49842 0
M  V30 1954 H 196.477 -3.54107 3.47738 0
M  V30 1955 H 191.733 -3.67804 4.88396 0
M  V30 1956 H 195.907 -3.74904 5.86873 0
M  V30 1957 H 193.534 -3.81333 6.57639 0
M  V30 1958 N 195.109 -0.891671 -1.2995 0
M  V30 1959 C 196.339 -0.527893 -1.99742 0
M  V30 1960 C 196.747 0.88979 -1.66971 0
M  V30 1961 O 196.09 1.59766 -0.906667 0
M  V30 1962 C 196.152 -0.630804 -3.53922 0
M  V30 1963 C 195.816 -2.01401 -4.10228 0
M  V30 1964 C 196.813 -2.98422 -4.25724 0
M  V30 1965 C 194.498 -2.32121 -4.45449 0
M  V30 1966 C 196.492 -4.24293 -4.75662 0
M  V30 1967 C 194.179 -3.58237 -4.95086 0
M  V30 1968 C 195.177 -4.54137 -5.10146 0
M  V30 1969 O 194.865 -5.78014 -5.58708 0
M  V30 1970 H 194.597 -0.201953 -0.645129 0
M  V30 1971 H 197.151 -1.20076 -1.66646 0
M  V30 1972 H 195.381 0.0990616 -3.86573 0
M  V30 1973 H 197.07 -0.277338 -4.04951 0
M  V30 1974 H 197.836 -2.76001 -3.98809 0
M  V30 1975 H 193.715 -1.5824 -4.32991 0
M  V30 1976 H 197.259 -4.99153 -4.87332 0
M  V30 1977 H 193.156 -3.80491 -5.21437 0
M  V30 1978 H 193.924 -5.8049 -5.77039 0
M  V30 1979 N 196.587 1.43421 -0.653314 0
M  V30 1980 C 197.815 2.06163 -0.174491 0
M  V30 1981 C 198.23 1.48969 1.1599 0
M  V30 1982 O 197.587 0.621042 1.71608 0
M  V30 1983 C 197.638 3.61417 -0.0774865 0
M  V30 1984 O 197.359 4.16485 -1.35912 0
M  V30 1985 C 198.86 4.41235 0.427402 0
M  V30 1986 H 196.08 0.664946 -0.0899353 0
M  V30 1987 H 198.624 1.83924 -0.893988 0
M  V30 1988 H 196.779 3.82841 0.59257 0
M  V30 1989 H 197.193 5.10153 -1.21839 0
M  V30 1990 H 198.667 5.5021 0.44423 0
M  V30 1991 H 199.144 4.14268 1.45873 0
M  V30 1992 H 199.75 4.2478 -0.210167 0
M  V30 1993 N 198.065 0.39524 1.52563 0
M  V30 1994 C 198.995 -0.428384 2.29537 0
M  V30 1995 C 199.976 -1.05831 1.33169 0
M  V30 1996 O 201.161 -1.06995 1.62067 0
M  V30 1997 C 198.291 -1.55274 3.10656 0
M  V30 1998 C 197.245 -1.04855 4.14957 0
M  V30 1999 C 196.571 -2.26543 4.84337 0
M  V30 2000 C 197.871 -0.112324 5.22179 0
M  V30 2001 H 199.565 0.213867 2.98635 0
M  V30 2002 H 197.111 0.104298 1.43622 0
M  V30 2003 H 199.064 -2.1358 3.63265 0
M  V30 2004 H 197.788 -2.22266 2.39302 0
M  V30 2005 H 196.447 -0.487985 3.63338 0
M  V30 2006 H 196.095 -2.92059 4.09525 0
M  V30 2007 H 195.795 -1.93466 5.54837 0
M  V30 2008 H 197.319 -2.85481 5.39753 0
M  V30 2009 H 198.733 -0.603752 5.70112 0
M  V30 2010 H 197.13 0.128968 5.99961 0
M  V30 2011 H 198.2 0.837052 4.77621 0
M  V30 2012 N 199.544 -1.57102 0.125237 0
M  V30 2013 C 200.454 -2.19191 -0.8362 0
M  V30 2014 C 201.47 -1.16985 -1.28805 0
M  V30 2015 O 202.646 -1.49479 -1.34974 0
M  V30 2016 C 199.711 -2.78407 -2.06617 0
M  V30 2017 C 198.772 -3.9567 -1.66565 0
M  V30 2018 C 198.005 -4.52052 -2.83698 0
M  V30 2019 O 198.228 -4.07326 -3.99302 0
M  V30 2020 O 197.162 -5.42645 -2.60423 0
M  V30 2021 H 200.988 -3.01816 -0.337776 0
M  V30 2022 H 198.573 -1.4906 -0.100695 0
M  V30 2023 H 200.455 -3.16129 -2.7864 0
M  V30 2024 H 199.13 -1.9881 -2.55453 0
M  V30 2025 H 198.037 -3.62705 -0.916296 0
M  V30 2026 H 199.37 -4.76722 -1.22464 0
M  V30 2027 N 201.022 0.148545 -1.56898 0
M  V30 2028 C 202.247 0.880385 -1.87787 0
M  V30 2029 C 202.672 1.74018 -0.714093 0
M  V30 2030 O 202.03 1.78153 0.336343 0
M  V30 2031 C 202.078 1.71422 -3.17249 0
M  V30 2032 O 201.182 2.8183 -3.01074 0
M  V30 2033 H 200.523 0.245301 -0.617028 0
M  V30 2034 H 203.053 0.139826 -2.04122 0
M  V30 2035 H 203.063 2.10954 -3.49231 0
M  V30 2036 H 201.738 1.08284 -4.01556 0
M  V30 2037 H 200.315 2.45715 -2.80497 0
M  V30 2038 N 202.5 1.5196 0.417844 0
M  V30 2039 C 203.746 1.65836 1.16732 0
M  V30 2040 C 204.079 0.382881 1.90388 0
M  V30 2041 O 203.354 -0.618368 1.84408 0
M  V30 2042 C 203.637 2.87466 2.16876 0
M  V30 2043 C 203.49 4.25041 1.47174 0
M  V30 2044 C 204.809 3.04613 3.17646 0
M  V30 2045 H 201.928 0.603515 0.423011 0
M  V30 2046 H 204.57 1.84494 0.454105 0
M  V30 2047 H 202.72 2.71689 2.777 0
M  V30 2048 H 204.392 4.52527 0.895376 0
M  V30 2049 H 202.635 4.26843 0.773806 0
M  V30 2050 H 203.306 5.06176 2.20204 0
M  V30 2051 H 205.782 3.1923 2.66892 0
M  V30 2052 H 204.658 3.91247 3.8499 0
M  V30 2053 H 204.919 2.17541 3.84874 0
M  V30 2054 N 203.978 -0.674533 1.42435 0
M  V30 2055 C 205.206 -1.46283 1.46317 0
M  V30 2056 C 205.621 -1.88653 0.0745836 0
M  V30 2057 O 204.978 -1.58151 -0.91074 0
M  V30 2058 C 205.029 -2.71178 2.3905 0
M  V30 2059 O 204.75 -2.30586 3.72507 0
M  V30 2060 C 206.251 -3.64738 2.51955 0
M  V30 2061 H 203.471 -0.450104 0.497642 0
M  V30 2062 H 206.015 -0.828792 1.86953 0
M  V30 2063 H 204.17 -3.3077 2.01667 0
M  V30 2064 H 204.584 -3.11241 4.22172 0
M  V30 2065 H 206.058 -4.49096 3.20962 0
M  V30 2066 H 206.535 -4.10656 1.55752 0
M  V30 2067 H 207.141 -3.11038 2.90061 0
M  V30 2068 N 205.456 -1.28612 -0.910864 0
M  V30 2069 C 206.702 -1.17116 -1.66299 0
M  V30 2070 C 207.057 0.276917 -1.90397 0
M  V30 2071 O 206.35 1.19795 -1.49532 0
M  V30 2072 C 206.544 -1.90624 -3.0232 0
M  V30 2073 C 206.373 -3.42431 -2.91498 0
M  V30 2074 C 205.143 -4.11773 -2.92867 0
M  V30 2075 C 207.341 -4.38124 -2.69355 0
M  V30 2076 N 205.323 -5.50025 -2.72664 0
M  V30 2077 C 206.694 -5.63759 -2.58023 0
M  V30 2078 C 208.749 -4.28016 -2.54375 0
M  V30 2079 C 207.452 -6.80436 -2.33238 0
M  V30 2080 C 209.478 -5.44433 -2.30969 0
M  V30 2081 C 208.84 -6.69034 -2.20394 0
M  V30 2082 H 204.939 -0.483506 -0.61461 0
M  V30 2083 H 207.523 -1.62299 -1.0755 0
M  V30 2084 H 205.694 -1.4787 -3.5915 0
M  V30 2085 H 207.426 -1.71488 -3.66571 0
M  V30 2086 H 204.181 -3.63378 -3.03732 0
M  V30 2087 H 204.605 -6.22705 -2.65646 0
M  V30 2088 H 209.247 -3.32388 -2.613 0
M  V30 2089 H 206.965 -7.7613 -2.25051 0
M  V30 2090 H 210.551 -5.38504 -2.20238 0
M  V30 2091 H 209.431 -7.57595 -2.02531 0
M  V30 2092 N 206.934 1.1197 -1.10907 0
M  V30 2093 C 207.844 2.21433 -0.774896 0
M  V30 2094 C 208.86 1.72478 0.229657 0
M  V30 2095 O 210.036 2.01288 0.0672008 0
M  V30 2096 C 207.101 3.4602 -0.216986 0
M  V30 2097 C 206.162 4.09791 -1.27944 0
M  V30 2098 C 205.395 5.28431 -0.748055 0
M  V30 2099 O 205.618 5.68823 0.423833 0
M  V30 2100 O 204.552 5.82644 -1.51027 0
M  V30 2101 H 208.378 2.5242 -1.68873 0
M  V30 2102 H 205.963 1.20399 -0.884555 0
M  V30 2103 H 207.845 4.21304 0.090059 0
M  V30 2104 H 206.52 3.16698 0.669633 0
M  V30 2105 H 205.427 3.36265 -1.63941 0
M  V30 2106 H 206.76 4.4328 -2.13925 0
M  V30 2107 N 208.412 0.89855 1.29475 0
M  V30 2108 C 209.828 0.594483 1.48115 0
M  V30 2109 C 210.028 -0.86431 1.82022 0
M  V30 2110 O 209.084 -1.64457 1.91599 0
M  V30 2111 C 210.397 1.51932 2.59494 0
M  V30 2112 C 211.945 1.5244 2.7337 0
M  V30 2113 C 212.42 2.43548 3.87877 0
M  V30 2114 N 213.911 2.41589 3.95208 0
M  V30 2115 C 214.646 3.08789 4.83153 0
M  V30 2116 N 214.142 3.85265 5.75798 0
M  V30 2117 N 215.935 2.97952 4.76635 0
M  V30 2118 H 208.086 1.84207 1.05742 0
M  V30 2119 H 210.349 0.789251 0.525154 0
M  V30 2120 H 210.055 2.55865 2.41301 0
M  V30 2121 H 209.929 1.23899 3.56271 0
M  V30 2122 H 212.316 0.492518 2.90961 0
M  V30 2123 H 212.397 1.8451 1.77172 0
M  V30 2124 H 212.041 3.46829 3.71041 0
M  V30 2125 H 211.971 2.08788 4.83441 0
M  V30 2126 H 214.462 1.86025 3.28943 0
M  V30 2127 H 214.775 4.33598 6.39697 0
M  V30 2128 H 213.12 3.89371 5.75687 0
M  V30 2129 H 216.311 2.37723 4.03244 0
M  V30 2130 H 216.484 3.50599 5.44962 0
M  V30 2131 N 209.89 -1.43072 0.660911 0
M  V30 2132 C 211.167 -1.95307 0.107017 0
M  V30 2133 C 211.547 -1.60192 -1.37484 0
M  V30 2134 O 210.895 -0.890949 -2.10415 0
M  V30 2135 C 211.105 -3.47124 0.361402 0
M  V30 2136 C 212.453 -4.23738 0.270455 0
M  V30 2137 O 213.477 -3.54981 0.294382 0
M  V30 2138 O 212.336 -5.46131 0.200737 0
M  V30 2139 H 209.43 -0.826984 -0.00517729 0
M  V30 2140 H 211.976 -1.52972 0.734681 0
M  V30 2141 H 210.748 -3.65837 1.38848 0
M  V30 2142 H 210.371 -3.96475 -0.298953 0
M  V30 2143 N 211.368 -0.403325 -1.52352 0
M  V30 2144 C 212.593 0.176499 -2.06648 0
M  V30 2145 C 213.018 1.38577 -1.27193 0
M  V30 2146 O 212.376 1.7879 -0.300637 0
M  V30 2147 C 212.424 0.511061 -3.5696 0
M  V30 2148 O 211.528 1.60294 -3.79973 0
M  V30 2149 H 210.869 0.0167337 -0.663789 0
M  V30 2150 H 213.399 -0.574848 -1.96359 0
M  V30 2151 H 213.409 0.771362 -4.00642 0
M  V30 2152 H 212.084 -0.37296 -4.14224 0
M  V30 2153 H 210.661 1.33526 -3.48174 0
M  V30 2154 N 212.846 1.57033 -0.133567 0
M  V30 2155 C 214.257 1.82593 0.389464 0
M  V30 2156 C 214.608 1.05156 1.6564 0
M  V30 2157 O 213.733 0.292644 2.14412 0
M  V30 2158 C 214.328 3.31204 0.713377 0
M  V30 2159 C 212.887 3.57393 1.18098 0
M  V30 2160 C 212.034 2.76598 0.197126 0
M  V30 2161 H 214.985 1.54598 -0.358481 0
M  V30 2162 H 215.006 3.46627 1.56939 0
M  V30 2163 H 214.518 3.87537 -0.2089 0
M  V30 2164 H 212.619 3.06433 2.11966 0
M  V30 2165 H 212.732 4.65915 1.11624 0
M  V30 2166 H 211.096 2.45257 0.687088 0
M  V30 2167 H 211.879 3.35697 -0.718504 0
M  V30 2168 N 214.325 -0.140222 1.56975 0
M  V30 2169 C 215.573 -0.850005 1.83356 0
M  V30 2170 C 215.894 -1.81399 0.71551 0
M  V30 2171 O 215.164 -1.94136 -0.262294 0
M  V30 2172 H 213.744 -0.316886 0.676456 0
M  V30 2173 H 216.406 -0.132608 1.94448 0
M  V30 2174 H 215.502 -1.40814 2.78528 0
M  V30 2175 N 215.803 -1.52179 -0.40978 0
M  V30 2176 C 217.049 -1.67408 -1.15525 0
M  V30 2177 C 217.404 -0.398746 -1.88223 0
M  V30 2178 O 216.697 0.60678 -1.81738 0
M  V30 2179 C 216.891 -2.83428 -2.17723 0
M  V30 2180 C 216.72 -4.22121 -1.55061 0
M  V30 2181 C 215.49 -4.87657 -1.3236 0
M  V30 2182 C 217.688 -5.04248 -1.01185 0
M  V30 2183 N 215.67 -6.10387 -0.655834 0
M  V30 2184 C 217.041 -6.18209 -0.470963 0
M  V30 2185 C 219.096 -4.89583 -0.906252 0
M  V30 2186 C 217.799 -7.1911 0.165172 0
M  V30 2187 C 219.825 -5.90718 -0.28397 0
M  V30 2188 C 219.187 -7.03969 0.246243 0
M  V30 2189 H 215.286 -0.666251 -0.409431 0
M  V30 2190 H 217.87 -1.89482 -0.447729 0
M  V30 2191 H 216.041 -2.6297 -2.85834 0
M  V30 2192 H 217.773 -2.87697 -2.84627 0
M  V30 2193 H 214.528 -4.46007 -1.59294 0
M  V30 2194 H 214.952 -6.76153 -0.338596 0
M  V30 2195 H 219.594 -4.02253 -1.302 0
M  V30 2196 H 217.312 -8.06066 0.572986 0
M  V30 2197 H 220.898 -5.81443 -0.203792 0
M  V30 2198 H 219.778 -7.80886 0.720173 0
M  V30 2199 N 217.281 0.66697 -1.42791 0
M  V30 2200 C 218.527 1.42754 -1.44889 0
M  V30 2201 C 218.882 1.92283 -0.0669755 0
M  V30 2202 O 218.175 1.68494 0.912154 0
M  V30 2203 C 218.369 2.6349 -2.4147 0
M  V30 2204 C 218.198 2.25776 -3.88915 0
M  V30 2205 C 216.968 2.1476 -4.57391 0
M  V30 2206 C 219.166 1.86927 -4.79127 0
M  V30 2207 N 217.148 1.70232 -5.89826 0
M  V30 2208 C 218.519 1.53378 -6.00729 0
M  V30 2209 C 220.574 1.73989 -4.66511 0
M  V30 2210 C 219.277 1.08187 -7.11117 0
M  V30 2211 C 221.303 1.30203 -5.76889 0
M  V30 2212 C 220.665 0.975818 -6.97608 0
M  V30 2213 H 216.764 0.518559 -0.585338 0
M  V30 2214 H 219.348 0.768906 -1.78874 0
M  V30 2215 H 217.519 3.27033 -2.09533 0
M  V30 2216 H 219.251 3.30123 -2.34096 0
M  V30 2217 H 216.006 2.3408 -4.11708 0
M  V30 2218 H 216.43 1.50369 -6.6009 0
M  V30 2219 H 221.072 1.97853 -3.7365 0
M  V30 2220 H 218.79 0.830701 -8.03819 0
M  V30 2221 H 222.376 1.20701 -5.69142 0
M  V30 2222 H 221.256 0.642157 -7.81566 0
M  V30 2223 N 218.759 1.29093 0.90403 0
M  V30 2224 C 220.005 1.17996 1.65676 0
M  V30 2225 C 220.36 -0.266816 1.90541 0
M  V30 2226 O 219.653 -1.19 1.50165 0
M  V30 2227 C 219.847 1.92224 3.01305 0
M  V30 2228 C 219.676 3.43972 2.89678 0
M  V30 2229 C 218.446 4.1332 2.90679 0
M  V30 2230 C 220.644 4.39546 2.67028 0
M  V30 2231 N 218.626 5.51463 2.69743 0
M  V30 2232 C 219.997 5.65119 2.5503 0
M  V30 2233 C 222.052 4.29359 2.52101 0
M  V30 2234 C 220.755 6.81663 2.29626 0
M  V30 2235 C 222.781 5.4565 2.28079 0
M  V30 2236 C 222.143 6.70193 2.16843 0
M  V30 2237 H 218.242 0.486759 0.612037 0
M  V30 2238 H 220.826 1.62868 1.06688 0
M  V30 2239 H 218.997 1.49773 3.58361 0
M  V30 2240 H 220.729 1.73429 3.65656 0
M  V30 2241 H 217.484 3.64984 3.01801 0
M  V30 2242 H 217.908 6.24105 2.6234 0
M  V30 2243 H 222.55 3.33769 2.59534 0
M  V30 2244 H 220.268 7.77313 2.20932 0
M  V30 2245 H 223.854 5.39664 2.1738 0
M  V30 2246 H 222.734 7.58659 1.98511 0
M  V30 2247 N 220.237 -1.11381 1.11499 0
M  V30 2248 C 221.184 -2.17439 0.773887 0
M  V30 2249 C 222.154 -1.64132 -0.254899 0
M  V30 2250 O 223.339 -1.90345 -0.13168 0
M  V30 2251 C 220.479 -3.44373 0.223917 0
M  V30 2252 C 219.592 -4.1168 1.30934 0
M  V30 2253 C 218.727 -5.263 0.71984 0
M  V30 2254 C 217.766 -5.85493 1.78507 0
M  V30 2255 N 216.903 -6.91507 1.21502 0
M  V30 2256 H 221.743 -2.45962 1.68246 0
M  V30 2257 H 219.28 -1.20744 0.840191 0
M  V30 2258 H 221.238 -4.17047 -0.112921 0
M  V30 2259 H 219.868 -3.16232 -0.647851 0
M  V30 2260 H 218.92 -3.37073 1.76312 0
M  V30 2261 H 220.232 -4.51729 2.11524 0
M  V30 2262 H 219.386 -6.05785 0.333094 0
M  V30 2263 H 218.125 -4.87559 -0.117377 0
M  V30 2264 H 217.13 -5.04686 2.18111 0
M  V30 2265 H 218.355 -6.26301 2.62533 0
M  V30 2266 H 216.301 -6.54783 0.399455 0
M  V30 2267 H 216.218 -7.30214 1.95763 0
M  V30 2268 H 217.486 -7.74795 0.855181 0
M  V30 2269 N 221.715 -0.905404 -1.28997 0
M  V30 2270 C 222.962 -0.534248 -1.95325 0
M  V30 2271 C 223.29 0.920535 -1.71337 0
M  V30 2272 O 222.545 1.66861 -1.02254 0
M  V30 2273 C 222.844 -0.779906 -3.48787 0
M  V30 2274 C 222.51 -2.21293 -3.92861 0
M  V30 2275 C 221.172 -2.60475 -4.04606 0
M  V30 2276 C 223.524 -3.14587 -4.15553 0
M  V30 2277 C 220.852 -3.9212 -4.36416 0
M  V30 2278 C 223.204 -4.45787 -4.48839 0
M  V30 2279 C 221.868 -4.84834 -4.58794 0
M  V30 2280 H 221.138 -0.195495 -0.714747 0
M  V30 2281 H 223.785 -1.14514 -1.53488 0
M  V30 2282 H 222.09 -0.0861365 -3.91705 0
M  V30 2283 H 223.787 -0.472029 -3.98212 0
M  V30 2284 H 220.377 -1.89887 -3.84241 0
M  V30 2285 H 224.561 -2.85528 -4.0594 0
M  V30 2286 H 219.817 -4.22086 -4.42327 0
M  V30 2287 H 223.991 -5.18098 -4.65346 0
M  V30 2288 H 221.618 -5.86877 -4.83197 0
M  V30 2289 N 223.193 1.4272 -0.668489 0
M  V30 2290 C 224.604 1.84793 -0.266151 0
M  V30 2291 C 224.955 1.55959 1.19043 0
M  V30 2292 O 224.08 1.01622 1.91055 0
M  V30 2293 C 224.675 3.35436 -0.476271 0
M  V30 2294 C 223.234 3.76182 -0.128113 0
M  V30 2295 C 222.381 2.66344 -0.771777 0
M  V30 2296 H 225.332 1.32656 -0.871098 0
M  V30 2297 H 225.353 3.79515 0.273561 0
M  V30 2298 H 224.865 3.5639 -1.53647 0
M  V30 2299 H 222.966 3.60836 0.928891 0
M  V30 2300 H 223.079 4.75766 -0.564231 0
M  V30 2301 H 221.443 2.53885 -0.203652 0
M  V30 2302 H 222.226 2.90123 -1.83531 0
M  V30 2303 N 224.671 0.411399 1.52136 0
M  V30 2304 C 225.948 -0.222308 1.94333 0
M  V30 2305 C 226.328 -1.6242 1.34844 0
M  V30 2306 O 225.676 -2.22384 0.525145 0
M  V30 2307 C 225.886 -0.226345 3.48265 0
M  V30 2308 C 227.234 -0.444592 4.22266 0
M  V30 2309 O 228.258 -0.305602 3.54887 0
M  V30 2310 O 227.117 -0.718749 5.41753 0
M  V30 2311 H 224.211 -0.143907 0.814383 0
M  V30 2312 H 226.757 0.467506 1.63133 0
M  V30 2313 H 225.529 0.75475 3.83952 0
M  V30 2314 H 225.152 -0.960163 3.85832 0
M  V30 2315 N 226.149 -1.5696 0.141893 0
M  V30 2316 C 227.112 -2.15316 -0.785587 0
M  V30 2317 C 228.112 -1.09366 -1.1788 0
M  V30 2318 O 229.302 -1.35031 -1.10056 0
M  V30 2319 C 226.434 -2.71211 -2.06537 0
M  V30 2320 H 227.627 -2.98608 -0.278041 0
M  V30 2321 H 225.18 -1.5593 -0.107519 0
M  V30 2322 H 225.915 -1.91571 -2.6167 0
M  V30 2323 H 225.7 -3.4872 -1.79268 0
M  V30 2324 H 227.19 -3.16189 -2.72789 0
M  V30 2325 N 227.627 0.131896 -1.57047 0
M  V30 2326 C 228.557 1.16384 -2.02428 0
M  V30 2327 C 229.538 1.43936 -0.90644 0
M  V30 2328 O 230.723 1.54599 -1.17528 0
M  V30 2329 C 227.853 2.49328 -2.4177 0
M  V30 2330 C 226.807 2.36266 -3.56879 0
M  V30 2331 C 226.133 3.74057 -3.8208 0
M  V30 2332 C 227.433 1.834 -4.89042 0
M  V30 2333 H 229.127 0.786433 -2.88887 0
M  V30 2334 H 226.673 0.376855 -1.38981 0
M  V30 2335 H 228.626 3.21759 -2.7212 0
M  V30 2336 H 227.35 2.88934 -1.52266 0
M  V30 2337 H 226.009 1.66286 -3.26718 0
M  V30 2338 H 225.657 4.11125 -2.89803 0
M  V30 2339 H 225.357 3.66174 -4.59554 0
M  V30 2340 H 226.881 4.48012 -4.1487 0
M  V30 2341 H 228.295 2.45636 -5.18011 0
M  V30 2342 H 226.692 1.8637 -5.70426 0
M  V30 2343 H 227.762 0.790662 -4.7841 0
M  V30 2344 N 229.106 1.52395 0.401703 0
M  V30 2345 C 230.053 1.76268 1.48991 0
M  V30 2346 C 231.023 0.605386 1.54675 0
M  V30 2347 O 232.208 0.843742 1.7113 0
M  V30 2348 C 229.348 1.92592 2.86361 0
M  V30 2349 C 228.461 3.20259 2.89928 0
M  V30 2350 C 227.596 3.26972 4.18644 0
M  V30 2351 C 226.635 4.48812 4.16214 0
M  V30 2352 N 225.772 4.52877 5.36514 0
M  V30 2353 H 230.612 2.6914 1.27935 0
M  V30 2354 H 228.149 1.33355 0.620871 0
M  V30 2355 H 230.107 2.0004 3.66115 0
M  V30 2356 H 228.737 1.03093 3.05895 0
M  V30 2357 H 227.789 3.21945 2.02621 0
M  V30 2358 H 229.101 4.10056 2.83999 0
M  V30 2359 H 228.255 3.33533 5.06794 0
M  V30 2360 H 226.994 2.35126 4.27278 0
M  V30 2361 H 225.999 4.4239 3.26453 0
M  V30 2362 H 227.224 5.41961 4.09213 0
M  V30 2363 H 225.17 3.63917 5.45802 0
M  V30 2364 H 225.087 5.36529 5.32609 0
M  V30 2365 H 226.355 4.63676 6.26597 0
M  V30 2366 N 230.584 -0.659388 1.43143 0
M  V30 2367 C 231.861 -1.41627 1.34912 0
M  V30 2368 C 232.241 -2.11099 -0.00607785 0
M  V30 2369 O 231.589 -2.04353 -1.02236 0
M  V30 2370 C 231.799 -2.40604 2.52805 0
M  V30 2371 C 233.147 -3.04789 2.95616 0
M  V30 2372 O 234.171 -2.50932 2.52807 0
M  V30 2373 O 233.03 -4.02421 3.69756 0
M  V30 2374 H 230.124 -0.63246 0.532844 0
M  V30 2375 H 232.67 -0.686814 1.5518 0
M  V30 2376 H 231.442 -1.88174 3.43083 0
M  V30 2377 H 231.065 -3.21009 2.34604 0
M  V30 2378 N 232.062 -1.29571 -0.897171 0
M  V30 2379 C 232.995 -1.0924 -2.00354 0
M  V30 2380 C 233.973 -0.00354011 -1.626 0
M  V30 2381 O 235.157 -0.15473 -1.87864 0
M  V30 2382 C 232.284 -0.66352 -3.32137 0
M  V30 2383 C 231.33 -1.75146 -3.88878 0
M  V30 2384 S 232.163 -3.35124 -4.17674 0
M  V30 2385 C 233.319 -2.9411 -5.52494 0
M  V30 2386 H 233.552 -2.02907 -2.17292 0
M  V30 2387 H 231.085 -1.13746 -1.04408 0
M  V30 2388 H 233.043 -0.422791 -4.08317 0
M  V30 2389 H 231.704 0.253588 -3.13075 0
M  V30 2390 H 230.897 -1.40337 -4.84068 0
M  V30 2391 H 230.499 -1.94584 -3.19395 0
M  V30 2392 H 232.791 -2.41312 -6.33068 0
M  V30 2393 H 233.734 -3.88161 -5.9223 0
M  V30 2394 H 234.142 -2.32332 -5.14473 0
M  V30 2395 N 233.54 1.10788 -1.12088 0
M  V30 2396 C 234.788 1.8231 -0.872205 0
M  V30 2397 C 235.109 1.85419 0.603709 0
M  V30 2398 O 234.379 1.32963 1.43867 0
M  V30 2399 H 232.959 0.675137 -0.319686 0
M  V30 2400 H 235.621 1.34068 -1.41463 0
M  V30 2401 H 234.717 2.85955 -1.25045 0
M  V30 2402 N 235.018 0.912232 1.28515 0
M  V30 2403 C 235.948 0.416403 2.29757 0
M  V30 2404 C 236.929 -0.515194 1.6211 0
M  V30 2405 O 238.114 -0.423253 1.89532 0
M  V30 2406 C 235.244 -0.34572 3.45575 0
M  V30 2407 C 234.198 0.496599 4.25109 0
M  V30 2408 C 233.524 -0.393771 5.33248 0
M  V30 2409 C 234.824 1.75307 4.92001 0
M  V30 2410 H 236.518 1.26249 2.7148 0
M  V30 2411 H 234.064 0.608515 1.30511 0
M  V30 2412 H 236.017 -0.703422 4.15488 0
M  V30 2413 H 234.741 -1.2257 3.02728 0
M  V30 2414 H 233.4 0.8368 3.56922 0
M  V30 2415 H 233.048 -1.27225 4.86644 0
M  V30 2416 H 232.748 0.166209 5.87365 0
M  V30 2417 H 234.272 -0.747389 6.06009 0
M  V30 2418 H 235.686 1.46437 5.54283 0
M  V30 2419 H 234.083 2.25534 5.56106 0
M  V30 2420 H 235.153 2.48176 4.16577 0
M  V30 2421 N 236.496 -1.42363 0.676048 0
M  V30 2422 C 237.743 -2.01522 0.19883 0
M  V30 2423 C 238.071 -1.53456 -1.19505 0
M  V30 2424 O 237.326 -0.727967 -1.81657 0
M  V30 2425 C 237.625 -3.56929 0.183431 0
M  V30 2426 C 237.291 -4.24431 1.52215 0
M  V30 2427 C 235.953 -4.42585 1.8887 0
M  V30 2428 C 238.305 -4.62459 2.40377 0
M  V30 2429 C 235.633 -4.96039 3.13309 0
M  V30 2430 C 237.985 -5.17294 3.64129 0
M  V30 2431 C 236.649 -5.33661 4.00951 0
M  V30 2432 H 235.919 -0.737419 0.0727571 0
M  V30 2433 H 238.566 -1.70531 0.871281 0
M  V30 2434 H 236.871 -3.87594 -0.572532 0
M  V30 2435 H 238.568 -4.00486 -0.203035 0
M  V30 2436 H 235.158 -4.10661 1.22701 0
M  V30 2437 H 239.342 -4.48105 2.13343 0
M  V30 2438 H 234.598 -5.06896 3.41857 0
M  V30 2439 H 238.772 -5.45704 4.32644 0
M  V30 2440 H 236.399 -5.74845 4.9745 0
M  V30 2441 N 237.974 -0.419461 -1.51915 0
M  V30 2442 C 239.222 0.152637 -2.01523 0
M  V30 2443 C 239.543 1.44762 -1.30649 0
M  V30 2444 O 238.813 1.90997 -0.435535 0
M  V30 2445 H 237.393 0.0593966 -0.744635 0
M  V30 2446 H 240.055 -0.558073 -1.86739 0
M  V30 2447 H 239.151 0.341369 -3.10227 0
M  V30 2448 N 239.452 1.56882 -0.150215 0
M  V30 2449 C 240.384 2.14057 0.819286 0
M  V30 2450 C 241.397 1.09082 1.20851 0
M  V30 2451 O 242.586 1.36347 1.15203 0
M  V30 2452 C 239.686 2.65102 2.11127 0
M  V30 2453 C 238.859 3.94511 1.88891 0
M  V30 2454 C 237.918 4.30834 3.02107 0
M  V30 2455 O 236.944 4.99099 2.73659 0
M  V30 2456 N 238.146 3.90676 4.29363 0
M  V30 2457 H 240.911 2.97871 0.330618 0
M  V30 2458 H 238.472 1.61866 0.0332538 0
M  V30 2459 H 240.464 2.86411 2.85921 0
M  V30 2460 H 239.034 1.85994 2.51247 0
M  V30 2461 H 238.254 3.81795 0.981152 0
M  V30 2462 H 239.542 4.7907 1.71376 0
M  V30 2463 H 238.94 3.35677 4.55343 0
M  V30 2464 H 237.497 4.1703 5.00928 0
M  V30 2465 N 240.93 -0.123565 1.57115 0
M  V30 2466 C 241.878 -1.17082 2.00984 0
M  V30 2467 C 242.872 -1.43136 0.906009 0
M  V30 2468 O 244.078 -1.43152 1.09121 0
M  V30 2469 H 240.453 -0.394653 0.64012 0
M  V30 2470 H 242.424 -0.774292 2.88179 0
M  V30 2471 C 241.173 -2.49057 2.42623 0
M  V30 2472 H 240.496 -2.29846 3.27125 0
M  V30 2473 H 241.936 -3.20906 2.7712 0
M  V30 2474 C 240.395 -3.11305 1.28805 0
M  V30 2475 O 240.925 -3.97171 0.60153 0
M  V30 2476 N 239.131 -2.71111 1.04628 0
M  V30 2477 H 238.678 -2.01382 1.60634 0
M  V30 2478 H 238.636 -3.1309 0.286685 0
M  V30 2479 N 242.408 -1.52605 -0.393616 0
M  V30 2480 C 243.341 -1.71798 -1.50202 0
M  V30 2481 C 244.319 -0.565743 -1.52441 0
M  V30 2482 O 245.503 -0.794987 -1.70916 0
M  V30 2483 C 242.63 -1.7714 -2.88685 0
M  V30 2484 C 241.676 -2.98845 -3.04292 0
M  V30 2485 S 242.509 -4.58909 -2.75976 0
M  V30 2486 C 243.665 -4.6706 -4.1666 0
M  V30 2487 H 243.898 -2.65542 -1.33696 0
M  V30 2488 H 241.431 -1.42839 -0.586195 0
M  V30 2489 H 243.389 -1.80903 -3.68489 0
M  V30 2490 H 242.05 -0.844969 -3.02521 0
M  V30 2491 H 241.243 -2.99111 -4.05646 0
M  V30 2492 H 240.845 -2.9305 -2.32374 0
M  V30 2493 H 243.137 -4.45391 -5.10523 0
M  V30 2494 H 244.08 -5.6905 -4.21412 0
M  V30 2495 H 244.488 -3.95944 -4.02354 0
M  V30 2496 N 243.887 0.651787 -1.4349 0
M  V30 2497 C 245.117 1.43728 -1.48411 0
M  V30 2498 C 245.525 1.8893 -0.10103 0
M  V30 2499 O 244.868 1.60182 0.899307 0
M  V30 2500 C 244.93 2.70411 -2.36893 0
M  V30 2501 C 244.594 2.4714 -3.8441 0
M  V30 2502 C 245.591 2.10271 -4.75481 0
M  V30 2503 C 243.276 2.6142 -4.28912 0
M  V30 2504 C 245.27 1.87982 -6.0905 0
M  V30 2505 C 242.957 2.38746 -5.62533 0
M  V30 2506 C 243.955 2.02083 -6.5242 0
M  V30 2507 O 243.643 1.79647 -7.8357 0
M  V30 2508 H 243.375 0.447962 -0.506267 0
M  V30 2509 H 245.929 0.80624 -1.88915 0
M  V30 2510 H 244.159 3.36079 -1.91278 0
M  V30 2511 H 245.848 3.32364 -2.33 0
M  V30 2512 H 246.614 1.98814 -4.42378 0
M  V30 2513 H 242.493 2.88931 -3.59222 0
M  V30 2514 H 246.037 1.5929 -6.7917 0
M  V30 2515 H 241.934 2.49806 -5.95203 0
M  V30 2516 H 242.702 1.9406 -7.95162 0
M  V30 2517 N 245.365 1.30045 0.890287 0
M  V30 2518 C 246.595 1.21296 1.67245 0
M  V30 2519 C 247.003 -0.227471 1.87828 0
M  V30 2520 O 246.346 -1.16296 1.422 0
M  V30 2521 C 246.408 1.86519 3.07329 0
M  V30 2522 C 246.072 3.35837 3.09939 0
M  V30 2523 C 247.069 4.31915 2.89389 0
M  V30 2524 C 244.754 3.77196 3.31706 0
M  V30 2525 C 246.748 5.67325 2.90552 0
M  V30 2526 C 244.435 5.12725 3.32499 0
M  V30 2527 C 245.433 6.076 3.11947 0
M  V30 2528 O 245.121 7.40655 3.12547 0
M  V30 2529 H 244.853 0.4211 0.528821 0
M  V30 2530 H 247.407 1.72111 1.12103 0
M  V30 2531 H 245.637 1.30228 3.64112 0
M  V30 2532 H 247.326 1.71963 3.67673 0
M  V30 2533 H 248.092 4.01294 2.72375 0
M  V30 2534 H 243.971 3.03796 3.4674 0
M  V30 2535 H 247.515 6.41354 2.74429 0
M  V30 2536 H 243.412 5.42988 3.49047 0
M  V30 2537 H 244.18 7.49577 3.28749 0
M  V30 2538 N 246.843 -1.10192 1.12674 0
M  V30 2539 C 247.793 -2.14754 0.765801 0
M  V30 2540 C 248.777 -1.59154 -0.236409 0
M  V30 2541 O 249.969 -1.76951 -0.0415261 0
M  V30 2542 C 247.098 -3.42563 0.224827 0
M  V30 2543 C 246.184 -4.05091 1.25548 0
M  V30 2544 N 246.575 -4.42287 2.4539 0
M  V30 2545 C 244.873 -4.32186 1.10142 0
M  V30 2546 C 245.574 -4.91441 3.11224 0
M  V30 2547 N 244.55 -4.88405 2.38666 0
M  V30 2548 H 248.352 -2.41309 1.67772 0
M  V30 2549 H 245.866 -1.27339 1.00789 0
M  V30 2550 H 247.863 -4.16868 -0.0519578 0
M  V30 2551 H 246.523 -3.17467 -0.681515 0
M  V30 2552 H 247.534 -4.33902 2.82754 0
M  V30 2553 H 244.211 -4.16735 0.252587 0
M  V30 2554 H 245.601 -5.29749 4.13298 0
M  V30 2555 N 248.321 -0.919034 -1.28029 0
M  V30 2556 C 249.551 -0.570143 -1.98577 0
M  V30 2557 C 249.959 0.854172 -1.68821 0
M  V30 2558 O 249.302 1.57807 -0.940351 0
M  V30 2559 C 249.364 -0.705734 -3.52505 0
M  V30 2560 C 249.028 -2.10057 -4.05863 0
M  V30 2561 C 250.025 -3.07385 -4.19298 0
M  V30 2562 C 247.71 -2.41517 -4.40426 0
M  V30 2563 C 249.704 -4.34287 -4.66555 0
M  V30 2564 C 247.391 -3.68657 -4.87376 0
M  V30 2565 C 248.389 -4.64856 -5.00398 0
M  V30 2566 O 248.077 -5.89735 -5.46322 0
M  V30 2567 H 247.809 -0.215592 -0.6407 0
M  V30 2568 H 250.363 -1.23583 -1.64062 0
M  V30 2569 H 248.593 0.0170414 -3.86696 0
M  V30 2570 H 250.282 -0.363172 -4.04272 0
M  V30 2571 H 251.048 -2.84398 -3.92865 0
M  V30 2572 H 246.927 -1.67389 -4.29537 0
M  V30 2573 H 250.471 -5.09377 -4.76635 0
M  V30 2574 H 246.368 -3.91466 -5.13249 0
M  V30 2575 H 247.136 -5.92599 -5.64596 0
M  V30 2576 N 249.799 1.42003 -0.683588 0
M  V30 2577 C 250.729 2.33487 -0.024866 0
M  V30 2578 C 251.71 1.51163 0.779975 0
M  V30 2579 O 252.895 1.79739 0.735362 0
M  V30 2580 C 250.025 3.3487 0.920836 0
M  V30 2581 C 248.979 4.27414 0.223958 0
M  V30 2582 C 248.305 5.19074 1.2832 0
M  V30 2583 C 249.605 5.14445 -0.90242 0
M  V30 2584 H 251.299 2.88819 -0.788921 0
M  V30 2585 H 248.845 1.38873 -0.38083 0
M  V30 2586 H 250.798 3.97787 1.39081 0
M  V30 2587 H 249.522 2.77861 1.71642 0
M  V30 2588 H 248.181 3.65904 -0.225864 0
M  V30 2589 H 247.829 4.58387 2.071 0
M  V30 2590 H 247.529 5.81822 0.821995 0
M  V30 2591 H 249.053 5.84867 1.75392 0
M  V30 2592 H 250.467 5.70998 -0.513272 0
M  V30 2593 H 248.864 5.86072 -1.28997 0
M  V30 2594 H 249.934 4.52322 -1.74737 0
M  V30 2595 N 251.277 0.427512 1.51691 0
M  V30 2596 C 252.525 -0.141948 2.01601 0
M  V30 2597 C 252.846 -1.44067 1.31414 0
M  V30 2598 O 252.116 -1.90763 0.445658 0
M  V30 2599 H 250.696 -0.0554468 0.744939 0
M  V30 2600 H 253.358 0.567968 1.86441 0
M  V30 2601 H 252.454 -0.324913 3.10404 0
M  V30 2602 N 252.755 -1.56801 0.158532 0
M  V30 2603 C 254.171 -1.5837 -0.197774 0
M  V30 2604 C 254.371 -1.17334 -1.63814 0
M  V30 2605 O 253.427 -0.878988 -2.36707 0
M  V30 2606 C 254.74 -3.00615 0.0714459 0
M  V30 2607 C 256.288 -3.12999 0.00864533 0
M  V30 2608 C 256.763 -4.57313 0.250685 0
M  V30 2609 N 258.254 -4.62777 0.198014 0
M  V30 2610 C 258.989 -5.72271 0.359642 0
M  V30 2611 N 258.485 -6.90371 0.579625 0
M  V30 2612 N 260.278 -5.61318 0.296438 0
M  V30 2613 H 252.429 -1.81765 1.09887 0
M  V30 2614 H 254.692 -0.841849 0.435884 0
M  V30 2615 H 254.398 -3.35068 1.06874 0
M  V30 2616 H 254.272 -3.71683 -0.642757 0
M  V30 2617 H 256.659 -2.7838 -0.979217 0
M  V30 2618 H 256.74 -2.44393 0.755359 0
M  V30 2619 H 256.384 -4.92639 1.2357 0
M  V30 2620 H 256.314 -5.24061 -0.516489 0
M  V30 2621 H 258.805 -3.77885 0.0331115 0
M  V30 2622 H 259.118 -7.69689 0.69275 0
M  V30 2623 H 257.463 -6.92264 0.616087 0
M  V30 2624 H 260.654 -4.67932 0.125258 0
M  V30 2625 H 260.827 -6.46599 0.425831 0
M  V30 2626 N 254.233 0.115231 -1.57178 0
M  V30 2627 C 255.196 1.12526 -1.99676 0
M  V30 2628 C 256.196 1.34095 -0.88742 0
M  V30 2629 O 257.386 1.30548 -1.15337 0
M  V30 2630 C 254.518 2.4789 -2.34015 0
M  V30 2631 H 255.711 0.759912 -2.90113 0
M  V30 2632 H 253.264 0.359648 -1.52106 0
M  V30 2633 H 253.999 2.89339 -1.4647 0
M  V30 2634 H 253.784 2.33588 -3.14927 0
M  V30 2635 H 255.274 3.20575 -2.67622 0
M  V30 2636 N 255.711 1.52812 0.385517 0
M  V30 2637 C 256.959 1.67694 1.12797 0
M  V30 2638 C 257.28 0.421115 1.90399 0
M  V30 2639 O 256.55 -0.564551 1.87589 0
M  V30 2640 H 255.13 0.618155 0.419396 0
M  V30 2641 H 257.792 1.89938 0.436972 0
M  V30 2642 H 256.888 2.52896 1.82894 0
M  V30 2643 N 257.189 -0.644168 1.43834 0
M  V30 2644 C 258.419 -1.42939 1.49171 0
M  V30 2645 C 258.827 -1.88874 0.111048 0
M  V30 2646 O 258.17 -1.60656 -0.8908 0
M  V30 2647 C 258.232 -2.69151 2.38324 0
M  V30 2648 C 257.896 -2.45097 3.85715 0
M  V30 2649 C 258.893 -2.07747 4.76589 0
M  V30 2650 C 256.578 -2.59141 4.30292 0
M  V30 2651 C 258.572 -1.8475 6.10038 0
M  V30 2652 C 256.259 -2.35759 5.63792 0
M  V30 2653 C 257.257 -1.9862 6.53482 0
M  V30 2654 O 256.945 -1.75489 7.84512 0
M  V30 2655 H 256.677 -0.445271 0.508635 0
M  V30 2656 H 259.231 -0.79621 1.8934 0
M  V30 2657 H 257.461 -3.3506 1.93058 0
M  V30 2658 H 259.15 -3.31123 2.3476 0
M  V30 2659 H 259.916 -1.96465 4.43426 0
M  V30 2660 H 255.795 -2.87022 3.60749 0
M  V30 2661 H 259.339 -1.55686 6.80006 0
M  V30 2662 H 255.236 -2.46646 5.9652 0
M  V30 2663 H 256.004 -1.89841 7.9618 0
M  V30 2664 N 258.668 -1.30515 -0.883378 0
M  V30 2665 C 259.896 -1.22359 -1.66841 0
M  V30 2666 C 260.311 0.213296 -1.87591 0
M  V30 2667 O 259.668 1.14075 -1.42454 0
M  V30 2668 C 259.719 -1.95011 -3.04389 0
M  V30 2669 O 259.44 -3.3309 -2.84575 0
M  V30 2670 C 260.941 -1.93532 -3.98824 0
M  V30 2671 H 258.161 -0.423371 -0.520575 0
M  V30 2672 H 260.705 -1.72167 -1.10357 0
M  V30 2673 H 258.86 -1.48997 -3.57601 0
M  V30 2674 H 259.274 -3.69907 -3.71846 0
M  V30 2675 H 260.748 -2.48902 -4.92699 0
M  V30 2676 H 261.225 -0.914627 -4.29571 0
M  V30 2677 H 261.831 -2.39364 -3.51547 0
M  V30 2678 N 260.146 1.09593 -1.13257 0
M  V30 2679 C 261.076 2.18214 -0.830946 0
M  V30 2680 C 262.057 1.68812 0.208966 0
M  V30 2681 O 263.242 1.9408 0.0682666 0
M  V30 2682 C 260.372 3.46051 -0.294296 0
M  V30 2683 C 259.326 4.08778 -1.26826 0
M  V30 2684 C 258.652 5.31419 -0.591449 0
M  V30 2685 C 259.952 4.51476 -2.62615 0
M  V30 2686 H 261.646 2.43703 -1.73923 0
M  V30 2687 H 259.192 1.17128 -0.837675 0
M  V30 2688 H 261.145 4.2134 -0.0709606 0
M  V30 2689 H 259.869 3.20079 0.649366 0
M  V30 2690 H 258.528 3.35505 -1.47756 0
M  V30 2691 H 258.176 5.01727 0.357633 0
M  V30 2692 H 257.876 5.74341 -1.24123 0
M  V30 2693 H 259.4 6.09433 -0.377355 0
M  V30 2694 H 260.814 5.17999 -2.45663 0
M  V30 2695 H 259.211 5.05277 -3.23752 0
M  V30 2696 H 260.281 3.63962 -3.20406 0
M  V30 2697 N 261.624 0.925811 1.2754 0
M  V30 2698 C 262.574 0.394488 2.24561 0
M  V30 2699 C 263.558 -0.500183 1.52928 0
M  V30 2700 O 264.75 -0.337936 1.73744 0
M  V30 2701 C 261.879 -0.353328 3.41477 0
M  V30 2702 C 260.965 0.557752 4.20416 0
M  V30 2703 N 261.356 1.67674 4.77199 0
M  V30 2704 C 259.654 0.360404 4.44541 0
M  V30 2705 C 260.355 2.24324 5.36706 0
M  V30 2706 N 259.331 1.53305 5.21535 0
M  V30 2707 H 263.133 1.2489 2.66045 0
M  V30 2708 H 260.647 0.779864 1.4245 0
M  V30 2709 H 262.644 -0.7509 4.10082 0
M  V30 2710 H 261.304 -1.20469 3.01525 0
M  V30 2711 H 262.315 2.05915 4.75204 0
M  V30 2712 H 258.992 -0.450454 4.15063 0
M  V30 2713 H 260.382 3.18521 5.91603 0
M  V30 2714 N 263.102 -1.41638 0.69111 0
M  V30 2715 C 264.348 -2.01598 0.220519 0
M  V30 2716 C 264.681 -1.54594 -1.17535 0
M  V30 2717 O 263.956 -0.755177 -1.79241 0
M  V30 2718 C 264.239 -3.59062 0.273243 0
M  V30 2719 C 264.092 -4.16203 1.70573 0
M  V30 2720 C 265.411 -4.38546 -0.369457 0
M  V30 2721 H 262.53 -0.732468 0.0816045 0
M  V30 2722 H 265.172 -1.68445 0.878986 0
M  V30 2723 H 263.322 -3.87435 -0.287411 0
M  V30 2724 H 264.994 -3.98722 2.31989 0
M  V30 2725 H 263.237 -3.71414 2.2413 0
M  V30 2726 H 263.908 -5.25358 1.69419 0
M  V30 2727 H 266.384 -4.1596 0.107977 0
M  V30 2728 H 265.26 -5.48069 -0.302002 0
M  V30 2729 H 265.521 -4.17662 -1.44951 0
M  V30 2730 N 264.58 -0.43555 -1.51462 0
M  V30 2731 C 265.512 0.41257 -2.25456 0
M  V30 2732 C 266.525 0.987822 -1.29406 0
M  V30 2733 O 267.714 0.882266 -1.55172 0
M  V30 2734 C 264.814 1.58894 -2.99342 0
M  V30 2735 C 263.987 1.13288 -4.22474 0
M  V30 2736 C 263.046 2.17917 -4.78956 0
M  V30 2737 O 262.072 1.77425 -5.40841 0
M  V30 2738 N 263.274 3.50382 -4.62832 0
M  V30 2739 H 266.039 -0.221603 -2.9888 0
M  V30 2740 H 263.6 -0.264342 -1.59727 0
M  V30 2741 H 265.592 2.28508 -3.34015 0
M  V30 2742 H 264.162 2.12849 -2.28941 0
M  V30 2743 H 263.382 0.263881 -3.93316 0
M  V30 2744 H 264.67 0.805542 -5.02383 0
M  V30 2745 H 264.068 3.86013 -4.13534 0
M  V30 2746 H 262.625 4.15895 -5.01871 0
M  V30 2747 N 266.058 1.56714 -0.166846 0
M  V30 2748 C 267.298 1.98641 0.481763 0
M  V30 2749 C 267.662 1.05038 1.6072 0
M  V30 2750 O 268.863 1.36087 2.31805 0
M  V30 2751 C 267.134 3.44362 0.956517 0
M  V30 2752 S 268.693 4.08317 1.60694 0
M  V30 2753 H 265.511 0.693873 0.155116 0
M  V30 2754 H 268.113 1.93719 -0.263251 0
M  V30 2755 H 266.817 4.10204 0.126936 0
M  V30 2756 H 266.348 3.53041 1.73568 0
M  V30 2757 H 268.363 4.02999 2.89494 0
M  V30 2758 N 267.536 -0.106894 1.57237 0
M  V30 2759 C 268.484 -1.14944 2.02215 0
M  V30 2760 C 269.478 -1.42167 0.92114 0
M  V30 2761 O 270.684 -1.41987 1.10634 0
M  V30 2762 H 267.059 -0.387841 0.64427 0
M  V30 2763 H 269.03 -0.743683 2.88984 0
M  V30 2764 C 267.779 -2.4647 2.4525 0
M  V30 2765 H 267.102 -2.26363 3.29545 0
M  V30 2766 H 268.542 -3.17948 2.80508 0
M  V30 2767 C 267.001 -3.09921 1.321 0
M  V30 2768 O 267.531 -3.9651 0.643622 0
M  V30 2769 N 265.737 -2.69986 1.07497 0
M  V30 2770 H 265.284 -1.99667 1.62761 0
M  V30 2771 H 265.242 -3.12769 0.319876 0
M  V30 2772 N 269.014 -1.53014 -0.377408 0
M  V30 2773 C 269.977 -1.77957 -1.44444 0
M  V30 2774 C 270.977 -0.649763 -1.47087 0
M  V30 2775 O 272.167 -0.917897 -1.48055 0
M  V30 2776 C 269.299 -1.89089 -2.83651 0
M  V30 2777 H 270.492 -2.73243 -1.23606 0
M  V30 2778 H 268.045 -1.43912 -0.609844 0
M  V30 2779 H 268.78 -0.958293 -3.09818 0
M  V30 2780 H 268.565 -2.71254 -2.83132 0
M  V30 2781 H 270.055 -2.1002 -3.60945 0
M  V30 2782 N 270.492 0.636531 -1.44174 0
M  V30 2783 C 271.717 1.42847 -1.50364 0
M  V30 2784 C 272.142 1.87665 -0.127867 0
M  V30 2785 O 271.5 1.58408 0.88185 0
M  V30 2786 C 271.548 2.62854 -2.4686 0
M  V30 2787 O 270.652 3.62501 -1.9664 0
M  V30 2788 H 269.993 0.427642 -0.507955 0
M  V30 2789 H 272.523 0.777422 -1.89255 0
M  V30 2790 H 272.533 3.10465 -2.64718 0
M  V30 2791 H 271.208 2.29578 -3.46795 0
M  V30 2792 H 269.785 3.21735 -1.88523 0
M  V30 2793 N 271.97 1.30982 0.876444 0
M  V30 2794 C 272.917 1.18085 1.98304 0
M  V30 2795 C 273.887 0.0682263 1.6596 0
M  V30 2796 O 275.072 0.239937 1.89285 0
M  V30 2797 C 272.212 0.887475 3.33493 0
M  V30 2798 C 271.325 2.08281 3.78475 0
M  V30 2799 C 270.46 1.72678 5.0235 0
M  V30 2800 C 269.499 2.88657 5.39762 0
M  V30 2801 N 268.636 2.53292 6.54819 0
M  V30 2802 H 273.476 2.1275 2.08666 0
M  V30 2803 H 271.013 1.05839 1.02159 0
M  V30 2804 H 272.971 0.697961 4.1132 0
M  V30 2805 H 271.601 -0.022315 3.22792 0
M  V30 2806 H 270.653 2.3833 2.96484 0
M  V30 2807 H 271.965 2.95108 4.02135 0
M  V30 2808 H 271.119 1.50151 5.87826 0
M  V30 2809 H 269.858 0.830327 4.8058 0
M  V30 2810 H 268.863 3.1184 4.52809 0
M  V30 2811 H 270.088 3.79002 5.63502 0
M  V30 2812 H 268.034 1.66163 6.34607 0
M  V30 2813 H 267.951 3.3365 6.7839 0
M  V30 2814 H 269.219 2.34143 7.43503 0
M  V30 2815 N 273.449 -1.08991 1.13837 0
M  V30 2816 C 274.696 -1.81258 0.902882 0
M  V30 2817 C 275.024 -1.85936 -0.570803 0
M  V30 2818 O 274.279 -1.3267 -1.43865 0
M  V30 2819 C 274.578 -3.27042 1.44147 0
M  V30 2820 C 274.244 -3.4249 2.93276 0
M  V30 2821 C 272.906 -3.46414 3.33992 0
M  V30 2822 C 275.258 -3.4666 3.892 0
M  V30 2823 C 272.586 -3.52091 4.69307 0
M  V30 2824 C 274.938 -3.53872 5.24364 0
M  V30 2825 C 273.602 -3.56066 5.646 0
M  V30 2826 H 272.872 -0.663268 0.330388 0
M  V30 2827 H 275.519 -1.28368 1.42105 0
M  V30 2828 H 273.824 -3.82599 0.844097 0
M  V30 2829 H 275.521 -3.81499 1.23528 0
M  V30 2830 H 272.111 -3.40124 2.60794 0
M  V30 2831 H 276.295 -3.42865 3.58828 0
M  V30 2832 H 271.551 -3.52079 4.9985 0
M  V30 2833 H 275.725 -3.56043 5.98503 0
M  V30 2834 H 273.352 -3.60218 6.69438 0
M  V30 2835 N 274.927 -0.932562 -1.27047 0
M  V30 2836 C 275.877 -0.406392 -2.24349 0
M  V30 2837 C 276.861 0.492066 -1.53191 0
M  V30 2838 O 278.053 0.328717 -1.73921 0
M  V30 2839 C 275.182 0.335214 -3.41659 0
M  V30 2840 C 274.268 -0.58004 -4.20115 0
M  V30 2841 N 274.659 -1.70203 -4.76303 0
M  V30 2842 C 272.957 -0.383974 -4.44344 0
M  V30 2843 C 273.658 -2.27167 -5.35509 0
M  V30 2844 N 272.634 -1.56068 -5.20715 0
M  V30 2845 H 276.436 -1.26299 -2.65378 0
M  V30 2846 H 273.95 -0.787408 -1.42034 0
M  V30 2847 H 275.947 0.729142 -4.10474 0
M  V30 2848 H 274.607 1.18868 -3.0216 0
M  V30 2849 H 275.618 -2.08433 -4.74106 0
M  V30 2850 H 272.295 0.428436 -4.15296 0
M  V30 2851 H 273.685 -3.21654 -5.89905 0
M  V30 2852 N 276.405 1.4127 -0.698611 0
M  V30 2853 C 277.337 2.292 0.00399731 0
M  V30 2854 C 278.35 1.44944 0.741279 0
M  V30 2855 O 279.539 1.68416 0.591477 0
M  V30 2856 C 276.639 3.22875 1.02979 0
M  V30 2857 C 275.812 4.35904 0.36151 0
M  V30 2858 C 274.871 5.10134 1.29033 0
M  V30 2859 O 273.897 5.63809 0.781562 0
M  V30 2860 N 275.099 5.17885 2.6225 0
M  V30 2861 H 277.864 2.9014 -0.750921 0
M  V30 2862 H 275.425 1.52455 -0.544882 0
M  V30 2863 H 277.417 3.69404 1.65296 0
M  V30 2864 H 275.987 2.63221 1.68622 0
M  V30 2865 H 275.207 3.91719 -0.441584 0
M  V30 2866 H 276.495 5.08696 -0.103055 0
M  V30 2867 H 275.893 4.7573 3.061 0
M  V30 2868 H 274.45 5.6798 3.19754 0
M  V30 2869 N 277.883 0.443576 1.51229 0
M  V30 2870 C 279.131 -0.120557 2.0174 0
M  V30 2871 C 279.452 -1.42665 1.32935 0
M  V30 2872 O 278.722 -1.9028 0.465866 0
M  V30 2873 H 277.302 -0.0475426 0.745486 0
M  V30 2874 H 279.964 0.587711 1.85828 0
M  V30 2875 H 279.06 -0.291972 3.10731 0
M  V30 2876 N 279.361 -1.56624 0.175154 0
M  V30 2877 C 280.601 -1.98894 -0.471221 0
M  V30 2878 C 280.965 -1.05889 -1.60161 0
M  V30 2879 O 282.166 -1.37315 -2.3108 0
M  V30 2880 C 280.437 -3.44865 -0.938241 0
M  V30 2881 S 281.996 -4.09164 -1.58526 0
M  V30 2882 H 278.814 -0.694686 -0.151434 0
M  V30 2883 H 281.416 -1.93577 0.27352 0
M  V30 2884 H 280.12 -4.10265 -0.10518 0
M  V30 2885 H 279.651 -3.53956 -1.71693 0
M  V30 2886 H 281.666 -4.04528 -2.87352 0
M  V30 2887 N 280.839 0.0985539 -1.57292 0
M  V30 2888 C 281.769 1.12064 -2.04851 0
M  V30 2889 C 282.75 1.41981 -0.936767 0
M  V30 2890 O 283.935 1.52071 -1.20781 0
M  V30 2891 C 281.065 2.44144 -2.47004 0
M  V30 2892 C 280.019 2.28643 -3.6181 0
M  V30 2893 C 279.345 3.65869 -3.89929 0
M  V30 2894 C 280.645 1.72986 -4.92822 0
M  V30 2895 H 282.339 0.724979 -2.9049 0
M  V30 2896 H 279.885 0.34729 -1.39749 0
M  V30 2897 H 281.838 3.15914 -2.78884 0
M  V30 2898 H 280.562 2.85639 -1.5836 0
M  V30 2899 H 279.221 1.59318 -3.30172 0
M  V30 2900 H 278.869 4.04885 -2.98458 0
M  V30 2901 H 278.569 3.56344 -4.67218 0
M  V30 2902 H 280.093 4.39112 -4.2428 0
M  V30 2903 H 281.507 2.34593 -5.23105 0
M  V30 2904 H 279.904 1.74229 -5.74251 0
M  V30 2905 H 280.974 0.689007 -4.7998 0
M  V30 2906 N 282.317 1.53212 0.369288 0
M  V30 2907 C 283.247 1.82365 1.45826 0
M  V30 2908 C 284.228 0.676907 1.56051 0
M  V30 2909 O 285.413 0.926401 1.70679 0
M  V30 2910 C 282.543 2.01023 2.83208 0
M  V30 2911 C 281.497 3.1678 2.8781 0
M  V30 2912 C 280.823 3.20724 4.27832 0
M  V30 2913 C 282.123 4.55447 2.55667 0
M  V30 2914 H 283.817 2.73559 1.21678 0
M  V30 2915 H 281.363 1.3163 0.583911 0
M  V30 2916 H 283.316 2.20001 3.59413 0
M  V30 2917 H 282.04 1.06536 3.08736 0
M  V30 2918 H 280.699 2.97616 2.14056 0
M  V30 2919 H 280.347 2.23882 4.50429 0
M  V30 2920 H 280.047 3.98496 4.31827 0
M  V30 2921 H 281.571 3.41881 5.05915 0
M  V30 2922 H 282.985 4.74611 3.21586 0
M  V30 2923 H 281.382 5.35432 2.70984 0
M  V30 2924 H 282.452 4.60812 1.5093 0
M  V30 2925 N 283.795 -0.628877 1.44509 0
M  V30 2926 C 285.041 -1.39045 1.47629 0
M  V30 2927 C 285.374 -1.93892 0.109343 0
M  V30 2928 O 284.649 -1.7379 -0.87334 0
M  V30 2929 C 284.932 -2.55408 2.53848 0
M  V30 2930 C 284.785 -2.05896 3.99909 0
M  V30 2931 C 286.104 -3.5759 2.56549 0
M  V30 2932 H 283.223 -0.504232 0.537512 0
M  V30 2933 H 285.865 -0.710854 1.76201 0
M  V30 2934 H 284.015 -3.13384 2.29615 0
M  V30 2935 H 285.687 -1.52734 4.35282 0
M  V30 2936 H 283.93 -1.37061 4.11578 0
M  V30 2937 H 284.601 -2.89681 4.69882 0
M  V30 2938 H 287.077 -3.09419 2.78207 0
M  V30 2939 H 285.953 -4.36527 3.32769 0
M  V30 2940 H 286.214 -4.11808 1.60832 0
M  V30 2941 N 285.273 -1.31445 -0.869486 0
M  V30 2942 C 286.519 -1.21337 -1.62496 0
M  V30 2943 C 286.852 0.227872 -1.92858 0
M  V30 2944 O 286.127 1.16094 -1.56053 0
M  V30 2945 C 286.41 -2.05814 -2.95487 0
M  V30 2946 C 286.263 -3.5824 -2.72 0
M  V30 2947 C 287.582 -1.9079 -3.96594 0
M  V30 2948 H 284.701 -0.442135 -0.589649 0
M  V30 2949 H 287.343 -1.6124 -1.00507 0
M  V30 2950 H 285.493 -1.71913 -3.48394 0
M  V30 2951 H 287.165 -4.0228 -2.25762 0
M  V30 2952 H 285.408 -3.81647 -2.06224 0
M  V30 2953 H 286.079 -4.12657 -3.66631 0
M  V30 2954 H 288.555 -2.20459 -3.52898 0
M  V30 2955 H 287.431 -2.52199 -4.87531 0
M  V30 2956 H 287.692 -0.871341 -4.33428 0
M  V30 2957 N 286.751 1.08385 -1.14413 0
M  V30 2958 C 287.991 1.8238 -0.922868 0
M  V30 2959 C 288.355 1.84225 0.540842 0
M  V30 2960 O 289.556 2.53985 0.880058 0
M  V30 2961 C 287.827 3.24048 -1.50757 0
M  V30 2962 S 289.386 4.14917 -1.4279 0
M  V30 2963 H 286.204 0.628524 -0.332384 0
M  V30 2964 H 288.806 1.30278 -1.45766 0
M  V30 2965 H 287.51 3.20288 -2.56601 0
M  V30 2966 H 287.041 3.81224 -0.971178 0
M  V30 2967 H 289.056 4.94473 -0.413582 0
M  V30 2968 N 288.23 0.939286 1.26551 0
M  V30 2969 C 289.476 0.586715 1.94128 0
M  V30 2970 C 289.809 -0.8717 1.73537 0
M  V30 2971 O 289.084 -1.62339 1.07127 0
M  V30 2972 C 289.367 0.927497 3.4795 0
M  V30 2973 C 289.22 2.44052 3.77834 0
M  V30 2974 C 290.539 0.441569 4.37879 0
M  V30 2975 H 287.658 0.21463 0.705055 0
M  V30 2976 H 290.3 1.17316 1.49455 0
M  V30 2977 H 288.45 0.428431 3.8613 0
M  V30 2978 H 290.122 3.01216 3.4938 0
M  V30 2979 H 288.365 2.8848 3.23978 0
M  V30 2980 H 289.036 2.62947 4.85348 0
M  V30 2981 H 291.512 0.869448 4.06915 0
M  V30 2982 H 290.388 0.708856 5.44304 0
M  V30 2983 H 290.649 -0.658467 4.37169 0
M  V30 2984 N 289.708 -1.40897 0.706093 0
M  V30 2985 C 291.119 -1.84023 0.315052 0
M  V30 2986 C 291.47 -1.5906 -1.14866 0
M  V30 2987 O 290.595 -1.06651 -1.88293 0
M  V30 2988 C 291.19 -3.34055 0.565038 0
M  V30 2989 C 289.749 -3.7571 0.227806 0
M  V30 2990 C 288.896 -2.64204 0.842122 0
M  V30 2991 H 291.847 -1.303 0.905963 0
M  V30 2992 H 291.868 -3.80107 -0.172843 0
M  V30 2993 H 291.38 -3.52192 1.63042 0
M  V30 2994 H 289.481 -3.63172 -0.832895 0
M  V30 2995 H 289.594 -4.74103 0.690174 0
M  V30 2996 H 287.958 -2.53255 0.270893 0
M  V30 2997 H 288.741 -2.85155 1.91158 0
M  V30 2998 N 291.186 -0.45159 -1.50991 0
M  V30 2999 C 292.096 0.358431 -2.31846 0
M  V30 3000 C 293.112 1.01438 -1.41373 0
M  V30 3001 O 294.288 1.00663 -1.74439 0
M  V30 3002 C 291.353 1.43704 -3.15515 0
M  V30 3003 C 290.414 0.799742 -4.21785 0
M  V30 3004 C 289.647 1.82696 -5.01456 0
M  V30 3005 O 289.87 3.05105 -4.81941 0
M  V30 3006 O 288.804 1.40958 -5.85162 0
M  V30 3007 H 292.63 -0.302032 -3.02194 0
M  V30 3008 H 290.215 -0.213825 -1.47862 0
M  V30 3009 H 292.097 2.06227 -3.67489 0
M  V30 3010 H 290.772 2.08133 -2.47916 0
M  V30 3011 H 289.679 0.136084 -3.73852 0
M  V30 3012 H 291.012 0.198718 -4.91799 0
M  V30 3013 N 292.664 1.56529 -0.183458 0
M  V30 3014 C 293.627 2.17324 0.728223 0
M  V30 3015 C 294.627 1.12453 1.14939 0
M  V30 3016 O 295.817 1.37902 1.06437 0
M  V30 3017 C 292.949 2.76591 1.99274 0
M  V30 3018 H 294.142 2.99241 0.198772 0
M  V30 3019 H 291.695 1.5616 0.0661391 0
M  V30 3020 H 292.43 1.98441 2.56499 0
M  V30 3021 H 292.215 3.5335 1.69959 0
M  V30 3022 H 293.705 3.23311 2.6431 0
M  V30 3023 N 294.142 -0.090211 1.57342 0
M  V30 3024 C 295.052 -1.12735 2.05738 0
M  V30 3025 C 296.068 -1.43557 0.983231 0
M  V30 3026 O 297.244 -1.54101 1.29672 0
M  V30 3027 C 294.309 -2.42659 2.47624 0
M  V30 3028 C 293.37 -2.18975 3.69254 0
M  V30 3029 C 292.603 -3.42704 4.09133 0
M  V30 3030 O 292.826 -4.51127 3.49057 0
M  V30 3031 O 291.76 -3.32003 5.02053 0
M  V30 3032 H 295.586 -0.746279 2.94388 0
M  V30 3033 H 293.171 -0.303064 1.46294 0
M  V30 3034 H 295.053 -3.19155 2.7517 0
M  V30 3035 H 293.728 -2.80182 1.62109 0
M  V30 3036 H 292.635 -1.40244 3.46818 0
M  V30 3037 H 293.968 -1.86342 4.55563 0
M  V30 3038 N 295.62 -1.53406 -0.361157 0
M  V30 3039 C 296.553 -1.74946 -1.46524 0
M  V30 3040 C 297.531 -0.59795 -1.51206 0
M  V30 3041 O 298.715 -0.831062 -1.69191 0
M  V30 3042 C 295.842 -1.83224 -2.84863 0
M  V30 3043 C 294.888 -3.05233 -2.97885 0
M  V30 3044 S 295.721 -4.6466 -2.66179 0
M  V30 3045 C 296.877 -4.75793 -4.06659 0
M  V30 3046 H 297.11 -2.68319 -1.28033 0
M  V30 3047 H 294.643 -1.44051 -0.555764 0
M  V30 3048 H 296.601 -1.88679 -3.64569 0
M  V30 3049 H 295.262 -0.908948 -3.00661 0
M  V30 3050 H 294.455 -3.07648 -3.9921 0
M  V30 3051 H 294.057 -2.97913 -2.26106 0
M  V30 3052 H 296.349 -4.5612 -5.0096 0
M  V30 3053 H 297.292 -5.7786 -4.09247 0
M  V30 3054 H 297.7 -4.04389 -3.93865 0
M  V30 3055 N 297.098 0.621204 -1.44841 0
M  V30 3056 C 298.346 1.37783 -1.47852 0
M  V30 3057 C 298.667 1.94653 -0.116224 0
M  V30 3058 O 297.937 1.76367 0.852737 0
M  V30 3059 H 296.517 0.511453 -0.544449 0
M  V30 3060 H 299.179 0.730446 -1.80694 0
M  V30 3061 H 298.275 2.20414 -2.20961 0
M  V30 3062 N 298.576 1.31904 0.862503 0
M  V30 3063 C 299.816 1.23324 1.63004 0
M  V30 3064 C 300.18 -0.203724 1.90916 0
M  V30 3065 O 301.381 -0.413132 2.65606 0
M  V30 3066 C 299.652 2.06116 2.91978 0
M  V30 3067 S 301.211 2.14478 3.82812 0
M  V30 3068 H 298.029 0.439117 0.559193 0
M  V30 3069 H 300.631 1.66658 1.02202 0
M  V30 3070 H 299.335 3.09593 2.69407 0
M  V30 3071 H 298.866 1.6353 3.57801 0
M  V30 3072 H 300.881 1.28855 4.79177 0
M  V30 3073 N 300.054 -1.07777 1.14986 0
M  V30 3074 C 301.279 -1.84558 0.946213 0
M  V30 3075 C 301.704 -1.81323 -0.500362 0
M  V30 3076 O 301.062 -1.20301 -1.35637 0
M  V30 3077 C 301.11 -3.29736 1.45968 0
M  V30 3078 O 300.214 -4.07149 0.65601 0
M  V30 3079 H 299.555 -0.571641 0.33782 0
M  V30 3080 H 302.085 -1.35991 1.52865 0
M  V30 3081 H 302.095 -3.80574 1.47063 0
M  V30 3082 H 300.77 -3.31406 2.51283 0
M  V30 3083 H 299.347 -3.65994 0.714322 0
M  V30 3084 N 301.532 -0.945985 -1.26051 0
M  V30 3085 C 302.464 -0.416662 -2.25381 0
M  V30 3086 C 303.477 0.462712 -1.56086 0
M  V30 3087 O 304.666 0.272383 -1.7641 0
M  V30 3088 C 301.766 0.419812 -3.3629 0
M  V30 3089 C 300.939 -0.444531 -4.35135 0
M  V30 3090 C 299.998 0.332305 -5.2515 0
M  V30 3091 O 299.024 -0.266324 -5.68577 0
M  V30 3092 N 300.226 1.62763 -5.57215 0
M  V30 3093 H 302.991 -1.27059 -2.71433 0
M  V30 3094 H 300.552 -0.815392 -1.39868 0
M  V30 3095 H 302.544 0.947013 -3.93464 0
M  V30 3096 H 301.114 1.17456 -2.89694 0
M  V30 3097 H 300.334 -1.15291 -3.76964 0
M  V30 3098 H 301.622 -1.03478 -4.98166 0
M  V30 3099 H 301.02 2.13603 -5.23823 0
M  V30 3100 H 299.577 2.10097 -6.17011 0
M  V30 3101 N 303.011 1.40521 -0.713556 0
M  V30 3102 C 304.257 2.01221 -0.252564 0
M  V30 3103 C 304.59 1.56444 1.1506 0
M  V30 3104 O 303.865 0.783597 1.78017 0
M  V30 3105 C 304.148 3.58582 -0.330332 0
M  V30 3106 C 304.001 4.13437 -1.77173 0
M  V30 3107 C 305.32 4.39079 0.299641 0
M  V30 3108 H 302.439 0.731077 -0.0932471 0
M  V30 3109 H 305.081 1.67026 -0.905673 0
M  V30 3110 H 303.231 3.87844 0.225737 0
M  V30 3111 H 304.903 3.9498 -2.38303 0
M  V30 3112 H 303.146 3.67801 -2.3001 0
M  V30 3113 H 303.817 5.22597 -1.77755 0
M  V30 3114 H 306.293 4.15735 -0.174139 0
M  V30 3115 H 305.169 5.4848 0.214771 0
M  V30 3116 H 305.43 4.19915 1.38288 0
M  V30 3117 N 304.489 0.459591 1.5075 0
M  V30 3118 C 305.766 -0.160371 1.94941 0
M  V30 3119 C 306.146 -1.58048 1.39943 0
M  V30 3120 O 305.494 -2.206 0.595629 0
M  V30 3121 C 305.704 -0.115432 3.48809 0
M  V30 3122 C 307.052 -0.310026 4.23467 0
M  V30 3123 O 308.076 -0.192543 3.55679 0
M  V30 3124 O 306.935 -0.546031 5.43765 0
M  V30 3125 H 304.029 -0.117925 0.818549 0
M  V30 3126 H 306.575 0.519169 1.61563 0
M  V30 3127 H 305.347 0.87652 3.81357 0
M  V30 3128 H 304.97 -0.836928 3.88692 0
M  V30 3129 N 305.967 -1.56429 0.191757 0
M  V30 3130 C 307.215 -1.97095 -0.447006 0
M  V30 3131 C 307.536 -1.07967 -1.62383 0
M  V30 3132 O 306.806 -0.150248 -1.95323 0
M  V30 3133 H 305.386 -0.727832 -0.168135 0
M  V30 3134 H 308.048 -1.92911 0.27771 0
M  V30 3135 H 307.144 -3.01848 -0.793371 0
M  V30 3136 N 307.445 0.0818655 -1.57387 0
M  V30 3137 C 308.673 0.796108 -1.9097 0
M  V30 3138 C 309.088 1.71626 -0.786757 0
M  V30 3139 O 308.445 1.80908 0.240513 0
M  V30 3140 C 308.496 1.59829 -3.24248 0
M  V30 3141 O 308.217 0.715131 -4.32224 0
M  V30 3142 C 309.718 2.41442 -3.7178 0
M  V30 3143 H 306.938 0.22691 -0.631469 0
M  V30 3144 H 309.482 0.0551439 -2.04426 0
M  V30 3145 H 307.637 2.29163 -3.12351 0
M  V30 3146 H 308.051 1.27205 -5.08841 0
M  V30 3147 H 309.525 2.932 -4.67694 0
M  V30 3148 H 310.002 3.2051 -3.00283 0
M  V30 3149 H 310.608 1.77283 -3.86589 0
M  V30 3150 N 308.923 1.53595 0.353017 0
M  V30 3151 C 310.169 1.70638 1.09593 0
M  V30 3152 C 310.502 0.463286 1.88593 0
M  V30 3153 O 309.777 -0.539597 1.86865 0
M  V30 3154 C 310.06 2.96406 2.04489 0
M  V30 3155 C 309.913 4.30901 1.29014 0
M  V30 3156 C 311.232 3.17812 3.0444 0
M  V30 3157 H 308.351 0.620913 0.397034 0
M  V30 3158 H 310.993 1.86254 0.375446 0
M  V30 3159 H 309.143 2.83223 2.65927 0
M  V30 3160 H 310.815 4.55917 0.702638 0
M  V30 3161 H 309.058 4.29741 0.592071 0
M  V30 3162 H 309.729 5.1506 1.98537 0
M  V30 3163 H 312.205 3.30263 2.53112 0
M  V30 3164 H 311.081 4.07223 3.6805 0
M  V30 3165 H 311.342 2.33669 3.75301 0
M  V30 3166 N 310.401 -0.613514 1.45168 0
M  V30 3167 C 311.349 -1.74572 1.53712 0
M  V30 3168 C 312.343 -1.64426 0.407505 0
M  V30 3169 O 313.549 -1.70291 0.583176 0
M  V30 3170 H 309.924 -0.576641 0.48269 0
M  V30 3171 H 311.895 -1.64492 2.48968 0
M  V30 3172 C 310.644 -3.12943 1.51532 0
M  V30 3173 H 309.967 -3.21407 2.37776 0
M  V30 3174 H 311.407 -3.9201 1.61569 0
M  V30 3175 C 309.866 -3.36053 0.238798 0
M  V30 3176 O 310.396 -3.95837 -0.6838 0
M  V30 3177 N 308.602 -2.9028 0.136359 0
M  V30 3178 H 308.149 -2.41811 0.887999 0
M  V30 3179 H 308.107 -3.06116 -0.716944 0
M  V30 3180 N 311.879 -1.3236 -0.855495 0
M  V30 3181 C 312.789 -1.23221 -1.99634 0
M  V30 3182 C 313.805 -0.145983 -1.73387 0
M  V30 3183 O 314.981 -0.366502 -1.98037 0
M  V30 3184 C 312.046 -0.954782 -3.33294 0
M  V30 3185 C 311.107 -2.12937 -3.72769 0
M  V30 3186 C 310.34 -1.86508 -5.00051 0
M  V30 3187 O 310.563 -0.807231 -5.64659 0
M  V30 3188 O 309.497 -2.72591 -5.36636 0
M  V30 3189 H 313.323 -2.19126 -2.1028 0
M  V30 3190 H 310.908 -1.12241 -0.986018 0
M  V30 3191 H 312.79 -0.816519 -4.13414 0
M  V30 3192 H 311.465 -0.0258854 -3.2369 0
M  V30 3193 H 310.372 -2.3231 -2.93228 0
M  V30 3194 H 311.705 -3.04102 -3.87018 0
M  V30 3195 N 313.357 1.07166 -1.15556 0
M  V30 3196 C 314.307 2.12649 -0.82247 0
M  V30 3197 C 315.291 1.59725 0.194129 0
M  V30 3198 O 316.483 1.76999 -0.00540402 0
M  V30 3199 C 313.612 3.41847 -0.315572 0
M  V30 3200 C 312.698 4.0162 -1.36244 0
M  V30 3201 N 313.089 4.35625 -2.5703 0
M  V30 3202 C 311.387 4.29114 -1.21562 0
M  V30 3203 C 312.088 4.83017 -3.24144 0
M  V30 3204 N 311.064 4.81906 -2.51531 0
M  V30 3205 H 314.866 2.36776 -1.74111 0
M  V30 3206 H 312.38 1.24622 -1.0413 0
M  V30 3207 H 314.377 4.16859 -0.0585855 0
M  V30 3208 H 313.037 3.19163 0.597105 0
M  V30 3209 H 314.048 4.26253 -2.94158 0
M  V30 3210 H 310.725 4.15919 -0.362988 0
M  V30 3211 H 312.115 5.18605 -4.27198 0
M  V30 3212 N 314.835 0.952656 1.25548 0
M  V30 3213 C 316.083 0.605176 1.92826 0
M  V30 3214 C 316.404 -0.860261 1.74999 0
M  V30 3215 O 315.674 -1.6125 1.11244 0
M  V30 3216 H 314.254 0.220832 0.713612 0
M  V30 3217 H 316.916 1.21047 1.52754 0
M  V30 3218 H 316.012 0.832798 3.00784 0
M  V30 3219 N 316.313 -1.40141 0.720998 0
M  V30 3220 C 317.243 -2.33339 0.0867621 0
M  V30 3221 C 318.224 -1.53178 -0.739622 0
M  V30 3222 O 319.409 -1.81625 -0.687449 0
M  V30 3223 C 316.539 -3.37194 -0.831728 0
M  V30 3224 C 315.493 -4.27857 -0.110558 0
M  V30 3225 C 314.819 -5.22294 -1.14513 0
M  V30 3226 C 316.119 -5.11872 1.0385 0
M  V30 3227 H 317.813 -2.86626 0.865219 0
M  V30 3228 H 315.359 -1.37814 0.417516 0
M  V30 3229 H 317.312 -4.01335 -1.28485 0
M  V30 3230 H 316.036 -2.82314 -1.64214 0
M  V30 3231 H 314.695 -3.65176 0.322797 0
M  V30 3232 H 314.343 -4.63717 -1.94874 0
M  V30 3233 H 314.043 -5.83797 -0.667446 0
M  V30 3234 H 315.567 -5.89312 -1.59824 0
M  V30 3235 H 316.981 -5.69436 0.664482 0
M  V30 3236 H 315.378 -5.82445 1.4449 0
M  V30 3237 H 316.448 -4.4753 1.86668 0
M  V30 3238 N 317.792 -0.46758 -1.50504 0
M  V30 3239 C 319.017 0.0886943 -2.0721 0
M  V30 3240 C 319.442 1.33057 -1.32956 0
M  V30 3241 O 318.8 1.77354 -0.376197 0
M  V30 3242 C 318.848 0.359202 -3.58806 0
M  V30 3243 O 317.952 1.44034 -3.8643 0
M  V30 3244 H 317.293 -0.0114349 -0.663902 0
M  V30 3245 H 319.823 -0.657613 -1.93744 0
M  V30 3246 H 319.833 0.600742 -4.03553 0
M  V30 3247 H 318.508 -0.548311 -4.1227 0
M  V30 3248 H 317.085 1.18638 -3.53524 0
M  V30 3249 N 319.27 1.56325 -0.20005 0
M  V30 3250 C 320.18 2.22931 0.730668 0
M  V30 3251 C 321.196 1.22997 1.23076 0
M  V30 3252 O 322.372 1.55748 1.27689 0
M  V30 3253 C 319.437 2.87948 1.93098 0
M  V30 3254 C 318.498 4.03166 1.47497 0
M  V30 3255 C 317.731 4.65073 2.61807 0
M  V30 3256 O 317.954 4.25913 3.79413 0
M  V30 3257 O 316.888 5.54452 2.34237 0
M  V30 3258 H 320.714 3.03084 0.193391 0
M  V30 3259 H 318.299 1.49371 0.0294621 0
M  V30 3260 H 320.181 3.29063 2.6324 0
M  V30 3261 H 318.856 2.10771 2.45677 0
M  V30 3262 H 317.763 3.66664 0.742201 0
M  V30 3263 H 319.096 4.82022 0.995796 0
M  V30 3264 N 320.748 -0.0735177 1.57428 0
M  V30 3265 C 321.996 -0.771472 1.86796 0
M  V30 3266 C 322.317 -1.78201 0.791804 0
M  V30 3267 O 321.587 -1.95074 -0.179718 0
M  V30 3268 H 320.167 -0.28791 0.689287 0
M  V30 3269 H 322.829 -0.0500161 1.94836 0
M  V30 3270 H 321.925 -1.28874 2.8425 0
M  V30 3271 N 322.226 -1.5378 -0.344866 0
M  V30 3272 C 323.136 -1.84667 -1.4469 0
M  V30 3273 C 324.152 -0.736704 -1.57635 0
M  V30 3274 O 325.328 -1.02888 -1.73136 0
M  V30 3275 C 322.393 -2.04869 -2.79696 0
M  V30 3276 C 321.454 -3.28731 -2.76106 0
M  V30 3277 C 320.687 -3.4796 -4.04673 0
M  V30 3278 O 320.91 -2.71052 -5.01883 0
M  V30 3279 O 319.844 -4.41383 -4.09224 0
M  V30 3280 H 323.67 -2.78334 -1.21506 0
M  V30 3281 H 321.255 -1.39418 -0.536921 0
M  V30 3282 H 323.137 -2.19609 -3.59652 0
M  V30 3283 H 321.812 -1.14391 -3.02814 0
M  V30 3284 H 320.719 -3.19396 -1.94774 0
M  V30 3285 H 322.052 -4.19198 -2.57941 0
M  V30 3286 N 323.704 0.605807 -1.45491 0
M  V30 3287 C 324.932 1.39136 -1.5313 0
M  V30 3288 C 325.347 1.88082 -0.164507 0
M  V30 3289 O 324.704 1.62316 0.834247 0
M  V30 3290 C 324.755 2.59463 -2.51716 0
M  V30 3291 O 324.476 2.12551 -3.83084 0
M  V30 3292 C 325.977 3.52301 -2.6907 0
M  V30 3293 H 323.197 0.425849 -0.51855 0
M  V30 3294 H 325.741 0.73865 -1.90694 0
M  V30 3295 H 323.896 3.20772 -2.17219 0
M  V30 3296 H 324.31 2.90744 -4.36541 0
M  V30 3297 H 325.784 4.33271 -3.42024 0
M  V30 3298 H 326.261 4.02757 -1.75167 0
M  V30 3299 H 326.867 2.96845 -3.04571 0
M  V30 3300 N 325.182 1.32811 0.848464 0
M  V30 3301 C 326.145 1.22194 1.9391 0
M  V30 3302 C 327.145 0.143404 1.60159 0
M  V30 3303 O 328.335 0.394253 1.6968 0
M  V30 3304 C 325.467 0.88067 3.29328 0
M  V30 3305 H 326.66 2.19127 2.04752 0
M  V30 3306 H 324.213 1.16731 1.0394 0
M  V30 3307 H 324.948 -0.0865776 3.24184 0
M  V30 3308 H 324.733 1.66052 3.55203 0
M  V30 3309 H 326.223 0.830871 4.09251 0
M  V30 3310 N 326.66 -1.06551 1.16123 0
M  V30 3311 C 327.607 -2.13961 0.865414 0
M  V30 3312 C 328.577 -1.65066 -0.185055 0
M  V30 3313 O 329.762 -1.90732 -0.05083 0
M  V30 3314 C 326.902 -3.43113 0.369776 0
M  V30 3315 C 326.015 -4.05756 1.48276 0
M  V30 3316 C 325.15 -5.22773 0.942414 0
M  V30 3317 C 324.189 -5.77395 2.03179 0
M  V30 3318 N 323.326 -6.85731 1.50721 0
M  V30 3319 H 328.166 -2.38605 1.78527 0
M  V30 3320 H 325.703 -1.17072 0.890646 0
M  V30 3321 H 327.661 -4.17151 0.0640643 0
M  V30 3322 H 326.291 -3.18695 -0.513143 0
M  V30 3323 H 325.343 -3.29292 1.9045 0
M  V30 3324 H 326.655 -4.42351 2.30493 0
M  V30 3325 H 325.809 -6.03827 0.589729 0
M  V30 3326 H 324.548 -4.87618 0.0895191 0
M  V30 3327 H 323.553 -4.94981 2.3932 0
M  V30 3328 H 324.778 -6.14603 2.8886 0
M  V30 3329 H 322.724 -6.52499 0.676811 0
M  V30 3330 H 322.641 -7.21254 2.26557 0
M  V30 3331 H 323.909 -7.7047 1.18303 0
M  V30 3332 N 328.138 -0.959301 -1.25041 0
M  V30 3333 C 329.085 -0.482057 -2.2571 0
M  V30 3334 C 330.055 0.467939 -1.59372 0
M  V30 3335 O 331.24 0.380159 -1.86974 0
M  V30 3336 C 328.38 0.229623 -3.44335 0
M  V30 3337 C 327.493 -0.758156 -4.25295 0
M  V30 3338 C 326.628 -0.0234403 -5.31195 0
M  V30 3339 C 325.667 -1.00184 -6.03846 0
M  V30 3340 N 324.804 -0.29769 -7.01469 0
M  V30 3341 H 329.644 -1.34538 -2.65901 0
M  V30 3342 H 327.181 -0.674592 -1.3072 0
M  V30 3343 H 329.139 0.658856 -4.11965 0
M  V30 3344 H 327.769 1.05696 -3.05005 0
M  V30 3345 H 326.821 -1.30586 -3.57284 0
M  V30 3346 H 328.133 -1.50458 -4.75567 0
M  V30 3347 H 327.287 0.464201 -6.04922 0
M  V30 3348 H 326.026 0.755741 -4.81809 0
M  V30 3349 H 325.031 -1.50044 -5.2893 0
M  V30 3350 H 326.256 -1.78133 -6.55321 0
M  V30 3351 H 324.202 0.462668 -6.54366 0
M  V30 3352 H 324.119 -0.983128 -7.4958 0
M  V30 3353 H 325.387 0.16826 -7.79318 0
M  V30 3354 N 329.616 1.39756 -0.72842 0
M  V30 3355 C 330.863 2.00645 -0.273487 0
M  V30 3356 C 331.191 1.57786 1.13727 0
M  V30 3357 O 330.446 0.794886 1.7883 0
M  V30 3358 C 330.745 3.56002 -0.315776 0
M  V30 3359 C 330.411 4.18489 -1.67863 0
M  V30 3360 C 329.073 4.3527 -2.05166 0
M  V30 3361 C 331.425 4.53219 -2.57375 0
M  V30 3362 C 328.753 4.84069 -3.31503 0
M  V30 3363 C 331.105 5.03423 -3.83077 0
M  V30 3364 C 329.769 5.18413 -4.20481 0
M  V30 3365 H 329.039 0.734211 -0.100076 0
M  V30 3366 H 331.686 1.6718 -0.933972 0
M  V30 3367 H 329.991 3.89452 0.428285 0
M  V30 3368 H 331.688 4.00963 0.0542575 0
M  V30 3369 H 328.278 4.05824 -1.37858 0
M  V30 3370 H 332.462 4.39878 -2.29827 0
M  V30 3371 H 327.718 4.93859 -3.60435 0
M  V30 3372 H 331.892 5.2927 -4.52599 0
M  V30 3373 H 329.519 5.55987 -5.18443 0
M  V30 3374 N 331.094 0.475555 1.50254 0
M  V30 3375 C 332.319 -0.0777042 2.07254 0
M  V30 3376 C 332.744 -1.3235 1.3366 0
M  V30 3377 O 332.102 -1.77152 0.385597 0
M  V30 3378 C 332.15 -0.340169 3.58992 0
M  V30 3379 O 331.254 -1.41982 3.87188 0
M  V30 3380 H 330.595 0.0149556 0.663832 0
M  V30 3381 H 333.125 0.667878 1.93392 0
M  V30 3382 H 333.135 -0.579332 4.03866 0
M  V30 3383 H 331.81 0.570167 4.11973 0
M  V30 3384 H 330.387 -1.16762 3.54148 0
M  V30 3385 N 332.573 -1.56217 0.208337 0
M  V30 3386 C 333.798 -2.02782 -0.435222 0
M  V30 3387 C 334.223 -1.08738 -1.53485 0
M  V30 3388 O 333.581 -0.0731855 -1.81152 0
M  V30 3389 C 333.629 -3.47687 -0.956335 0
M  V30 3390 O 332.733 -3.56773 -2.06849 0
M  V30 3391 H 332.074 -0.656403 -0.100158 0
M  V30 3392 H 334.604 -2.02033 0.3231 0
M  V30 3393 H 334.614 -3.87745 -1.26955 0
M  V30 3394 H 333.289 -4.15624 -0.15143 0
M  V30 3395 H 331.866 -3.28597 -1.76292 0
M  V30 3396 N 334.051 0.0651679 -1.57465 0
M  V30 3397 C 335.279 0.775808 -1.91804 0
M  V30 3398 C 335.694 1.70782 -0.804916 0
M  V30 3399 O 335.051 1.81153 0.221311 0
M  V30 3400 C 335.102 1.56381 -3.25925 0
M  V30 3401 O 334.823 0.669248 -4.32958 0
M  V30 3402 C 336.324 2.37485 -3.7432 0
M  V30 3403 H 333.544 0.2202 -0.63384 0
M  V30 3404 H 336.088 0.0334587 -2.04473 0
M  V30 3405 H 334.243 2.25837 -3.14764 0
M  V30 3406 H 334.657 1.21801 -5.10162 0
M  V30 3407 H 336.131 2.88223 -4.70778 0
M  V30 3408 H 336.608 3.17307 -3.03666 0
M  V30 3409 H 337.214 1.73173 -3.88447 0
M  V30 3410 N 335.529 1.53961 0.336706 0
M  V30 3411 C 336.754 1.75797 1.10046 0
M  V30 3412 C 337.179 0.498985 1.81361 0
M  V30 3413 O 336.537 -0.548769 1.72795 0
M  V30 3414 C 336.585 2.94257 2.08436 0
M  V30 3415 O 335.689 2.64883 3.16087 0
M  V30 3416 H 335.03 0.582936 0.317934 0
M  V30 3417 H 337.56 2.00945 0.38501 0
M  V30 3418 H 337.57 3.21237 2.51537 0
M  V30 3419 H 336.245 3.85564 1.55927 0
M  V30 3420 H 334.822 2.48812 2.77753 0
M  V30 3421 N 337.007 -0.598083 1.45811 0
M  V30 3422 C 338.235 -1.38322 1.53866 0
M  V30 3423 C 338.65 -1.87992 0.174479 0
M  V30 3424 O 338.007 -1.62756 -0.825627 0
M  V30 3425 C 338.058 -2.58125 2.53089 0
M  V30 3426 O 337.779 -2.10516 3.84206 0
M  V30 3427 C 339.28 -3.50869 2.70935 0
M  V30 3428 H 336.5 -0.423093 0.520801 0
M  V30 3429 H 339.044 -0.728527 1.91083 0
M  V30 3430 H 337.199 -3.19615 2.18917 0
M  V30 3431 H 337.613 -2.88425 4.38077 0
M  V30 3432 H 339.087 -4.31451 3.44317 0
M  V30 3433 H 339.564 -4.01822 1.77301 0
M  V30 3434 H 340.17 -2.95225 3.06141 0
M  V30 3435 N 338.485 -1.33259 -0.841409 0
M  V30 3436 C 339.433 -1.23279 -1.97244 0
M  V30 3437 C 340.427 -0.134706 -1.68864 0
M  V30 3438 O 341.633 -0.298501 -1.77508 0
M  V30 3439 H 338.008 -0.382497 -0.647457 0
M  V30 3440 H 339.979 -2.18906 -2.02787 0
M  V30 3441 C 338.728 -0.986268 -3.33419 0
M  V30 3442 H 338.051 -1.82347 -3.55794 0
M  V30 3443 H 339.491 -0.956728 -4.13065 0
M  V30 3444 C 337.95 0.310842 -3.35463 0
M  V30 3445 O 338.48 1.31838 -3.79449 0
M  V30 3446 N 336.686 0.337485 -2.88634 0
M  V30 3447 H 336.233 -0.482967 -2.53032 0
M  V30 3448 H 336.191 1.20518 -2.90384 0
M  V30 3449 N 339.963 1.05934 -1.16686 0
M  V30 3450 C 341.211 1.78447 -0.948744 0
M  V30 3451 C 341.532 1.87813 0.524523 0
M  V30 3452 O 340.802 1.38945 1.38098 0
M  V30 3453 H 339.382 0.660971 -0.348033 0
M  V30 3454 H 342.044 1.27947 -1.47022 0
M  V30 3455 H 341.14 2.80394 -1.37061 0
M  V30 3456 N 341.441 0.965919 1.2453 0
M  V30 3457 C 342.669 0.644385 1.96609 0
M  V30 3458 C 343.084 -0.785823 1.71669 0
M  V30 3459 O 342.441 -1.52703 0.999399 0
M  V30 3460 C 342.492 0.907375 3.49927 0
M  V30 3461 O 342.213 2.28136 3.74013 0
M  V30 3462 C 343.714 0.599784 4.39224 0
M  V30 3463 H 340.934 0.240588 0.626385 0
M  V30 3464 H 343.478 1.29337 1.58405 0
M  V30 3465 H 341.633 0.304631 3.862 0
M  V30 3466 H 342.047 2.36002 4.68405 0
M  V30 3467 H 343.521 0.834263 5.45659 0
M  V30 3468 H 343.998 -0.465921 4.36722 0
M  V30 3469 H 344.604 1.18235 4.08535 0
M  V30 3470 N 342.919 -1.39368 0.735821 0
M  V30 3471 C 343.867 -2.32443 0.0855131 0
M  V30 3472 C 344.861 -1.53104 -0.724954 0
M  V30 3473 O 346.067 -1.68762 -0.626047 0
M  V30 3474 H 342.442 -0.751948 0.00885257 0
M  V30 3475 H 344.413 -2.84916 0.886883 0
M  V30 3476 C 343.162 -3.38206 -0.806983 0
M  V30 3477 H 342.485 -3.99335 -0.19274 0
M  V30 3478 H 343.925 -4.05779 -1.2296 0
M  V30 3479 C 342.384 -2.75321 -1.94165 0
M  V30 3480 O 342.914 -2.63231 -3.03435 0
M  V30 3481 N 341.12 -2.33396 -1.73132 0
M  V30 3482 H 340.667 -2.4343 -0.842596 0
M  V30 3483 H 340.625 -1.91661 -2.49225 0
M  V30 3484 N 344.397 -0.483516 -1.5 0
M  V30 3485 C 345.625 0.0644831 -2.06799 0
M  V30 3486 C 346.04 1.32399 -1.34596 0
M  V30 3487 O 345.397 1.77626 -0.418946 0
M  V30 3488 C 345.448 0.339927 -3.59898 0
M  V30 3489 O 345.169 -0.869635 -4.29382 0
M  V30 3490 C 346.67 0.933515 -4.33359 0
M  V30 3491 H 343.89 -0.0126333 -0.670881 0
M  V30 3492 H 346.434 -0.675864 -1.93009 0
M  V30 3493 H 344.589 1.03022 -3.7345 0
M  V30 3494 H 345.003 -0.62179 -5.20801 0
M  V30 3495 H 346.477 1.07593 -5.41413 0
M  V30 3496 H 346.954 1.92685 -3.94676 0
M  V30 3497 H 347.56 0.281221 -4.24369 0
M  V30 3498 N 345.875 1.56104 -0.216619 0
M  V30 3499 C 347.121 1.98466 0.417033 0
M  V30 3500 C 347.454 1.10403 1.59765 0
M  V30 3501 O 346.729 0.160632 1.93836 0
M  V30 3502 C 347.012 3.49769 0.85637 0
M  V30 3503 C 346.865 4.48606 -0.327546 0
M  V30 3504 C 348.184 4.05339 1.7143 0
M  V30 3505 H 345.303 0.721551 0.150112 0
M  V30 3506 H 347.945 1.87423 -0.311864 0
M  V30 3507 H 346.095 3.5931 1.47745 0
M  V30 3508 H 347.767 4.5108 -0.965618 0
M  V30 3509 H 346.01 4.22682 -0.975805 0
M  V30 3510 H 346.681 5.51995 0.0227149 0
M  V30 3511 H 349.157 3.98712 1.19031 0
M  V30 3512 H 348.033 5.11533 1.99061 0
M  V30 3513 H 348.294 3.51918 2.67593 0
M  V30 3514 N 347.353 -0.0568162 1.57498 0
M  V30 3515 C 348.285 -1.09292 2.01464 0
M  V30 3516 C 349.298 -1.34112 0.922913 0
M  V30 3517 O 350.487 -1.32089 1.20062 0
M  V30 3518 C 347.587 -2.44068 2.35125 0
M  V30 3519 C 346.76 -2.38995 3.66333 0
M  V30 3520 C 345.819 -3.55997 3.87495 0
M  V30 3521 O 344.845 -3.36746 4.58901 0
M  V30 3522 N 346.047 -4.76888 3.30996 0
M  V30 3523 H 348.812 -0.718386 2.90963 0
M  V30 3524 H 346.373 -0.245235 1.60032 0
M  V30 3525 H 348.365 -3.21011 2.46443 0
M  V30 3526 H 346.935 -2.73468 1.5144 0
M  V30 3527 H 346.155 -1.47336 3.65631 0
M  V30 3528 H 347.443 -2.3272 4.52458 0
M  V30 3529 H 346.841 -4.95431 2.73065 0
M  V30 3530 H 345.398 -5.51291 3.47738 0
M  V30 3531 N 348.832 -1.54138 -0.328536 0
M  V30 3532 C 350.06 -1.76062 -1.08673 0
M  V30 3533 C 350.475 -0.506852 -1.81869 0
M  V30 3534 O 349.832 0.522223 -1.74869 0
M  V30 3535 C 349.883 -2.95054 -2.08866 0
M  V30 3536 O 349.604 -4.15583 -1.38644 0
M  V30 3537 C 351.105 -3.2915 -2.96943 0
M  V30 3538 H 348.325 -0.587889 -0.323461 0
M  V30 3539 H 350.869 -2.0101 -0.376175 0
M  V30 3540 H 349.024 -2.72394 -2.75464 0
M  V30 3541 H 349.438 -4.82481 -2.05699 0
M  V30 3542 H 350.912 -4.15723 -3.63151 0
M  V30 3543 H 351.389 -2.461 -3.63774 0
M  V30 3544 H 351.995 -3.53871 -2.35914 0
M  V30 3545 N 350.31 0.590341 -1.46126 0
M  V30 3546 C 351.559 1.34499 -1.50309 0
M  V30 3547 C 351.872 1.94977 -0.156021 0
M  V30 3548 O 353.078 2.71395 -0.0756037 0
M  V30 3549 C 351.534 2.43723 -2.64815 0
M  V30 3550 C 351.142 1.89582 -4.0591 0
M  V30 3551 C 352.886 3.20579 -2.78262 0
M  V30 3552 C 350.793 2.9639 -5.11769 0
M  V30 3553 H 349.723 0.505593 -0.559368 0
M  V30 3554 H 352.374 0.630848 -1.72315 0
M  V30 3555 H 350.756 3.17902 -2.36124 0
M  V30 3556 H 351.93 1.21997 -4.44357 0
M  V30 3557 H 350.245 1.25418 -3.97063 0
M  V30 3558 H 352.842 4.00276 -3.54519 0
M  V30 3559 H 353.185 3.72684 -1.85505 0
M  V30 3560 H 353.718 2.53505 -3.06562 0
M  V30 3561 H 350.457 2.49181 -6.06291 0
M  V30 3562 H 349.977 3.62487 -4.77873 0
M  V30 3563 H 351.656 3.60474 -5.37278 0
M  V30 3564 N 351.788 1.33704 0.83433 0
M  V30 3565 C 353.034 1.25603 1.59222 0
M  V30 3566 C 353.367 -0.176659 1.93395 0
M  V30 3567 O 352.642 -1.11915 1.59076 0
M  V30 3568 C 352.925 2.13576 2.89926 0
M  V30 3569 C 352.778 3.65326 2.62406 0
M  V30 3570 C 354.097 2.01238 3.91397 0
M  V30 3571 H 351.216 0.457613 0.577719 0
M  V30 3572 H 353.858 1.63848 0.961972 0
M  V30 3573 H 352.008 1.8109 3.43713 0
M  V30 3574 H 353.68 4.08124 2.15017 0
M  V30 3575 H 351.923 3.8698 1.96033 0
M  V30 3576 H 352.594 4.22232 3.55562 0
M  V30 3577 H 355.07 2.29738 3.46929 0
M  V30 3578 H 353.946 2.65036 4.80673 0
M  V30 3579 H 354.207 0.985951 4.30966 0
M  V30 3580 N 353.266 -1.05314 1.17247 0
M  V30 3581 C 354.494 -1.81971 0.984593 0
M  V30 3582 C 354.909 -1.82929 -0.467166 0
M  V30 3583 O 354.266 -1.25564 -1.32438 0
M  V30 3584 C 354.317 -3.28143 1.51672 0
M  V30 3585 O 354.038 -3.27347 2.91163 0
M  V30 3586 C 355.539 -4.21493 1.37326 0
M  V30 3587 H 352.759 -0.573455 0.348411 0
M  V30 3588 H 355.303 -1.32808 1.55506 0
M  V30 3589 H 353.458 -3.74582 0.988302 0
M  V30 3590 H 353.872 -4.18824 3.15732 0
M  V30 3591 H 355.346 -5.22043 1.79375 0
M  V30 3592 H 355.823 -4.38031 0.320169 0
M  V30 3593 H 356.429 -3.80909 1.89178 0
M  V30 3594 N 354.744 -0.972509 -1.24016 0
M  V30 3595 C 355.692 -0.498562 -2.27194 0
M  V30 3596 C 356.686 0.440372 -1.63576 0
M  V30 3597 O 357.892 0.315133 -1.7722 0
M  V30 3598 H 354.267 -0.142775 -0.738322 0
M  V30 3599 H 356.238 -1.38065 -2.64539 0
M  V30 3600 C 354.987 0.191072 -3.47175 0
M  V30 3601 H 354.31 -0.522318 -3.96373 0
M  V30 3602 H 355.75 0.486445 -4.212 0
M  V30 3603 C 354.209 1.41967 -3.05527 0
M  V30 3604 O 354.739 2.51642 -3.13112 0
M  V30 3605 N 352.945 1.28746 -2.60524 0
M  V30 3606 H 352.492 0.395089 -2.54552 0
M  V30 3607 H 352.45 2.11061 -2.33025 0
M  V30 3608 N 356.222 1.38976 -0.743202 0
M  V30 3609 C 357.185 2.28901 -0.117014 0
M  V30 3610 C 358.185 1.46698 0.658503 0
M  V30 3611 O 359.375 1.67274 0.486305 0
M  V30 3612 C 356.507 3.30309 0.84315 0
M  V30 3613 H 357.7 2.8578 -0.909373 0
M  V30 3614 H 355.253 1.47761 -0.509547 0
M  V30 3615 H 355.988 2.785 1.66157 0
M  V30 3616 H 355.773 3.91029 0.289594 0
M  V30 3617 H 357.263 3.97577 1.2776 0
M  V30 3618 N 357.7 0.491464 1.49741 0
M  V30 3619 C 358.948 -0.0563141 2.02022 0
M  V30 3620 C 359.269 -1.38363 1.37407 0
M  V30 3621 O 358.539 -1.88702 0.526166 0
M  V30 3622 H 357.119 -0.0238014 0.746621 0
M  V30 3623 H 359.781 0.646533 1.83864 0
M  V30 3624 H 358.877 -0.192967 3.11503 0
M  V30 3625 N 359.178 -1.55987 0.224894 0
M  V30 3626 C 360.111 -2.16413 -0.723929 0
M  V30 3627 C 361.089 -1.10952 -1.18863 0
M  V30 3628 O 362.273 -1.39225 -1.27077 0
M  V30 3629 C 359.4 -2.74711 -1.98121 0
M  V30 3630 C 358.446 -3.9303 -1.6562 0
M  V30 3631 S 359.279 -5.29817 -0.778058 0
M  V30 3632 C 360.435 -5.91555 -2.04483 0
M  V30 3633 H 360.668 -2.96555 -0.210347 0
M  V30 3634 H 358.201 -1.54397 0.00955457 0
M  V30 3635 H 360.159 -3.08938 -2.70311 0
M  V30 3636 H 358.82 -1.94555 -2.46591 0
M  V30 3637 H 358.013 -4.32334 -2.59043 0
M  V30 3638 H 357.615 -3.59966 -1.01491 0
M  V30 3639 H 359.907 -6.07732 -2.99446 0
M  V30 3640 H 360.85 -6.87498 -1.69563 0
M  V30 3641 H 361.258 -5.20419 -2.18688 0
M  V30 3642 N 360.656 0.0484629 -1.57525 0
M  V30 3643 C 361.904 0.741657 -1.88 0
M  V30 3644 C 362.225 1.76918 -0.820054 0
M  V30 3645 O 361.495 1.95335 0.148661 0
M  V30 3646 H 360.075 0.276908 -0.69378 0
M  V30 3647 H 362.737 0.019013 -1.94891 0
M  V30 3648 H 361.833 1.24336 -2.86264 0
M  V30 3649 N 362.134 1.5431 0.320358 0
M  V30 3650 C 363.38 1.72924 1.05949 0
M  V30 3651 C 363.713 0.503185 1.87568 0
M  V30 3652 O 362.988 -0.499839 1.87968 0
M  V30 3653 C 363.271 3.00676 1.98156 0
M  V30 3654 C 363.124 4.3354 1.19845 0
M  V30 3655 C 364.443 3.24198 2.9763 0
M  V30 3656 H 361.562 0.629195 0.383774 0
M  V30 3657 H 364.204 1.87008 0.335854 0
M  V30 3658 H 362.354 2.888 2.59859 0
M  V30 3659 H 364.026 4.57305 0.605773 0
M  V30 3660 H 362.269 4.309 0.500784 0
M  V30 3661 H 362.94 5.19156 1.87567 0
M  V30 3662 H 365.416 3.35557 2.4605 0
M  V30 3663 H 364.292 4.14938 3.59329 0
M  V30 3664 H 364.553 2.41577 3.7026 0
M  V30 3665 N 363.613 -0.582584 1.46437 0
M  V30 3666 C 364.861 -1.33814 1.51453 0
M  V30 3667 C 365.182 -1.94277 0.167792 0
M  V30 3668 O 364.452 -1.78566 -0.805677 0
M  V30 3669 H 363.032 -0.496838 0.557818 0
M  V30 3670 H 365.694 -0.682281 1.82568 0
M  V30 3671 H 364.79 -2.14479 2.26728 0
M  V30 3672 N 365.091 -1.34144 -0.827227 0
M  V30 3673 C 366.337 -1.26446 -1.58554 0
M  V30 3674 C 366.67 0.1664 -1.93486 0
M  V30 3675 O 365.945 1.1107 -1.59667 0
M  V30 3676 C 366.228 -2.15111 -2.8879 0
M  V30 3677 C 366.081 -3.66712 -2.60465 0
M  V30 3678 C 367.4 -2.03311 -3.90324 0
M  V30 3679 H 364.519 -0.46067 -0.575284 0
M  V30 3680 H 367.161 -1.64356 -0.953269 0
M  V30 3681 H 365.311 -1.8291 -3.42748 0
M  V30 3682 H 366.983 -4.09259 -2.1285 0
M  V30 3683 H 365.226 -3.88014 -1.93978 0
M  V30 3684 H 365.897 -4.24112 -3.53317 0
M  V30 3685 H 368.373 -2.31574 -3.45706 0
M  V30 3686 H 367.249 -2.67582 -4.79261 0
M  V30 3687 H 367.51 -1.00879 -4.30437 0
M  V30 3688 N 366.569 1.04691 -1.17803 0
M  V30 3689 C 367.817 1.7743 -0.967617 0
M  V30 3690 C 368.138 1.88359 0.504574 0
M  V30 3691 O 367.408 1.40402 1.36617 0
M  V30 3692 H 365.988 0.657242 -0.355024 0
M  V30 3693 H 368.65 1.2638 -1.48371 0
M  V30 3694 H 367.746 2.78924 -1.40027 0
M  V30 3695 N 368.047 0.979072 1.23499 0
M  V30 3696 C 368.995 0.510604 2.26926 0
M  V30 3697 C 369.989 -0.431691 1.63807 0
M  V30 3698 O 371.195 -0.30573 1.77385 0
M  V30 3699 H 367.57 0.146688 0.737554 0
M  V30 3700 H 369.541 1.39466 2.63803 0
M  V30 3701 C 368.29 -0.172658 3.47271 0
M  V30 3702 H 367.613 0.543331 3.96091 0
M  V30 3703 H 369.053 -0.464101 4.21452 0
M  V30 3704 C 367.512 -1.40345 3.06276 0
M  V30 3705 O 368.042 -2.49978 3.14442 0
M  V30 3706 N 366.248 -1.27362 2.61203 0
M  V30 3707 H 365.795 -0.381584 2.54758 0
M  V30 3708 H 365.753 -2.09822 2.34141 0
M  V30 3709 N 369.525 -1.3858 0.750561 0
M  V30 3710 C 370.455 -2.33102 0.136237 0
M  V30 3711 C 371.436 -1.54713 -0.706965 0
M  V30 3712 O 372.621 -1.83043 -0.648769 0
M  V30 3713 C 369.751 -3.38882 -0.760017 0
M  V30 3714 C 368.705 -4.27995 -0.0197785 0
M  V30 3715 C 368.031 -5.24605 -1.03408 0
M  V30 3716 C 369.331 -5.09554 1.14684 0
M  V30 3717 H 371.025 -2.84726 0.925822 0
M  V30 3718 H 368.571 -1.36898 0.446654 0
M  V30 3719 H 370.524 -4.0397 -1.19943 0
M  V30 3720 H 369.248 -2.85734 -1.58189 0
M  V30 3721 H 367.907 -3.64409 0.400184 0
M  V30 3722 H 367.555 -4.67746 -1.84994 0
M  V30 3723 H 367.255 -5.85081 -0.543464 0
M  V30 3724 H 368.779 -5.9257 -1.47288 0
M  V30 3725 H 370.193 -5.67899 0.785118 0
M  V30 3726 H 368.59 -5.7925 1.56812 0
M  V30 3727 H 369.66 -4.4347 1.96118 0
M  V30 3728 N 371.003 -0.499398 -1.49478 0
M  V30 3729 C 372.231 0.0425456 -2.06856 0
M  V30 3730 C 372.646 1.30964 -1.35992 0
M  V30 3731 O 372.003 1.77172 -0.437762 0
M  V30 3732 C 372.054 0.301735 -3.60239 0
M  V30 3733 O 371.775 -0.915127 -4.28436 0
M  V30 3734 C 373.276 0.887499 -4.34325 0
M  V30 3735 H 370.496 -0.0197482 -0.670709 0
M  V30 3736 H 373.04 -0.696297 -1.92281 0
M  V30 3737 H 371.195 0.990556 -3.74522 0
M  V30 3738 H 371.609 -0.676993 -5.20113 0
M  V30 3739 H 373.083 1.01845 -5.42523 0
M  V30 3740 H 373.56 1.88488 -3.96698 0
M  V30 3741 H 374.166 0.236196 -4.24644 0
M  V30 3742 N 372.481 1.55866 -0.233164 0
M  V30 3743 C 373.73 1.97779 0.39579 0
M  V30 3744 C 374.043 1.12419 1.60066 0
M  V30 3745 O 375.249 1.44283 2.29988 0
M  V30 3746 C 373.705 3.5188 0.755556 0
M  V30 3747 C 373.313 4.45959 -0.427152 0
M  V30 3748 C 375.057 4.02479 1.34946 0
M  V30 3749 C 372.964 5.91383 -0.0443043 0
M  V30 3750 H 371.894 0.738592 0.15165 0
M  V30 3751 H 374.545 1.80486 -0.331212 0
M  V30 3752 H 372.927 3.64816 1.5403 0
M  V30 3753 H 374.101 4.44776 -1.20462 0
M  V30 3754 H 372.416 4.05765 -0.935068 0
M  V30 3755 H 375.013 5.08637 1.649 0
M  V30 3756 H 375.356 3.49014 2.26925 0
M  V30 3757 H 375.889 3.92813 0.62791 0
M  V30 3758 H 372.628 6.48857 -0.930874 0
M  V30 3759 H 372.148 5.95734 0.697238 0
M  V30 3760 H 373.827 6.45893 0.378334 0
M  V30 3761 N 373.959 -0.0401083 1.57549 0
M  V30 3762 C 375.189 -0.744115 1.92734 0
M  V30 3763 C 375.597 -1.70005 0.830348 0
M  V30 3764 O 374.94 -1.82576 -0.20286 0
M  V30 3765 C 375.002 -1.56516 3.2364 0
M  V30 3766 C 374.666 -0.7752 4.50377 0
M  V30 3767 C 375.663 -0.0803326 5.19838 0
M  V30 3768 C 373.348 -0.733002 4.96923 0
M  V30 3769 C 375.342 0.646154 6.34116 0
M  V30 3770 C 373.029 -0.00276321 6.111 0
M  V30 3771 C 374.027 0.685585 6.7955 0
M  V30 3772 O 373.715 1.40399 7.91545 0
M  V30 3773 H 373.447 -0.214861 0.640945 0
M  V30 3774 H 376.001 -0.00503675 2.05399 0
M  V30 3775 H 374.231 -2.3478 3.07271 0
M  V30 3776 H 375.92 -2.15076 3.44234 0
M  V30 3777 H 376.686 -0.104035 4.84888 0
M  V30 3778 H 372.565 -1.25827 4.43496 0
M  V30 3779 H 376.109 1.18398 6.87479 0
M  V30 3780 H 372.006 0.0229012 6.45496 0
M  V30 3781 H 372.774 1.31653 8.07843 0
M  V30 3782 N 375.437 -1.54477 -0.31217 0
M  V30 3783 C 376.848 -1.64344 -0.885891 0
M  V30 3784 C 377.199 -0.54485 -1.88483 0
M  V30 3785 O 376.324 0.320387 -2.14015 0
M  V30 3786 C 376.919 -2.97908 -1.61357 0
M  V30 3787 C 375.478 -3.09933 -2.13585 0
M  V30 3788 C 374.625 -2.59971 -0.964897 0
M  V30 3789 H 377.576 -1.58448 -0.0894528 0
M  V30 3790 H 377.597 -2.88706 -2.47848 0
M  V30 3791 H 377.109 -3.77845 -0.886277 0
M  V30 3792 H 375.21 -2.34694 -2.89395 0
M  V30 3793 H 375.323 -4.15916 -2.37804 0
M  V30 3794 H 373.687 -2.16147 -1.34731 0
M  V30 3795 H 374.47 -3.42376 -0.251742 0
M  V30 3796 N 376.915 0.57481 -1.46744 0
M  V30 3797 C 377.865 1.67838 -1.54319 0
M  V30 3798 C 378.849 1.55759 -0.40346 0
M  V30 3799 O 380.041 1.6454 -0.652347 0
M  V30 3800 C 377.17 3.06624 -1.5439 0
M  V30 3801 C 376.256 3.23971 -2.73685 0
M  V30 3802 N 376.647 3.11447 -3.9854 0
M  V30 3803 C 374.945 3.5493 -2.70075 0
M  V30 3804 C 375.646 3.31011 -4.78337 0
M  V30 3805 N 374.622 3.56533 -4.10348 0
M  V30 3806 H 378.424 1.56698 -2.48642 0
M  V30 3807 H 375.938 0.779071 -1.42493 0
M  V30 3808 H 377.935 3.85839 -1.57905 0
M  V30 3809 H 376.595 3.1889 -0.611493 0
M  V30 3810 H 377.606 2.89145 -4.29669 0
M  V30 3811 H 374.283 3.73832 -1.85893 0
M  V30 3812 H 375.673 3.26445 -5.87268 0
M  V30 3813 N 378.394 1.34581 0.820102 0
M  V30 3814 C 379.326 1.22236 1.93884 0
M  V30 3815 C 380.339 0.148776 1.62119 0
M  V30 3816 O 381.528 0.400877 1.7394 0
M  V30 3817 C 378.628 0.856542 3.27897 0
M  V30 3818 C 377.801 2.02569 3.87666 0
M  V30 3819 C 376.86 1.63782 5.00062 0
M  V30 3820 O 375.886 2.35477 5.18208 0
M  V30 3821 N 377.088 0.553611 5.77854 0
M  V30 3822 H 379.853 2.18615 2.05006 0
M  V30 3823 H 377.414 1.27573 0.99683 0
M  V30 3824 H 379.406 0.578806 4.0054 0
M  V30 3825 H 377.976 -0.0171518 3.12595 0
M  V30 3826 H 377.196 2.468 3.07382 0
M  V30 3827 H 378.484 2.80752 4.24329 0
M  V30 3828 H 377.882 -0.0423528 5.65684 0
M  V30 3829 H 376.439 0.335614 6.50935 0
M  V30 3830 N 379.872 -1.04064 1.18357 0
M  V30 3831 C 381.118 -1.77658 0.990412 0
M  V30 3832 C 381.473 -1.86446 -0.474944 0
M  V30 3833 O 380.766 -1.36153 -1.34807 0
M  V30 3834 C 380.96 -3.20634 1.57888 0
M  V30 3835 C 380.789 -3.25782 3.09994 0
M  V30 3836 C 379.559 -3.34411 3.7881 0
M  V30 3837 C 381.757 -3.13791 4.0748 0
M  V30 3838 N 379.739 -3.28809 5.18418 0
M  V30 3839 C 381.11 -3.15689 5.33611 0
M  V30 3840 C 383.165 -2.97833 3.98998 0
M  V30 3841 C 381.868 -3.03268 6.52243 0
M  V30 3842 C 383.894 -2.86759 5.17227 0
M  V30 3843 C 383.256 -2.893 6.4225 0
M  V30 3844 H 379.355 -0.661901 0.416427 0
M  V30 3845 H 381.939 -1.23968 1.50133 0
M  V30 3846 H 380.11 -3.7267 1.09414 0
M  V30 3847 H 381.842 -3.82525 1.32124 0
M  V30 3848 H 378.597 -3.40144 3.29543 0
M  V30 3849 H 379.021 -3.29448 5.91433 0
M  V30 3850 H 383.663 -2.94698 3.03171 0
M  V30 3851 H 381.381 -3.05156 7.48268 0
M  V30 3852 H 384.967 -2.75465 5.12455 0
M  V30 3853 H 383.847 -2.80818 7.32196 0
M  V30 3854 N 381.35 -0.985608 -1.22978 0
M  V30 3855 C 382.599 -0.652881 -1.90841 0
M  V30 3856 C 382.912 0.817842 -1.77681 0
M  V30 3857 O 384.118 1.26185 -2.40395 0
M  V30 3858 C 382.574 -1.11717 -3.42122 0
M  V30 3859 C 382.182 -2.6126 -3.63933 0
M  V30 3860 C 383.926 -0.85843 -4.1573 0
M  V30 3861 C 381.833 -3.0133 -5.08876 0
M  V30 3862 H 380.763 -0.240491 -0.714619 0
M  V30 3863 H 383.414 -1.1942 -1.39324 0
M  V30 3864 H 381.796 -0.504027 -3.92779 0
M  V30 3865 H 382.97 -3.27858 -3.23799 0
M  V30 3866 H 381.285 -2.84937 -3.03644 0
M  V30 3867 H 383.882 -1.13359 -5.22546 0
M  V30 3868 H 384.225 0.205461 -4.15793 0
M  V30 3869 H 384.758 -1.43341 -3.71077 0
M  V30 3870 H 381.497 -4.06864 -5.13947 0
M  V30 3871 H 381.017 -2.3943 -5.49939 0
M  V30 3872 H 382.696 -2.92224 -5.77247 0
M  V30 3873 N 382.828 1.3818 -0.7579 0
M  V30 3874 C 383.776 2.32277 -0.122482 0
M  V30 3875 C 384.77 1.54238 0.700505 0
M  V30 3876 O 385.976 1.69737 0.599119 0
M  V30 3877 H 382.351 0.751712 -0.0208143 0
M  V30 3878 H 384.322 2.83469 -0.932099 0
M  V30 3879 C 383.071 3.39447 0.753076 0
M  V30 3880 H 382.394 3.99591 0.129184 0
M  V30 3881 H 383.834 4.07684 1.16489 0
M  V30 3882 C 382.293 2.78375 1.8976 0
M  V30 3883 O 382.823 2.68025 2.99208 0
M  V30 3884 N 381.029 2.36121 1.69397 0
M  V30 3885 H 380.576 2.4474 0.803762 0
M  V30 3886 H 380.534 1.95602 2.46145 0
M  V30 3887 N 384.306 0.507319 1.49211 0
M  V30 3888 C 385.236 -0.256939 2.32082 0
M  V30 3889 C 386.217 -0.956609 1.40652 0
M  V30 3890 O 387.402 -0.946788 1.69557 0
M  V30 3891 C 384.532 -1.31802 3.21318 0
M  V30 3892 C 383.486 -0.737855 4.21592 0
M  V30 3893 C 382.812 -1.89992 4.99807 0
M  V30 3894 C 384.112 0.275325 5.21574 0
M  V30 3895 H 385.806 0.434798 2.96226 0
M  V30 3896 H 383.352 0.210546 1.42452 0
M  V30 3897 H 385.305 -1.86045 3.78107 0
M  V30 3898 H 384.029 -2.03903 2.5513 0
M  V30 3899 H 382.688 -0.217126 3.65956 0
M  V30 3900 H 382.336 -2.60877 4.30061 0
M  V30 3901 H 382.036 -1.51777 5.6766 0
M  V30 3902 H 383.56 -2.44657 5.59442 0
M  V30 3903 H 384.974 -0.179193 5.7302 0
M  V30 3904 H 383.371 0.573649 5.97352 0
M  V30 3905 H 384.441 1.18903 4.70096 0
M  V30 3906 N 385.784 -1.5574 0.241426 0
M  V30 3907 C 387.2 -1.59196 -0.113548 0
M  V30 3908 C 387.4 -1.25852 -1.57364 0
M  V30 3909 O 386.456 -1.00322 -2.31715 0
M  V30 3910 C 387.769 -2.99814 0.230695 0
M  V30 3911 C 389.317 -3.12513 0.174547 0
M  V30 3912 C 389.792 -4.55342 0.492744 0
M  V30 3913 N 391.283 -4.61076 0.443043 0
M  V30 3914 C 392.018 -5.6956 0.662484 0
M  V30 3915 N 391.514 -6.86328 0.944761 0
M  V30 3916 N 393.307 -5.58957 0.593564 0
M  V30 3917 H 385.458 -1.75685 1.19368 0
M  V30 3918 H 387.721 -0.81756 0.479896 0
M  V30 3919 H 387.427 -3.28932 1.24485 0
M  V30 3920 H 387.301 -3.74568 -0.444833 0
M  V30 3921 H 389.688 -2.83179 -0.830277 0
M  V30 3922 H 389.769 -2.40045 0.883845 0
M  V30 3923 H 389.413 -4.85396 1.4951 0
M  V30 3924 H 389.343 -5.26062 -0.23797 0
M  V30 3925 H 391.834 -3.77179 0.233374 0
M  V30 3926 H 392.147 -7.64935 1.09977 0
M  V30 3927 H 390.492 -6.88025 0.982175 0
M  V30 3928 H 393.683 -4.66611 0.373123 0
M  V30 3929 H 393.856 -6.43433 0.767981 0
M  V30 3930 N 387.262 0.0317525 -1.57568 0
M  V30 3931 C 388.49 0.734949 -1.93407 0
M  V30 3932 C 388.905 1.69036 -0.84096 0
M  V30 3933 O 388.262 1.81582 0.182836 0
M  V30 3934 C 388.313 1.49432 -3.29169 0
M  V30 3935 O 388.034 0.577261 -4.3428 0
M  V30 3936 C 389.535 2.29492 -3.79273 0
M  V30 3937 H 386.755 0.206706 -0.638368 0
M  V30 3938 H 389.299 -0.00992046 -2.04498 0
M  V30 3939 H 387.454 2.1911 -3.19483 0
M  V30 3940 H 387.868 1.10952 -5.1263 0
M  V30 3941 H 389.342 2.78172 -4.76785 0
M  V30 3942 H 389.819 3.10794 -3.10328 0
M  V30 3943 H 390.425 1.64894 -3.92033 0
M  V30 3944 N 388.74 1.54641 0.303973 0
M  V30 3945 C 389.688 1.86137 1.39484 0
M  V30 3946 C 390.682 0.734854 1.52631 0
M  V30 3947 O 391.888 0.918803 1.54784 0
M  V30 3948 H 388.263 0.590324 0.465856 0
M  V30 3949 H 390.234 2.77324 1.10154 0
M  V30 3950 C 388.983 2.12274 2.75382 0
M  V30 3951 H 388.306 2.98429 2.66046 0
M  V30 3952 H 389.746 2.38254 3.5073 0
M  V30 3953 C 388.205 0.920365 3.24085 0
M  V30 3954 O 388.735 0.139377 4.01458 0
M  V30 3955 N 386.941 0.726566 2.81371 0
M  V30 3956 H 386.488 1.36332 2.18567 0
M  V30 3957 H 386.446 -0.0763799 3.14307 0
M  V30 3958 N 390.218 -0.567019 1.47046 0
M  V30 3959 C 391.166 -1.69593 1.59188 0
M  V30 3960 C 392.16 -1.63046 0.459609 0
M  V30 3961 O 393.366 -1.6835 0.637058 0
M  V30 3962 H 389.741 -0.560993 0.500791 0
M  V30 3963 H 391.712 -1.56488 2.54075 0
M  V30 3964 C 390.461 -3.07964 1.61411 0
M  V30 3965 H 389.784 -3.13679 2.47881 0
M  V30 3966 H 391.224 -3.86671 1.73958 0
M  V30 3967 C 389.683 -3.35123 0.34559 0
M  V30 3968 O 390.213 -3.97812 -0.557521 0
M  V30 3969 N 388.419 -2.89699 0.22864 0
M  V30 3970 H 387.966 -2.38863 0.964479 0
M  V30 3971 H 387.924 -3.08242 -0.619192 0
M  V30 3972 N 391.696 -1.35014 -0.812953 0
M  V30 3973 C 392.936 -1.29289 -1.58315 0
M  V30 3974 C 393.3 0.132727 -1.91541 0
M  V30 3975 O 394.501 0.314269 -2.66957 0
M  V30 3976 C 392.772 -2.1681 -2.84127 0
M  V30 3977 S 394.331 -2.28538 -3.74588 0
M  V30 3978 H 391.149 -0.459569 -0.542511 0
M  V30 3979 H 393.751 -1.70336 -0.959467 0
M  V30 3980 H 392.455 -3.19379 -2.57731 0
M  V30 3981 H 391.986 -1.76697 -3.51485 0
M  V30 3982 H 394.001 -1.4655 -4.74065 0
M  V30 3983 N 393.175 1.03435 -1.18907 0
M  V30 3984 C 394.138 2.09756 -0.923844 0
M  V30 3985 C 395.138 1.60528 0.093416 0
M  V30 3986 O 396.328 1.73631 -0.140727 0
M  V30 3987 C 393.46 3.38692 -0.387354 0
M  V30 3988 H 394.653 2.34719 -1.86674 0
M  V30 3989 H 392.206 1.19959 -1.00197 0
M  V30 3990 H 392.941 3.19396 0.561845 0
M  V30 3991 H 392.726 3.75742 -1.12074 0
M  V30 3992 H 394.216 4.17016 -0.220694 0
M  V30 3993 N 394.653 0.992116 1.22453 0
M  V30 3994 C 395.881 0.685944 1.95198 0
M  V30 3995 C 396.296 -0.749233 1.73297 0
M  V30 3996 O 395.653 -1.50549 1.03156 0
M  V30 3997 C 395.704 0.981395 3.47924 0
M  V30 3998 O 395.425 2.36018 3.6909 0
M  V30 3999 C 396.926 0.692815 4.37853 0
M  V30 4000 H 394.146 0.253821 0.621141 0
M  V30 4001 H 396.69 1.32668 1.55626 0
M  V30 4002 H 394.845 0.386481 3.85467 0
M  V30 4003 H 395.259 2.45884 4.63294 0
M  V30 4004 H 396.733 0.949818 5.43767 0
M  V30 4005 H 397.21 -0.373181 4.37612 0
M  V30 4006 H 397.816 1.26874 4.05935 0
M  V30 4007 N 396.131 -1.37776 0.765217 0
M  V30 4008 C 397.38 -1.99092 0.323307 0
M  V30 4009 C 397.693 -1.61434 -1.10446 0
M  V30 4010 O 398.899 -2.15805 -1.64743 0
M  V30 4011 C 397.355 -3.56019 0.527098 0
M  V30 4012 C 396.963 -4.0262 1.96471 0
M  V30 4013 C 398.707 -4.2424 0.148483 0
M  V30 4014 C 396.614 -5.52233 2.11644 0
M  V30 4015 H 395.544 -0.744846 0.117137 0
M  V30 4016 H 398.195 -1.57391 0.943417 0
M  V30 4017 H 396.577 -3.95667 -0.162372 0
M  V30 4018 H 397.751 -3.74234 2.68859 0
M  V30 4019 H 396.066 -3.47161 2.29931 0
M  V30 4020 H 398.663 -5.34159 0.240456 0
M  V30 4021 H 399.006 -4.06446 -0.900422 0
M  V30 4022 H 399.539 -3.89872 0.79025 0
M  V30 4023 H 396.278 -5.74945 3.1483 0
M  V30 4024 H 395.798 -5.82324 1.4373 0
M  V30 4025 H 397.477 -6.18106 1.91193 0
M  V30 4026 N 397.609 -0.515225 -1.4894 0
M  V30 4027 C 398.855 0.0242508 -2.02785 0
M  V30 4028 C 399.188 1.35323 -1.39289 0
M  V30 4029 O 398.463 1.87041 -0.533469 0
M  V30 4030 C 398.746 0.16184 -3.59736 0
M  V30 4031 C 398.599 -1.19127 -4.33738 0
M  V30 4032 C 399.918 0.895719 -4.30888 0
M  V30 4033 H 397.037 0.00733914 -0.736963 0
M  V30 4034 H 399.679 -0.669395 -1.77818 0
M  V30 4035 H 397.829 0.752624 -3.8114 0
M  V30 4036 H 399.501 -1.82202 -4.23792 0
M  V30 4037 H 397.744 -1.77695 -3.95736 0
M  V30 4038 H 398.415 -1.04815 -5.41957 0
M  V30 4039 H 400.891 0.394528 -4.14225 0
M  V30 4040 H 399.767 0.960859 -5.40425 0
M  V30 4041 H 400.028 1.9427 -3.97129 0
M  V30 4042 N 399.087 1.5561 -0.249682 0
M  V30 4043 C 400.02 2.17537 0.689408 0
M  V30 4044 C 400.998 1.12829 1.17083 0
M  V30 4045 O 402.182 1.41229 1.24846 0
M  V30 4046 C 399.309 2.77828 1.93725 0
M  V30 4047 C 398.355 3.95615 1.59346 0
M  V30 4048 S 399.188 5.30988 0.69367 0
M  V30 4049 C 400.344 5.94734 1.95046 0
M  V30 4050 H 400.577 2.96852 0.163142 0
M  V30 4051 H 398.11 1.54362 -0.0341166 0
M  V30 4052 H 400.068 3.13199 2.65361 0
M  V30 4053 H 398.729 1.98454 2.43465 0
M  V30 4054 H 397.922 4.364 2.52132 0
M  V30 4055 H 397.524 3.61535 0.957512 0
M  V30 4056 H 399.816 6.12419 2.89739 0
M  V30 4057 H 400.759 6.90109 1.58604 0
M  V30 4058 H 401.167 5.23832 2.10381 0
M  V30 4059 N 400.565 -0.0233959 1.57583 0
M  V30 4060 C 401.976 -0.56927 1.77809 0
M  V30 4061 C 402.327 -1.75284 0.881472 0
M  V30 4062 O 401.452 -2.1626 0.0777805 0
M  V30 4063 C 402.047 -1.03949 3.22459 0
M  V30 4064 C 400.606 -1.53084 3.43864 0
M  V30 4065 C 399.753 -0.471454 2.73263 0
M  V30 4066 H 402.704 0.202825 1.57399 0
M  V30 4067 H 402.725 -1.90661 3.29285 0
M  V30 4068 H 402.237 -0.177865 3.87692 0
M  V30 4069 H 400.338 -2.41414 2.83814 0
M  V30 4070 H 400.451 -1.57443 4.52491 0
M  V30 4071 H 398.815 -0.927788 2.37201 0
M  V30 4072 H 399.598 0.380808 3.41181 0
M  V30 4073 N 402.043 -1.548 -0.295768 0
M  V30 4074 C 403.273 -1.78069 -1.04762 0
M  V30 4075 C 403.681 -0.542847 -1.81245 0
M  V30 4076 O 403.024 0.497051 -1.76848 0
M  V30 4077 C 403.086 -2.93881 -2.07061 0
M  V30 4078 C 402.75 -4.31777 -1.49725 0
M  V30 4079 C 403.747 -5.11613 -0.924581 0
M  V30 4080 C 401.432 -4.78389 -1.5313 0
M  V30 4081 C 403.426 -6.36184 -0.393594 0
M  V30 4082 C 401.113 -6.02921 -0.996447 0
M  V30 4083 C 402.111 -6.81654 -0.428569 0
M  V30 4084 O 401.799 -8.0384 0.0981593 0
M  V30 4085 H 401.531 -0.597475 -0.316226 0
M  V30 4086 H 404.085 -2.02584 -0.338973 0
M  V30 4087 H 402.315 -2.65003 -2.81621 0
M  V30 4088 H 404.004 -3.04679 -2.6819 0
M  V30 4089 H 404.77 -4.76743 -0.891136 0
M  V30 4090 H 400.649 -4.17132 -1.9627 0
M  V30 4091 H 404.193 -6.97582 0.0503014 0
M  V30 4092 H 400.09 -6.37277 -1.02706 0
M  V30 4093 H 400.858 -8.18499 -0.0146455 0
M  V30 4094 N 403.521 0.559213 -1.47345 0
M  V30 4095 C 404.77 1.31281 -1.53128 0
M  V30 4096 C 405.083 1.94602 -0.197344 0
M  V30 4097 O 406.289 2.71173 -0.133154 0
M  V30 4098 C 404.745 2.38051 -2.69925 0
M  V30 4099 C 404.353 1.8093 -4.0984 0
M  V30 4100 C 406.097 3.14604 -2.84999 0
M  V30 4101 C 404.004 2.85468 -5.1794 0
M  V30 4102 H 402.934 0.493614 -0.569966 0
M  V30 4103 H 405.585 0.594155 -1.73615 0
M  V30 4104 H 403.967 3.12822 -2.42814 0
M  V30 4105 H 405.141 1.12544 -4.46845 0
M  V30 4106 H 403.456 1.16967 -3.99634 0
M  V30 4107 H 406.053 3.92666 -3.62929 0
M  V30 4108 H 406.396 3.68665 -1.93369 0
M  V30 4109 H 406.929 2.46945 -3.1187 0
M  V30 4110 H 403.668 2.36264 -6.1144 0
M  V30 4111 H 403.188 3.52269 -4.85455 0
M  V30 4112 H 404.867 3.48996 -5.44803 0
M  V30 4113 N 404.999 1.35443 0.805782 0
M  V30 4114 C 405.947 1.28465 1.93906 0
M  V30 4115 C 406.941 0.17943 1.68447 0
M  V30 4116 O 408.147 0.345459 1.76654 0
M  V30 4117 H 404.522 0.399528 0.637088 0
M  V30 4118 H 406.493 2.24206 1.96912 0
M  V30 4119 C 405.242 1.07432 3.30687 0
M  V30 4120 H 404.565 1.91716 3.50835 0
M  V30 4121 H 406.005 1.06591 4.10383 0
M  V30 4122 C 404.464 -0.22179 3.36169 0
M  V30 4123 O 404.994 -1.21731 3.82811 0
M  V30 4124 N 403.2 -0.260841 2.89427 0
M  V30 4125 H 402.747 0.549884 2.51663 0
M  V30 4126 H 402.705 -1.12777 2.93477 0
M  V30 4127 N 406.477 -1.02803 1.19454 0
M  V30 4128 C 407.425 -2.13213 0.929673 0
M  V30 4129 C 408.419 -1.69011 -0.114806 0
M  V30 4130 O 409.625 -1.79967 0.0345147 0
M  V30 4131 H 406 -0.69662 0.28324 0
M  V30 4132 H 407.971 -2.32744 1.86743 0
M  V30 4133 C 406.72 -3.4429 0.485797 0
M  V30 4134 H 406.043 -3.7872 1.28105 0
M  V30 4135 H 407.483 -4.22638 0.339582 0
M  V30 4136 C 405.942 -3.27258 -0.800244 0
M  V30 4137 O 406.472 -3.55967 -1.86146 0
M  V30 4138 N 404.678 -2.80545 -0.75781 0
M  V30 4139 H 404.225 -2.57382 0.106039 0
M  V30 4140 H 404.183 -2.6953 -1.61867 0
M  V30 4141 N 407.956 -0.998596 -1.21925 0
M  V30 4142 C 409.202 -0.678667 -1.91107 0
M  V30 4143 C 409.535 0.78791 -1.77498 0
M  V30 4144 O 408.81 1.57043 -1.1475 0
M  V30 4145 C 409.093 -1.09245 -3.43129 0
M  V30 4146 C 408.946 -2.61801 -3.6576 0
M  V30 4147 C 410.265 -0.649984 -4.35274 0
M  V30 4148 H 407.384 -0.248025 -0.694012 0
M  V30 4149 H 410.026 -1.24314 -1.43688 0
M  V30 4150 H 408.176 -0.612171 -3.83647 0
M  V30 4151 H 409.848 -3.17543 -3.34611 0
M  V30 4152 H 408.091 -3.03609 -3.09845 0
M  V30 4153 H 408.762 -2.85804 -4.7225 0
M  V30 4154 H 411.238 -1.0626 -4.02303 0
M  V30 4155 H 410.114 -0.967743 -5.40302 0
M  V30 4156 H 410.375 0.449139 -4.39813 0
M  V30 4157 N 409.434 1.37368 -0.772513 0
M  V30 4158 C 410.845 1.8231 -0.402493 0
M  V30 4159 C 411.196 1.6436 1.07146 0
M  V30 4160 O 410.321 1.15514 1.82991 0
M  V30 4161 C 410.916 3.30979 -0.723776 0
M  V30 4162 C 409.475 3.74195 -0.406802 0
M  V30 4163 C 408.622 2.59885 -0.967218 0
M  V30 4164 H 411.573 1.25829 -0.967099 0
M  V30 4165 H 411.594 3.80499 -0.00870832 0
M  V30 4166 H 411.106 3.44011 -1.7966 0
M  V30 4167 H 409.207 3.66732 0.658673 0
M  V30 4168 H 409.32 4.7027 -0.915588 0
M  V30 4169 H 407.684 2.51674 -0.391416 0
M  V30 4170 H 408.467 2.7571 -2.04546 0
M  V30 4171 N 410.912 0.523116 1.48665 0
M  V30 4172 C 411.845 -0.290518 2.26343 0
M  V30 4173 C 412.823 -0.950913 1.31895 0
M  V30 4174 O 414.007 -0.976662 1.61225 0
M  V30 4175 C 411.134 -1.41088 3.07915 0
M  V30 4176 C 410.18 -0.862597 4.17686 0
M  V30 4177 S 411.013 0.264135 5.34848 0
M  V30 4178 C 412.169 -0.858864 6.19979 0
M  V30 4179 H 412.402 0.368726 2.95005 0
M  V30 4180 H 409.935 0.30878 1.51281 0
M  V30 4181 H 411.893 -2.0527 3.55492 0
M  V30 4182 H 410.554 -2.04182 2.38681 0
M  V30 4183 H 409.747 -1.70287 4.74361 0
M  V30 4184 H 409.349 -0.297595 3.72814 0
M  V30 4185 H 411.641 -1.7591 6.54264 0
M  V30 4186 H 412.584 -0.330244 7.07329 0
M  V30 4187 H 412.992 -1.13617 5.52948 0
M  V30 4188 N 412.39 -1.55475 0.257931 0
M  V30 4189 C 413.667 -1.91155 -0.414629 0
M  V30 4190 C 414.047 -1.18008 -1.75035 0
M  V30 4191 O 413.395 -0.301193 -2.26506 0
M  V30 4192 C 413.605 -3.44283 -0.571859 0
M  V30 4193 C 414.953 -4.15744 -0.862678 0
M  V30 4194 O 415.977 -3.50083 -0.657314 0
M  V30 4195 O 414.836 -5.31909 -1.2544 0
M  V30 4196 H 411.93 -0.796016 -0.22425 0
M  V30 4197 H 414.476 -1.66976 0.302814 0
M  V30 4198 H 413.248 -3.89558 0.368844 0
M  V30 4199 H 412.871 -3.7436 -1.33943 0
M  V30 4200 N 413.868 0.0150385 -1.57593 0
M  V30 4201 C 414.816 1.02958 -2.08572 0
M  V30 4202 C 415.81 1.36554 -1.00246 0
M  V30 4203 O 417.016 1.35295 -1.18724 0
M  V30 4204 H 413.391 0.349619 -0.665786 0
M  V30 4205 H 415.362 0.573932 -2.92829 0
M  V30 4206 C 414.111 2.31752 -2.59203 0
M  V30 4207 H 413.434 2.06765 -3.42182 0
M  V30 4208 H 414.874 3.01053 -2.98568 0
M  V30 4209 C 413.333 3.01692 -1.49945 0
M  V30 4210 O 413.863 3.92083 -0.873704 0
M  V30 4211 N 412.069 2.6326 -1.23056 0
M  V30 4212 H 411.616 1.89838 -1.74125 0
M  V30 4213 H 411.574 3.10372 -0.501685 0
M  V30 4214 N 415.346 1.54954 0.287554 0
M  V30 4215 C 416.279 1.81737 1.3801 0
M  V30 4216 C 417.257 0.669412 1.48181 0
M  V30 4217 O 418.441 0.910839 1.65033 0
M  V30 4218 C 415.568 1.96606 2.75796 0
M  V30 4219 C 414.614 3.19098 2.82982 0
M  V30 4220 S 415.447 4.7683 2.43707 0
M  V30 4221 C 416.603 4.94653 3.83496 0
M  V30 4222 H 416.836 2.74122 1.15085 0
M  V30 4223 H 414.369 1.46538 0.486403 0
M  V30 4224 H 416.327 2.05858 3.55152 0
M  V30 4225 H 414.988 1.05136 2.95982 0
M  V30 4226 H 414.181 3.26344 3.84077 0
M  V30 4227 H 413.783 3.08361 2.11635 0
M  V30 4228 H 416.075 4.79502 4.78628 0
M  V30 4229 H 417.018 5.96728 3.8121 0
M  V30 4230 H 417.426 4.2272 3.74123 0
M  V30 4231 N 416.824 -0.551391 1.4764 0
M  V30 4232 C 418.071 -1.3083 1.54563 0
M  V30 4233 C 418.399 -1.93359 0.210361 0
M  V30 4234 O 417.654 -1.78721 -0.797332 0
M  V30 4235 C 417.953 -2.43469 2.61644 0
M  V30 4236 C 417.619 -1.98732 4.04742 0
M  V30 4237 C 416.281 -1.86248 4.43695 0
M  V30 4238 C 418.633 -1.64659 4.94507 0
M  V30 4239 C 415.961 -1.37995 5.70241 0
M  V30 4240 C 418.313 -1.17875 6.21521 0
M  V30 4241 C 416.977 -1.03992 6.5935 0
M  V30 4242 H 416.247 -0.478741 0.565587 0
M  V30 4243 H 418.894 -0.617697 1.81264 0
M  V30 4244 H 417.199 -3.18109 2.28722 0
M  V30 4245 H 418.896 -3.01642 2.64222 0
M  V30 4246 H 415.486 -2.09393 3.73968 0
M  V30 4247 H 419.67 -1.73174 4.65107 0
M  V30 4248 H 414.926 -1.25915 5.98294 0
M  V30 4249 H 419.1 -0.905739 6.90485 0
M  V30 4250 H 416.727 -0.663794 7.57296 0
M  V30 4251 N 418.302 -1.35869 -0.798587 0
M  V30 4252 C 419.718 -1.16082 -1.09532 0
M  V30 4253 C 419.918 0.0213124 -2.01489 0
M  V30 4254 O 418.974 0.689488 -2.42904 0
M  V30 4255 C 420.287 -2.46748 -1.7186 0
M  V30 4256 C 421.835 -2.53028 -1.84244 0
M  V30 4257 C 422.31 -3.83758 -2.49988 0
M  V30 4258 N 423.801 -3.85053 -2.57465 0
M  V30 4259 C 424.536 -4.8294 -3.09122 0
M  V30 4260 N 424.032 -5.91217 -3.61157 0
M  V30 4261 N 425.825 -4.70369 -3.0775 0
M  V30 4262 H 417.976 -2.11571 -0.187461 0
M  V30 4263 H 420.239 -0.936726 -0.145765 0
M  V30 4264 H 419.945 -3.33471 -1.11759 0
M  V30 4265 H 419.819 -2.61883 -2.71472 0
M  V30 4266 H 422.206 -1.66729 -2.43486 0
M  V30 4267 H 422.287 -2.418 -0.834643 0
M  V30 4268 H 421.931 -4.70459 -1.91393 0
M  V30 4269 H 421.861 -3.92278 -3.5132 0
M  V30 4270 H 424.352 -3.06822 -2.20609 0
M  V30 4271 H 424.665 -6.61892 -3.98896 0
M  V30 4272 H 423.01 -5.94899 -3.59333 0
M  V30 4273 H 426.201 -3.84914 -2.66381 0
M  V30 4274 H 426.374 -5.46816 -3.47701 0
M  V30 4275 N 419.78 1.02168 -1.19998 0
M  V30 4276 C 420.73 2.08969 -0.911921 0
M  V30 4277 C 421.714 1.60404 0.12621 0
M  V30 4278 O 422.906 1.76817 -0.0804706 0
M  V30 4279 C 420.035 3.402 -0.460277 0
M  V30 4280 C 419.121 3.9548 -1.53155 0
M  V30 4281 N 419.512 4.24332 -2.75275 0
M  V30 4282 C 417.81 4.23572 -1.39653 0
M  V30 4283 C 418.511 4.68834 -3.44339 0
M  V30 4284 N 417.487 4.70804 -2.71744 0
M  V30 4285 H 421.289 2.29178 -1.83997 0
M  V30 4286 H 418.803 1.20094 -1.09322 0
M  V30 4287 H 420.8 4.16235 -0.235337 0
M  V30 4288 H 419.46 3.21408 0.4612 0
M  V30 4289 H 420.471 4.13393 -3.11973 0
M  V30 4290 H 417.148 4.14005 -0.539067 0
M  V30 4291 H 418.538 5.00019 -4.4881 0
M  V30 4292 N 421.258 1.00505 1.21394 0
M  V30 4293 C 422.208 0.536503 2.21598 0
M  V30 4294 C 423.192 -0.401914 1.55799 0
M  V30 4295 O 424.384 -0.226757 1.75541 0
M  V30 4296 C 421.513 -0.135446 3.43033 0
M  V30 4297 C 420.599 0.823992 4.16018 0
M  V30 4298 N 420.99 1.97683 4.6557 0
M  V30 4299 C 419.288 0.642387 4.4135 0
M  V30 4300 C 419.989 2.58003 5.21354 0
M  V30 4301 N 418.965 1.86162 5.1073 0
M  V30 4302 H 422.767 1.41557 2.57563 0
M  V30 4303 H 420.281 0.868878 1.37202 0
M  V30 4304 H 422.278 -0.488584 4.14027 0
M  V30 4305 H 420.938 -1.01049 3.08576 0
M  V30 4306 H 421.949 2.3572 4.61147 0
M  V30 4307 H 418.626 -0.185578 4.17087 0
M  V30 4308 H 420.016 3.555 5.70149 0
M  V30 4309 N 422.737 -1.36956 0.779787 0
M  V30 4310 C 423.685 -2.32053 0.15942 0
M  V30 4311 C 424.679 -1.55333 -0.675878 0
M  V30 4312 O 425.885 -1.70668 -0.57204 0
M  V30 4313 H 422.26 -0.751286 0.0327707 0
M  V30 4314 H 424.231 -2.8195 0.977078 0
M  V30 4315 C 422.98 -3.40602 -0.698977 0
M  V30 4316 H 422.303 -3.99746 -0.0655966 0
M  V30 4317 H 423.743 -4.09486 -1.09989 0
M  V30 4318 C 422.202 -2.81359 -1.85307 0
M  V30 4319 O 422.732 -2.72751 -2.94906 0
M  V30 4320 N 420.938 -2.38786 -1.65619 0
M  V30 4321 H 420.485 -2.45987 -0.764725 0
M  V30 4322 H 420.443 -1.99493 -2.43002 0
M  V30 4323 N 424.215 -0.530993 -1.48385 0
M  V30 4324 C 425.462 0.0027373 -2.025 0
M  V30 4325 C 425.79 1.34186 -1.40799 0
M  V30 4326 O 425.045 1.88 -0.543544 0
M  V30 4327 C 425.344 0.172742 -3.56982 0
M  V30 4328 C 425.01 -1.09215 -4.37473 0
M  V30 4329 C 423.672 -1.43881 -4.59186 0
M  V30 4330 C 426.024 -1.93153 -4.84088 0
M  V30 4331 C 423.352 -2.62381 -5.2476 0
M  V30 4332 C 425.704 -3.10833 -5.50968 0
M  V30 4333 C 424.368 -3.45843 -5.70919 0
M  V30 4334 H 423.638 0.00100165 -0.740999 0
M  V30 4335 H 426.285 -0.697219 -1.78357 0
M  V30 4336 H 424.59 0.955473 -3.79971 0
M  V30 4337 H 426.287 0.600642 -3.96476 0
M  V30 4338 H 422.877 -0.812177 -4.20834 0
M  V30 4339 H 427.061 -1.67683 -4.67115 0
M  V30 4340 H 422.317 -2.89707 -5.38405 0
M  V30 4341 H 426.491 -3.7618 -5.86056 0
M  V30 4342 H 424.118 -4.37764 -6.21503 0
M  V30 4343 N 425.693 1.55336 -0.266172 0
M  V30 4344 C 426.921 2.03801 0.356756 0
M  V30 4345 C 427.336 1.14485 1.50129 0
M  V30 4346 O 426.693 0.163121 1.8177 0
M  V30 4347 C 426.744 3.51455 0.846281 0
M  V30 4348 O 426.465 4.37371 -0.252663 0
M  V30 4349 C 427.966 4.15767 1.53794 0
M  V30 4350 H 425.186 0.665906 0.0825218 0
M  V30 4351 H 427.73 2.00636 -0.39566 0
M  V30 4352 H 425.885 3.55092 1.54881 0
M  V30 4353 H 426.299 5.24358 0.122173 0
M  V30 4354 H 427.773 5.20714 1.83198 0
M  V30 4355 H 428.25 3.63404 2.46646 0
M  V30 4356 H 428.856 4.16107 0.879488 0
M  V30 4357 N 427.171 -0.0066808 1.57599 0
M  V30 4358 C 428.101 -0.999296 2.11036 0
M  V30 4359 C 429.082 -1.36278 1.01795 0
M  V30 4360 O 430.267 -1.4477 1.29442 0
M  V30 4361 C 427.397 -2.29328 2.60818 0
M  V30 4362 C 426.351 -2.07159 3.74525 0
M  V30 4363 C 425.677 -3.42512 4.10596 0
M  V30 4364 C 426.977 -1.43959 5.02069 0
M  V30 4365 H 428.671 -0.554382 2.94223 0
M  V30 4366 H 426.217 -0.265221 1.41536 0
M  V30 4367 H 428.17 -2.99117 2.96828 0
M  V30 4368 H 426.894 -2.7592 1.74745 0
M  V30 4369 H 425.553 -1.39797 3.38899 0
M  V30 4370 H 425.201 -3.86795 3.21556 0
M  V30 4371 H 424.901 -3.28498 4.87199 0
M  V30 4372 H 426.425 -4.13628 4.4916 0
M  V30 4373 H 427.839 -2.03696 5.35893 0
M  V30 4374 H 426.236 -1.40452 5.83432 0
M  V30 4375 H 427.306 -0.407992 4.83181 0
M  V30 4376 N 428.649 -1.55105 -0.279332 0
M  V30 4377 C 429.582 -1.82467 -1.37044 0
M  V30 4378 C 430.56 -0.677261 -1.47824 0
M  V30 4379 O 431.744 -0.919578 -1.64548 0
M  V30 4380 C 428.871 -1.98066 -2.7475 0
M  V30 4381 C 427.917 -3.20594 -2.81286 0
M  V30 4382 S 428.75 -4.78116 -2.41175 0
M  V30 4383 C 429.906 -4.9668 -3.80867 0
M  V30 4384 H 430.139 -2.74728 -1.1363 0
M  V30 4385 H 427.672 -1.46794 -0.478625 0
M  V30 4386 H 429.63 -2.07739 -3.54055 0
M  V30 4387 H 428.291 -1.06704 -2.9542 0
M  V30 4388 H 427.484 -3.28376 -3.82341 0
M  V30 4389 H 427.086 -3.09479 -2.09996 0
M  V30 4390 H 429.378 -4.82033 -4.76078 0
M  V30 4391 H 430.321 -5.98741 -3.78041 0
M  V30 4392 H 430.729 -4.24698 -3.71876 0
M  V30 4393 N 430.127 0.543554 -1.4793 0
M  V30 4394 C 431.376 1.29649 -1.54512 0
M  V30 4395 C 431.689 1.94382 -0.217973 0
M  V30 4396 O 432.895 2.71017 -0.161908 0
M  V30 4397 C 431.351 2.35175 -2.72435 0
M  V30 4398 C 430.959 1.76572 -4.11736 0
M  V30 4399 C 432.703 3.11564 -2.8832 0
M  V30 4400 C 430.61 2.79958 -5.20939 0
M  V30 4401 H 429.54 0.487541 -0.57517 0
M  V30 4402 H 432.191 0.575708 -1.74235 0
M  V30 4403 H 430.573 3.10229 -2.46118 0
M  V30 4404 H 431.747 1.07799 -4.48013 0
M  V30 4405 H 430.062 1.12722 -4.00852 0
M  V30 4406 H 432.659 3.88794 -3.67074 0
M  V30 4407 H 433.002 3.66594 -1.97268 0
M  V30 4408 H 433.535 2.43623 -3.14472 0
M  V30 4409 H 430.274 2.29766 -6.13912 0
M  V30 4410 H 429.794 3.47101 -4.89164 0
M  V30 4411 H 431.473 3.43198 -5.48474 0
M  V30 4412 N 431.605 1.3629 0.791371 0
M  V30 4413 C 432.854 1.29742 1.54434 0
M  V30 4414 C 433.167 -0.121729 1.95221 0
M  V30 4415 O 434.373 -0.309579 2.69729 0
M  V30 4416 C 432.829 2.27623 2.78776 0
M  V30 4417 C 432.437 3.74963 2.45166 0
M  V30 4418 C 434.181 2.30047 3.56761 0
M  V30 4419 C 432.088 4.64626 3.65891 0
M  V30 4420 H 431.018 0.482113 0.579727 0
M  V30 4421 H 433.669 1.61642 0.868565 0
M  V30 4422 H 432.051 1.88714 3.48142 0
M  V30 4423 H 433.225 4.22596 1.83709 0
M  V30 4424 H 431.54 3.75295 1.80396 0
M  V30 4425 H 434.137 2.94247 4.46456 0
M  V30 4426 H 434.48 1.30846 3.95203 0
M  V30 4427 H 435.013 2.67563 2.94372 0
M  V30 4428 H 431.752 5.64883 3.32547 0
M  V30 4429 H 431.272 4.2171 4.26521 0
M  V30 4430 H 432.951 4.80801 4.32943 0
M  V30 4431 N 433.083 -1.0153 1.20538 0
M  V30 4432 C 434.494 -1.56598 1.01657 0
M  V30 4433 C 434.845 -1.91505 -0.426668 0
M  V30 4434 O 433.97 -1.72375 -1.30827 0
M  V30 4435 C 434.565 -2.84542 1.83905 0
M  V30 4436 C 433.124 -3.36133 1.69386 0
M  V30 4437 C 432.271 -2.09427 1.81757 0
M  V30 4438 H 435.222 -0.838974 1.34711 0
M  V30 4439 H 435.243 -3.56004 1.34319 0
M  V30 4440 H 434.755 -2.59105 2.8894 0
M  V30 4441 H 432.856 -3.66528 0.669933 0
M  V30 4442 H 432.969 -4.08248 2.50739 0
M  V30 4443 H 431.333 -2.21941 1.24957 0
M  V30 4444 H 432.116 -1.86414 2.88279 0
M  V30 4445 N 434.561 -1.01147 -1.20859 0
M  V30 4446 C 435.808 -0.697865 -1.90095 0
M  V30 4447 C 436.136 0.772014 -1.78522 0
M  V30 4448 O 435.391 1.57595 -1.16027 0
M  V30 4449 C 435.69 -1.0727 -3.40922 0
M  V30 4450 C 435.356 -2.53792 -3.72693 0
M  V30 4451 C 434.018 -2.93829 -3.81075 0
M  V30 4452 C 436.37 -3.48674 -3.87397 0
M  V30 4453 C 433.698 -4.27696 -4.01613 0
M  V30 4454 C 436.05 -4.82223 -4.09444 0
M  V30 4455 C 434.714 -5.21973 -4.16054 0
M  V30 4456 H 433.984 -0.255367 -0.695607 0
M  V30 4457 H 436.631 -1.27111 -1.43231 0
M  V30 4458 H 434.936 -0.417799 -3.89566 0
M  V30 4459 H 436.633 -0.807818 -3.92779 0
M  V30 4460 H 433.223 -2.21768 -3.66765 0
M  V30 4461 H 437.407 -3.18904 -3.80281 0
M  V30 4462 H 432.663 -4.58055 -4.04964 0
M  V30 4463 H 436.837 -5.55672 -4.19763 0
M  V30 4464 H 434.464 -6.25717 -4.31721 0
M  V30 4465 N 436.039 1.36541 -0.78704 0
M  V30 4466 C 437.285 1.99599 -0.358872 0
M  V30 4467 C 437.618 1.62323 1.06606 0
M  V30 4468 O 436.893 0.876858 1.73613 0
M  V30 4469 C 437.176 3.56327 -0.519944 0
M  V30 4470 C 437.029 4.03464 -1.98839 0
M  V30 4471 C 438.348 4.4005 0.0664737 0
M  V30 4472 H 435.467 0.725107 -0.131869 0
M  V30 4473 H 438.109 1.6199 -0.992936 0
M  V30 4474 H 436.259 3.88495 0.0198321 0
M  V30 4475 H 437.931 3.81793 -2.58905 0
M  V30 4476 H 436.174 3.55092 -2.49183 0
M  V30 4477 H 436.845 5.12439 -2.05207 0
M  V30 4478 H 439.321 4.14228 -0.394267 0
M  V30 4479 H 438.197 5.48847 -0.0762682 0
M  V30 4480 H 438.458 4.26655 1.15835 0
M  V30 4481 N 437.518 0.538854 1.48102 0
M  V30 4482 C 438.929 0.100679 1.86428 0
M  V30 4483 C 439.28 -1.32447 1.44749 0
M  V30 4484 O 438.405 -1.99339 0.842199 0
M  V30 4485 C 439 0.175933 3.38343 0
M  V30 4486 C 437.559 -0.207098 3.7583 0
M  V30 4487 C 436.706 0.531741 2.72154 0
M  V30 4488 H 439.657 0.749614 1.3988 0
M  V30 4489 H 439.678 -0.610144 3.75576 0
M  V30 4490 H 439.19 1.21328 3.68648 0
M  V30 4491 H 437.291 -1.24626 3.5114 0
M  V30 4492 H 437.404 0.138687 4.78899 0
M  V30 4493 H 435.768 -0.0230462 2.5469 0
M  V30 4494 H 436.551 1.56989 3.05302 0
M  V30 4495 N 438.996 -1.55193 0.274407 0
M  V30 4496 C 439.926 -2.25471 -0.607032 0
M  V30 4497 C 440.907 -1.24461 -1.15946 0
M  V30 4498 O 442.092 -1.53179 -1.19373 0
M  V30 4499 C 439.222 -2.97526 -1.79153 0
M  V30 4500 C 438.176 -4.05459 -1.37067 0
M  V30 4501 C 437.502 -4.65084 -2.6382 0
M  V30 4502 C 438.802 -5.19691 -0.521389 0
M  V30 4503 H 440.496 -2.99393 -0.0209343 0
M  V30 4504 H 438.042 -1.43997 -0.00862866 0
M  V30 4505 H 439.995 -3.45402 -2.41404 0
M  V30 4506 H 438.719 -2.21138 -2.40344 0
M  V30 4507 H 437.378 -3.58393 -0.771355 0
M  V30 4508 H 437.026 -3.85365 -3.23268 0
M  V30 4509 H 436.726 -5.37961 -2.36372 0
M  V30 4510 H 438.25 -5.15708 -3.26921 0
M  V30 4511 H 439.664 -5.63623 -1.04889 0
M  V30 4512 H 438.061 -5.99126 -0.341825 0
M  V30 4513 H 439.131 -4.82713 0.46 0
M  V30 4514 N 440.474 -0.00167713 -1.576 0
M  V30 4515 C 441.751 0.719951 -1.81868 0
M  V30 4516 C 442.131 1.91895 -0.879747 0
M  V30 4517 O 441.479 2.28389 0.0711423 0
M  V30 4518 C 441.689 1.12409 -3.30402 0
M  V30 4519 C 443.037 1.52724 -3.96182 0
M  V30 4520 O 444.061 1.21784 -3.34734 0
M  V30 4521 O 442.92 2.10265 -5.04431 0
M  V30 4522 H 440.014 0.350707 -0.748955 0
M  V30 4523 H 442.56 -0.0272597 -1.69678 0
M  V30 4524 H 441.332 0.269532 -3.90371 0
M  V30 4525 H 440.955 1.93035 -3.47596 0
M  V30 4526 N 441.952 1.55251 0.271103 0
M  V30 4527 C 443.182 1.79713 1.01916 0
M  V30 4528 C 443.59 0.571613 1.80359 0
M  V30 4529 O 442.933 -0.468853 1.77616 0
M  V30 4530 C 442.995 2.97138 2.02359 0
M  V30 4531 C 442.659 4.34104 1.42837 0
M  V30 4532 C 443.656 5.13019 0.843071 0
M  V30 4533 C 441.341 4.80765 1.455 0
M  V30 4534 C 443.335 6.36729 0.292333 0
M  V30 4535 C 441.022 6.0443 0.900402 0
M  V30 4536 C 442.02 6.8225 0.32007 0
M  V30 4537 O 441.708 8.03582 -0.226031 0
M  V30 4538 H 441.44 0.602431 0.306681 0
M  V30 4539 H 443.994 2.03097 0.306701 0
M  V30 4540 H 442.224 2.6945 2.77369 0
M  V30 4541 H 443.913 3.08907 2.63309 0
M  V30 4542 H 444.679 4.781 0.815178 0
M  V30 4543 H 440.558 4.20202 1.89609 0
M  V30 4544 H 444.102 6.97414 -0.161274 0
M  V30 4545 H 439.999 6.3883 0.925541 0
M  V30 4546 H 440.767 8.18418 -0.115572 0
M  V30 4547 N 443.43 -0.535701 1.48216 0
M  V30 4548 C 444.655 -1.32149 1.59848 0
M  V30 4549 C 445.08 -1.86338 0.256842 0
M  V30 4550 O 444.438 -1.64107 -0.770632 0
M  V30 4551 C 444.486 -2.45224 2.64381 0
M  V30 4552 O 443.59 -3.48093 2.21144 0
M  V30 4553 H 442.931 -0.391634 0.536208 0
M  V30 4554 H 445.461 -0.645202 1.94161 0
M  V30 4555 H 445.471 -2.91491 2.85476 0
M  V30 4556 H 444.146 -2.05143 3.61786 0
M  V30 4557 H 442.723 -3.07984 2.10239 0
M  V30 4558 N 444.908 -1.36708 -0.784132 0
M  V30 4559 C 446.133 -1.34565 -1.5782 0
M  V30 4560 C 446.558 0.0695257 -1.87971 0
M  V30 4561 O 445.916 1.04302 -1.48293 0
M  V30 4562 C 445.964 -2.17952 -2.87279 0
M  V30 4563 O 445.068 -1.57563 -3.81114 0
M  V30 4564 H 444.409 -0.460337 -0.478524 0
M  V30 4565 H 446.939 -1.80064 -0.971495 0
M  V30 4566 H 446.949 -2.30721 -3.365 0
M  V30 4567 H 445.624 -3.20823 -2.64661 0
M  V30 4568 H 444.201 -1.53764 -3.39722 0
M  V30 4569 N 446.386 1.0089 -1.21074 0
M  V30 4570 C 447.663 1.71834 -0.934469 0
M  V30 4571 C 448.043 2.0368 0.554753 0
M  V30 4572 O 447.391 1.70742 1.51854 0
M  V30 4573 C 447.601 2.98061 -1.8155 0
M  V30 4574 C 448.949 3.7117 -2.06199 0
M  V30 4575 O 449.973 3.08034 -1.78867 0
M  V30 4576 O 448.832 4.84721 -2.52404 0
M  V30 4577 H 445.926 0.749253 -0.35007 0
M  V30 4578 H 448.472 1.06668 -1.31985 0
M  V30 4579 H 447.244 2.70908 -2.82355 0
M  V30 4580 H 446.867 3.70968 -1.43068 0
M  V30 4581 N 447.864 1.01787 1.20321 0
M  V30 4582 C 449.089 0.727009 1.9424 0
M  V30 4583 C 449.514 -0.706179 1.74341 0
M  V30 4584 O 448.872 -1.48609 1.03852 0
M  V30 4585 C 448.92 1.06958 3.44372 0
M  V30 4586 O 448.024 0.181983 4.11998 0
M  V30 4587 H 447.365 0.269626 0.606793 0
M  V30 4588 H 449.895 1.36158 1.52716 0
M  V30 4589 H 449.905 1.02182 3.94997 0
M  V30 4590 H 448.58 2.11378 3.58179 0
M  V30 4591 H 447.157 0.287378 3.71791 0
M  V30 4592 N 449.342 -1.36122 0.79427 0
M  V30 4593 C 450.567 -2.03891 0.379871 0
M  V30 4594 C 450.992 -1.59488 -0.997251 0
M  V30 4595 O 450.35 -0.765652 -1.64339 0
M  V30 4596 C 450.398 -3.57687 0.457442 0
M  V30 4597 O 449.502 -4.08931 -0.5338 0
M  V30 4598 H 448.843 -0.6443 0.160541 0
M  V30 4599 H 451.373 -1.73976 1.07673 0
M  V30 4600 H 451.383 -4.06721 0.322792 0
M  V30 4601 H 450.058 -3.89357 1.46199 0
M  V30 4602 H 448.635 -3.71154 -0.360409 0
M  V30 4603 N 450.82 -0.546701 -1.47814 0
M  V30 4604 C 452.048 -0.0232857 -2.06887 0
M  V30 4605 C 452.463 1.26571 -1.4009 0
M  V30 4606 O 451.82 1.7569 -0.493906 0
M  V30 4607 C 451.871 0.186975 -3.61016 0
M  V30 4608 O 451.592 -1.05097 -4.25307 0
M  V30 4609 C 453.093 0.748872 -4.36929 0
M  V30 4610 H 450.313 -0.0410763 -0.669742 0
M  V30 4611 H 452.857 -0.757117 -1.89968 0
M  V30 4612 H 451.012 0.870903 -3.77484 0
M  V30 4613 H 451.426 -0.842121 -5.17695 0
M  V30 4614 H 452.9 0.845334 -5.45489 0
M  V30 4615 H 453.377 1.75772 -4.02493 0
M  V30 4616 H 453.983 0.100979 -4.2518 0
M  V30 4617 N 452.299 1.55045 -0.282633 0
M  V30 4618 C 453.529 2.03872 0.334635 0
M  V30 4619 C 453.937 1.16018 1.49454 0
M  V30 4620 O 453.28 0.174449 1.8287 0
M  V30 4621 C 453.342 3.48791 0.870905 0
M  V30 4622 C 453.006 4.56715 -0.161338 0
M  V30 4623 C 454.003 5.10513 -0.983466 0
M  V30 4624 C 451.688 5.01417 -0.297745 0
M  V30 4625 C 453.682 6.07538 -1.92811 0
M  V30 4626 C 451.369 5.98265 -1.24586 0
M  V30 4627 C 452.367 6.51208 -2.05954 0
M  V30 4628 O 452.055 7.46162 -2.99162 0
M  V30 4629 H 451.787 0.671324 0.0793742 0
M  V30 4630 H 454.341 2.01169 -0.41473 0
M  V30 4631 H 452.571 3.48758 1.67047 0
M  V30 4632 H 454.26 3.80916 1.40207 0
M  V30 4633 H 455.026 4.76785 -0.888856 0
M  V30 4634 H 450.905 4.59849 0.325604 0
M  V30 4635 H 454.449 6.48787 -2.56363 0
M  V30 4636 H 450.346 6.31412 -1.34126 0
M  V30 4637 H 451.114 7.63903 -2.93929 0
M  V30 4638 N 453.777 0.010035 1.57597 0
M  V30 4639 C 455.023 -0.673697 1.91283 0
M  V30 4640 C 455.356 -1.72863 0.884979 0
M  V30 4641 O 454.631 -1.94268 -0.0949487 0
M  V30 4642 C 454.914 -1.30766 3.35518 0
M  V30 4643 C 454.767 -0.263578 4.49027 0
M  V30 4644 C 456.086 -2.23105 3.79358 0
M  V30 4645 H 453.205 -0.243439 0.695634 0
M  V30 4646 H 455.847 0.0633864 1.89894 0
M  V30 4647 H 453.997 -1.93588 3.36832 0
M  V30 4648 H 455.669 0.365738 4.59848 0
M  V30 4649 H 453.912 0.413077 4.31829 0
M  V30 4650 H 454.583 -0.746398 5.4693 0
M  V30 4651 H 457.059 -1.70289 3.79659 0
M  V30 4652 H 455.935 -2.64424 4.81011 0
M  V30 4653 H 456.196 -3.11433 3.13787 0
M  V30 4654 N 455.255 -1.55392 -0.262866 0
M  V30 4655 C 456.666 -1.67079 -0.833158 0
M  V30 4656 C 457.017 -0.604539 -1.86654 0
M  V30 4657 O 456.142 0.252138 -2.14926 0
M  V30 4658 C 456.737 -3.02891 -1.51797 0
M  V30 4659 C 455.296 -3.16571 -2.03617 0
M  V30 4660 C 454.443 -2.62909 -0.881701 0
M  V30 4661 H 457.394 -1.58652 -0.0389986 0
M  V30 4662 H 457.415 -2.96445 -2.38538 0
M  V30 4663 H 456.927 -3.80473 -0.765619 0
M  V30 4664 H 455.028 -2.43782 -2.81782 0
M  V30 4665 H 455.141 -4.23271 -2.24452 0
M  V30 4666 H 453.505 -2.20324 -1.27786 0
M  V30 4667 H 454.288 -3.43003 -0.14269 0
M  V30 4668 N 456.733 0.527833 -1.48498 0
M  V30 4669 C 457.982 1.28003 -1.55878 0
M  V30 4670 C 458.295 1.9414 -0.238577 0
M  V30 4671 O 459.501 2.7083 -0.190643 0
M  V30 4672 C 457.957 2.32272 -2.74914 0
M  V30 4673 C 457.565 1.72196 -4.13585 0
M  V30 4674 C 459.309 3.08488 -2.91608 0
M  V30 4675 C 457.216 2.74417 -5.23879 0
M  V30 4676 H 456.146 0.481413 -0.580308 0
M  V30 4677 H 458.797 0.557195 -1.74836 0
M  V30 4678 H 457.179 3.07601 -2.49395 0
M  V30 4679 H 458.353 1.03041 -4.49132 0
M  V30 4680 H 456.668 1.08464 -4.02025 0
M  V30 4681 H 459.265 3.84879 -3.71177 0
M  V30 4682 H 459.608 3.64481 -2.01145 0
M  V30 4683 H 460.141 2.40274 -3.17038 0
M  V30 4684 H 456.88 2.23242 -6.16314 0
M  V30 4685 H 456.4 3.41893 -4.92818 0
M  V30 4686 H 458.079 3.37362 -5.52083 0
M  V30 4687 N 458.211 1.37122 0.776871 0
M  V30 4688 C 459.439 1.3523 1.5659 0
M  V30 4689 C 459.854 -0.0635518 1.88693 0
M  V30 4690 O 459.211 -1.02394 1.51069 0
M  V30 4691 C 459.262 2.18583 2.8793 0
M  V30 4692 O 458.983 3.5465 2.57206 0
M  V30 4693 C 460.484 2.24612 3.82183 0
M  V30 4694 H 457.704 0.4634 0.485285 0
M  V30 4695 H 460.248 1.80392 0.963266 0
M  V30 4696 H 458.403 1.76943 3.4463 0
M  V30 4697 H 458.817 3.98286 3.41275 0
M  V30 4698 H 460.291 2.87267 4.71361 0
M  V30 4699 H 460.768 1.25309 4.20944 0
M  V30 4700 H 461.374 2.66543 3.31414 0
M  V30 4701 N 459.689 -1.00246 1.21608 0
M  V30 4702 C 460.935 -1.74319 1.03638 0
M  V30 4703 C 461.268 -1.89408 -0.428749 0
M  V30 4704 O 460.543 -1.43026 -1.3181 0
M  V30 4705 C 460.826 -3.15431 1.73711 0
M  V30 4706 C 460.679 -3.08049 3.27759 0
M  V30 4707 C 461.998 -4.14407 1.48173 0
M  V30 4708 H 459.117 -0.632741 0.377899 0
M  V30 4709 H 461.759 -1.16853 1.49818 0
M  V30 4710 H 459.909 -3.64493 1.34452 0
M  V30 4711 H 461.581 -2.66681 3.76403 0
M  V30 4712 H 459.824 -2.45088 3.57931 0
M  V30 4713 H 460.495 -4.07862 3.71958 0
M  V30 4714 H 462.971 -3.74061 1.82258 0
M  V30 4715 H 461.847 -5.11279 1.99713 0
M  V30 4716 H 462.108 -4.40174 0.412273 0
M  V30 4717 N 461.167 -1.02423 -1.1978 0
M  V30 4718 C 462.395 -0.737456 -1.93311 0
M  V30 4719 C 462.81 0.703023 -1.75223 0
M  V30 4720 O 462.167 1.47761 -1.07112 0
M  V30 4721 C 462.218 -1.0733 -3.45199 0
M  V30 4722 O 461.939 -2.4572 -3.62702 0
M  V30 4723 C 463.44 -0.80866 -4.35862 0
M  V30 4724 H 460.66 -0.2702 -0.614193 0
M  V30 4725 H 463.204 -1.36747 -1.52054 0
M  V30 4726 H 461.359 -0.488545 -3.84307 0
M  V30 4727 H 461.773 -2.58081 -4.56612 0
M  V30 4728 H 463.247 -1.09365 -5.41057 0
M  V30 4729 H 463.724 0.257025 -4.38447 0
M  V30 4730 H 464.33 -1.37592 -4.02428 0
M  V30 4731 N 462.645 1.35699 -0.801477 0
M  V30 4732 C 463.891 1.99208 -0.380022 0
M  V30 4733 C 464.224 1.63445 1.04878 0
M  V30 4734 O 463.499 0.895223 1.72673 0
M  V30 4735 C 463.782 3.55755 -0.557708 0
M  V30 4736 C 463.635 4.01332 -2.03107 0
M  V30 4737 C 464.954 4.40096 0.0197968 0
M  V30 4738 H 462.073 0.723667 -0.139552 0
M  V30 4739 H 464.715 1.60928 -1.01006 0
M  V30 4740 H 462.865 3.88494 -0.0213741 0
M  V30 4741 H 464.537 3.79026 -2.62939 0
M  V30 4742 H 462.78 3.52429 -2.52936 0
M  V30 4743 H 463.451 5.10234 -2.1063 0
M  V30 4744 H 465.927 4.13786 -0.438179 0
M  V30 4745 H 464.803 5.48735 -0.134477 0
M  V30 4746 H 465.064 4.2786 1.11303 0
M  V30 4747 N 464.123 0.554532 1.47522 0
M  V30 4748 C 465.086 -0.184174 2.28459 0
M  V30 4749 C 466.086 -0.845195 1.36796 0
M  V30 4750 O 467.276 -0.701467 1.59452 0
M  V30 4751 C 464.408 -1.26903 3.16399 0
M  V30 4752 H 465.601 0.526751 2.95238 0
M  V30 4753 H 463.154 0.311375 1.53167 0
M  V30 4754 H 463.889 -2.01244 2.54306 0
M  V30 4755 H 463.674 -0.799883 3.83854 0
M  V30 4756 H 465.164 -1.78794 3.77389 0
M  V30 4757 N 465.601 -1.54893 0.290851 0
M  V30 4758 C 467.012 -1.85584 -0.203816 0
M  V30 4759 C 467.363 -1.21285 -1.54222 0
M  V30 4760 O 466.488 -0.506841 -2.10381 0
M  V30 4761 C 467.083 -3.367 -0.376595 0
M  V30 4762 C 465.642 -3.6746 -0.815485 0
M  V30 4763 C 464.789 -2.77178 0.0821087 0
M  V30 4764 H 467.74 -1.50208 0.512175 0
M  V30 4765 H 467.761 -3.60656 -1.21275 0
M  V30 4766 H 467.273 -3.8347 0.59767 0
M  V30 4767 H 465.374 -3.26201 -1.80066 0
M  V30 4768 H 465.487 -4.7478 -0.641905 0
M  V30 4769 H 463.851 -2.50925 -0.436895 0
M  V30 4770 H 464.634 -3.26767 1.05254 0
M  V30 4771 N 467.08 -0.0183926 -1.57589 0
M  V30 4772 C 468.013 1.00148 -2.0505 0
M  V30 4773 C 468.991 1.32387 -0.944058 0
M  V30 4774 O 470.175 1.44237 -1.21358 0
M  V30 4775 C 467.302 2.32435 -2.46357 0
M  V30 4776 C 466.348 2.15731 -3.67916 0
M  V30 4777 S 467.181 1.46613 -5.15039 0
M  V30 4778 C 468.337 2.80293 -5.59631 0
M  V30 4779 H 468.57 0.597429 -2.91235 0
M  V30 4780 H 466.103 0.193002 -1.53189 0
M  V30 4781 H 468.061 3.0849 -2.70822 0
M  V30 4782 H 466.722 2.69975 -1.60537 0
M  V30 4783 H 465.915 3.13502 -3.9463 0
M  V30 4784 H 465.517 1.4782 -3.43548 0
M  V30 4785 H 467.809 3.76557 -5.63215 0
M  V30 4786 H 468.752 2.58256 -6.59325 0
M  V30 4787 H 469.16 2.85047 -4.87246 0
M  V30 4788 N 468.558 1.5553 0.254621 0
M  V30 4789 C 469.798 1.7876 0.991179 0
M  V30 4790 C 470.162 0.586669 1.82817 0
M  V30 4791 O 471.363 0.697585 2.5959 0
M  V30 4792 C 469.634 3.06679 1.83529 0
M  V30 4793 S 471.193 3.511 2.632 0
M  V30 4794 H 468.011 0.627916 0.333531 0
M  V30 4795 H 470.613 1.93766 0.259778 0
M  V30 4796 H 469.317 3.92158 1.20996 0
M  V30 4797 H 468.848 2.94388 2.60958 0
M  V30 4798 H 470.863 3.11823 3.8598 0
M  V30 4799 N 470.036 -0.519951 1.48776 0
M  V30 4800 C 470.999 -1.60574 1.6355 0
M  V30 4801 C 471.999 -1.52557 0.508234 0
M  V30 4802 O 473.189 -1.56047 0.774262 0
M  V30 4803 C 470.321 -3.00211 1.61512 0
M  V30 4804 H 471.514 -1.4881 2.60376 0
M  V30 4805 H 469.067 -0.742772 1.37523 0
M  V30 4806 H 469.802 -3.17471 0.662009 0
M  V30 4807 H 469.587 -3.07439 2.43359 0
M  V30 4808 H 471.077 -3.79134 1.75064 0
M  V30 4809 N 471.514 -1.37532 -0.769588 0
M  V30 4810 C 472.424 -1.35668 -1.91393 0
M  V30 4811 C 473.44 -0.255954 -1.72107 0
M  V30 4812 O 474.616 -0.491704 -1.95305 0
M  V30 4813 C 471.681 -1.16481 -3.26547 0
M  V30 4814 C 470.742 -2.36212 -3.58472 0
M  V30 4815 C 469.975 -2.17932 -4.87177 0
M  V30 4816 O 470.198 -1.1647 -5.58382 0
M  V30 4817 O 469.132 -3.06167 -5.18214 0
M  V30 4818 H 472.958 -2.32055 -1.95918 0
M  V30 4819 H 470.543 -1.18284 -0.912641 0
M  V30 4820 H 472.425 -1.07778 -4.07384 0
M  V30 4821 H 471.1 -0.231687 -3.2287 0
M  V30 4822 H 470.007 -2.50488 -2.77861 0
M  V30 4823 H 471.34 -3.281 -3.66894 0
M  V30 4824 N 472.992 0.995999 -1.22138 0
M  V30 4825 C 474.222 1.76809 -1.06874 0
M  V30 4826 C 474.63 1.85265 0.383866 0
M  V30 4827 O 473.973 1.31969 1.27789 0
M  V30 4828 C 474.035 3.2186 -1.60144 0
M  V30 4829 C 473.699 3.36958 -3.0872 0
M  V30 4830 C 474.696 3.2452 -4.0618 0
M  V30 4831 C 472.381 3.62109 -3.48112 0
M  V30 4832 C 474.375 3.37013 -5.41019 0
M  V30 4833 C 472.062 3.74243 -4.831 0
M  V30 4834 C 473.06 3.61702 -5.79362 0
M  V30 4835 O 472.748 3.73436 -7.119 0
M  V30 4836 H 472.48 0.562207 -0.375365 0
M  V30 4837 H 475.034 1.26113 -1.62125 0
M  V30 4838 H 473.264 3.73734 -0.992981 0
M  V30 4839 H 474.953 3.80775 -1.40589 0
M  V30 4840 H 475.719 3.05004 -3.77091 0
M  V30 4841 H 471.598 3.70949 -2.73712 0
M  V30 4842 H 475.142 3.27141 -6.16137 0
M  V30 4843 H 471.039 3.93266 -5.11872 0
M  V30 4844 H 471.807 3.90328 -7.19435 0
M  V30 4845 N 474.47 1.03057 1.19235 0
M  V30 4846 C 475.418 0.606391 2.24557 0
M  V30 4847 C 476.412 -0.361826 1.65491 0
M  V30 4848 O 477.618 -0.23022 1.78522 0
M  V30 4849 H 473.993 0.177838 0.730669 0
M  V30 4850 H 475.964 1.50529 2.5765 0
M  V30 4851 C 474.713 -0.0252127 3.47691 0
M  V30 4852 H 474.036 0.710838 3.9343 0
M  V30 4853 H 475.476 -0.284931 4.23042 0
M  V30 4854 C 473.935 -1.27229 3.11953 0
M  V30 4855 O 474.465 -2.36416 3.24762 0
M  V30 4856 N 472.671 -1.16169 2.6637 0
M  V30 4857 H 472.218 -0.273189 2.56147 0
M  V30 4858 H 472.176 -1.99703 2.42829 0
M  V30 4859 N 475.948 -1.35272 0.808662 0
M  V30 4860 C 477.196 -1.98316 0.389233 0
M  V30 4861 C 477.517 -1.64465 -1.04767 0
M  V30 4862 O 476.787 -0.928175 -1.72516 0
M  V30 4863 H 475.367 -0.733585 0.140935 0
M  V30 4864 H 478.029 -1.6515 1.03496 0
M  V30 4865 H 477.125 -3.08123 0.496631 0
M  V30 4866 N 477.426 -0.562348 -1.47226 0
M  V30 4867 C 478.356 0.170627 -2.32876 0
M  V30 4868 C 479.337 0.903748 -1.44106 0
M  V30 4869 O 480.522 0.883206 -1.72954 0
M  V30 4870 C 477.652 1.19786 -3.25989 0
M  V30 4871 C 476.606 0.580875 -4.2404 0
M  V30 4872 C 475.932 1.71311 -5.06514 0
M  V30 4873 C 477.232 -0.468714 -5.20193 0
M  V30 4874 H 478.926 -0.544441 -2.94408 0
M  V30 4875 H 476.472 -0.263271 -1.41573 0
M  V30 4876 H 478.425 1.71884 -3.84752 0
M  V30 4877 H 477.149 1.94294 -2.62521 0
M  V30 4878 H 475.808 0.0811538 -3.6651 0
M  V30 4879 H 475.456 2.44736 -4.39447 0
M  V30 4880 H 475.156 1.30604 -5.72902 0
M  V30 4881 H 476.68 2.23725 -5.68137 0
M  V30 4882 H 478.094 -0.0336028 -5.7329 0
M  V30 4883 H 476.491 -0.794957 -5.94811 0
M  V30 4884 H 477.561 -1.36269 -4.65359 0
M  V30 4885 N 478.904 1.54736 -0.299062 0
M  V30 4886 C 480.32 1.59507 0.0543849 0
M  V30 4887 C 480.52 1.31606 1.52585 0
M  V30 4888 O 479.576 1.08853 2.27832 0
M  V30 4889 C 480.889 2.98751 -0.34181 0
M  V30 4890 C 482.437 3.1165 -0.290414 0
M  V30 4891 C 482.912 4.53199 -0.661402 0
M  V30 4892 N 484.403 4.59114 -0.613863 0
M  V30 4893 C 485.138 5.66709 -0.873417 0
M  V30 4894 N 484.634 6.82349 -1.19884 0
M  V30 4895 N 486.427 5.56369 -0.800608 0
M  V30 4896 H 478.578 1.71133 -1.25806 0
M  V30 4897 H 480.841 0.799186 -0.509908 0
M  V30 4898 H 480.547 3.24085 -1.36608 0
M  V30 4899 H 480.421 3.75961 0.305508 0
M  V30 4900 H 482.808 2.86066 0.724605 0
M  V30 4901 H 482.889 2.366 -0.972327 0
M  V30 4902 H 482.533 4.79513 -1.67422 0
M  V30 4903 H 482.463 5.26583 0.0425612 0
M  V30 4904 H 484.954 3.76053 -0.3732 0
M  V30 4905 H 485.267 7.60326 -1.38291 0
M  V30 4906 H 483.612 6.83906 -1.23685 0
M  V30 4907 H 486.803 4.64904 -0.546045 0
M  V30 4908 H 486.976 6.40139 -1.00626 0
M  V30 4909 N 480.382 0.0267497 1.57577 0
M  V30 4910 C 481.312 -0.954308 2.13108 0
M  V30 4911 C 482.293 -1.34088 1.04663 0
M  V30 4912 O 483.478 -1.41992 1.32484 0
M  V30 4913 C 480.608 -2.23744 2.65624 0
M  V30 4914 C 479.562 -1.99168 3.78835 0
M  V30 4915 C 478.888 -3.33726 4.17769 0
M  V30 4916 C 480.188 -1.33277 5.0501 0
M  V30 4917 H 481.882 -0.491848 2.95332 0
M  V30 4918 H 479.428 -0.23514 1.42067 0
M  V30 4919 H 481.381 -2.92754 3.03106 0
M  V30 4920 H 480.105 -2.72151 1.80558 0
M  V30 4921 H 478.764 -1.32577 3.41788 0
M  V30 4922 H 478.412 -3.79888 3.29688 0
M  V30 4923 H 478.112 -3.18089 4.94058 0
M  V30 4924 H 479.636 -4.04008 4.57832 0
M  V30 4925 H 481.05 -1.92283 5.40093 0
M  V30 4926 H 479.447 -1.28045 5.8628 0
M  V30 4927 H 480.517 -0.305411 4.83937 0
M  V30 4928 N 481.861 -1.55662 -0.24637 0
M  V30 4929 C 483.086 -1.81914 -0.996093 0
M  V30 4930 C 483.511 -0.603875 -1.78143 0
M  V30 4931 O 482.869 0.447091 -1.75701 0
M  V30 4932 C 482.917 -3.05908 -1.90925 0
M  V30 4933 O 482.021 -2.82861 -3.00105 0
M  V30 4934 H 481.362 -0.600481 -0.283406 0
M  V30 4935 H 483.892 -2.02848 -0.267199 0
M  V30 4936 H 483.902 -3.35356 -2.3238 0
M  V30 4937 H 482.577 -3.93999 -1.33183 0
M  V30 4938 H 481.154 -2.64583 -2.62775 0
M  V30 4939 N 483.339 0.512053 -1.4905 0
M  V30 4940 C 484.567 1.29116 -1.61669 0
M  V30 4941 C 484.982 1.86655 -0.283787 0
M  V30 4942 O 484.339 1.67293 0.729331 0
M  V30 4943 C 484.39 2.4293 -2.67707 0
M  V30 4944 O 484.111 1.87758 -3.95826 0
M  V30 4945 C 485.612 3.34476 -2.90931 0
M  V30 4946 H 482.832 0.392009 -0.544583 0
M  V30 4947 H 485.376 0.615881 -1.95006 0
M  V30 4948 H 483.531 3.06308 -2.37179 0
M  V30 4949 H 483.945 2.62393 -4.54148 0
M  V30 4950 H 485.419 4.10642 -3.68886 0
M  V30 4951 H 485.896 3.90801 -2.00427 0
M  V30 4952 H 486.502 2.76874 -3.22832 0
M  V30 4953 N 484.817 1.37938 0.762283 0
M  V30 4954 C 486.042 1.37059 1.55659 0
M  V30 4955 C 486.467 -0.0396123 1.88058 0
M  V30 4956 O 485.825 -1.01929 1.49934 0
M  V30 4957 C 485.873 2.22494 2.83776 0
M  V30 4958 O 484.977 1.63607 3.78559 0
M  V30 4959 H 484.318 0.467892 0.47114 0
M  V30 4960 H 486.848 1.81587 0.942725 0
M  V30 4961 H 486.858 2.36045 3.32786 0
M  V30 4962 H 485.533 3.24993 2.59524 0
M  V30 4963 H 484.11 1.5915 3.37233 0
M  V30 4964 N 486.295 -0.989507 1.22664 0
M  V30 4965 C 487.225 -2.09847 1.02404 0
M  V30 4966 C 488.206 -1.70007 -0.0561303 0
M  V30 4967 O 489.391 -1.93906 0.106748 0
M  V30 4968 C 486.521 -3.41996 0.604663 0
M  V30 4969 C 485.475 -3.95699 1.63115 0
M  V30 4970 C 484.801 -5.23936 1.0675 0
M  V30 4971 C 486.101 -4.25999 3.02196 0
M  V30 4972 H 487.795 -2.27054 1.95158 0
M  V30 4973 H 485.341 -1.09111 0.939727 0
M  V30 4974 H 487.294 -4.1899 0.45002 0
M  V30 4975 H 486.018 -3.24626 -0.35855 0
M  V30 4976 H 484.677 -3.2084 1.77362 0
M  V30 4977 H 484.325 -5.02909 0.0955422 0
M  V30 4978 H 484.025 -5.60833 1.75328 0
M  V30 4979 H 485.549 -6.0356 0.924516 0
M  V30 4980 H 486.963 -4.93777 2.91303 0
M  V30 4981 H 485.36 -4.74076 3.67929 0
M  V30 4982 H 486.43 -3.33636 3.51873 0
M  V30 4983 N 487.773 -1.03688 -1.18687 0
M  V30 4984 C 488.705 -0.582696 -2.21669 0
M  V30 4985 C 489.718 0.345656 -1.59088 0
M  V30 4986 O 490.907 0.140776 -1.77944 0
M  V30 4987 C 488.007 0.169204 -3.38477 0
M  V30 4988 C 487.18 -0.766079 -4.30639 0
M  V30 4989 C 486.239 -0.0581541 -5.26168 0
M  V30 4990 O 485.265 -0.687346 -5.65035 0
M  V30 4991 N 486.467 1.20981 -5.67753 0
M  V30 4992 H 489.232 -1.46843 -2.61261 0
M  V30 4993 H 486.793 -0.916896 -1.33434 0
M  V30 4994 H 488.785 0.652543 -3.99405 0
M  V30 4995 H 487.355 0.956435 -2.97609 0
M  V30 4996 H 486.575 -1.42935 -3.67373 0
M  V30 4997 H 487.863 -1.40146 -4.89118 0
M  V30 4998 H 487.261 1.74159 -5.38224 0
M  V30 4999 H 485.818 1.6375 -6.30896 0
M  V30 5000 N 489.251 1.34841 -0.815825 0
M  V30 5001 C 490.499 1.98107 -0.399744 0
M  V30 5002 C 490.82 1.65019 1.03894 0
M  V30 5003 O 490.09 0.937311 1.72021 0
M  V30 5004 H 488.67 0.732827 -0.144823 0
M  V30 5005 H 491.332 1.64599 -1.0437 0
M  V30 5006 H 490.428 3.07856 -0.512965 0
M  V30 5007 N 490.729 0.570148 1.46925 0
M  V30 5008 C 491.659 -0.158274 2.32963 0
M  V30 5009 C 492.64 -0.896093 1.44583 0
M  V30 5010 O 493.825 -0.874022 1.7342 0
M  V30 5011 C 490.955 -1.18055 3.26619 0
M  V30 5012 C 489.909 -0.558379 4.24342 0
M  V30 5013 C 489.235 -1.68623 5.07415 0
M  V30 5014 C 490.535 0.496295 5.19937 0
M  V30 5015 H 492.229 0.560046 2.94115 0
M  V30 5016 H 489.775 0.270775 1.41431 0
M  V30 5017 H 491.728 -1.69841 3.85658 0
M  V30 5018 H 490.452 -1.92899 2.63548 0
M  V30 5019 H 489.111 -0.0617157 3.66548 0
M  V30 5020 H 488.759 -2.42402 4.40738 0
M  V30 5021 H 488.459 -1.27564 5.73586 0
M  V30 5022 H 489.983 -2.20709 5.69315 0
M  V30 5023 H 491.397 0.0640052 5.73264 0
M  V30 5024 H 489.794 0.82649 5.94381 0
M  V30 5025 H 490.864 1.38735 4.6463 0
M  V30 5026 N 492.207 -1.54576 0.307264 0
M  V30 5027 C 493.618 -1.8579 -0.184121 0
M  V30 5028 C 493.969 -1.22914 -1.52927 0
M  V30 5029 O 493.094 -0.529126 -2.09831 0
M  V30 5030 C 493.689 -3.37081 -0.340862 0
M  V30 5031 C 492.248 -3.68304 -0.776465 0
M  V30 5032 C 491.395 -2.77076 0.111503 0
M  V30 5033 H 494.346 -1.49656 0.528078 0
M  V30 5034 H 494.367 -3.61922 -1.17443 0
M  V30 5035 H 493.879 -3.82815 0.638309 0
M  V30 5036 H 491.98 -3.28092 -1.76596 0
M  V30 5037 H 492.093 -4.75434 -0.591512 0
M  V30 5038 H 490.457 -2.51374 -0.410256 0
M  V30 5039 H 491.24 -3.25632 1.08714 0
M  V30 5040 N 493.685 -0.035106 -1.57561 0
M  V30 5041 C 494.931 0.64318 -1.92331 0
M  V30 5042 C 495.264 1.71434 -0.912368 0
M  V30 5043 O 494.539 1.94395 0.0640303 0
M  V30 5044 C 494.822 1.25411 -3.37556 0
M  V30 5045 C 494.675 0.192109 -4.4939 0
M  V30 5046 C 495.994 2.17041 -3.82859 0
M  V30 5047 H 493.113 0.232341 -0.699419 0
M  V30 5048 H 495.755 -0.0935889 -1.89769 0
M  V30 5049 H 493.905 1.88205 -3.39869 0
M  V30 5050 H 495.577 -0.438849 -4.59208 0
M  V30 5051 H 493.82 -0.481725 -4.31117 0
M  V30 5052 H 494.491 0.659292 -5.48049 0
M  V30 5053 H 496.967 1.64228 -3.8232 0
M  V30 5054 H 495.843 2.56738 -4.85157 0
M  V30 5055 H 496.104 3.06401 -3.18702 0
M  V30 5056 N 495.163 1.55791 0.238111 0
M  V30 5057 C 496.096 1.86036 1.32158 0
M  V30 5058 C 497.074 0.716216 1.45976 0
M  V30 5059 O 498.258 0.962882 1.62052 0
M  V30 5060 C 495.385 2.05281 2.69402 0
M  V30 5061 C 494.431 3.27939 2.72687 0
M  V30 5062 S 495.264 4.84342 2.28413 0
M  V30 5063 C 496.42 5.06604 3.67565 0
M  V30 5064 H 496.653 2.77644 1.06306 0
M  V30 5065 H 494.186 1.48012 0.439537 0
M  V30 5066 H 496.144 2.17053 3.48423 0
M  V30 5067 H 494.805 1.14499 2.92487 0
M  V30 5068 H 493.998 3.38398 3.73501 0
M  V30 5069 H 493.6 3.14938 2.01717 0
M  V30 5070 H 495.892 4.94486 4.6313 0
M  V30 5071 H 496.835 6.08554 3.62033 0
M  V30 5072 H 497.243 4.34409 3.60485 0
M  V30 5073 N 496.642 -0.504142 1.49319 0
M  V30 5074 C 497.59 -1.62689 1.66238 0
M  V30 5075 C 498.584 -1.6095 0.528349 0
M  V30 5076 O 499.79 -1.65496 0.707887 0
M  V30 5077 H 496.165 -0.539247 0.524134 0
M  V30 5078 H 498.136 -1.45571 2.60484 0
M  V30 5079 C 496.885 -3.00841 1.74328 0
M  V30 5080 H 496.208 -3.02884 2.60963 0
M  V30 5081 H 497.648 -3.78945 1.90202 0
M  V30 5082 C 496.107 -3.33355 0.487416 0
M  V30 5083 O 496.637 -3.99819 -0.388294 0
M  V30 5084 N 494.843 -2.88469 0.351306 0
M  V30 5085 H 494.39 -2.34557 1.06492 0
M  V30 5086 H 494.348 -3.10591 -0.487899 0
M  V30 5087 N 498.12 -1.38341 -0.754957 0
M  V30 5088 C 499.348 -1.37704 -1.54419 0
M  V30 5089 C 499.763 0.0335243 -1.8877 0
M  V30 5090 O 499.12 0.999773 -1.52679 0
M  V30 5091 C 499.171 -2.23136 -2.84416 0
M  V30 5092 O 498.892 -3.58697 -2.51531 0
M  V30 5093 C 500.393 -2.30664 -3.78562 0
M  V30 5094 H 497.613 -0.471061 -0.477852 0
M  V30 5095 H 500.157 -1.81902 -0.934446 0
M  V30 5096 H 498.312 -1.82403 -3.41772 0
M  V30 5097 H 498.726 -4.03665 -3.34896 0
M  V30 5098 H 500.2 -2.9473 -4.66732 0
M  V30 5099 H 500.677 -1.3199 -4.18898 0
M  V30 5100 H 501.283 -2.71781 -3.27131 0
M  V30 5101 N 499.598 0.982988 -1.23187 0
M  V30 5102 C 501.009 1.53847 -1.05773 0
M  V30 5103 C 501.36 1.92568 0.375744 0
M  V30 5104 O 500.485 1.75783 1.26211 0
M  V30 5105 C 501.08 2.79567 -1.91384 0
M  V30 5106 C 499.639 3.31524 -1.78238 0
M  V30 5107 C 498.786 2.04534 -1.87246 0
M  V30 5108 H 501.737 0.802962 -1.36888 0
M  V30 5109 H 501.758 3.52317 -1.43711 0
M  V30 5110 H 501.27 2.51353 -2.95708 0
M  V30 5111 H 499.371 3.64623 -0.766875 0
M  V30 5112 H 499.484 4.01457 -2.61475 0
M  V30 5113 H 497.848 2.1855 -1.30797 0
M  V30 5114 H 498.631 1.78706 -2.9312 0
M  V30 5115 N 501.076 1.04316 1.18135 0
M  V30 5116 C 502.324 0.746542 1.87806 0
M  V30 5117 C 502.645 -0.728082 1.80898 0
M  V30 5118 O 501.915 -1.52554 1.22899 0
M  V30 5119 H 500.495 0.273157 0.695265 0
M  V30 5120 H 503.157 1.32044 1.43354 0
M  V30 5121 H 502.253 1.05362 2.93778 0
M  V30 5122 N 502.554 -1.34406 0.822964 0
M  V30 5123 C 503.779 -2.0304 0.423034 0
M  V30 5124 C 504.204 -1.61568 -0.963196 0
M  V30 5125 O 503.562 -0.800339 -1.62678 0
M  V30 5126 C 503.61 -3.56636 0.53321 0
M  V30 5127 O 502.714 -4.09971 -0.446939 0
M  V30 5128 H 502.055 -0.64075 0.174171 0
M  V30 5129 H 504.585 -1.71653 1.11339 0
M  V30 5130 H 504.595 -4.05945 0.408991 0
M  V30 5131 H 503.27 -3.86168 1.54425 0
M  V30 5132 H 501.847 -3.71835 -0.281601 0
M  V30 5133 N 504.032 -0.577932 -1.46621 0
M  V30 5134 C 504.98 0.170882 -2.31971 0
M  V30 5135 C 505.974 0.889086 -1.44193 0
M  V30 5136 O 507.18 0.808017 -1.60845 0
M  V30 5137 H 503.555 0.0739763 -0.748353 0
M  V30 5138 H 505.526 -0.567856 -2.92947 0
M  V30 5139 C 504.275 1.17438 -3.27267 0
M  V30 5140 H 503.598 0.63116 -3.94787 0
M  V30 5141 H 505.038 1.66882 -3.89778 0
M  V30 5142 C 503.497 2.23292 -2.52274 0
M  V30 5143 O 504.027 3.30567 -2.28229 0
M  V30 5144 N 502.233 1.97772 -2.12919 0
M  V30 5145 H 501.78 1.10545 -2.32675 0
M  V30 5146 H 501.738 2.68809 -1.63062 0
M  V30 5147 N 505.51 1.54411 -0.315457 0
M  V30 5148 C 506.442 2.21527 0.588067 0
M  V30 5149 C 507.455 1.21263 1.08624 0
M  V30 5150 O 508.644 1.47777 1.00121 0
M  V30 5151 C 505.744 2.85963 1.81875 0
M  V30 5152 C 504.917 4.12291 1.46063 0
M  V30 5153 C 503.976 4.60396 2.54799 0
M  V30 5154 O 503.002 5.25265 2.19283 0
M  V30 5155 N 504.204 4.33935 3.85591 0
M  V30 5156 H 506.969 2.99697 0.013414 0
M  V30 5157 H 504.53 1.61308 -0.138295 0
M  V30 5158 H 506.522 3.15071 2.53993 0
M  V30 5159 H 505.092 2.11548 2.30144 0
M  V30 5160 H 504.312 3.90036 0.571445 0
M  V30 5161 H 505.6 4.9452 1.19695 0
M  V30 5162 H 504.998 3.81996 4.17248 0
M  V30 5163 H 503.555 4.67718 4.53964 0
M  V30 5164 N 506.988 0.0434614 1.5754 0
M  V30 5165 C 508.235 -0.632035 1.92384 0
M  V30 5166 C 508.563 -1.71304 0.921157 0
M  V30 5167 O 507.818 -1.95583 -0.067744 0
M  V30 5168 C 508.117 -1.2738 3.3393 0
M  V30 5169 C 507.783 -0.321757 4.49751 0
M  V30 5170 C 506.445 -0.0597611 4.81163 0
M  V30 5171 C 508.797 0.331158 5.20147 0
M  V30 5172 C 506.125 0.862715 5.80322 0
M  V30 5173 C 508.477 1.24178 6.20292 0
M  V30 5174 C 507.141 1.51252 6.50138 0
M  V30 5175 H 506.411 -0.231278 0.703983 0
M  V30 5176 H 509.058 0.108294 1.91194 0
M  V30 5177 H 507.363 -2.08921 3.3145 0
M  V30 5178 H 509.06 -1.80326 3.58167 0
M  V30 5179 H 505.65 -0.53614 4.25233 0
M  V30 5180 H 509.834 0.141826 4.96097 0
M  V30 5181 H 505.09 1.08003 6.01785 0
M  V30 5182 H 509.264 1.75381 6.73954 0
M  V30 5183 H 506.891 2.22897 7.26788 0
M  V30 5184 N 508.466 -1.55915 -0.229846 0
M  V30 5185 C 509.396 -1.94754 -1.28815 0
M  V30 5186 C 510.377 -0.814657 -1.49323 0
M  V30 5187 O 511.562 -1.07631 -1.61645 0
M  V30 5188 C 508.692 -2.25705 -2.63959 0
M  V30 5189 C 507.646 -3.41406 -2.5812 0
M  V30 5190 C 506.972 -3.57941 -3.97218 0
M  V30 5191 C 508.272 -4.76616 -2.13623 0
M  V30 5192 H 509.966 -2.83404 -0.965547 0
M  V30 5193 H 507.512 -1.36353 -0.463028 0
M  V30 5194 H 509.465 -2.51467 -3.38146 0
M  V30 5195 H 508.189 -1.339 -2.9789 0
M  V30 5196 H 506.848 -3.1568 -1.86391 0
M  V30 5197 H 506.496 -2.63526 -4.28443 0
M  V30 5198 H 506.196 -4.35757 -3.94195 0
M  V30 5199 H 507.72 -3.86042 -4.73079 0
M  V30 5200 H 509.134 -5.01637 -2.77549 0
M  V30 5201 H 507.531 -5.57655 -2.21677 0
M  V30 5202 H 508.601 -4.7253 -1.08829 0
M  V30 5203 N 509.944 0.496216 -1.49584 0
M  V30 5204 C 511.172 1.27394 -1.63029 0
M  V30 5205 C 511.587 1.86344 -0.303569 0
M  V30 5206 O 510.944 1.68057 0.711547 0
M  V30 5207 C 510.995 2.40077 -2.70269 0
M  V30 5208 O 510.716 1.83549 -3.97796 0
M  V30 5209 C 512.217 3.31372 -2.94462 0
M  V30 5210 H 509.437 0.386211 -0.54871 0
M  V30 5211 H 511.981 0.595163 -1.95648 0
M  V30 5212 H 510.136 3.03775 -2.40415 0
M  V30 5213 H 510.55 2.57561 -4.56905 0
M  V30 5214 H 512.024 4.06707 -3.73221 0
M  V30 5215 H 512.501 3.88654 -2.0456 0
M  V30 5216 H 513.107 2.73435 -3.25751 0
M  V30 5217 N 511.423 1.38739 0.74761 0
M  V30 5218 C 512.648 1.38702 1.54197 0
M  V30 5219 C 513.073 -0.019664 1.8809 0
M  V30 5220 O 512.431 -1.00333 1.51006 0
M  V30 5221 C 512.479 2.25492 2.814 0
M  V30 5222 O 511.583 1.67613 3.76802 0
M  V30 5223 H 510.924 0.472863 0.466151 0
M  V30 5224 H 513.454 1.82577 0.923413 0
M  V30 5225 H 513.464 2.39561 3.30264 0
M  V30 5226 H 512.139 3.27727 2.56062 0
M  V30 5227 H 510.716 1.62718 3.35526 0
M  V30 5228 N 512.901 -0.976442 1.23707 0
M  V30 5229 C 514.178 -1.69296 0.979699 0
M  V30 5230 C 514.558 -2.0508 -0.500555 0
M  V30 5231 O 513.906 -1.74708 -1.47273 0
M  V30 5232 C 514.116 -2.93143 1.89389 0
M  V30 5233 C 515.464 -3.65572 2.15968 0
M  V30 5234 O 516.488 -3.03184 1.86971 0
M  V30 5235 O 515.347 -4.77859 2.65167 0
M  V30 5236 H 512.441 -0.739708 0.369812 0
M  V30 5237 H 514.987 -1.03131 1.34767 0
M  V30 5238 H 513.759 -2.63327 2.89439 0
M  V30 5239 H 513.382 -3.67044 1.52854 0
M  V30 5240 N 514.379 -1.04941 -1.1758 0
M  V30 5241 C 515.656 -0.671918 -1.83697 0
M  V30 5242 C 516.036 0.847929 -1.93322 0
M  V30 5243 O 515.384 1.75287 -1.46583 0
M  V30 5244 C 515.594 -1.35797 -3.21497 0
M  V30 5245 C 516.942 -1.4944 -3.97433 0
M  V30 5246 O 517.966 -1.31678 -3.30967 0
M  V30 5247 O 516.825 -1.78463 -5.1654 0
M  V30 5248 H 513.919 -0.236212 -0.792548 0
M  V30 5249 H 516.465 -1.14884 -1.24899 0
M  V30 5250 H 515.237 -2.39498 -3.09446 0
M  V30 5251 H 514.86 -0.870236 -3.8796 0
M  V30 5252 N 515.857 1.33968 -0.830081 0
M  V30 5253 C 517.104 1.98063 -0.421566 0
M  V30 5254 C 517.432 1.65787 1.0171 0
M  V30 5255 O 516.687 0.925348 1.72441 0
M  V30 5256 C 516.986 3.52679 -0.57898 0
M  V30 5257 C 516.652 4.04884 -1.98443 0
M  V30 5258 C 515.314 4.18852 -2.36888 0
M  V30 5259 C 517.666 4.32879 -2.90285 0
M  V30 5260 C 514.994 4.58145 -3.66497 0
M  V30 5261 C 517.346 4.7362 -4.19364 0
M  V30 5262 C 516.01 4.85794 -4.57778 0
M  V30 5263 H 515.28 0.724765 -0.154262 0
M  V30 5264 H 517.927 1.59792 -1.05541 0
M  V30 5265 H 516.232 3.91556 0.138219 0
M  V30 5266 H 517.929 4.00261 -0.243317 0
M  V30 5267 H 514.519 3.9448 -1.67581 0
M  V30 5268 H 518.703 4.21619 -2.61823 0
M  V30 5269 H 513.959 4.65762 -3.96075 0
M  V30 5270 H 518.133 4.9424 -4.90612 0
M  V30 5271 H 515.76 5.15998 -5.58256 0
M  V30 5272 N 517.335 0.585699 1.46312 0
M  V30 5273 C 518.267 -0.183687 2.28463 0
M  V30 5274 C 519.28 -0.85264 1.38686 0
M  V30 5275 O 520.469 -0.721701 1.6326 0
M  V30 5276 C 517.569 -1.27977 3.13808 0
M  V30 5277 C 516.742 -0.702164 4.31727 0
M  V30 5278 C 515.801 -1.68633 4.98447 0
M  V30 5279 O 514.827 -1.22121 5.55945 0
M  V30 5280 N 516.029 -3.02047 4.95729 0
M  V30 5281 H 518.794 0.521127 2.95134 0
M  V30 5282 H 516.355 0.423673 1.56258 0
M  V30 5283 H 518.347 -1.9375 3.55307 0
M  V30 5284 H 516.917 -1.8874 2.4919 0
M  V30 5285 H 516.137 0.1331 3.93975 0
M  V30 5286 H 517.425 -0.296101 5.07938 0
M  V30 5287 H 516.823 -3.42457 4.50266 0
M  V30 5288 H 515.38 -3.63301 5.41161 0
M  V30 5289 N 518.813 -1.54241 0.323641 0
M  V30 5290 C 520.038 -2.05452 -0.283605 0
M  V30 5291 C 520.463 -1.19823 -1.44997 0
M  V30 5292 O 519.821 -0.207358 -1.8011 0
M  V30 5293 C 519.869 -3.53823 -0.695795 0
M  V30 5294 O 518.973 -3.71134 -1.79815 0
M  V30 5295 H 518.314 -0.662024 -0.0511917 0
M  V30 5296 H 520.844 -1.99079 0.472073 0
M  V30 5297 H 520.854 -3.96094 -0.978434 0
M  V30 5298 H 519.529 -4.15602 0.157287 0
M  V30 5299 H 518.106 -3.40768 -1.51431 0
M  V30 5300 N 520.291 -0.0518155 -1.57515 0
M  V30 5301 C 521.702 0.483787 -1.80323 0
M  V30 5302 C 522.053 1.70879 -0.964099 0
M  V30 5303 O 521.178 2.15643 -0.180872 0
M  V30 5304 C 521.773 0.884459 -3.27052 0
M  V30 5305 C 520.332 1.36504 -3.50776 0
M  V30 5306 C 519.479 0.340539 -2.75201 0
M  V30 5307 H 522.43 -0.277691 -1.56252 0
M  V30 5308 H 522.451 1.74733 -3.38007 0
M  V30 5309 H 521.963 -0.00731093 -3.88099 0
M  V30 5310 H 520.064 2.27598 -2.95009 0
M  V30 5311 H 520.177 1.35675 -4.59488 0
M  V30 5312 H 518.541 0.81356 -2.41357 0
M  V30 5313 H 519.324 -0.543156 -3.38976 0
M  V30 5314 N 521.769 1.56035 0.221574 0
M  V30 5315 C 522.994 1.83476 0.967026 0
M  V30 5316 C 523.419 0.632139 1.7716 0
M  V30 5317 O 522.777 -0.419082 1.7639 0
M  V30 5318 C 522.825 3.08907 1.86034 0
M  V30 5319 O 521.929 2.876 2.95567 0
M  V30 5320 H 521.27 0.604913 0.273817 0
M  V30 5321 H 523.8 2.03247 0.234893 0
M  V30 5322 H 523.81 3.3901 2.27016 0
M  V30 5323 H 522.485 3.96068 1.26898 0
M  V30 5324 H 521.062 2.6873 2.58532 0
M  V30 5325 N 523.247 -0.488276 1.49845 0
M  V30 5326 C 524.21 -1.57069 1.66919 0
M  V30 5327 C 525.21 -1.51445 0.540479 0
M  V30 5328 O 526.4 -1.5437 0.807188 0
M  V30 5329 C 523.532 -2.96718 1.67844 0
M  V30 5330 H 524.725 -1.43254 2.63474 0
M  V30 5331 H 522.278 -0.713435 1.39068 0
M  V30 5332 H 523.013 -3.15996 0.7292 0
M  V30 5333 H 522.798 -3.02208 2.49826 0
M  V30 5334 H 524.288 -3.75335 1.83066 0
M  V30 5335 N 524.725 -1.39134 -0.740242 0
M  V30 5336 C 525.658 -1.3182 -1.86276 0
M  V30 5337 C 526.636 -0.192794 -1.61453 0
M  V30 5338 O 527.82 -0.372365 -1.84786 0
M  V30 5339 C 524.947 -1.04564 -3.22155 0
M  V30 5340 C 523.993 -2.19224 -3.65846 0
M  V30 5341 S 524.826 -3.81466 -3.75824 0
M  V30 5342 C 525.982 -3.56425 -5.14502 0
M  V30 5343 H 526.215 -2.26822 -1.92195 0
M  V30 5344 H 523.748 -1.25127 -0.904576 0
M  V30 5345 H 525.706 -0.895228 -4.00619 0
M  V30 5346 H 524.367 -0.112578 -3.13898 0
M  V30 5347 H 523.56 -1.95732 -4.6444 0
M  V30 5348 H 523.162 -2.30441 -2.94572 0
M  V30 5349 H 525.454 -3.13366 -6.00673 0
M  V30 5350 H 526.397 -4.54462 -5.43019 0
M  V30 5351 H 526.805 -2.90641 -4.8393 0
M  V30 5352 N 526.204 0.969867 -1.24223 0
M  V30 5353 C 527.615 1.52717 -1.07399 0
M  V30 5354 C 527.966 1.92956 0.355298 0
M  V30 5355 O 527.091 1.77112 1.2434 0
M  V30 5356 C 527.686 2.77521 -1.94339 0
M  V30 5357 C 526.245 3.29615 -1.81744 0
M  V30 5358 C 525.392 2.02537 -1.89405 0
M  V30 5359 H 528.343 0.788399 -1.37732 0
M  V30 5360 H 528.364 3.50773 -1.47439 0
M  V30 5361 H 527.876 2.48203 -2.98357 0
M  V30 5362 H 525.977 3.63789 -0.805505 0
M  V30 5363 H 526.09 3.98661 -2.65718 0
M  V30 5364 H 524.454 2.17151 -1.33108 0
M  V30 5365 H 525.237 1.75587 -2.94999 0
M  V30 5366 N 527.682 1.05563 1.17022 0
M  V30 5367 C 528.614 0.617888 2.20714 0
M  V30 5368 C 529.627 -0.320303 1.59618 0
M  V30 5369 O 530.816 -0.112449 1.78145 0
M  V30 5370 C 527.916 -0.115333 3.38704 0
M  V30 5371 C 527.089 0.834493 4.29366 0
M  V30 5372 C 526.148 0.141855 5.26009 0
M  V30 5373 O 525.174 0.777151 5.6387 0
M  V30 5374 N 526.376 -1.11934 5.69606 0
M  V30 5375 H 529.141 1.50981 2.58892 0
M  V30 5376 H 526.702 0.938008 1.31958 0
M  V30 5377 H 528.694 -0.588918 4.00392 0
M  V30 5378 H 527.264 -0.908967 2.99093 0
M  V30 5379 H 526.484 1.48762 3.65053 0
M  V30 5380 H 527.772 1.4791 4.86827 0
M  V30 5381 H 527.17 -1.65574 5.40927 0
M  V30 5382 H 525.727 -1.53692 6.33421 0
M  V30 5383 N 529.16 -1.33526 0.837174 0
M  V30 5384 C 530.407 -1.97837 0.432064 0
M  V30 5385 C 530.735 -1.66324 -1.00829 0
M  V30 5386 O 529.99 -0.93448 -1.71948 0
M  V30 5387 C 530.289 -3.52367 0.597675 0
M  V30 5388 C 529.955 -4.03826 2.00587 0
M  V30 5389 C 528.617 -4.1759 2.39106 0
M  V30 5390 C 530.969 -4.31333 2.92576 0
M  V30 5391 C 528.297 -4.56195 3.68921 0
M  V30 5392 C 530.649 -4.7139 4.2187 0
M  V30 5393 C 529.313 -4.8336 4.60347 0
M  V30 5394 H 528.583 -0.723937 0.158104 0
M  V30 5395 H 531.23 -1.5923 1.06387 0
M  V30 5396 H 529.535 -3.91624 -0.117452 0
M  V30 5397 H 531.232 -4.00126 0.26454 0
M  V30 5398 H 527.822 -3.93586 1.69671 0
M  V30 5399 H 532.006 -4.20224 2.64056 0
M  V30 5400 H 527.262 -4.63655 3.9854 0
M  V30 5401 H 531.436 -4.91631 4.93226 0
M  V30 5402 H 529.063 -5.1303 5.60985 0
M  V30 5403 N 530.638 -0.59345 -1.46 0
M  V30 5404 C 531.915 -0.0157933 -1.95594 0
M  V30 5405 C 532.295 1.44807 -1.53604 0
M  V30 5406 O 531.643 2.14342 -0.791824 0
M  V30 5407 C 531.853 -0.199081 -3.48432 0
M  V30 5408 C 533.201 -0.0724943 -4.24538 0
M  V30 5409 O 534.225 -0.128469 -3.55968 0
M  V30 5410 O 533.084 0.0542426 -5.46473 0
M  V30 5411 H 530.178 0.043749 -0.825842 0
M  V30 5412 H 532.724 -0.662522 -1.56233 0
M  V30 5413 H 531.496 -1.21631 -3.71916 0
M  V30 5414 H 531.119 0.483576 -3.94648 0
M  V30 5415 N 532.116 1.54067 -0.331816 0
M  V30 5416 C 533.362 2.01012 0.268667 0
M  V30 5417 C 533.695 1.2195 1.51136 0
M  V30 5418 O 532.97 0.303972 1.9211 0
M  V30 5419 C 533.253 3.55158 0.59456 0
M  V30 5420 C 533.106 4.4494 -0.659409 0
M  V30 5421 C 534.425 4.16939 1.4089 0
M  V30 5422 H 531.544 0.730698 0.0961756 0
M  V30 5423 H 534.186 1.84593 -0.450031 0
M  V30 5424 H 532.336 3.6928 1.20685 0
M  V30 5425 H 534.008 4.42675 -1.29756 0
M  V30 5426 H 532.251 4.1428 -1.28665 0
M  V30 5427 H 532.922 5.50643 -0.386804 0
M  V30 5428 H 535.398 4.06443 0.891272 0
M  V30 5429 H 534.274 5.24889 1.60569 0
M  V30 5430 H 534.535 3.70798 2.40752 0
M  V30 5431 N 533.594 0.0601682 1.57485 0
M  V30 5432 C 534.822 -0.620937 1.97363 0
M  V30 5433 C 535.237 -1.63846 0.938082 0
M  V30 5434 O 534.594 -1.82339 -0.0766578 0
M  V30 5435 C 534.645 -1.29987 3.37321 0
M  V30 5436 O 534.366 -0.323081 4.36907 0
M  V30 5437 C 535.867 -2.06989 3.92008 0
M  V30 5438 H 533.087 -0.169135 0.649334 0
M  V30 5439 H 535.631 0.129132 2.04092 0
M  V30 5440 H 533.786 -2.0011 3.31715 0
M  V30 5441 H 534.2 -0.808754 5.18227 0
M  V30 5442 H 535.674 -2.49901 4.92192 0
M  V30 5443 H 536.151 -2.92173 3.2792 0
M  V30 5444 H 536.757 -1.41757 4.0098 0
M  V30 5445 N 535.072 -1.5615 -0.213296 0
M  V30 5446 C 536.483 -1.69645 -0.779582 0
M  V30 5447 C 536.834 -0.663615 -1.84636 0
M  V30 5448 O 535.959 0.183633 -2.15619 0
M  V30 5449 C 536.554 -3.07567 -1.42084 0
M  V30 5450 C 535.113 -3.22889 -1.93442 0
M  V30 5451 C 534.26 -2.65581 -0.797612 0
M  V30 5452 H 537.211 -1.58696 0.0114951 0
M  V30 5453 H 537.232 -3.03884 -2.28986 0
M  V30 5454 H 536.744 -3.82716 -0.644187 0
M  V30 5455 H 534.845 -2.52623 -2.73884 0
M  V30 5456 H 534.958 -4.30197 -2.10872 0
M  V30 5457 H 533.322 -2.24278 -1.20712 0
M  V30 5458 H 534.105 -3.43284 -0.033494 0
M  V30 5459 N 536.55 0.480323 -1.50102 0
M  V30 5460 C 537.46 1.60547 -1.71061 0
M  V30 5461 C 538.476 1.63564 -0.593529 0
M  V30 5462 O 539.652 1.81604 -0.870751 0
M  V30 5463 C 536.717 2.96814 -1.79171 0
M  V30 5464 C 535.778 3.04259 -3.02861 0
M  V30 5465 C 535.011 4.34027 -3.10574 0
M  V30 5466 O 535.234 5.24009 -2.25323 0
M  V30 5467 O 534.168 4.46873 -4.03223 0
M  V30 5468 H 537.994 1.45788 -2.6642 0
M  V30 5469 H 535.579 0.658838 -1.34088 0
M  V30 5470 H 537.461 3.77765 -1.86738 0
M  V30 5471 H 536.136 3.11791 -0.869947 0
M  V30 5472 H 535.043 2.22419 -3.008 0
M  V30 5473 H 536.376 2.94216 -3.94586 0
M  V30 5474 N 538.028 1.39524 0.732853 0
M  V30 5475 C 538.958 1.41153 1.86005 0
M  V30 5476 C 539.939 0.274614 1.67869 0
M  V30 5477 O 541.124 0.480745 1.88155 0
M  V30 5478 C 538.254 1.25638 3.23778 0
M  V30 5479 C 537.208 2.36752 3.56556 0
M  V30 5480 C 536.534 2.06326 4.93289 0
M  V30 5481 C 537.834 3.79069 3.5931 0
M  V30 5482 H 539.528 2.35484 1.84899 0
M  V30 5483 H 537.074 1.13348 0.888162 0
M  V30 5484 H 539.027 1.25398 4.0231 0
M  V30 5485 H 537.751 0.277772 3.25417 0
M  V30 5486 H 536.41 2.36213 2.80355 0
M  V30 5487 H 536.058 1.06897 4.9151 0
M  V30 5488 H 535.758 2.80757 5.16187 0
M  V30 5489 H 537.282 2.07739 5.74175 0
M  V30 5490 H 538.696 3.81526 4.27914 0
M  V30 5491 H 537.093 4.52878 3.93728 0
M  V30 5492 H 538.163 4.09893 2.59068 0
M  V30 5493 N 539.506 -0.963266 1.24736 0
M  V30 5494 C 540.454 -2.07985 1.04139 0
M  V30 5495 C 541.448 -1.69381 -0.0250556 0
M  V30 5496 O 542.654 -1.79531 0.129863 0
M  V30 5497 H 539.029 -0.680627 0.319768 0
M  V30 5498 H 541 -2.22517 1.98818 0
M  V30 5499 C 539.749 -3.4123 0.667615 0
M  V30 5500 H 539.072 -3.71397 1.48 0
M  V30 5501 H 540.512 -4.20244 0.563136 0
M  V30 5502 C 538.971 -3.3104 -0.625647 0
M  V30 5503 O 539.501 -3.65334 -1.67016 0
M  V30 5504 N 537.707 -2.84168 -0.608033 0
M  V30 5505 H 537.254 -2.56458 0.242323 0
M  V30 5506 H 537.212 -2.77732 -1.47352 0
M  V30 5507 N 540.985 -1.06182 -1.16461 0
M  V30 5508 C 542.234 -0.772927 -1.86303 0
M  V30 5509 C 542.547 0.703187 -1.82523 0
M  V30 5510 O 543.753 1.10641 -2.47933 0
M  V30 5511 C 542.209 -1.33249 -3.34324 0
M  V30 5512 C 541.817 -2.83876 -3.46581 0
M  V30 5513 C 543.561 -1.12108 -4.09429 0
M  V30 5514 C 541.468 -3.33082 -4.88682 0
M  V30 5515 H 540.398 -0.285452 -0.697878 0
M  V30 5516 H 543.049 -1.28039 -1.31447 0
M  V30 5517 H 541.431 -0.7528 -3.88779 0
M  V30 5518 H 542.605 -3.47786 -3.02293 0
M  V30 5519 H 540.92 -3.03671 -2.84909 0
M  V30 5520 H 543.517 -1.46361 -5.14279 0
M  V30 5521 H 543.86 -0.0593832 -4.16258 0
M  V30 5522 H 544.393 -1.6665 -3.6121 0
M  V30 5523 H 541.132 -4.38726 -4.87032 0
M  V30 5524 H 540.652 -2.73919 -5.33599 0
M  V30 5525 H 542.331 -3.28344 -5.57494 0
M  V30 5526 N 542.463 1.3308 -0.844243 0
M  V30 5527 C 543.874 1.7992 -0.498566 0
M  V30 5528 C 544.225 1.69808 0.982834 0
M  V30 5529 O 543.35 1.25051 1.7661 0
M  V30 5530 C 543.945 3.26677 -0.898204 0
M  V30 5531 C 542.504 3.71513 -0.604583 0
M  V30 5532 C 541.651 2.54393 -1.10362 0
M  V30 5533 H 544.602 1.20526 -1.03244 0
M  V30 5534 H 544.623 3.79918 -0.21039 0
M  V30 5535 H 544.135 3.34004 -1.97643 0
M  V30 5536 H 542.236 3.69708 0.46335 0
M  V30 5537 H 542.349 4.64755 -1.16358 0
M  V30 5538 H 540.713 2.49246 -0.524273 0
M  V30 5539 H 541.496 2.6448 -2.18873 0
M  V30 5540 N 543.941 0.601185 1.45683 0
M  V30 5541 C 545.189 0.0936957 2.01883 0
M  V30 5542 C 545.51 -1.2779 1.47291 0
M  V30 5543 O 544.78 -1.84279 0.664691 0
M  V30 5544 H 543.36 0.0316466 0.746329 0
M  V30 5545 H 546.022 0.781137 1.78562 0
M  V30 5546 H 545.118 0.0386297 3.12076 0
M  V30 5547 N 545.419 -1.53889 0.339982 0
M  V30 5548 C 546.329 -2.28604 -0.526988 0
M  V30 5549 C 547.345 -1.33578 -1.11503 0
M  V30 5550 O 548.521 -1.66612 -1.13148 0
M  V30 5551 C 545.586 -3.04164 -1.66389 0
M  V30 5552 C 544.647 -4.14809 -1.10599 0
M  V30 5553 C 543.88 -4.86756 -2.18871 0
M  V30 5554 O 544.103 -4.58343 -3.39526 0
M  V30 5555 O 543.037 -5.73289 -1.83366 0
M  V30 5556 H 546.863 -3.03594 0.0802707 0
M  V30 5557 H 544.448 -1.4903 0.105141 0
M  V30 5558 H 546.33 -3.51427 -2.32544 0
M  V30 5559 H 545.005 -2.32035 -2.25703 0
M  V30 5560 H 543.912 -3.71857 -0.409067 0
M  V30 5561 H 545.245 -4.89029 -0.557771 0
M  V30 5562 N 546.897 -0.0685191 -1.57451 0
M  V30 5563 C 548.143 0.602239 -1.93652 0
M  V30 5564 C 548.476 1.6946 -0.948526 0
M  V30 5565 O 547.751 1.94487 0.022782 0
M  V30 5566 C 548.034 1.18223 -3.4014 0
M  V30 5567 C 547.887 0.0967431 -4.49696 0
M  V30 5568 C 549.206 2.08872 -3.87377 0
M  V30 5569 H 546.325 0.217453 -0.70419 0
M  V30 5570 H 548.967 -0.133821 -1.89528 0
M  V30 5571 H 547.117 1.80953 -3.43785 0
M  V30 5572 H 548.789 -0.536155 -4.58174 0
M  V30 5573 H 547.032 -0.573063 -4.29998 0
M  V30 5574 H 547.703 0.542894 -5.49324 0
M  V30 5575 H 550.179 1.56081 -3.85717 0
M  V30 5576 H 549.055 2.46389 -4.90493 0
M  V30 5577 H 549.316 2.99572 -3.25129 0
M  V30 5578 N 548.375 1.56261 0.205012 0
M  V30 5579 C 549.307 1.90266 1.27795 0
M  V30 5580 C 550.32 0.792397 1.42214 0
M  V30 5581 O 551.509 1.07077 1.42817 0
M  V30 5582 C 548.609 2.11074 2.65143 0
M  V30 5583 C 547.782 3.42176 2.7246 0
M  V30 5584 C 546.841 3.52216 3.90936 0
M  V30 5585 O 545.867 4.25119 3.78501 0
M  V30 5586 N 547.069 2.84573 5.05963 0
M  V30 5587 H 549.834 2.82896 0.989434 0
M  V30 5588 H 547.395 1.57008 0.394981 0
M  V30 5589 H 549.387 2.15089 3.4281 0
M  V30 5590 H 547.957 1.2499 2.86524 0
M  V30 5591 H 547.177 3.50116 1.81142 0
M  V30 5592 H 548.465 4.28509 2.74331 0
M  V30 5593 H 547.863 2.25152 5.18963 0
M  V30 5594 H 546.42 2.94228 5.81613 0
M  V30 5595 N 549.853 -0.472356 1.50355 0
M  V30 5596 C 550.801 -1.59126 1.69651 0
M  V30 5597 C 551.795 -1.59793 0.56237 0
M  V30 5598 O 553.001 -1.63957 0.742832 0
M  V30 5599 H 549.376 -0.528008 0.535454 0
M  V30 5600 H 551.347 -1.40013 2.63513 0
M  V30 5601 C 550.096 -2.97075 1.8067 0
M  V30 5602 H 549.419 -2.9728 2.67329 0
M  V30 5603 H 550.859 -3.74825 1.98197 0
M  V30 5604 C 549.318 -3.32247 0.558016 0
M  V30 5605 O 549.848 -4.00553 -0.303399 0
M  V30 5606 N 548.054 -2.87659 0.412415 0
M  V30 5607 H 547.601 -2.32246 1.11443 0
M  V30 5608 H 547.559 -3.11556 -0.421908 0
M  V30 5609 N 551.331 -1.39911 -0.725443 0
M  V30 5610 C 552.261 -1.42138 -1.85254 0
M  V30 5611 C 553.242 -0.283513 -1.67721 0
M  V30 5612 O 554.427 -0.490717 -1.87898 0
M  V30 5613 C 551.557 -1.27354 -3.23107 0
M  V30 5614 C 550.511 -2.3864 -3.55296 0
M  V30 5615 C 549.837 -2.08939 -4.92188 0
M  V30 5616 C 551.137 -3.8097 -3.57295 0
M  V30 5617 H 552.831 -2.36461 -1.83648 0
M  V30 5618 H 550.377 -1.13817 -0.882138 0
M  V30 5619 H 552.33 -1.2753 -4.01639 0
M  V30 5620 H 551.054 -0.295025 -3.25265 0
M  V30 5621 H 549.713 -2.37696 -2.79099 0
M  V30 5622 H 549.361 -1.09502 -4.90936 0
M  V30 5623 H 549.061 -2.83491 -5.14691 0
M  V30 5624 H 550.585 -2.10781 -5.73065 0
M  V30 5625 H 551.999 -3.8379 -4.25885 0
M  V30 5626 H 550.396 -4.5496 -3.9132 0
M  V30 5627 H 551.466 -4.11261 -2.5689 0
M  V30 5628 N 552.809 0.956637 -1.25245 0
M  V30 5629 C 553.742 2.05232 -0.99775 0
M  V30 5630 C 554.72 1.62439 0.0723137 0
M  V30 5631 O 555.904 1.88381 -0.066926 0
M  V30 5632 C 553.031 3.34871 -0.507861 0
M  V30 5633 C 552.077 3.96625 -1.56815 0
M  V30 5634 S 552.91 4.32853 -3.15276 0
M  V30 5635 C 554.066 5.65613 -2.68017 0
M  V30 5636 H 554.299 2.26521 -1.9255 0
M  V30 5637 H 551.832 1.09601 -1.08752 0
M  V30 5638 H 553.79 4.09845 -0.231858 0
M  V30 5639 H 552.451 3.11551 0.399356 0
M  V30 5640 H 551.644 4.90087 -1.17604 0
M  V30 5641 H 551.246 3.28124 -1.79473 0
M  V30 5642 H 553.538 6.43635 -2.11518 0
M  V30 5643 H 554.481 6.09693 -3.60112 0
M  V30 5644 H 554.889 5.24751 -2.0808 0
M  V30 5645 N 554.287 1.06798 1.15896 0
M  V30 5646 C 555.197 0.694564 2.24083 0
M  V30 5647 C 556.213 -0.291687 1.71538 0
M  V30 5648 O 557.389 -0.139723 2.00915 0
M  V30 5649 C 554.454 0.0921014 3.46578 0
M  V30 5650 C 553.515 1.13087 4.14137 0
M  V30 5651 C 552.748 0.557064 5.30785 0
M  V30 5652 O 552.971 -0.628623 5.66925 0
M  V30 5653 O 551.905 1.29924 5.8771 0
M  V30 5654 H 555.731 1.59663 2.58344 0
M  V30 5655 H 553.316 0.840575 1.2351 0
M  V30 5656 H 555.198 -0.241884 4.20705 0
M  V30 5657 H 553.873 -0.78337 3.14078 0
M  V30 5658 H 552.78 1.51712 3.41957 0
M  V30 5659 H 554.113 1.97805 4.50704 0
M  V30 5660 N 555.766 -1.3263 0.851289 0
M  V30 5661 C 557.015 -1.96633 0.449267 0
M  V30 5662 C 557.328 -1.68131 -0.999562 0
M  V30 5663 O 558.534 -2.25845 -1.50685 0
M  V30 5664 C 556.99 -3.51946 0.752446 0
M  V30 5665 C 556.598 -3.89311 2.21678 0
M  V30 5666 C 558.342 -4.22437 0.417983 0
M  V30 5667 C 556.249 -5.37655 2.46336 0
M  V30 5668 H 555.179 -0.735888 0.164269 0
M  V30 5669 H 557.83 -1.51073 1.0416 0
M  V30 5670 H 556.212 -3.95899 0.0895858 0
M  V30 5671 H 557.386 -3.56378 2.92115 0
M  V30 5672 H 555.701 -3.31836 2.51543 0
M  V30 5673 H 558.298 -5.31549 0.579674 0
M  V30 5674 H 558.641 -4.11349 -0.640115 0
M  V30 5675 H 559.174 -3.84057 1.03659 0
M  V30 5676 H 555.913 -5.5376 3.50757 0
M  V30 5677 H 555.433 -5.72005 1.80473 0
M  V30 5678 H 557.112 -6.04695 2.30115 0
M  V30 5679 N 557.244 -0.608902 -1.45362 0
M  V30 5680 C 558.207 0.0992563 -2.28985 0
M  V30 5681 C 559.207 0.793841 -1.39838 0
M  V30 5682 O 560.397 0.641804 -1.61946 0
M  V30 5683 C 557.529 1.15073 -3.20891 0
M  V30 5684 H 558.722 -0.635964 -2.93079 0
M  V30 5685 H 556.275 -0.368007 -1.51906 0
M  V30 5686 H 557.01 1.91667 -2.616 0
M  V30 5687 H 556.795 0.656867 -3.86559 0
M  V30 5688 H 558.285 1.64665 -3.83765 0
M  V30 5689 N 558.722 1.53707 -0.348139 0
M  V30 5690 C 559.632 2.28881 0.514857 0
M  V30 5691 C 560.648 1.34168 1.10793 0
M  V30 5692 O 561.824 1.6721 1.12262 0
M  V30 5693 C 558.889 3.05042 1.64774 0
M  V30 5694 C 557.95 4.15389 1.08398 0
M  V30 5695 C 557.183 4.87909 2.16287 0
M  V30 5696 O 557.406 4.60137 3.3709 0
M  V30 5697 O 556.34 5.74254 1.80323 0
M  V30 5698 H 560.166 3.03547 -0.0963699 0
M  V30 5699 H 557.751 1.48972 -0.113043 0
M  V30 5700 H 559.633 3.52656 2.30677 0
M  V30 5701 H 558.308 2.33228 2.24469 0
M  V30 5702 H 557.215 3.72068 0.389341 0
M  V30 5703 H 558.548 4.89318 0.531829 0
M  V30 5704 N 560.2 0.0768682 1.57412 0
M  V30 5705 C 561.446 -0.591961 1.93968 0
M  V30 5706 C 561.779 -1.68954 0.9575 0
M  V30 5707 O 561.054 -1.94496 -0.0124675 0
M  V30 5708 C 561.337 -1.16418 3.40762 0
M  V30 5709 C 561.19 -0.0728933 4.49741 0
M  V30 5710 C 562.509 -2.06814 3.88479 0
M  V30 5711 H 559.628 -0.213716 0.705333 0
M  V30 5712 H 562.27 0.14387 1.89455 0
M  V30 5713 H 560.42 -1.79128 3.4474 0
M  V30 5714 H 562.092 0.560446 4.57883 0
M  V30 5715 H 560.335 0.595859 4.29688 0
M  V30 5716 H 561.006 -0.513755 5.49604 0
M  V30 5717 H 563.482 -1.54033 3.8654 0
M  V30 5718 H 562.358 -2.43785 4.91793 0
M  V30 5719 H 562.619 -2.97844 3.26713 0
M  V30 5720 N 561.678 -1.56367 -0.196722 0
M  V30 5721 C 562.955 -1.71359 -0.943159 0
M  V30 5722 C 563.335 -0.631192 -2.01443 0
M  V30 5723 O 562.683 0.358071 -2.25677 0
M  V30 5724 C 562.893 -3.13623 -1.53106 0
M  V30 5725 C 564.241 -3.73806 -2.01381 0
M  V30 5726 O 565.265 -3.16742 -1.62951 0
M  V30 5727 O 564.124 -4.73951 -2.7209 0
M  V30 5728 H 561.218 -0.698851 -0.442195 0
M  V30 5729 H 563.764 -1.68672 -0.186547 0
M  V30 5730 H 562.536 -3.83873 -0.758785 0
M  V30 5731 H 562.159 -3.20532 -2.35255 0
M  V30 5732 N 563.156 0.464375 -1.50603 0
M  V30 5733 C 564.381 1.24372 -1.65971 0
M  V30 5734 C 564.806 1.84901 -0.345453 0
M  V30 5735 O 564.164 1.67596 0.691457 0
M  V30 5736 C 564.212 2.32331 -2.7578 0
M  V30 5737 O 563.316 3.37146 -2.375 0
M  V30 5738 H 562.657 0.365604 -0.554283 0
M  V30 5739 H 565.187 0.55183 -1.97018 0
M  V30 5740 H 565.197 2.77539 -2.99059 0
M  V30 5741 H 563.872 1.87648 -3.71162 0
M  V30 5742 H 562.449 2.97602 -2.24694 0
M  V30 5743 N 564.634 1.40294 0.718013 0
M  V30 5744 C 565.88 1.38645 1.48005 0
M  V30 5745 C 566.213 -0.0121202 1.94196 0
M  V30 5746 O 565.488 -0.980309 1.67989 0
M  V30 5747 C 565.771 2.37379 2.70782 0
M  V30 5748 C 565.624 3.8625 2.30501 0
M  V30 5749 C 566.943 2.33685 3.72933 0
M  V30 5750 H 564.062 0.504928 0.536858 0
M  V30 5751 H 566.704 1.71411 0.819649 0
M  V30 5752 H 564.854 2.09568 3.27129 0
M  V30 5753 H 566.526 4.24879 1.79655 0
M  V30 5754 H 564.769 4.02202 1.6253 0
M  V30 5755 H 565.44 4.50847 3.18498 0
M  V30 5756 H 567.916 2.58314 3.2621 0
M  V30 5757 H 566.792 3.0482 4.56482 0
M  V30 5758 H 567.053 1.34765 4.21059 0
M  V30 5759 N 566.112 -0.949982 1.2575 0
M  V30 5760 C 567.358 -1.69766 1.10938 0
M  V30 5761 C 567.691 -1.91056 -0.348028 0
M  V30 5762 O 566.966 -1.48488 -1.25625 0
M  V30 5763 C 567.249 -3.07779 1.86933 0
M  V30 5764 C 567.102 -2.9387 3.4053 0
M  V30 5765 C 568.421 -4.07749 1.65616 0
M  V30 5766 H 565.54 -0.616144 0.404396 0
M  V30 5767 H 568.182 -1.10394 1.54639 0
M  V30 5768 H 566.332 -3.58462 1.4979 0
M  V30 5769 H 568.004 -2.50476 3.87375 0
M  V30 5770 H 566.247 -2.29686 3.68004 0
M  V30 5771 H 566.918 -3.91719 3.88922 0
M  V30 5772 H 569.394 -3.65994 1.97959 0
M  V30 5773 H 568.27 -5.02348 2.21218 0
M  V30 5774 H 568.531 -4.38029 0.598595 0
M  V30 5775 N 567.59 -1.07411 -1.15328 0
M  V30 5776 C 569.001 -0.820261 -1.67716 0
M  V30 5777 C 569.352 0.654539 -1.8496 0
M  V30 5778 O 568.477 1.50664 -1.55337 0
M  V30 5779 C 569.072 -1.48242 -3.04647 0
M  V30 5780 C 567.631 -1.27606 -3.5411 0
M  V30 5781 C 566.778 -1.5517 -2.29821 0
M  V30 5782 H 569.729 -1.23608 -0.995332 0
M  V30 5783 H 569.75 -0.903984 -3.69606 0
M  V30 5784 H 569.262 -2.55578 -2.92064 0
M  V30 5785 H 567.363 -0.222948 -3.71932 0
M  V30 5786 H 567.476 -1.99667 -4.35511 0
M  V30 5787 H 565.84 -0.972747 -2.35393 0
M  V30 5788 H 566.623 -2.63689 -2.19824 0
M  V30 5789 N 569.068 1.32177 -0.85831 0
M  V30 5790 C 570.314 1.97417 -0.46417 0
M  V30 5791 C 570.647 1.67746 0.978514 0
M  V30 5792 O 569.922 0.967654 1.68721 0
M  V30 5793 C 570.205 3.53069 -0.708094 0
M  V30 5794 C 570.058 3.92357 -2.19946 0
M  V30 5795 C 571.377 4.39783 -0.166881 0
M  V30 5796 H 568.496 0.717097 -0.17012 0
M  V30 5797 H 571.138 1.56499 -1.07741 0
M  V30 5798 H 569.288 3.88054 -0.186128 0
M  V30 5799 H 570.96 3.67533 -2.78779 0
M  V30 5800 H 569.203 3.41384 -2.67656 0
M  V30 5801 H 569.874 5.00841 -2.32082 0
M  V30 5802 H 572.35 4.11556 -0.613285 0
M  V30 5803 H 571.226 5.47671 -0.367093 0
M  V30 5804 H 571.487 4.32196 0.930559 0
M  V30 5805 N 570.547 0.616602 1.45037 0
M  V30 5806 C 571.495 -0.109318 2.32343 0
M  V30 5807 C 572.489 -0.850543 1.465 0
M  V30 5808 O 573.695 -0.765088 1.62931 0
M  V30 5809 H 570.07 -0.0541091 0.750051 0
M  V30 5810 H 572.041 0.645326 2.91338 0
M  V30 5811 C 570.79 -1.0872 3.30266 0
M  V30 5812 H 570.113 -0.526267 3.96321 0
M  V30 5813 H 571.553 -1.56489 3.94065 0
M  V30 5814 C 570.012 -2.16525 2.58105 0
M  V30 5815 O 570.542 -3.244 2.36913 0
M  V30 5816 N 568.748 -1.92057 2.18088 0
M  V30 5817 H 568.295 -1.04337 2.35524 0
M  V30 5818 H 568.253 -2.64391 1.70131 0
M  V30 5819 N 572.025 -1.5352 0.356285 0
M  V30 5820 C 572.973 -2.26945 -0.50978 0
M  V30 5821 C 573.967 -1.29569 -1.09125 0
M  V30 5822 O 575.173 -1.47231 -1.03552 0
M  V30 5823 H 571.548 -0.729368 -0.183102 0
M  V30 5824 H 573.519 -2.98111 0.131374 0
M  V30 5825 C 572.268 -3.06466 -1.64237 0
M  V30 5826 H 571.591 -3.81233 -1.20423 0
M  V30 5827 H 573.031 -3.61035 -2.22327 0
M  V30 5828 C 571.49 -2.16737 -2.57928 0
M  V30 5829 O 572.02 -1.77195 -3.60507 0
M  V30 5830 N 570.226 -1.81558 -2.26903 0
M  V30 5831 H 569.773 -2.13913 -1.43524 0
M  V30 5832 H 569.731 -1.21806 -2.89846 0
M  V30 5833 N 573.503 -0.0852151 -1.57369 0
M  V30 5834 C 574.749 0.581666 -1.94279 0
M  V30 5835 C 575.082 1.68444 -0.966446 0
M  V30 5836 O 574.357 1.945 0.00215277 0
M  V30 5837 C 574.64 1.14609 -3.41375 0
M  V30 5838 C 574.493 0.0490414 -4.49773 0
M  V30 5839 C 575.812 2.04751 -3.8957 0
M  V30 5840 H 572.931 0.209972 -0.706456 0
M  V30 5841 H 575.573 -0.153915 -1.89376 0
M  V30 5842 H 573.723 1.77297 -3.45685 0
M  V30 5843 H 575.395 -0.584721 -4.57579 0
M  V30 5844 H 573.638 -0.618638 -4.29366 0
M  V30 5845 H 574.309 0.484601 -5.49869 0
M  V30 5846 H 576.785 1.51981 -3.87351 0
M  V30 5847 H 575.661 2.41173 -4.93079 0
M  V30 5848 H 575.922 2.96107 -3.28288 0
M  V30 5849 N 574.981 1.5647 0.188427 0
M  V30 5850 C 575.891 1.98285 1.2538 0
M  V30 5851 C 576.907 0.891535 1.49424 0
M  V30 5852 O 578.083 1.19782 1.61908 0
M  V30 5853 C 575.148 2.31965 2.57669 0
M  V30 5854 C 574.209 3.54838 2.41638 0
M  V30 5855 C 573.442 3.86901 3.67618 0
M  V30 5856 O 573.665 3.20163 4.72072 0
M  V30 5857 O 572.599 4.80309 3.62749 0
M  V30 5858 H 576.425 2.89145 0.928912 0
M  V30 5859 H 574.01 1.44112 0.393955 0
M  V30 5860 H 575.892 2.54673 3.35737 0
M  V30 5861 H 574.567 1.44271 2.89771 0
M  V30 5862 H 573.474 3.37369 1.61658 0
M  V30 5863 H 574.807 4.43019 2.14465 0
M  V30 5864 N 576.459 -0.456382 1.50847 0
M  V30 5865 C 577.707 -1.20497 1.62249 0
M  V30 5866 C 578.028 -1.92156 0.331839 0
M  V30 5867 O 577.298 -1.84751 -0.651443 0
M  V30 5868 H 575.878 -0.447775 0.597918 0
M  V30 5869 H 578.54 -0.525099 1.87693 0
M  V30 5870 H 577.636 -1.94492 2.44089 0
M  V30 5871 N 577.937 -1.40673 -0.710563 0
M  V30 5872 C 578.884 -1.41336 -1.82463 0
M  V30 5873 C 579.854 -0.269648 -1.63897 0
M  V30 5874 O 581.039 -0.468463 -1.8496 0
M  V30 5875 C 578.179 -1.28665 -3.20218 0
M  V30 5876 C 577.292 -2.52784 -3.5032 0
M  V30 5877 C 576.427 -2.32517 -4.77608 0
M  V30 5878 C 575.466 -3.52187 -5.0063 0
M  V30 5879 N 574.603 -3.31084 -6.19135 0
M  V30 5880 H 579.443 -2.36558 -1.8123 0
M  V30 5881 H 576.98 -1.17483 -0.885226 0
M  V30 5882 H 578.938 -1.19324 -3.99772 0
M  V30 5883 H 577.568 -0.370602 -3.20666 0
M  V30 5884 H 576.62 -2.72634 -2.65283 0
M  V30 5885 H 577.932 -3.41845 -3.63241 0
M  V30 5886 H 577.086 -2.20558 -5.65189 0
M  V30 5887 H 575.825 -1.40889 -4.66906 0
M  V30 5888 H 574.83 -3.64617 -4.11502 0
M  V30 5889 H 576.055 -4.44749 -5.13201 0
M  V30 5890 H 574.001 -2.42143 -6.09674 0
M  V30 5891 H 573.918 -4.13713 -6.32754 0
M  V30 5892 H 575.186 -3.22868 -7.0949 0
M  V30 5893 N 579.415 0.9433 -1.26252 0
M  V30 5894 C 580.345 2.05902 -1.10122 0
M  V30 5895 C 581.326 1.70099 -0.00700552 0
M  V30 5896 O 582.511 1.93377 -0.178641 0
M  V30 5897 C 579.641 3.39516 -0.731175 0
M  V30 5898 C 578.595 3.89372 -1.77688 0
M  V30 5899 C 577.921 5.19613 -1.26122 0
M  V30 5900 C 579.221 4.14489 -3.17799 0
M  V30 5901 H 580.915 2.19655 -2.03451 0
M  V30 5902 H 578.461 1.05548 -0.979576 0
M  V30 5903 H 580.414 4.17031 -0.605215 0
M  V30 5904 H 579.138 3.25733 0.23782 0
M  V30 5905 H 577.797 3.14036 -1.89148 0
M  V30 5906 H 577.445 5.02208 -0.282128 0
M  V30 5907 H 577.145 5.53939 -1.96023 0
M  V30 5908 H 578.669 5.99713 -1.14789 0
M  V30 5909 H 580.083 4.82625 -3.09428 0
M  V30 5910 H 578.48 4.60094 -3.85271 0
M  V30 5911 H 579.55 3.20347 -3.64014 0
M  V30 5912 N 580.893 1.08022 1.14757 0
M  V30 5913 C 582.17 0.720386 1.81851 0
M  V30 5914 C 582.55 -0.796375 1.95502 0
M  V30 5915 O 581.898 -1.71339 1.51179 0
M  V30 5916 C 582.108 1.44273 3.17783 0
M  V30 5917 C 583.456 1.59925 3.93331 0
M  V30 5918 O 584.48 1.40407 3.2736 0
M  V30 5919 O 583.339 1.92096 5.11626 0
M  V30 5920 H 580.433 0.257142 0.786007 0
M  V30 5921 H 582.979 1.18155 1.21809 0
M  V30 5922 H 581.751 2.47618 3.02987 0
M  V30 5923 H 581.374 0.97279 3.85516 0
M  V30 5924 N 582.371 -1.3172 0.865308 0
M  V30 5925 C 583.599 -2.01057 0.488251 0
M  V30 5926 C 584.014 -1.64979 -0.918 0
M  V30 5927 O 583.371 -0.876597 -1.60069 0
M  V30 5928 C 583.422 -3.55964 0.630224 0
M  V30 5929 O 583.143 -3.90749 1.98109 0
M  V30 5930 C 584.644 -4.42574 0.253567 0
M  V30 5931 H 581.864 -0.64332 0.190736 0
M  V30 5932 H 584.408 -1.68058 1.16519 0
M  V30 5933 H 582.563 -3.874 0.000895422 0
M  V30 5934 H 582.977 -4.85467 1.9855 0
M  V30 5935 H 584.451 -5.50521 0.403875 0
M  V30 5936 H 584.928 -4.31724 -0.806895 0
M  V30 5937 H 585.534 -4.16547 0.858404 0
M  V30 5938 N 583.85 -0.624285 -1.44708 0
M  V30 5939 C 584.783 0.133905 -2.27807 0
M  V30 5940 C 585.76 0.857794 -1.38133 0
M  V30 5941 O 586.945 0.863277 -1.6757 0
M  V30 5942 C 584.072 1.19541 -3.16903 0
M  V30 5943 C 583.118 0.572813 -4.22636 0
M  V30 5944 S 583.951 -0.631953 -5.31758 0
M  V30 5945 C 585.106 0.429733 -6.24423 0
M  V30 5946 H 585.34 -0.571072 -2.91764 0
M  V30 5947 H 582.873 -0.412261 -1.48794 0
M  V30 5948 H 584.831 1.80293 -3.68788 0
M  V30 5949 H 583.492 1.87255 -2.5218 0
M  V30 5950 H 582.685 1.37205 -4.84965 0
M  V30 5951 H 582.287 0.0400641 -3.73979 0
M  V30 5952 H 584.579 1.30421 -6.64828 0
M  V30 5953 H 585.522 -0.157804 -7.07924 0
M  V30 5954 H 585.93 0.75256 -5.59461 0
M  V30 5955 N 585.328 1.53329 -0.364422 0
M  V30 5956 C 586.238 2.29414 0.490552 0
M  V30 5957 C 587.254 1.35335 1.09363 0
M  V30 5958 O 588.43 1.68391 1.10483 0
M  V30 5959 C 585.495 3.06772 1.61529 0
M  V30 5960 C 584.556 4.16516 1.03986 0
M  V30 5961 C 583.789 4.90176 2.111 0
M  V30 5962 O 584.012 4.63687 3.32191 0
M  V30 5963 O 582.946 5.76134 1.74222 0
M  V30 5964 H 586.772 3.03428 -0.12856 0
M  V30 5965 H 584.357 1.48843 -0.128837 0
M  V30 5966 H 586.239 3.55082 2.26924 0
M  V30 5967 H 584.914 2.35596 2.21983 0
M  V30 5968 H 583.821 3.7246 0.349856 0
M  V30 5969 H 585.154 4.89855 0.4799 0
M  V30 5970 N 586.806 0.0935595 1.57322 0
M  V30 5971 C 588.052 -0.571355 1.94585 0
M  V30 5972 C 588.385 -1.67929 0.975366 0
M  V30 5973 O 587.66 -1.94498 0.00816206 0
M  V30 5974 C 587.943 -1.12797 3.41978 0
M  V30 5975 C 587.796 -0.0251881 4.49793 0
M  V30 5976 C 589.115 -2.02682 3.90651 0
M  V30 5977 H 586.234 -0.206223 0.70756 0
M  V30 5978 H 588.876 0.163956 1.89291 0
M  V30 5979 H 587.026 -1.75461 3.4662 0
M  V30 5980 H 588.698 0.608979 4.57263 0
M  V30 5981 H 586.941 0.641399 4.29032 0
M  V30 5982 H 587.612 -0.455433 5.50118 0
M  V30 5983 H 590.088 -1.49925 3.88152 0
M  V30 5984 H 588.964 -2.38555 4.94351 0
M  V30 5985 H 589.225 -2.94362 3.29854 0
M  V30 5986 N 588.284 -1.56567 -0.180126 0
M  V30 5987 C 589.514 -1.85349 -0.912647 0
M  V30 5988 C 589.922 -0.675795 -1.76719 0
M  V30 5989 O 589.265 0.3645 -1.80047 0
M  V30 5990 C 589.327 -3.08431 -1.84691 0
M  V30 5991 C 588.991 -4.41694 -1.17284 0
M  V30 5992 C 589.988 -5.17062 -0.542532 0
M  V30 5993 C 587.673 -4.8843 -1.17223 0
M  V30 5994 C 589.667 -6.37351 0.0793953 0
M  V30 5995 C 587.354 -6.08652 -0.54647 0
M  V30 5996 C 588.352 -6.82955 0.0782458 0
M  V30 5997 O 588.04 -8.00897 0.694158 0
M  V30 5998 H 587.772 -0.619286 -0.271036 0
M  V30 5999 H 590.326 -2.0454 -0.187768 0
M  V30 6000 H 588.556 -2.85163 -2.61188 0
M  V30 6001 H 590.245 -3.23733 -2.44851 0
M  V30 6002 H 591.011 -4.8204 -0.535045 0
M  V30 6003 H 586.89 -4.30542 -1.64788 0
M  V30 6004 H 590.434 -6.95287 0.567612 0
M  V30 6005 H 586.331 -6.4314 -0.55151 0
M  V30 6006 H 587.099 -8.16352 0.592537 0
M  V30 6007 N 589.762 0.448376 -1.51087 0
M  V30 6008 C 591.178 0.783984 -1.39017 0
M  V30 6009 C 591.378 1.96087 -0.463904 0
M  V30 6010 O 590.434 2.52357 0.0850534 0
M  V30 6011 C 591.747 1.07471 -2.80839 0
M  V30 6012 C 593.295 1.17981 -2.89913 0
M  V30 6013 C 593.77 1.50354 -4.32617 0
M  V30 6014 N 595.261 1.57301 -4.35673 0
M  V30 6015 C 595.996 1.839 -5.4311 0
M  V30 6016 N 595.492 2.08365 -6.60724 0
M  V30 6017 N 597.285 1.8559 -5.30578 0
M  V30 6018 H 589.436 -0.326881 -2.0987 0
M  V30 6019 H 591.699 -0.0838006 -0.944289 0
M  V30 6020 H 591.405 0.282768 -3.50561 0
M  V30 6021 H 591.279 2.00519 -3.19487 0
M  V30 6022 H 593.666 1.9624 -2.20395 0
M  V30 6023 H 593.747 0.228603 -2.54776 0
M  V30 6024 H 593.391 0.726273 -5.0268 0
M  V30 6025 H 593.321 2.46663 -4.65258 0
M  V30 6026 H 595.812 1.40342 -3.50874 0
M  V30 6027 H 596.125 2.27999 -7.38401 0
M  V30 6028 H 594.47 2.0571 -6.63859 0
M  V30 6029 H 597.661 1.65989 -4.37682 0
M  V30 6030 H 597.834 2.05983 -6.1439 0
M  V30 6031 N 591.24 1.41047 0.703093 0
M  V30 6032 C 592.489 1.39301 1.4587 0
M  V30 6033 C 592.802 0.00267077 1.956 0
M  V30 6034 O 594.008 -0.137414 2.71152 0
M  V30 6035 C 592.464 2.44891 2.63735 0
M  V30 6036 C 592.072 3.89796 2.20824 0
M  V30 6037 C 593.816 2.5227 3.41409 0
M  V30 6038 C 591.723 4.86955 3.35602 0
M  V30 6039 H 590.653 0.518005 0.547893 0
M  V30 6040 H 593.304 1.66839 0.764009 0
M  V30 6041 H 591.686 2.10472 3.35436 0
M  V30 6042 H 592.86 4.33424 1.56461 0
M  V30 6043 H 591.175 3.86008 1.56163 0
M  V30 6044 H 593.772 3.22044 4.26839 0
M  V30 6045 H 594.115 1.55714 3.86081 0
M  V30 6046 H 594.648 2.85742 2.7676 0
M  V30 6047 H 591.387 5.84888 2.9595 0
M  V30 6048 H 590.907 4.47982 3.98839 0
M  V30 6049 H 592.586 5.07361 4.01489 0
M  V30 6050 N 592.718 -0.936591 1.26751 0
M  V30 6051 C 594.129 -1.49816 1.1141 0
M  V30 6052 C 594.48 -1.9383 -0.304015 0
M  V30 6053 O 593.605 -1.80346 -1.196 0
M  V30 6054 C 594.2 -2.72271 2.01629 0
M  V30 6055 C 592.759 -3.2468 1.9042 0
M  V30 6056 C 591.906 -1.97444 1.94708 0
M  V30 6057 H 594.857 -0.751604 1.39773 0
M  V30 6058 H 594.878 -3.46741 1.56688 0
M  V30 6059 H 594.39 -2.40205 3.04833 0
M  V30 6060 H 592.491 -3.61525 0.901674 0
M  V30 6061 H 592.604 -3.91476 2.76195 0
M  V30 6062 H 590.968 -2.13545 1.38818 0
M  V30 6063 H 591.751 -1.67703 2.9955 0
M  V30 6064 N 594.196 -1.08629 -1.14182 0
M  V30 6065 C 595.442 -0.818556 -1.85546 0
M  V30 6066 C 595.775 0.654076 -1.82854 0
M  V30 6067 O 595.05 1.48099 -1.26083 0
M  V30 6068 C 595.333 -1.34397 -3.3408 0
M  V30 6069 C 595.186 -2.8821 -3.45333 0
M  V30 6070 C 596.505 -0.971069 -4.29253 0
M  V30 6071 H 593.624 -0.298821 -0.673702 0
M  V30 6072 H 596.266 -1.34629 -1.34071 0
M  V30 6073 H 594.416 -0.895064 -3.78049 0
M  V30 6074 H 596.088 -3.41488 -3.10134 0
M  V30 6075 H 594.331 -3.25756 -2.86471 0
M  V30 6076 H 595.002 -3.20047 -4.49749 0
M  V30 6077 H 597.478 -1.35809 -3.93313 0
M  V30 6078 H 596.354 -1.36586 -5.31635 0
M  V30 6079 H 596.615 0.121659 -4.41933 0
M  V30 6080 N 595.674 1.31259 -0.872281 0
M  V30 6081 C 596.606 2.27396 -0.28697 0
M  V30 6082 C 597.619 1.53181 0.551297 0
M  V30 6083 O 598.808 1.74561 0.372914 0
M  V30 6084 C 595.908 3.33335 0.611617 0
M  V30 6085 C 595.081 4.36966 -0.194729 0
M  V30 6086 C 594.14 5.22387 0.632358 0
M  V30 6087 O 593.166 5.69169 0.0595691 0
M  V30 6088 N 594.368 5.46985 1.94391 0
M  V30 6089 H 597.133 2.78261 -1.11314 0
M  V30 6090 H 594.694 1.44306 -0.733994 0
M  V30 6091 H 596.686 3.87398 1.17068 0
M  V30 6092 H 595.256 2.82496 1.33846 0
M  V30 6093 H 594.476 3.82945 -0.935241 0
M  V30 6094 H 595.764 5.03273 -0.747935 0
M  V30 6095 H 595.162 5.10737 2.43237 0
M  V30 6096 H 593.719 6.03973 2.45071 0
M  V30 6097 N 597.152 0.631951 1.44375 0
M  V30 6098 C 598.377 0.142146 2.06912 0
M  V30 6099 C 598.802 -1.17456 1.4692 0
M  V30 6100 O 598.16 -1.72074 0.570975 0
M  V30 6101 C 598.208 0.0417952 3.60576 0
M  V30 6102 O 597.312 -1.00194 4.00044 0
M  V30 6103 H 596.653 0.0851491 0.658518 0
M  V30 6104 H 599.183 0.868863 1.85235 0
M  V30 6105 H 599.193 -0.148517 4.0773 0
M  V30 6106 H 597.868 1.0031 4.03622 0
M  V30 6107 H 596.445 -0.786131 3.64519 0
M  V30 6108 N 598.631 -1.53133 0.372548 0
M  V30 6109 C 599.879 -2.00958 -0.214534 0
M  V30 6110 C 600.2 -1.26135 -1.48711 0
M  V30 6111 O 599.47 -0.376597 -1.92246 0
M  V30 6112 H 598.05 -0.742456 -0.0822664 0
M  V30 6113 H 600.712 -1.88367 0.500385 0
M  V30 6114 H 599.808 -3.09031 -0.436605 0
M  V30 6115 N 600.109 -0.101901 -1.5727 0
M  V30 6116 C 601.057 0.872034 -2.15635 0
M  V30 6117 C 602.051 1.28742 -1.10099 0
M  V30 6118 O 603.257 1.26116 -1.28432 0
M  V30 6119 H 599.632 0.299269 -0.689886 0
M  V30 6120 H 601.603 0.355137 -2.96279 0
M  V30 6121 C 600.352 2.11886 -2.7568 0
M  V30 6122 H 599.675 1.80813 -3.56576 0
M  V30 6123 H 601.115 2.78077 -3.20077 0
M  V30 6124 C 599.574 2.89739 -1.7191 0
M  V30 6125 O 600.104 3.84522 -1.16213 0
M  V30 6126 N 598.31 2.53407 -1.42245 0
M  V30 6127 H 597.857 1.76398 -1.87727 0
M  V30 6128 H 597.815 3.05795 -0.730529 0
M  V30 6129 N 601.587 1.56661 0.17182 0
M  V30 6130 C 602.537 1.92781 1.21736 0
M  V30 6131 C 603.521 0.796065 1.39827 0
M  V30 6132 O 604.713 1.05924 1.41806 0
M  V30 6133 C 601.842 2.29079 2.55691 0
M  V30 6134 C 600.928 3.48765 2.41296 0
M  V30 6135 N 601.319 4.66022 1.96614 0
M  V30 6136 C 599.617 3.53362 2.72124 0
M  V30 6137 C 600.318 5.48159 1.94669 0
M  V30 6138 N 599.294 4.89189 2.37054 0
M  V30 6139 H 603.096 2.80926 0.863592 0
M  V30 6140 H 600.61 1.57889 0.380096 0
M  V30 6141 H 602.607 2.5315 3.31241 0
M  V30 6142 H 601.267 1.42272 2.91871 0
M  V30 6143 H 602.278 4.9025 1.66959 0
M  V30 6144 H 598.955 2.77033 3.12345 0
M  V30 6145 H 600.345 6.52121 1.61826 0
M  V30 6146 N 603.065 -0.440357 1.51323 0
M  V30 6147 C 603.997 -1.55254 1.68609 0
M  V30 6148 C 605.01 -1.52614 0.566812 0
M  V30 6149 O 606.199 -1.57445 0.841032 0
M  V30 6150 C 603.299 -2.94169 1.68279 0
M  V30 6151 C 602.472 -3.21346 2.96742 0
M  V30 6152 C 601.531 -4.3997 2.8864 0
M  V30 6153 O 600.557 -4.38771 3.62586 0
M  V30 6154 N 601.759 -5.43367 2.04285 0
M  V30 6155 H 604.524 -1.40831 2.6455 0
M  V30 6156 H 602.085 -0.629251 1.49171 0
M  V30 6157 H 604.077 -3.71543 1.60431 0
M  V30 6158 H 602.647 -3.02205 0.799441 0
M  V30 6159 H 601.867 -2.32299 3.18482 0
M  V30 6160 H 603.155 -3.3633 3.81785 0
M  V30 6161 H 602.553 -5.47176 1.43578 0
M  V30 6162 H 601.11 -6.19605 2.02318 0
M  V30 6163 N 604.543 -1.41418 -0.695603 0
M  V30 6164 C 605.768 -1.44329 -1.48942 0
M  V30 6165 C 606.193 -0.0501579 -1.88033 0
M  V30 6166 O 605.551 0.946598 -1.54626 0
M  V30 6167 C 605.599 -2.3578 -2.72837 0
M  V30 6168 O 604.703 -1.81482 -3.70322 0
M  V30 6169 H 604.044 -0.489838 -0.44828 0
M  V30 6170 H 606.574 -1.85878 -0.855014 0
M  V30 6171 H 606.584 -2.51654 -3.21145 0
M  V30 6172 H 605.259 -3.37005 -2.43722 0
M  V30 6173 H 603.836 -1.75058 -3.29255 0
M  V30 6174 N 606.021 0.929856 -1.27246 0
M  V30 6175 C 607.298 1.65544 -1.04186 0
M  V30 6176 C 607.678 2.06796 0.424097 0
M  V30 6177 O 607.026 1.80053 1.40688 0
M  V30 6178 C 607.236 2.85912 -2.00138 0
M  V30 6179 C 608.584 3.57305 -2.29387 0
M  V30 6180 O 609.608 2.96036 -1.98094 0
M  V30 6181 O 608.467 4.67688 -2.82719 0
M  V30 6182 H 605.561 0.725473 -0.397011 0
M  V30 6183 H 608.107 0.980583 -1.38501 0
M  V30 6184 H 606.879 2.52403 -2.99013 0
M  V30 6185 H 606.502 3.61118 -1.66371 0
M  V30 6186 N 607.499 1.09233 1.13605 0
M  V30 6187 C 608.431 0.687794 2.18637 0
M  V30 6188 C 609.444 -0.26936 1.60556 0
M  V30 6189 O 610.633 -0.0557162 1.78413 0
M  V30 6190 C 607.733 -0.00751901 3.38899 0
M  V30 6191 C 606.906 0.97067 4.26494 0
M  V30 6192 C 605.965 0.309129 5.25291 0
M  V30 6193 O 604.991 0.956149 5.61112 0
M  V30 6194 N 606.193 -0.937555 5.72879 0
M  V30 6195 H 608.958 1.59141 2.53957 0
M  V30 6196 H 606.519 0.979515 1.28907 0
M  V30 6197 H 608.511 -0.461238 4.02063 0
M  V30 6198 H 607.081 -0.813353 3.01833 0
M  V30 6199 H 606.301 1.603 3.60135 0
M  V30 6200 H 607.589 1.63323 4.81875 0
M  V30 6201 H 606.987 -1.48281 5.4592 0
M  V30 6202 H 605.544 -1.33463 6.3799 0
M  V30 6203 N 608.977 -1.30795 0.87923 0
M  V30 6204 C 610.223 -1.96653 0.495519 0
M  V30 6205 C 610.556 -1.69282 -0.951703 0
M  V30 6206 O 609.831 -0.994374 -1.6716 0
M  V30 6207 C 610.114 -3.51898 0.764174 0
M  V30 6208 C 609.967 -3.88808 2.2616 0
M  V30 6209 C 611.286 -4.39462 0.236825 0
M  V30 6210 H 608.405 -0.7143 0.181507 0
M  V30 6211 H 611.047 -1.54765 1.10217 0
M  V30 6212 H 609.197 -3.87709 0.247841 0
M  V30 6213 H 610.869 -3.63051 2.8459 0
M  V30 6214 H 609.112 -3.37082 2.73053 0
M  V30 6215 H 609.783 -4.97086 2.4002 0
M  V30 6216 H 612.259 -4.10528 0.678683 0
M  V30 6217 H 611.135 -5.47018 0.454176 0
M  V30 6218 H 611.396 -4.33621 -0.861683 0
M  V30 6219 N 610.455 -0.639598 -1.44038 0
M  V30 6220 C 611.702 -0.14748 -2.01962 0
M  V30 6221 C 612.03 1.23372 -1.50365 0
M  V30 6222 O 611.285 1.8345 -0.681501 0
M  V30 6223 C 611.584 -0.0925348 -3.5728 0
M  V30 6224 C 611.25 -1.41365 -4.28167 0
M  V30 6225 C 609.912 -1.77545 -4.47248 0
M  V30 6226 C 612.264 -2.2853 -4.68427 0
M  V30 6227 C 609.592 -3.00583 -5.03852 0
M  V30 6228 C 611.944 -3.50846 -5.26393 0
M  V30 6229 C 610.608 -3.8724 -5.43692 0
M  V30 6230 H 609.878 -0.0539666 -0.739032 0
M  V30 6231 H 612.525 -0.827599 -1.72694 0
M  V30 6232 H 610.83 0.670987 -3.86012 0
M  V30 6233 H 612.527 0.304891 -3.99839 0
M  V30 6234 H 609.117 -1.1221 -4.13651 0
M  V30 6235 H 613.301 -2.0187 -4.5339 0
M  V30 6236 H 608.557 -3.28846 -5.15432 0
M  V30 6237 H 612.731 -4.18616 -5.56537 0
M  V30 6238 H 610.358 -4.8266 -5.87319 0
M  V30 6239 N 611.933 1.52934 -0.380664 0
M  V30 6240 C 613.181 2.01069 0.203874 0
M  V30 6241 C 613.502 1.26922 1.4804 0
M  V30 6242 O 612.772 0.386787 1.92044 0
M  V30 6243 H 611.352 0.742882 0.0783279 0
M  V30 6244 H 614.014 1.88099 -0.510368 0
M  V30 6245 H 613.11 3.09258 0.42021 0
M  V30 6246 N 613.412 0.11024 1.57214 0
M  V30 6247 C 614.659 -0.54987 1.94891 0
M  V30 6248 C 614.987 -1.67243 0.992984 0
M  V30 6249 O 614.242 -1.95694 0.0152703 0
M  V30 6250 C 614.541 -1.13102 3.39032 0
M  V30 6251 C 614.207 -0.130713 4.5071 0
M  V30 6252 C 612.869 0.14437 4.80983 0
M  V30 6253 C 615.221 0.551472 5.18274 0
M  V30 6254 C 612.549 1.10807 5.76141 0
M  V30 6255 C 614.901 1.50375 6.14467 0
M  V30 6256 C 613.565 1.78691 6.43138 0
M  V30 6257 H 612.835 -0.201212 0.713158 0
M  V30 6258 H 615.482 0.189288 1.90562 0
M  V30 6259 H 613.787 -1.94675 3.40013 0
M  V30 6260 H 615.484 -1.64973 3.65493 0
M  V30 6261 H 612.074 -0.355301 4.27125 0
M  V30 6262 H 616.258 0.35211 4.95049 0
M  V30 6263 H 611.514 1.3343 5.96663 0
M  V30 6264 H 615.688 2.03808 6.65909 0
M  V30 6265 H 613.315 2.53522 7.1668 0
M  V30 6266 N 614.89 -1.56749 -0.16351 0
M  V30 6267 C 615.822 -1.93587 -1.22705 0
M  V30 6268 C 616.835 -0.829824 -1.40063 0
M  V30 6269 O 618.024 -1.10826 -1.39928 0
M  V30 6270 C 615.124 -2.1803 -2.59454 0
M  V30 6271 C 614.297 -3.4928 -2.63292 0
M  V30 6272 C 613.356 -3.62457 -3.8146 0
M  V30 6273 O 612.382 -4.35004 -3.67096 0
M  V30 6274 N 613.584 -2.97888 -4.9824 0
M  V30 6275 H 616.349 -2.8542 -0.914081 0
M  V30 6276 H 613.91 -1.58 -0.353214 0
M  V30 6277 H 615.902 -2.24102 -3.36987 0
M  V30 6278 H 614.472 -1.32543 -2.8311 0
M  V30 6279 H 613.692 -3.54795 -1.71796 0
M  V30 6280 H 614.98 -4.35632 -2.62873 0
M  V30 6281 H 614.378 -2.38833 -5.12811 0
M  V30 6282 H 612.935 -3.09545 -5.73607 0
M  V30 6283 N 616.368 0.432326 -1.51554 0
M  V30 6284 C 617.614 1.18309 -1.64714 0
M  V30 6285 C 617.947 1.90745 -0.364696 0
M  V30 6286 O 617.222 1.8381 0.635936 0
M  V30 6287 C 617.505 2.1961 -2.85383 0
M  V30 6288 C 617.358 1.51223 -4.23617 0
M  V30 6289 C 618.677 3.20538 -3.01569 0
M  V30 6290 H 615.796 0.428751 -0.599451 0
M  V30 6291 H 618.438 0.471689 -1.84052 0
M  V30 6292 H 616.588 2.8028 -2.69027 0
M  V30 6293 H 618.26 0.938516 -4.51652 0
M  V30 6294 H 616.503 0.814501 -4.26085 0
M  V30 6295 H 617.174 2.25024 -5.04052 0
M  V30 6296 H 619.65 2.69926 -3.16669 0
M  V30 6297 H 618.526 3.88706 -3.87555 0
M  V30 6298 H 618.787 3.86933 -2.13859 0
M  V30 6299 N 617.846 1.41785 0.688094 0
M  V30 6300 C 618.778 1.40159 1.81351 0
M  V30 6301 C 619.791 0.30262 1.59963 0
M  V30 6302 O 620.98 0.564841 1.69327 0
M  V30 6303 C 618.08 1.16517 3.1824 0
M  V30 6304 C 617.253 2.38597 3.66593 0
M  V30 6305 C 616.312 2.10699 4.82174 0
M  V30 6306 O 615.338 2.83798 4.93404 0
M  V30 6307 N 616.54 1.10187 5.69947 0
M  V30 6308 H 619.305 2.3716 1.83236 0
M  V30 6309 H 616.866 1.36494 0.870697 0
M  V30 6310 H 618.858 0.957941 3.93199 0
M  V30 6311 H 617.428 0.280873 3.11336 0
M  V30 6312 H 616.648 2.74974 2.82459 0
M  V30 6313 H 617.936 3.19919 3.95638 0
M  V30 6314 H 617.334 0.497016 5.63512 0
M  V30 6315 H 615.891 0.954518 6.44773 0
M  V30 6316 N 619.324 -0.923095 1.27737 0
M  V30 6317 C 620.735 -1.48626 1.12993 0
M  V30 6318 C 621.086 -1.94142 -0.283439 0
M  V30 6319 O 620.211 -1.81605 -1.17681 0
M  V30 6320 C 620.806 -2.70117 2.04505 0
M  V30 6321 C 619.365 -3.22642 1.93853 0
M  V30 6322 C 618.512 -1.95368 1.96791 0
M  V30 6323 H 621.463 -0.736737 1.40563 0
M  V30 6324 H 621.484 -3.4506 1.60356 0
M  V30 6325 H 620.996 -2.36959 3.07363 0
M  V30 6326 H 619.097 -3.60549 0.939968 0
M  V30 6327 H 619.21 -3.88525 2.80331 0
M  V30 6328 H 617.574 -2.12061 1.41076 0
M  V30 6329 H 618.357 -1.64517 3.01312 0
M  V30 6330 N 620.802 -1.09834 -1.13024 0
M  V30 6331 C 622.05 -0.835297 -1.8403 0
M  V30 6332 C 622.371 0.640944 -1.84165 0
M  V30 6333 O 621.641 1.46517 -1.30037 0
M  V30 6334 H 620.221 -0.306018 -0.681441 0
M  V30 6335 H 622.883 -1.38734 -1.36891 0
M  V30 6336 H 621.979 -1.19258 -2.88416 0
M  V30 6337 N 622.28 1.30327 -0.886154 0
M  V30 6338 C 623.21 2.30549 -0.370028 0
M  V30 6339 C 624.191 1.61039 0.547751 0
M  V30 6340 O 625.376 1.8864 0.461353 0
M  V30 6341 C 622.506 3.44808 0.415275 0
M  V30 6342 C 621.46 4.26024 -0.41085 0
M  V30 6343 C 620.786 5.32347 0.501128 0
M  V30 6344 C 622.086 4.95433 -1.65359 0
M  V30 6345 H 623.78 2.73969 -1.20754 0
M  V30 6346 H 621.326 1.3171 -0.582097 0
M  V30 6347 H 623.279 4.13986 0.78699 0
M  V30 6348 H 622.003 3.00197 1.28644 0
M  V30 6349 H 620.662 3.58535 -0.764719 0
M  V30 6350 H 620.31 4.83982 1.37004 0
M  V30 6351 H 620.01 5.87581 -0.0478356 0
M  V30 6352 H 621.534 6.0438 0.869333 0
M  V30 6353 H 622.948 5.5712 -1.35239 0
M  V30 6354 H 621.345 5.60537 -2.14284 0
M  V30 6355 H 622.415 4.21493 -2.39733 0
M  V30 6356 N 623.758 0.647228 1.43697 0
M  V30 6357 C 625.035 0.0883758 1.954 0
M  V30 6358 C 625.415 -1.39006 1.58873 0
M  V30 6359 O 624.763 -2.11255 0.87083 0
M  V30 6360 C 624.973 0.328263 3.47453 0
M  V30 6361 C 626.321 0.230009 4.23977 0
M  V30 6362 O 627.345 0.260496 3.55246 0
M  V30 6363 O 626.204 0.148615 5.46298 0
M  V30 6364 H 623.298 -0.0130683 0.826897 0
M  V30 6365 H 625.844 0.72005 1.53666 0
M  V30 6366 H 624.616 1.3535 3.67146 0
M  V30 6367 H 624.239 -0.336772 3.96171 0
M  V30 6368 N 625.236 -1.5273 0.388769 0
M  V30 6369 C 626.461 -2.0647 -0.19621 0
M  V30 6370 C 626.886 -1.25865 -1.39784 0
M  V30 6371 O 626.244 -0.283562 -1.79069 0
M  V30 6372 C 626.292 -3.56456 -0.5451 0
M  V30 6373 O 625.396 -3.78426 -1.63912 0
M  V30 6374 H 624.737 -0.663599 -0.023067 0
M  V30 6375 H 627.267 -1.96898 0.556084 0
M  V30 6376 H 627.277 -3.99888 -0.809557 0
M  V30 6377 H 625.952 -4.14561 0.333417 0
M  V30 6378 H 624.529 -3.46884 -1.36842 0
M  V30 6379 N 626.714 -0.118576 -1.57153 0
M  V30 6380 C 627.96 0.540326 -1.95469 0
M  V30 6381 C 628.293 1.66356 -1.00196 0
M  V30 6382 O 627.568 1.94461 -0.039104 0
M  V30 6383 C 627.851 1.07342 -3.43729 0
M  V30 6384 C 627.704 -0.0463732 -4.49776 0
M  V30 6385 C 629.023 1.96442 -3.93826 0
M  V30 6386 H 626.142 0.19494 -0.710751 0
M  V30 6387 H 628.784 -0.19405 -1.89006 0
M  V30 6388 H 626.934 1.69925 -3.49368 0
M  V30 6389 H 628.606 -0.681648 -4.56236 0
M  V30 6390 H 626.849 -0.709574 -4.27957 0
M  V30 6391 H 627.52 0.367856 -5.50773 0
M  V30 6392 H 629.996 1.43731 -3.90488 0
M  V30 6393 H 628.872 2.3066 -4.98084 0
M  V30 6394 H 629.133 2.89077 -3.34495 0
M  V30 6395 N 628.193 1.56834 0.155195 0
M  V30 6396 C 629.44 1.82898 0.869179 0
M  V30 6397 C 629.768 0.698194 1.81537 0
M  V30 6398 O 629.023 -0.313404 1.93174 0
M  V30 6399 C 629.322 3.15239 1.68402 0
M  V30 6400 C 628.988 4.42123 0.885341 0
M  V30 6401 C 627.65 4.76583 0.664971 0
M  V30 6402 C 630.002 5.20178 0.326234 0
M  V30 6403 C 627.33 5.86566 -0.125346 0
M  V30 6404 C 629.682 6.3099 -0.45108 0
M  V30 6405 C 628.346 6.64006 -0.682102 0
M  V30 6406 H 627.616 0.66927 0.318055 0
M  V30 6407 H 630.263 1.91036 0.133241 0
M  V30 6408 H 628.568 3.02515 2.48982 0
M  V30 6409 H 630.265 3.32618 2.23978 0
M  V30 6410 H 626.855 4.15102 1.06716 0
M  V30 6411 H 631.039 4.93936 0.483787 0
M  V30 6412 H 626.295 6.10594 -0.313915 0
M  V30 6413 H 630.469 6.9067 -0.89149 0
M  V30 6414 H 628.096 7.49065 -1.29636 0
M  V30 6415 N 629.671 -0.424282 1.51781 0
M  V30 6416 C 630.618 -1.51591 1.74037 0
M  V30 6417 C 631.588 -1.55556 0.582358 0
M  V30 6418 O 632.773 -1.72364 0.818245 0
M  V30 6419 C 629.913 -2.89188 1.8832 0
M  V30 6420 C 629.026 -2.9465 3.1592 0
M  V30 6421 C 628.161 -4.23452 3.20721 0
M  V30 6422 C 627.2 -4.22831 4.42584 0
M  V30 6423 N 626.337 -5.43178 4.44862 0
M  V30 6424 H 631.177 -1.31917 2.67212 0
M  V30 6425 H 628.714 -0.640599 1.32419 0
M  V30 6426 H 630.672 -3.69044 1.94583 0
M  V30 6427 H 629.302 -3.07392 0.985402 0
M  V30 6428 H 628.354 -2.07378 3.18902 0
M  V30 6429 H 629.666 -2.90055 4.05795 0
M  V30 6430 H 628.82 -5.1169 3.25973 0
M  V30 6431 H 627.559 -4.30722 2.28757 0
M  V30 6432 H 626.564 -3.32984 4.37495 0
M  V30 6433 H 627.789 -4.17213 5.35826 0
M  V30 6434 H 625.735 -5.51145 3.55775 0
M  V30 6435 H 625.652 -5.40515 5.28563 0
M  V30 6436 H 626.92 -6.33412 4.54324 0
M  V30 6437 N 631.149 -1.42148 -0.680565 0
M  V30 6438 C 632.099 -1.41634 -1.78672 0
M  V30 6439 C 633.083 -0.288494 -1.58293 0
M  V30 6440 O 634.275 -0.530295 -1.68869 0
M  V30 6441 C 631.404 -1.31558 -3.17092 0
M  V30 6442 C 630.49 -2.49265 -3.43115 0
M  V30 6443 N 630.881 -3.74702 -3.39753 0
M  V30 6444 C 629.179 -2.43401 -3.73727 0
M  V30 6445 C 629.88 -4.52854 -3.651 0
M  V30 6446 N 628.856 -3.83181 -3.85582 0
M  V30 6447 H 632.658 -2.3652 -1.74458 0
M  V30 6448 H 630.172 -1.36415 -0.881171 0
M  V30 6449 H 632.169 -1.29272 -3.96351 0
M  V30 6450 H 630.829 -0.376696 -3.22508 0
M  V30 6451 H 631.84 -4.07378 -3.19787 0
M  V30 6452 H 628.517 -1.58062 -3.86423 0
M  V30 6453 H 629.907 -5.61827 -3.6851 0
M  V30 6454 N 632.627 0.916307 -1.28225 0
M  V30 6455 C 633.855 1.69901 -1.18073 0
M  V30 6456 C 634.27 1.86988 0.260968 0
M  V30 6457 O 633.627 1.39505 1.17663 0
M  V30 6458 C 633.678 3.09254 -1.87201 0
M  V30 6459 O 633.399 2.92959 -3.2574 0
M  V30 6460 C 634.9 4.0362 -1.83319 0
M  V30 6461 H 632.12 0.531181 -0.409985 0
M  V30 6462 H 634.664 1.14703 -1.69303 0
M  V30 6463 H 632.819 3.61277 -1.39848 0
M  V30 6464 H 633.233 3.81139 -3.60324 0
M  V30 6465 H 634.707 4.98873 -2.36282 0
M  V30 6466 H 635.184 4.3176 -0.805007 0
M  V30 6467 H 635.79 3.57524 -2.3034 0
M  V30 6468 N 634.105 1.10431 1.1244 0
M  V30 6469 C 635.035 0.775143 2.20258 0
M  V30 6470 C 636.016 -0.25186 1.68225 0
M  V30 6471 O 637.201 -0.117637 1.93843 0
M  V30 6472 C 634.331 0.206133 3.46688 0
M  V30 6473 C 633.285 1.16382 4.11873 0
M  V30 6474 C 632.611 0.456014 5.32752 0
M  V30 6475 C 633.911 2.5104 4.58013 0
M  V30 6476 H 635.605 1.67665 2.4805 0
M  V30 6477 H 633.151 0.807595 1.19222 0
M  V30 6478 H 635.104 -0.036291 4.21384 0
M  V30 6479 H 633.828 -0.730614 3.18323 0
M  V30 6480 H 632.487 1.39169 3.39157 0
M  V30 6481 H 632.135 -0.485203 5.00654 0
M  V30 6482 H 631.835 1.09466 5.77314 0
M  V30 6483 H 633.359 0.222135 6.10196 0
M  V30 6484 H 634.773 2.32401 5.24083 0
M  V30 6485 H 633.17 3.10789 5.13352 0
M  V30 6486 H 634.24 3.11039 3.71998 0
M  V30 6487 N 635.583 -1.29855 0.893053 0
M  V30 6488 C 636.513 -2.3035 0.382249 0
M  V30 6489 C 637.494 -1.61328 -0.539203 0
M  V30 6490 O 638.679 -1.88882 -0.451342 0
M  V30 6491 C 635.809 -3.45024 -0.396983 0
M  V30 6492 C 634.763 -4.258 0.433437 0
M  V30 6493 C 634.089 -5.32605 -0.472889 0
M  V30 6494 C 635.389 -4.94549 1.67984 0
M  V30 6495 H 637.083 -2.73325 1.22205 0
M  V30 6496 H 634.629 -1.314 0.589073 0
M  V30 6497 H 636.582 -4.14398 -0.765024 0
M  V30 6498 H 635.306 -3.00875 -1.2705 0
M  V30 6499 H 633.965 -3.58125 0.783723 0
M  V30 6500 H 633.613 -4.84702 -1.34435 0
M  V30 6501 H 633.313 -5.87547 0.0789958 0
M  V30 6502 H 634.837 -6.04832 -0.837269 0
M  V30 6503 H 636.251 -5.56395 1.38192 0
M  V30 6504 H 634.648 -5.59393 2.17254 0
M  V30 6505 H 635.718 -4.20215 2.41965 0
M  V30 6506 N 637.061 -0.65484 -1.43351 0
M  V30 6507 C 638.309 -0.168559 -2.01396 0
M  V30 6508 C 638.63 1.22235 -1.51933 0
M  V30 6509 O 637.9 1.81685 -0.732627 0
M  V30 6510 H 636.48 -0.0593244 -0.744641 0
M  V30 6511 H 639.142 -0.846871 -1.75539 0
M  V30 6512 H 638.238 -0.154428 -3.11718 0
M  V30 6513 N 638.539 1.52521 -0.396863 0
M  V30 6514 C 639.449 2.30403 0.44178 0
M  V30 6515 C 640.465 1.37625 1.06468 0
M  V30 6516 O 641.641 1.70697 1.06886 0
M  V30 6517 C 638.706 3.1013 1.54986 0
M  V30 6518 C 637.767 4.18628 0.951279 0
M  V30 6519 C 637 4.94543 2.00655 0
M  V30 6520 O 637.223 4.70629 3.22281 0
M  V30 6521 O 636.157 5.797 1.61962 0
M  V30 6522 H 639.983 3.03087 -0.192892 0
M  V30 6523 H 637.568 1.48537 -0.16038 0
M  V30 6524 H 639.45 3.59816 2.19341 0
M  V30 6525 H 638.125 2.40251 2.16935 0
M  V30 6526 H 637.032 3.73119 0.270773 0
M  V30 6527 H 638.365 4.90763 0.375887 0
M  V30 6528 N 640.017 0.126909 1.57088 0
M  V30 6529 C 641.266 -0.529024 1.94639 0
M  V30 6530 C 641.579 -1.67323 1.01304 0
M  V30 6531 O 642.785 -2.39245 1.28352 0
M  V30 6532 C 641.241 -0.992483 3.45945 0
M  V30 6533 C 640.849 0.123691 4.47829 0
M  V30 6534 C 642.593 -1.61934 3.924 0
M  V30 6535 C 640.5 -0.356911 5.90322 0
M  V30 6536 H 639.43 -0.201397 0.726605 0
M  V30 6537 H 642.081 0.208032 1.82317 0
M  V30 6538 H 640.463 -1.7842 3.53528 0
M  V30 6539 H 641.637 0.900168 4.51922 0
M  V30 6540 H 639.952 0.657699 4.11173 0
M  V30 6541 H 642.549 -1.9902 4.96281 0
M  V30 6542 H 642.892 -2.50075 3.32819 0
M  V30 6543 H 643.425 -0.892894 3.8765 0
M  V30 6544 H 640.164 0.488636 6.53676 0
M  V30 6545 H 639.684 -1.0997 5.89633 0
M  V30 6546 H 641.363 -0.815547 6.41839 0
M  V30 6547 N 641.495 -1.56914 -0.146875 0
M  V30 6548 C 642.425 -2.01308 -1.1831 0
M  V30 6549 C 643.406 -0.892664 -1.44795 0
M  V30 6550 O 644.591 -1.16048 -1.55713 0
M  V30 6551 C 641.721 -2.3938 -2.51624 0
M  V30 6552 C 640.675 -3.54608 -2.3966 0
M  V30 6553 C 640.001 -3.78493 -3.77686 0
M  V30 6554 C 641.301 -4.87269 -1.88058 0
M  V30 6555 H 642.995 -2.88123 -0.813964 0
M  V30 6556 H 640.541 -1.38615 -0.3901 0
M  V30 6557 H 642.494 -2.69037 -3.24341 0
M  V30 6558 H 641.218 -1.49502 -2.90373 0
M  V30 6559 H 639.877 -3.25116 -1.69396 0
M  V30 6560 H 639.525 -2.85866 -4.13871 0
M  V30 6561 H 639.225 -4.56039 -3.70543 0
M  V30 6562 H 640.749 -4.10576 -4.51951 0
M  V30 6563 H 642.163 -5.15644 -2.50568 0
M  V30 6564 H 640.56 -5.68622 -1.91805 0
M  V30 6565 H 641.63 -4.77634 -0.836277 0
M  V30 6566 N 642.974 0.416227 -1.52004 0
M  V30 6567 C 643.922 1.5272 -1.7544 0
M  V30 6568 C 644.916 1.57596 -0.621289 0
M  V30 6569 O 646.122 1.61087 -0.803172 0
M  V30 6570 H 642.497 0.507772 -0.554682 0
M  V30 6571 H 644.468 1.30136 -2.68528 0
M  V30 6572 C 643.217 2.90165 -1.91571 0
M  V30 6573 H 642.54 2.87154 -2.78178 0
M  V30 6574 H 643.98 3.67211 -2.11972 0
M  V30 6575 C 642.439 3.29947 -0.680942 0
M  V30 6576 O 642.969 4.01403 0.154527 0
M  V30 6577 N 641.175 2.8593 -0.518894 0
M  V30 6578 H 640.722 2.2795 -1.19986 0
M  V30 6579 H 640.68 3.12907 0.305985 0
M  V30 6580 N 644.452 1.42507 0.673017 0
M  V30 6581 C 645.682 1.46261 1.45916 0
M  V30 6582 C 646.09 0.0729724 1.89059 0
M  V30 6583 O 645.433 -0.922987 1.58829 0
M  V30 6584 C 645.495 2.32853 2.73898 0
M  V30 6585 C 645.159 3.80699 2.52819 0
M  V30 6586 C 646.156 4.72307 2.17306 0
M  V30 6587 C 643.841 4.24983 2.67758 0
M  V30 6588 C 645.835 6.06192 1.97003 0
M  V30 6589 C 643.522 5.58927 2.4707 0
M  V30 6590 C 644.52 6.49348 2.11746 0
M  V30 6591 O 644.208 7.80817 1.91259 0
M  V30 6592 H 643.94 0.499561 0.455428 0
M  V30 6593 H 646.494 1.87697 0.834196 0
M  V30 6594 H 644.724 1.86268 3.38882 0
M  V30 6595 H 646.413 2.28041 3.35786 0
M  V30 6596 H 647.179 4.39378 2.05359 0
M  V30 6597 H 643.058 3.54893 2.94231 0
M  V30 6598 H 646.602 6.76731 1.69355 0
M  V30 6599 H 642.499 5.91429 2.58615 0
M  V30 6600 H 643.267 7.92194 2.05843 0
M  V30 6601 N 645.93 -0.909495 1.28709 0
M  V30 6602 C 647.177 -1.65905 1.16111 0
M  V30 6603 C 647.505 -1.92334 -0.289436 0
M  V30 6604 O 646.76 -1.52495 -1.22653 0
M  V30 6605 C 647.059 -3.02117 1.90945 0
M  V30 6606 C 646.725 -2.95332 3.40719 0
M  V30 6607 C 645.387 -2.93189 3.81567 0
M  V30 6608 C 647.739 -2.85264 4.36204 0
M  V30 6609 C 645.067 -2.78784 5.16233 0
M  V30 6610 C 647.419 -2.724 5.70948 0
M  V30 6611 C 646.083 -2.68617 6.11066 0
M  V30 6612 H 645.353 -0.60709 0.42488 0
M  V30 6613 H 648 -1.05932 1.59533 0
M  V30 6614 H 646.305 -3.65901 1.40085 0
M  V30 6615 H 648.002 -3.59026 1.7861 0
M  V30 6616 H 644.592 -2.97797 3.08245 0
M  V30 6617 H 648.776 -2.86005 4.05605 0
M  V30 6618 H 644.032 -2.74254 5.46438 0
M  V30 6619 H 648.206 -2.63579 6.44592 0
M  V30 6620 H 645.833 -2.57213 7.15364 0
M  V30 6621 N 647.408 -1.11026 -1.11852 0
M  V30 6622 C 648.371 -0.768006 -2.1595 0
M  V30 6623 C 649.371 0.210538 -1.59416 0
M  V30 6624 O 650.561 -0.0133978 -1.74195 0
M  V30 6625 C 647.693 -0.138678 -3.40618 0
M  V30 6626 H 648.886 -1.69012 -2.4774 0
M  V30 6627 H 646.439 -0.911578 -1.26964 0
M  V30 6628 H 647.174 0.793872 -3.14433 0
M  V30 6629 H 646.959 -0.843012 -3.8293 0
M  V30 6630 H 648.449 0.0848039 -4.17514 0
M  V30 6631 N 648.886 1.2938 -0.899927 0
M  V30 6632 C 649.836 2.25311 -0.349165 0
M  V30 6633 C 650.82 1.51889 0.530892 0
M  V30 6634 O 652.012 1.73028 0.372872 0
M  V30 6635 C 649.141 3.40696 0.422055 0
M  V30 6636 C 648.227 4.21455 -0.472935 0
M  V30 6637 N 648.618 4.8048 -1.58026 0
M  V30 6638 C 646.916 4.45177 -0.270767 0
M  V30 6639 C 647.617 5.41117 -2.13465 0
M  V30 6640 N 646.593 5.24518 -1.42766 0
M  V30 6641 H 650.395 2.68507 -1.19505 0
M  V30 6642 H 647.909 1.43992 -0.751006 0
M  V30 6643 H 649.906 4.08486 0.833369 0
M  V30 6644 H 648.566 2.99037 1.2652 0
M  V30 6645 H 649.577 4.79257 -1.96299 0
M  V30 6646 H 646.254 4.14071 0.533988 0
M  V30 6647 H 647.644 5.979 -3.06537 0
M  V30 6648 N 650.364 0.662433 1.43002 0
M  V30 6649 C 651.61 0.188492 2.02525 0
M  V30 6650 C 651.965 -1.18752 1.51379 0
M  V30 6651 O 651.258 -1.78313 0.701065 0
M  V30 6652 C 651.452 0.149363 3.57088 0
M  V30 6653 C 651.281 1.52004 4.23231 0
M  V30 6654 C 650.051 2.11473 4.5892 0
M  V30 6655 C 652.249 2.46028 4.51635 0
M  V30 6656 N 650.231 3.4145 5.10181 0
M  V30 6657 C 651.602 3.60647 5.04315 0
M  V30 6658 C 653.657 2.44715 4.33612 0
M  V30 6659 C 652.36 4.74189 5.40867 0
M  V30 6660 C 654.386 3.57344 4.71232 0
M  V30 6661 C 653.748 4.70689 5.24053 0
M  V30 6662 H 649.847 0.113615 0.773703 0
M  V30 6663 H 652.431 0.872738 1.74044 0
M  V30 6664 H 650.602 -0.504255 3.85113 0
M  V30 6665 H 652.334 -0.336307 4.033 0
M  V30 6666 H 649.089 1.64087 4.44266 0
M  V30 6667 H 649.513 4.07987 5.40255 0
M  V30 6668 H 654.155 1.58318 3.9204 0
M  V30 6669 H 651.873 5.61271 5.81378 0
M  V30 6670 H 655.459 3.5754 4.58973 0
M  V30 6671 H 654.339 5.56398 5.52621 0
M  V30 6672 N 651.842 -1.52309 0.404946 0
M  V30 6673 C 653.067 -2.06666 -0.1743 0
M  V30 6674 C 653.492 -1.27341 -1.38441 0
M  V30 6675 O 652.85 -0.302539 -1.78758 0
M  V30 6676 C 652.898 -3.57014 -0.507262 0
M  V30 6677 O 652.002 -3.80144 -1.59889 0
M  V30 6678 H 651.343 -0.663807 -0.0160273 0
M  V30 6679 H 653.873 -1.96297 0.576937 0
M  V30 6680 H 653.883 -4.00724 -0.767098 0
M  V30 6681 H 652.558 -4.14184 0.377368 0
M  V30 6682 H 651.135 -3.48316 -1.33155 0
M  V30 6683 N 653.32 -0.135238 -1.57019 0
M  V30 6684 C 654.568 0.51777 -1.95355 0
M  V30 6685 C 654.889 1.6617 -1.02042 0
M  V30 6686 O 654.159 1.95738 -0.0797343 0
M  V30 6687 H 652.739 0.194264 -0.721298 0
M  V30 6688 H 655.401 -0.207983 -1.93787 0
M  V30 6689 H 654.497 0.901675 -2.98791 0
M  V30 6690 N 654.798 1.5699 0.138552 0
M  V30 6691 C 656.023 1.88344 0.86841 0
M  V30 6692 C 656.448 0.725159 1.7356 0
M  V30 6693 O 655.806 -0.324992 1.78363 0
M  V30 6694 C 655.854 3.18334 1.69398 0
M  V30 6695 O 654.958 3.02863 2.79907 0
M  V30 6696 H 654.299 0.618577 0.241367 0
M  V30 6697 H 656.829 2.04207 0.126826 0
M  V30 6698 H 656.839 3.50567 2.08726 0
M  V30 6699 H 655.514 4.02238 1.05725 0
M  V30 6700 H 654.091 2.82056 2.43924 0
M  V30 6701 N 656.276 -0.40816 1.52223 0
M  V30 6702 C 657.525 -1.15212 1.65557 0
M  V30 6703 C 657.838 -1.9163 0.392096 0
M  V30 6704 O 659.044 -2.68458 0.405256 0
M  V30 6705 C 657.5 -2.09691 2.92502 0
M  V30 6706 C 657.108 -1.38785 4.25961 0
M  V30 6707 C 658.852 -2.8434 3.152 0
M  V30 6708 C 656.759 -2.31919 5.44029 0
M  V30 6709 H 655.689 -0.433776 0.616729 0
M  V30 6710 H 658.34 -0.4165 1.78711 0
M  V30 6711 H 656.722 -2.8681 2.7305 0
M  V30 6712 H 657.896 -0.670248 4.55899 0
M  V30 6713 H 656.211 -0.761741 4.09373 0
M  V30 6714 H 658.808 -3.54166 4.00587 0
M  V30 6715 H 659.151 -3.47344 2.29473 0
M  V30 6716 H 659.684 -2.14321 3.35129 0
M  V30 6717 H 656.423 -1.7356 6.32105 0
M  V30 6718 H 655.943 -3.0165 5.18428 0
M  V30 6719 H 657.622 -2.92424 5.77146 0
M  V30 6720 N 657.755 -1.42862 -0.66545 0
M  V30 6721 C 658.702 -1.4707 -1.77874 0
M  V30 6722 C 659.672 -0.321654 -1.62956 0
M  V30 6723 O 660.857 -0.52707 -1.83376 0
M  V30 6724 C 657.997 -1.38788 -3.15962 0
M  V30 6725 C 657.11 -2.63801 -3.42101 0
M  V30 6726 C 656.245 -2.47594 -4.69969 0
M  V30 6727 C 655.284 -3.67936 -4.89172 0
M  V30 6728 N 654.421 -3.50614 -6.08288 0
M  V30 6729 H 659.261 -2.42204 -1.73613 0
M  V30 6730 H 656.798 -1.20239 -0.847401 0
M  V30 6731 H 658.756 -1.31982 -3.95773 0
M  V30 6732 H 657.386 -0.472431 -3.19324 0
M  V30 6733 H 656.438 -2.80935 -2.56475 0
M  V30 6734 H 657.75 -3.53228 -3.52181 0
M  V30 6735 H 656.904 -2.38427 -5.57886 0
M  V30 6736 H 655.643 -1.55672 -4.62188 0
M  V30 6737 H 654.648 -3.77525 -3.99694 0
M  V30 6738 H 655.873 -4.60851 -4.98792 0
M  V30 6739 H 653.819 -2.61417 -6.01662 0
M  V30 6740 H 653.736 -4.33634 -6.19272 0
M  V30 6741 H 655.004 -3.45276 -6.98859 0
M  V30 6742 N 659.233 0.902656 -1.29189 0
M  V30 6743 C 660.163 2.02294 -1.16616 0
M  V30 6744 C 661.144 1.6999 -0.0611175 0
M  V30 6745 O 662.329 1.9271 -0.240072 0
M  V30 6746 C 659.459 3.37018 -0.83882 0
M  V30 6747 C 658.413 3.83522 -1.89986 0
M  V30 6748 C 657.739 5.15337 -1.42589 0
M  V30 6749 C 659.039 4.04169 -3.30824 0
M  V30 6750 H 660.733 2.13071 -2.10336 0
M  V30 6751 H 658.279 1.02378 -1.01266 0
M  V30 6752 H 660.232 4.14895 -0.737584 0
M  V30 6753 H 658.956 3.26325 0.134071 0
M  V30 6754 H 657.615 3.07859 -1.99043 0
M  V30 6755 H 657.263 5.01056 -0.441759 0
M  V30 6756 H 656.963 5.47423 -2.13547 0
M  V30 6757 H 658.487 5.95758 -1.3381 0
M  V30 6758 H 659.901 4.72537 -3.24626 0
M  V30 6759 H 658.298 4.47604 -3.99713 0
M  V30 6760 H 659.368 3.08604 -3.74021 0
M  V30 6761 N 660.711 1.11618 1.11262 0
M  V30 6762 C 661.939 0.888739 1.8684 0
M  V30 6763 C 662.354 -0.561558 1.80255 0
M  V30 6764 O 661.711 -1.38782 1.18515 0
M  V30 6765 C 661.762 1.34422 3.35579 0
M  V30 6766 O 661.483 2.73766 3.42029 0
M  V30 6767 C 662.984 1.15246 4.28058 0
M  V30 6768 H 660.204 0.318152 0.590779 0
M  V30 6769 H 662.748 1.48398 1.40707 0
M  V30 6770 H 660.903 0.79239 3.7921 0
M  V30 6771 H 661.317 2.9355 4.34659 0
M  V30 6772 H 662.791 1.52015 5.30656 0
M  V30 6773 H 663.268 0.0922007 4.39103 0
M  V30 6774 H 663.874 1.69136 3.90222 0
M  V30 6775 N 662.189 -1.289 0.906776 0
M  V30 6776 C 663.436 -1.95269 0.536326 0
M  V30 6777 C 663.764 -1.71435 -0.918711 0
M  V30 6778 O 663.019 -1.02431 -1.66752 0
M  V30 6779 C 663.318 -3.48704 0.783617 0
M  V30 6780 C 662.984 -3.92626 2.21711 0
M  V30 6781 C 661.646 -4.04329 2.60906 0
M  V30 6782 C 663.998 -4.15218 3.15029 0
M  V30 6783 C 661.326 -4.35998 3.92584 0
M  V30 6784 C 663.678 -4.48365 4.46264 0
M  V30 6785 C 662.342 -4.58278 4.85322 0
M  V30 6786 H 661.612 -0.714538 0.196256 0
M  V30 6787 H 664.259 -1.53366 1.14678 0
M  V30 6788 H 662.564 -3.91696 0.0903048 0
M  V30 6789 H 664.261 -3.98162 0.476267 0
M  V30 6790 H 660.851 -3.84038 1.90296 0
M  V30 6791 H 665.035 -4.05636 2.8596 0
M  V30 6792 H 660.291 -4.41878 4.22557 0
M  V30 6793 H 664.465 -4.64795 5.18593 0
M  V30 6794 H 662.092 -4.82573 5.87391 0
M  V30 6795 N 663.667 -0.670007 -1.42649 0
M  V30 6796 C 664.913 -0.190568 -2.01903 0
M  V30 6797 C 665.246 1.19817 -1.52832 0
M  V30 6798 O 664.521 1.80342 -0.728485 0
M  V30 6799 C 664.804 -0.21991 -3.59428 0
M  V30 6800 C 664.657 -1.64376 -4.18689 0
M  V30 6801 C 665.976 0.434519 -4.3795 0
M  V30 6802 H 663.095 -0.0707219 -0.733599 0
M  V30 6803 H 665.737 -0.853883 -1.69732 0
M  V30 6804 H 663.887 0.344894 -3.86966 0
M  V30 6805 H 665.559 -2.26044 -4.02122 0
M  V30 6806 H 663.802 -2.18591 -3.747 0
M  V30 6807 H 664.473 -1.61601 -5.27815 0
M  V30 6808 H 666.949 -0.0462156 -4.16074 0
M  V30 6809 H 665.825 0.38333 -5.4756 0
M  V30 6810 H 666.086 1.51135 -4.15464 0
M  V30 6811 N 665.145 1.52092 -0.413018 0
M  V30 6812 C 666.392 2.01855 0.161497 0
M  V30 6813 C 666.72 1.29845 1.44812 0
M  V30 6814 O 665.975 0.394471 1.91683 0
M  V30 6815 C 666.274 3.54529 0.4521 0
M  V30 6816 C 665.94 4.4469 -0.745788 0
M  V30 6817 C 664.602 4.69053 -1.07435 0
M  V30 6818 C 666.954 4.97742 -1.54604 0
M  V30 6819 C 664.282 5.43717 -2.20429 0
M  V30 6820 C 666.634 5.73642 -2.66678 0
M  V30 6821 C 665.298 5.96277 -3.00016 0
M  V30 6822 H 664.568 0.73864 0.0590961 0
M  V30 6823 H 667.215 1.83274 -0.555234 0
M  V30 6824 H 665.52 3.7131 1.25045 0
M  V30 6825 H 667.217 3.90546 0.909647 0
M  V30 6826 H 663.807 4.25907 -0.479725 0
M  V30 6827 H 667.991 4.78824 -1.30543 0
M  V30 6828 H 663.247 5.59462 -2.46602 0
M  V30 6829 H 667.421 6.13746 -3.29072 0
M  V30 6830 H 665.048 6.53913 -3.87688 0
M  V30 6831 N 666.623 0.143563 1.56945 0
M  V30 6832 C 667.863 -0.511198 1.97904 0
M  V30 6833 C 668.227 -1.62262 1.0264 0
M  V30 6834 O 669.428 -2.338 1.32631 0
M  V30 6835 C 667.699 -1.00753 3.42905 0
M  V30 6836 S 669.258 -1.66737 4.05887 0
M  V30 6837 H 666.076 -0.165399 0.691494 0
M  V30 6838 H 668.678 0.234464 1.94089 0
M  V30 6839 H 667.382 -0.187817 4.0997 0
M  V30 6840 H 666.913 -1.7879 3.50425 0
M  V30 6841 H 668.928 -2.95444 3.98657 0
M  V30 6842 N 668.101 -1.57061 -0.130224 0
M  V30 6843 C 669.349 -1.83893 -0.838313 0
M  V30 6844 C 669.67 -0.727046 -1.80939 0
M  V30 6845 O 668.94 0.249927 -1.94299 0
M  V30 6846 H 667.52 -0.67846 -0.312573 0
M  V30 6847 H 670.182 -1.94529 -0.120224 0
M  V30 6848 H 669.278 -2.79419 -1.39038 0
M  V30 6849 N 669.579 0.400081 -1.52437 0
M  V30 6850 C 670.804 1.17221 -1.71096 0
M  V30 6851 C 671.229 1.83269 -0.423565 0
M  V30 6852 O 670.587 1.70378 0.619751 0
M  V30 6853 C 670.635 2.20425 -2.85386 0
M  V30 6854 O 669.739 3.26769 -2.51586 0
M  V30 6855 H 669.08 0.341766 -0.569291 0
M  V30 6856 H 671.61 0.467772 -1.99181 0
M  V30 6857 H 671.62 2.64605 -3.10561 0
M  V30 6858 H 670.295 1.71737 -3.78786 0
M  V30 6859 H 668.872 2.87804 -2.37114 0
M  V30 6860 N 671.057 1.43213 0.657864 0
M  V30 6861 C 672.02 1.47687 1.75275 0
M  V30 6862 C 673.02 0.362179 1.56668 0
M  V30 6863 O 674.21 0.623734 1.62651 0
M  V30 6864 C 671.342 1.32497 3.14098 0
M  V30 6865 H 672.535 2.4519 1.7269 0
M  V30 6866 H 670.088 1.2991 0.869087 0
M  V30 6867 H 670.823 0.359831 3.22298 0
M  V30 6868 H 670.608 2.13299 3.29008 0
M  V30 6869 H 672.098 1.38549 3.93946 0
M  V30 6870 N 672.536 -0.895792 1.29666 0
M  V30 6871 C 673.469 -2.00238 1.09453 0
M  V30 6872 C 674.447 -1.62599 0.00527044 0
M  V30 6873 O 675.631 -1.87847 0.156729 0
M  V30 6874 C 672.758 -3.32066 0.667054 0
M  V30 6875 C 671.804 -3.88691 1.7556 0
M  V30 6876 S 672.637 -4.17317 3.35569 0
M  V30 6877 C 673.793 -5.52181 2.94698 0
M  V30 6878 H 674.026 -2.17076 2.03138 0
M  V30 6879 H 671.559 -1.04287 1.13858 0
M  V30 6880 H 673.517 -4.08272 0.427136 0
M  V30 6881 H 672.178 -3.13101 -0.250256 0
M  V30 6882 H 671.371 -4.83918 1.40853 0
M  V30 6883 H 670.973 -3.19187 1.94924 0
M  V30 6884 H 673.265 -6.3281 2.41986 0
M  V30 6885 H 674.208 -5.91817 3.88791 0
M  V30 6886 H 674.616 -5.14225 2.32879 0
M  V30 6887 N 674.014 -1.12206 -1.10668 0
M  V30 6888 C 674.977 -0.790867 -2.15123 0
M  V30 6889 C 675.977 0.193618 -1.5963 0
M  V30 6890 O 677.167 -0.0318728 -1.74171 0
M  V30 6891 C 674.299 -0.174797 -3.40452 0
M  V30 6892 H 675.492 -1.7163 -2.45933 0
M  V30 6893 H 673.045 -0.924993 -1.2599 0
M  V30 6894 H 673.78 0.760478 -3.15257 0
M  V30 6895 H 673.565 -0.88358 -3.82015 0
M  V30 6896 H 675.055 0.0405162 -4.1758 0
M  V30 6897 N 675.492 1.28418 -0.913599 0
M  V30 6898 C 676.72 1.99106 -0.562536 0
M  V30 6899 C 677.135 1.68273 0.856137 0
M  V30 6900 O 676.492 0.935401 1.56705 0
M  V30 6901 C 676.543 3.5338 -0.761903 0
M  V30 6902 O 676.264 3.83127 -2.12475 0
M  V30 6903 C 677.765 4.41328 -0.417651 0
M  V30 6904 H 674.985 0.635798 -0.214481 0
M  V30 6905 H 677.529 1.63618 -1.22676 0
M  V30 6906 H 675.684 3.8713 -0.144676 0
M  V30 6907 H 676.098 4.77763 -2.16431 0
M  V30 6908 H 677.572 5.48642 -0.607919 0
M  V30 6909 H 678.049 4.34422 0.646108 0
M  V30 6910 H 678.655 4.13074 -1.01241 0
M  V30 6911 N 676.97 0.677563 1.42291 0
M  V30 6912 C 678.218 0.200578 2.01102 0
M  V30 6913 C 678.539 -1.19803 1.53858 0
M  V30 6914 O 677.809 -1.80496 0.761439 0
M  V30 6915 H 676.389 0.0711634 0.743603 0
M  V30 6916 H 679.051 0.874691 1.7417 0
M  V30 6917 H 678.147 0.204 3.11433 0
M  V30 6918 N 678.448 -1.51871 0.421078 0
M  V30 6919 C 679.395 -2.27334 -0.398508 0
M  V30 6920 C 680.365 -1.30241 -1.03085 0
M  V30 6921 O 681.55 -1.59121 -1.05285 0
M  V30 6922 C 678.69 -3.10664 -1.50272 0
M  V30 6923 C 677.803 -4.2273 -0.890122 0
M  V30 6924 C 676.938 -4.93399 -1.96803 0
M  V30 6925 C 675.977 -5.97409 -1.333 0
M  V30 6926 N 675.114 -6.61548 -2.35156 0
M  V30 6927 H 679.954 -2.96938 0.251411 0
M  V30 6928 H 677.491 -1.46472 0.135825 0
M  V30 6929 H 679.449 -3.57292 -2.15403 0
M  V30 6930 H 678.079 -2.43207 -2.1225 0
M  V30 6931 H 677.131 -3.80186 -0.127537 0
M  V30 6932 H 678.443 -4.97302 -0.386349 0
M  V30 6933 H 677.597 -5.43491 -2.69633 0
M  V30 6934 H 676.336 -4.18421 -2.50549 0
M  V30 6935 H 675.341 -5.46624 -0.59008 0
M  V30 6936 H 676.566 -6.74335 -0.803076 0
M  V30 6937 H 674.512 -5.89394 -2.88012 0
M  V30 6938 H 674.429 -7.31832 -1.89624 0
M  V30 6939 H 675.697 -7.16276 -3.0752 0
M  V30 6940 N 679.926 -0.151884 -1.56866 0
M  V30 6941 C 681.173 0.498004 -1.96281 0
M  V30 6942 C 681.501 1.64551 -1.03698 0
M  V30 6943 O 680.756 1.95585 -0.0671497 0
M  V30 6944 C 681.055 1.04074 -3.41911 0
M  V30 6945 C 680.721 0.0111688 -4.50899 0
M  V30 6946 C 679.383 -0.271844 -4.80432 0
M  V30 6947 C 681.735 -0.68869 -5.1663 0
M  V30 6948 C 679.063 -1.26044 -5.73001 0
M  V30 6949 C 681.415 -1.66613 -6.10264 0
M  V30 6950 C 680.079 -1.9568 -6.38174 0
M  V30 6951 H 679.349 0.182233 -0.718242 0
M  V30 6952 H 681.996 -0.239746 -1.89993 0
M  V30 6953 H 680.301 1.85592 -3.45055 0
M  V30 6954 H 681.998 1.55224 -3.69738 0
M  V30 6955 H 678.588 0.241932 -4.27917 0
M  V30 6956 H 682.772 -0.48324 -4.93942 0
M  V30 6957 H 678.028 -1.49202 -5.92915 0
M  V30 6958 H 682.202 -2.21392 -6.60272 0
M  V30 6959 H 679.829 -2.72434 -7.09707 0
M  V30 6960 N 681.404 1.57128 0.121893 0
M  V30 6961 C 682.334 2.03165 1.15092 0
M  V30 6962 C 683.315 0.915587 1.43356 0
M  V30 6963 O 684.5 1.1851 1.53847 0
M  V30 6964 C 681.63 2.43352 2.47784 0
M  V30 6965 C 680.584 3.58376 2.33989 0
M  V30 6966 C 679.91 3.84454 3.71617 0
M  V30 6967 C 681.21 4.90199 1.80283 0
M  V30 6968 H 682.904 2.89382 0.768023 0
M  V30 6969 H 680.45 1.39218 0.367998 0
M  V30 6970 H 682.403 2.74163 3.20019 0
M  V30 6971 H 681.127 1.54103 2.87958 0
M  V30 6972 H 679.786 3.2777 1.64202 0
M  V30 6973 H 679.434 2.92414 4.09271 0
M  V30 6974 H 679.134 4.61877 3.6324 0
M  V30 6975 H 680.658 4.17714 4.45362 0
M  V30 6976 H 682.072 5.19565 2.42333 0
M  V30 6977 H 680.469 5.71601 1.82735 0
M  V30 6978 H 681.539 4.78904 0.760184 0
M  V30 6979 N 682.882 -0.391992 1.52647 0
M  V30 6980 C 683.812 -1.48517 1.8018 0
M  V30 6981 C 684.793 -1.57039 0.653667 0
M  V30 6982 O 685.978 -1.72036 0.900962 0
M  V30 6983 C 683.108 -2.86161 1.96797 0
M  V30 6984 C 682.062 -2.92481 3.12472 0
M  V30 6985 C 681.388 -4.32546 3.14338 0
M  V30 6986 C 682.688 -2.624 4.51601 0
M  V30 6987 H 684.382 -1.25726 2.71723 0
M  V30 6988 H 681.928 -0.603387 1.30749 0
M  V30 6989 H 683.881 -3.62639 2.14641 0
M  V30 6990 H 682.605 -3.10283 1.01941 0
M  V30 6991 H 681.264 -2.18451 2.94406 0
M  V30 6992 H 680.912 -4.53703 2.1717 0
M  V30 6993 H 680.612 -4.37695 3.92042 0
M  V30 6994 H 682.136 -5.10934 3.34333 0
M  V30 6995 H 683.55 -3.28596 4.69785 0
M  V30 6996 H 681.947 -2.78903 5.3135 0
M  V30 6997 H 683.017 -1.57754 4.58521 0
M  V30 6998 N 684.36 -1.4356 -0.65026 0
M  V30 6999 C 685.323 -1.48615 -1.74489 0
M  V30 7000 C 686.323 -0.370483 -1.56474 0
M  V30 7001 O 687.513 -0.632351 -1.62317 0
M  V30 7002 C 684.645 -1.34161 -3.13391 0
M  V30 7003 H 685.838 -2.46103 -1.71387 0
M  V30 7004 H 683.391 -1.30369 -0.862186 0
M  V30 7005 H 684.126 -0.376918 -3.22102 0
M  V30 7006 H 683.911 -2.1504 -3.27872 0
M  V30 7007 H 685.401 -1.40637 -3.93206 0
M  V30 7008 N 685.838 0.888903 -1.30139 0
M  V30 7009 C 687.068 1.67115 -1.21474 0
M  V30 7010 C 687.476 1.87852 0.225472 0
M  V30 7011 O 686.819 1.42324 1.16145 0
M  V30 7012 C 686.881 3.0713 -1.86846 0
M  V30 7013 C 686.545 3.09582 -3.36167 0
M  V30 7014 C 687.542 2.88929 -4.32222 0
M  V30 7015 C 685.227 3.31304 -3.77549 0
M  V30 7016 C 687.221 2.89949 -5.67634 0
M  V30 7017 C 684.908 3.31954 -5.13079 0
M  V30 7018 C 685.906 3.113 -6.07932 0
M  V30 7019 O 685.594 3.11758 -7.40987 0
M  V30 7020 H 685.326 0.528372 -0.421662 0
M  V30 7021 H 687.88 1.11919 -1.7223 0
M  V30 7022 H 686.11 3.63973 -1.30615 0
M  V30 7023 H 687.799 3.6749 -1.72354 0
M  V30 7024 H 688.565 2.71948 -4.01584 0
M  V30 7025 H 684.444 3.46417 -3.04165 0
M  V30 7026 H 687.988 2.73746 -6.41645 0
M  V30 7027 H 683.885 3.48469 -5.43359 0
M  V30 7028 H 684.653 3.27951 -7.49927 0
M  V30 7029 N 687.317 1.12792 1.10072 0
M  V30 7030 C 688.28 0.802264 2.14701 0
M  V30 7031 C 689.28 -0.18515 1.59731 0
M  V30 7032 O 690.47 0.041109 1.74151 0
M  V30 7033 C 687.602 0.19285 3.40354 0
M  V30 7034 H 688.795 1.72932 2.45019 0
M  V30 7035 H 686.348 0.931662 1.25498 0
M  V30 7036 H 687.083 -0.743748 3.15656 0
M  V30 7037 H 686.868 0.903827 3.81541 0
M  V30 7038 H 688.358 -0.0183704 4.17596 0
M  V30 7039 N 688.795 -1.27931 0.920396 0
M  V30 7040 C 690.206 -1.76707 0.602616 0
M  V30 7041 C 690.557 -1.75249 -0.882159 0
M  V30 7042 O 689.682 -1.35135 -1.69019 0
M  V30 7043 C 690.277 -3.20884 1.08714 0
M  V30 7044 C 688.836 -3.67356 0.820157 0
M  V30 7045 C 687.983 -2.47525 1.25006 0
M  V30 7046 H 690.934 -1.14301 1.10095 0
M  V30 7047 H 690.955 -3.78045 0.431535 0
M  V30 7048 H 690.467 -3.21913 2.1678 0
M  V30 7049 H 688.568 -3.7178 -0.247012 0
M  V30 7050 H 688.681 -4.57181 1.43257 0
M  V30 7051 H 687.045 -2.45765 0.668698 0
M  V30 7052 H 687.828 -2.51269 2.3392 0
M  V30 7053 N 690.273 -0.685099 -1.4193 0
M  V30 7054 C 691.684 -0.287699 -1.8447 0
M  V30 7055 C 692.035 1.17215 -1.57338 0
M  V30 7056 O 691.16 1.89856 -1.03845 0
M  V30 7057 C 691.755 -0.515385 -3.34857 0
M  V30 7058 C 690.314 -0.172006 -3.76007 0
M  V30 7059 C 689.461 -0.802808 -2.65425 0
M  V30 7060 H 692.412 -0.88652 -1.3163 0
M  V30 7061 H 692.433 0.229251 -3.79809 0
M  V30 7062 H 691.945 -1.57796 -3.54573 0
M  V30 7063 H 690.046 0.886716 -3.61895 0
M  V30 7064 H 690.159 -0.619717 -4.75075 0
M  V30 7065 H 688.523 -0.233267 -2.5363 0
M  V30 7066 H 689.306 -1.86904 -2.87961 0
M  V30 7067 N 691.751 1.51645 -0.429126 0
M  V30 7068 C 692.999 2.01616 0.139802 0
M  V30 7069 C 693.32 1.31568 1.43927 0
M  V30 7070 O 692.59 0.447688 1.90716 0
M  V30 7071 H 691.17 0.744998 0.054654 0
M  V30 7072 H 693.832 1.8638 -0.569952 0
M  V30 7073 H 692.928 3.10439 0.321609 0
M  V30 7074 N 693.229 0.160201 1.56784 0
M  V30 7075 C 694.192 -0.760405 2.16219 0
M  V30 7076 C 695.192 -1.16595 1.10735 0
M  V30 7077 O 696.382 -1.08472 1.36306 0
M  V30 7078 C 693.514 -2.03358 2.73603 0
M  V30 7079 H 694.707 -0.243173 2.98912 0
M  V30 7080 H 692.26 -0.0893139 1.56045 0
M  V30 7081 H 692.995 -2.59416 1.94612 0
M  V30 7082 H 692.78 -1.75186 3.50788 0
M  V30 7083 H 694.27 -2.69081 3.19351 0
M  V30 7084 N 694.707 -1.5719 -0.113559 0
M  V30 7085 C 695.655 -2.01725 -1.158 0
M  V30 7086 C 696.649 -0.915105 -1.42556 0
M  V30 7087 O 697.855 -1.10031 -1.42454 0
M  V30 7088 H 694.23 -0.64262 -0.390569 0
M  V30 7089 H 696.201 -2.88666 -0.755926 0
M  V30 7090 C 694.95 -2.44203 -2.47507 0
M  V30 7091 H 694.273 -3.28582 -2.27758 0
M  V30 7092 H 695.713 -2.79158 -3.19135 0
M  V30 7093 C 694.172 -1.30785 -3.10478 0
M  V30 7094 O 694.702 -0.626807 -3.9678 0
M  V30 7095 N 692.908 -1.06352 -2.7044 0
M  V30 7096 H 692.455 -1.61913 -2.00355 0
M  V30 7097 H 692.413 -0.306614 -3.12901 0
M  V30 7098 N 696.185 0.383891 -1.52853 0
M  V30 7099 C 697.148 1.45197 -1.77343 0
M  V30 7100 C 698.148 1.47362 -0.643522 0
M  V30 7101 O 699.338 1.48443 -0.911613 0
M  V30 7102 C 696.47 2.8445 -1.87885 0
M  V30 7103 H 697.663 1.24764 -2.72716 0
M  V30 7104 H 695.216 0.615939 -1.43652 0
M  V30 7105 H 695.951 3.10222 -0.94515 0
M  V30 7106 H 695.736 2.8428 -2.70051 0
M  V30 7107 H 697.226 3.61832 -2.08488 0
M  V30 7108 N 697.663 1.43903 0.642637 0
M  V30 7109 C 699.074 1.40975 1.22404 0
M  V30 7110 C 699.425 0.1192 1.95838 0
M  V30 7111 O 698.55 -0.780939 2.01818 0
M  V30 7112 C 699.145 2.5538 2.22636 0
M  V30 7113 C 697.704 2.55684 2.76229 0
M  V30 7114 C 696.851 2.32556 1.51039 0
M  V30 7115 H 699.802 1.5265 0.434006 0
M  V30 7116 H 699.823 2.27474 3.05017 0
M  V30 7117 H 699.335 3.49294 1.69161 0
M  V30 7118 H 697.436 1.65679 3.33738 0
M  V30 7119 H 697.549 3.53799 3.23053 0
M  V30 7120 H 695.913 1.81427 1.78764 0
M  V30 7121 H 696.696 3.28569 0.99484 0
M  V30 7122 N 699.141 -0.881989 1.30609 0
M  V30 7123 C 700.088 -1.98803 1.17244 0
M  V30 7124 C 701.058 -1.65987 0.0611905 0
M  V30 7125 O 702.243 -1.89385 0.231911 0
M  V30 7126 C 699.383 -3.33867 0.87333 0
M  V30 7127 C 698.496 -3.79354 2.06675 0
M  V30 7128 C 697.631 -5.03078 1.70547 0
M  V30 7129 C 696.67 -5.40981 2.86366 0
M  V30 7130 N 695.807 -6.55886 2.50514 0
M  V30 7131 H 700.647 -2.09566 2.11863 0
M  V30 7132 H 698.184 -1.02607 1.05405 0
M  V30 7133 H 700.142 -4.11612 0.680519 0
M  V30 7134 H 698.772 -3.2278 -0.0359983 0
M  V30 7135 H 697.824 -2.97492 2.37071 0
M  V30 7136 H 699.136 -4.03382 2.93401 0
M  V30 7137 H 698.29 -5.88457 1.47658 0
M  V30 7138 H 697.029 -4.80927 0.809947 0
M  V30 7139 H 696.034 -4.54127 3.09917 0
M  V30 7140 H 697.259 -5.65104 3.76609 0
M  V30 7141 H 695.205 -6.35306 1.63471 0
M  V30 7142 H 695.122 -6.79799 3.30771 0
M  V30 7143 H 696.39 -7.44489 2.30989 0
M  V30 7144 N 700.619 -1.13374 -1.09472 0
M  V30 7145 C 701.567 -0.806105 -2.18185 0
M  V30 7146 C 702.561 0.21136 -1.68076 0
M  V30 7147 O 703.767 0.0685558 -1.79869 0
M  V30 7148 H 700.142 -0.242901 -0.71169 0
M  V30 7149 H 702.113 -1.73115 -2.43051 0
M  V30 7150 C 700.862 -0.287928 -3.46506 0
M  V30 7151 H 700.185 -1.06217 -3.85432 0
M  V30 7152 H 701.625 -0.0971054 -4.23889 0
M  V30 7153 C 700.084 0.986256 -3.22141 0
M  V30 7154 O 700.614 2.06217 -3.44728 0
M  V30 7155 N 698.82 0.917153 -2.75747 0
M  V30 7156 H 698.367 0.0414609 -2.57567 0
M  V30 7157 H 698.325 1.77029 -2.59823 0
M  V30 7158 N 702.098 1.27442 -0.927168 0
M  V30 7159 C 703.514 1.46754 -0.627329 0
M  V30 7160 C 703.714 1.83902 0.823549 0
M  V30 7161 O 702.77 1.95215 1.60148 0
M  V30 7162 C 704.083 2.56045 -1.57674 0
M  V30 7163 C 705.631 2.69906 -1.58491 0
M  V30 7164 C 706.106 3.82355 -2.52128 0
M  V30 7165 N 707.597 3.89728 -2.50332 0
M  V30 7166 C 708.332 4.76155 -3.19475 0
M  V30 7167 N 707.828 5.67073 -3.97995 0
M  V30 7168 N 709.621 4.6988 -3.08496 0
M  V30 7169 H 701.772 1.01613 -1.86517 0
M  V30 7170 H 704.035 0.507443 -0.800753 0
M  V30 7171 H 703.741 2.35542 -2.61176 0
M  V30 7172 H 703.615 3.53423 -1.31804 0
M  V30 7173 H 706.002 2.89792 -0.557208 0
M  V30 7174 H 706.083 1.73018 -1.8841 0
M  V30 7175 H 705.727 3.63224 -3.55008 0
M  V30 7176 H 705.657 4.7867 -2.19505 0
M  V30 7177 H 708.148 3.24717 -1.93306 0
M  V30 7178 H 708.461 6.2988 -4.4774 0
M  V30 7179 H 706.806 5.6687 -4.02098 0
M  V30 7180 H 709.997 3.97848 -2.46646 0
M  V30 7181 H 710.17 5.37017 -3.62652 0
M  V30 7182 N 703.576 0.692616 1.41565 0
M  V30 7183 C 704.523 0.0254264 2.30786 0
M  V30 7184 C 705.493 -0.774347 1.46946 0
M  V30 7185 O 706.678 -0.742981 1.7574 0
M  V30 7186 C 703.818 -0.907123 3.32964 0
M  V30 7187 C 702.931 -0.0992784 4.31886 0
M  V30 7188 C 702.066 -1.0292 5.21134 0
M  V30 7189 C 701.105 -0.214088 6.11725 0
M  V30 7190 N 700.242 -1.09766 6.93467 0
M  V30 7191 H 705.082 0.792036 2.87282 0
M  V30 7192 H 702.619 0.4023 1.41492 0
M  V30 7193 H 704.577 -1.46181 3.90752 0
M  V30 7194 H 703.207 -1.64016 2.78026 0
M  V30 7195 H 702.259 0.572287 3.76071 0
M  V30 7196 H 703.571 0.532782 4.95946 0
M  V30 7197 H 702.725 -1.65321 5.83741 0
M  V30 7198 H 701.464 -1.69512 4.57293 0
M  V30 7199 H 700.469 0.42302 5.4817 0
M  V30 7200 H 701.694 0.447995 6.77621 0
M  V30 7201 H 699.64 -1.74965 6.32237 0
M  V30 7202 H 699.557 -0.521099 7.54202 0
M  V30 7203 H 700.825 -1.70858 7.60544 0
M  V30 7204 N 705.054 -1.51416 0.437162 0
M  V30 7205 C 706.331 -1.94682 -0.189292 0
M  V30 7206 C 706.711 -1.37581 -1.60108 0
M  V30 7207 O 706.059 -0.562815 -2.2146 0
M  V30 7208 C 706.269 -3.48599 -0.167201 0
M  V30 7209 C 707.617 -4.2296 -0.372856 0
M  V30 7210 O 708.641 -3.55354 -0.245323 0
M  V30 7211 O 707.5 -5.42895 -0.626693 0
M  V30 7212 H 704.594 -0.816708 -0.130063 0
M  V30 7213 H 707.14 -1.62316 0.495128 0
M  V30 7214 H 705.912 -3.82616 0.81981 0
M  V30 7215 H 705.535 -3.87406 -0.894537 0
M  V30 7216 N 706.532 -0.168513 -1.56696 0
M  V30 7217 C 707.495 0.748928 -2.16619 0
M  V30 7218 C 708.495 1.16007 -1.11351 0
M  V30 7219 O 709.685 1.07748 -1.3688 0
M  V30 7220 C 706.817 2.01904 -2.74677 0
M  V30 7221 H 708.01 0.227317 -2.99037 0
M  V30 7222 H 705.563 0.0810372 -1.5609 0
M  V30 7223 H 706.298 2.58381 -1.95985 0
M  V30 7224 H 706.083 1.73323 -3.51712 0
M  V30 7225 H 707.573 2.67383 -3.20774 0
M  V30 7226 N 708.01 1.57248 0.105221 0
M  V30 7227 C 708.943 1.96567 1.15916 0
M  V30 7228 C 709.921 0.837355 1.39381 0
M  V30 7229 O 711.105 1.09676 1.53308 0
M  V30 7230 C 708.232 2.27375 2.51035 0
M  V30 7231 C 707.278 3.49869 2.43913 0
M  V30 7232 S 708.111 5.01958 1.86543 0
M  V30 7233 C 709.267 5.35932 3.23307 0
M  V30 7234 H 709.5 2.85655 0.823931 0
M  V30 7235 H 707.033 1.51204 0.312515 0
M  V30 7236 H 708.991 2.45801 3.28774 0
M  V30 7237 H 707.652 1.38876 2.81731 0
M  V30 7238 H 706.845 3.68835 3.43477 0
M  V30 7239 H 706.447 3.30901 1.743 0
M  V30 7240 H 708.739 5.31958 4.19556 0
M  V30 7241 H 709.682 6.37047 3.09155 0
M  V30 7242 H 710.09 4.63397 3.22372 0
M  V30 7243 N 709.488 -0.375779 1.53054 0
M  V30 7244 C 710.418 -1.46598 1.81745 0
M  V30 7245 C 711.399 -1.56337 0.670286 0
M  V30 7246 O 712.584 -1.71071 0.919158 0
M  V30 7247 C 709.714 -2.84058 1.99821 0
M  V30 7248 C 708.668 -2.8915 3.15557 0
M  V30 7249 C 707.994 -4.29187 3.18908 0
M  V30 7250 C 709.294 -2.57595 4.54359 0
M  V30 7251 H 710.988 -1.22837 2.73041 0
M  V30 7252 H 708.534 -0.589485 1.31381 0
M  V30 7253 H 710.487 -3.60342 2.18475 0
M  V30 7254 H 709.211 -3.09184 1.05226 0
M  V30 7255 H 707.87 -2.15316 2.96706 0
M  V30 7256 H 707.518 -4.51374 2.2197 0
M  V30 7257 H 707.218 -4.33512 3.96662 0
M  V30 7258 H 708.742 -5.07359 3.39734 0
M  V30 7259 H 710.156 -3.23595 4.73243 0
M  V30 7260 H 708.553 -2.73252 5.34279 0
M  V30 7261 H 709.623 -1.52882 4.60169 0
M  V30 7262 N 710.966 -1.44241 -0.634997 0
M  V30 7263 C 712.214 -1.46531 -1.39187 0
M  V30 7264 C 712.535 -0.0976441 -1.94755 0
M  V30 7265 O 711.805 0.869528 -1.75545 0
M  V30 7266 H 710.385 -0.539544 -0.516625 0
M  V30 7267 H 713.047 -1.79989 -0.747655 0
M  V30 7268 H 712.143 -2.18848 -2.22513 0
M  V30 7269 N 712.444 0.87505 -1.31075 0
M  V30 7270 C 713.672 1.66058 -1.23419 0
M  V30 7271 C 714.087 1.87723 0.201347 0
M  V30 7272 O 713.444 1.43178 1.13165 0
M  V30 7273 C 713.495 3.03142 -1.96945 0
M  V30 7274 O 713.216 2.82448 -3.34895 0
M  V30 7275 C 714.717 3.97583 -1.96067 0
M  V30 7276 H 711.937 0.517868 -0.426677 0
M  V30 7277 H 714.481 1.09258 -1.72867 0
M  V30 7278 H 712.636 3.56645 -1.51271 0
M  V30 7279 H 713.05 3.69483 -3.72267 0
M  V30 7280 H 714.524 4.91104 -2.52034 0
M  V30 7281 H 715.001 4.2898 -0.941961 0
M  V30 7282 H 715.607 3.50015 -2.41597 0
M  V30 7283 N 713.922 1.13953 1.08869 0
M  V30 7284 C 714.872 0.790812 2.13846 0
M  V30 7285 C 715.856 -0.217819 1.59419 0
M  V30 7286 O 717.048 -0.0208723 1.76988 0
M  V30 7287 C 714.177 0.26479 3.42277 0
M  V30 7288 C 713.263 1.30267 4.03598 0
M  V30 7289 N 713.654 2.50535 4.39393 0
M  V30 7290 C 711.952 1.15178 4.30871 0
M  V30 7291 C 712.653 3.16938 4.87776 0
M  V30 7292 N 711.629 2.44349 4.85587 0
M  V30 7293 H 715.431 1.70577 2.39334 0
M  V30 7294 H 712.945 1.02268 1.26154 0
M  V30 7295 H 714.942 -0.00330398 4.169 0
M  V30 7296 H 713.602 -0.644419 3.18241 0
M  V30 7297 H 714.613 2.87798 4.30572 0
M  V30 7298 H 711.29 0.301204 4.16412 0
M  V30 7299 H 712.68 4.19453 5.2489 0
M  V30 7300 N 715.4 -1.26948 0.933913 0
M  V30 7301 C 716.649 -1.93378 0.573409 0
M  V30 7302 C 716.962 -1.74148 -0.890614 0
M  V30 7303 O 718.168 -2.34971 -1.36017 0
M  V30 7304 C 716.624 -3.46449 0.974747 0
M  V30 7305 C 716.232 -3.74425 2.45988 0
M  V30 7306 C 717.976 -4.18924 0.685791 0
M  V30 7307 C 715.883 -5.209 2.8003 0
M  V30 7308 H 714.813 -0.723952 0.210736 0
M  V30 7309 H 717.464 -1.44143 1.13557 0
M  V30 7310 H 715.846 -3.94528 0.341181 0
M  V30 7311 H 717.02 -3.37079 3.14188 0
M  V30 7312 H 715.335 -3.15167 2.72138 0
M  V30 7313 H 717.932 -5.26786 0.916546 0
M  V30 7314 H 718.275 -4.14587 -0.377217 0
M  V30 7315 H 718.808 -3.76687 1.27874 0
M  V30 7316 H 715.547 -5.30332 3.85264 0
M  V30 7317 H 715.067 -5.59369 2.16485 0
M  V30 7318 H 716.746 -5.88837 2.68105 0
M  V30 7319 N 716.879 -0.700114 -1.41195 0
M  V30 7320 C 718.128 -0.230082 -2.00383 0
M  V30 7321 C 718.441 1.17857 -1.56106 0
M  V30 7322 O 719.647 1.74631 -2.07885 0
M  V30 7323 C 718.103 -0.360447 -3.5809 0
M  V30 7324 C 717.711 -1.77475 -4.11347 0
M  V30 7325 C 719.455 0.0495799 -4.24471 0
M  V30 7326 C 717.362 -1.85653 -5.61504 0
M  V30 7327 H 716.292 -0.0822633 -0.749499 0
M  V30 7328 H 718.943 -0.868969 -1.6162 0
M  V30 7329 H 717.325 0.346768 -3.94479 0
M  V30 7330 H 718.499 -2.51109 -3.86369 0
M  V30 7331 H 716.814 -2.13486 -3.57509 0
M  V30 7332 H 719.411 0.00898219 -5.34699 0
M  V30 7333 H 719.754 1.08904 -4.01803 0
M  V30 7334 H 720.287 -0.607521 -3.93134 0
M  V30 7335 H 717.026 -2.87667 -5.89006 0
M  V30 7336 H 716.546 -1.1641 -5.88395 0
M  V30 7337 H 718.225 -1.62151 -6.26351 0
M  V30 7338 N 718.357 1.51182 -0.445186 0
M  V30 7339 C 719.603 2.03097 0.111049 0
M  V30 7340 C 719.958 1.32293 1.397 0
M  V30 7341 O 719.251 0.431529 1.86677 0
M  V30 7342 C 719.445 3.55408 0.376797 0
M  V30 7343 C 719.274 4.40969 -0.88185 0
M  V30 7344 C 718.044 4.85006 -1.41766 0
M  V30 7345 C 720.242 4.82876 -1.77017 0
M  V30 7346 N 718.224 5.54804 -2.62803 0
M  V30 7347 C 719.595 5.51821 -2.82654 0
M  V30 7348 C 721.65 4.64855 -1.78365 0
M  V30 7349 C 720.353 6.04655 -3.89595 0
M  V30 7350 C 722.379 5.18612 -2.84246 0
M  V30 7351 C 721.741 5.87509 -3.88603 0
M  V30 7352 H 717.84 0.781999 0.0012696 0
M  V30 7353 H 720.424 1.84976 -0.60761 0
M  V30 7354 H 718.595 3.73528 1.06449 0
M  V30 7355 H 720.327 3.93985 0.925082 0
M  V30 7356 H 717.082 4.6355 -0.970476 0
M  V30 7357 H 717.506 5.94326 -3.24201 0
M  V30 7358 H 722.148 4.11043 -0.990119 0
M  V30 7359 H 719.866 6.57518 -4.69782 0
M  V30 7360 H 723.452 5.06515 -2.86241 0
M  V30 7361 H 722.332 6.28358 -4.69186 0
M  V30 7362 N 719.835 0.176821 1.56605 0
M  V30 7363 C 721.112 -0.513365 1.88743 0
M  V30 7364 C 721.492 -1.80929 1.08757 0
M  V30 7365 O 720.84 -2.27765 0.183127 0
M  V30 7366 C 721.05 -0.749925 3.40848 0
M  V30 7367 C 722.398 -1.07747 4.10701 0
M  V30 7368 O 723.422 -0.838277 3.46196 0
M  V30 7369 O 722.281 -1.52901 5.24675 0
M  V30 7370 H 719.375 -0.265296 0.783292 0
M  V30 7371 H 721.921 0.215669 1.68324 0
M  V30 7372 H 720.693 0.16599 3.90948 0
M  V30 7373 H 720.316 -1.53208 3.66897 0
M  V30 7374 N 721.313 -1.57302 -0.09688 0
M  V30 7375 C 722.559 -1.86273 -0.801885 0
M  V30 7376 C 722.892 -0.765694 -1.78468 0
M  V30 7377 O 722.167 0.226495 -1.93177 0
M  V30 7378 C 722.45 -3.25876 -1.53221 0
M  V30 7379 C 722.303 -4.46205 -0.567529 0
M  V30 7380 C 723.622 -3.63352 -2.48321 0
M  V30 7381 H 720.741 -0.67752 -0.29006 0
M  V30 7382 H 723.383 -1.89887 -0.0655577 0
M  V30 7383 H 721.533 -3.22926 -2.15988 0
M  V30 7384 H 723.205 -4.6127 0.0529982 0
M  V30 7385 H 721.448 -4.33636 0.119233 0
M  V30 7386 H 722.119 -5.40608 -1.11564 0
M  V30 7387 H 724.595 -3.67234 -1.95648 0
M  V30 7388 H 723.471 -4.61968 -2.9644 0
M  V30 7389 H 723.732 -2.91941 -3.31998 0
M  V30 7390 N 722.791 0.367657 -1.53252 0
M  V30 7391 C 724.039 1.10832 -1.68999 0
M  V30 7392 C 724.36 1.89894 -0.443306 0
M  V30 7393 O 723.63 1.88235 0.54262 0
M  V30 7394 H 722.21 0.412153 -0.623008 0
M  V30 7395 H 724.872 0.414775 -1.90435 0
M  V30 7396 H 723.968 1.7993 -2.55013 0
M  V30 7397 N 724.269 1.44576 0.627338 0
M  V30 7398 C 725.199 1.54562 1.75022 0
M  V30 7399 C 726.18 0.398378 1.65369 0
M  V30 7400 O 727.365 0.61899 1.84071 0
M  V30 7401 C 724.495 1.49309 3.13567 0
M  V30 7402 C 723.449 2.62549 3.38012 0
M  V30 7403 C 722.775 2.42348 4.76625 0
M  V30 7404 C 724.075 4.04678 3.30202 0
M  V30 7405 H 725.769 2.4855 1.66922 0
M  V30 7406 H 723.315 1.19624 0.801636 0
M  V30 7407 H 725.268 1.54895 3.919 0
M  V30 7408 H 723.992 0.518392 3.2246 0
M  V30 7409 H 722.651 2.56358 2.62061 0
M  V30 7410 H 722.299 1.43062 4.82226 0
M  V30 7411 H 721.999 3.18273 4.93939 0
M  V30 7412 H 723.523 2.49758 5.57183 0
M  V30 7413 H 724.937 4.12217 3.98435 0
M  V30 7414 H 723.334 4.80836 3.5905 0
M  V30 7415 H 724.404 4.2798 2.27949 0
M  V30 7416 N 725.747 -0.868086 1.31537 0
M  V30 7417 C 726.679 -1.98165 1.15166 0
M  V30 7418 C 727.692 -1.6255 0.0902335 0
M  V30 7419 O 728.881 -1.75272 0.33791 0
M  V30 7420 C 725.981 -3.30772 0.737776 0
M  V30 7421 C 725.154 -3.94716 1.88462 0
M  V30 7422 C 724.213 -5.05641 1.45648 0
M  V30 7423 O 723.239 -5.2636 2.16642 0
M  V30 7424 N 724.441 -5.79474 0.34493 0
M  V30 7425 H 727.206 -2.12754 2.11083 0
M  V30 7426 H 724.767 -1.04217 1.23897 0
M  V30 7427 H 726.759 -4.02366 0.434032 0
M  V30 7428 H 725.329 -3.1233 -0.129834 0
M  V30 7429 H 724.549 -3.16079 2.35558 0
M  V30 7430 H 725.837 -4.34175 2.65273 0
M  V30 7431 H 725.235 -5.65164 -0.246259 0
M  V30 7432 H 723.792 -6.51722 0.100728 0
M  V30 7433 N 727.225 -1.14528 -1.08264 0
M  V30 7434 C 728.45 -0.938381 -1.84957 0
M  V30 7435 C 728.875 0.508044 -1.81109 0
M  V30 7436 O 728.233 1.36146 -1.19724 0
M  V30 7437 C 728.281 -1.44568 -3.30352 0
M  V30 7438 O 727.385 -0.638745 -4.07423 0
M  V30 7439 H 726.726 -0.335394 -0.573068 0
M  V30 7440 H 729.256 -1.52287 -1.36637 0
M  V30 7441 H 729.266 -1.45449 -3.81194 0
M  V30 7442 H 727.941 -2.49876 -3.32468 0
M  V30 7443 H 726.518 -0.698801 -3.66294 0
M  V30 7444 N 728.703 1.26451 -0.940633 0
M  V30 7445 C 729.928 1.98407 -0.60412 0
M  V30 7446 C 730.353 1.69584 0.81382 0
M  V30 7447 O 729.711 0.943553 1.54812 0
M  V30 7448 C 729.759 3.50387 -0.852136 0
M  V30 7449 O 728.863 4.1233 0.076013 0
M  V30 7450 H 728.204 0.622466 -0.231153 0
M  V30 7451 H 730.734 1.60932 -1.26342 0
M  V30 7452 H 730.744 4.00614 -0.772816 0
M  V30 7453 H 729.419 3.70696 -1.88566 0
M  V30 7454 H 727.996 3.7286 -0.0543187 0
M  V30 7455 N 730.181 0.707592 1.40822 0
M  V30 7456 C 731.421 0.247986 2.0289 0
M  V30 7457 C 731.785 -1.13484 1.54872 0
M  V30 7458 O 732.986 -1.69098 2.08948 0
M  V30 7459 C 731.257 0.316326 3.55997 0
M  V30 7460 S 732.816 -0.0674698 4.38748 0
M  V30 7461 H 729.634 0.09895 0.704081 0
M  V30 7462 H 732.236 0.928039 1.72069 0
M  V30 7463 H 730.94 1.32453 3.88438 0
M  V30 7464 H 730.471 -0.382474 3.91536 0
M  V30 7465 H 732.486 -1.29182 4.79089 0
M  V30 7466 N 731.66 -1.50943 0.453197 0
M  V30 7467 C 732.906 -2.02512 -0.108082 0
M  V30 7468 C 733.239 -1.33574 -1.40967 0
M  V30 7469 O 732.514 -0.455671 -1.89087 0
M  V30 7470 C 732.797 -3.58759 -0.310453 0
M  V30 7471 C 732.65 -4.38293 1.0109 0
M  V30 7472 C 733.969 -4.26816 -1.07313 0
M  V30 7473 H 731.088 -0.73603 -0.0378064 0
M  V30 7474 H 733.73 -1.80433 0.595295 0
M  V30 7475 H 731.88 -3.77702 -0.909582 0
M  V30 7476 H 733.552 -4.30964 1.64523 0
M  V30 7477 H 731.795 -4.02745 1.61179 0
M  V30 7478 H 732.466 -5.45828 0.82315 0
M  V30 7479 H 734.942 -4.1224 -0.565473 0
M  V30 7480 H 733.818 -5.35989 -1.1835 0
M  V30 7481 H 734.079 -3.88757 -2.10525 0
M  V30 7482 N 733.138 -0.185124 -1.56509 0
M  V30 7483 C 734.068 0.735098 -2.21627 0
M  V30 7484 C 735.049 1.2288 -1.1762 0
M  V30 7485 O 736.234 1.27945 -1.46095 0
M  V30 7486 C 733.364 1.95889 -2.86783 0
M  V30 7487 C 732.318 1.6005 -3.96948 0
M  V30 7488 C 731.644 2.90009 -4.4922 0
M  V30 7489 C 732.944 0.818008 -5.15855 0
M  V30 7490 H 734.638 0.192274 -2.98782 0
M  V30 7491 H 732.184 0.0910393 -1.43712 0
M  V30 7492 H 734.137 2.60779 -3.31017 0
M  V30 7493 H 732.861 2.52608 -2.07018 0
M  V30 7494 H 731.52 0.975237 -3.5339 0
M  V30 7495 H 731.168 3.44797 -3.6623 0
M  V30 7496 H 730.868 2.66778 -5.23549 0
M  V30 7497 H 732.392 3.55904 -4.9615 0
M  V30 7498 H 733.806 1.36979 -5.56695 0
M  V30 7499 H 732.203 0.684207 -5.96187 0
M  V30 7500 H 733.273 -0.182939 -4.84555 0
M  V30 7501 N 734.616 1.57351 0.0885366 0
M  V30 7502 C 735.856 1.88248 0.796362 0
M  V30 7503 C 736.22 0.776915 1.75579 0
M  V30 7504 O 737.421 0.968485 2.50747 0
M  V30 7505 C 735.692 3.24385 1.50031 0
M  V30 7506 S 737.251 3.76991 2.24551 0
M  V30 7507 H 734.069 0.659697 0.265181 0
M  V30 7508 H 736.671 1.95428 0.0531843 0
M  V30 7509 H 735.375 4.02764 0.788 0
M  V30 7510 H 734.906 3.20361 2.28325 0
M  V30 7511 H 736.921 3.50933 3.508 0
M  V30 7512 N 736.094 -0.359525 1.53444 0
M  V30 7513 C 737.34 -1.10315 1.70172 0
M  V30 7514 C 737.673 -1.88788 0.455287 0
M  V30 7515 O 736.948 -1.86635 -0.547514 0
M  V30 7516 C 737.231 -2.05744 2.95536 0
M  V30 7517 C 737.084 -1.3084 4.3035 0
M  V30 7518 C 738.403 -3.05784 3.16518 0
M  V30 7519 H 735.522 -0.399662 0.619225 0
M  V30 7520 H 738.164 -0.383338 1.86093 0
M  V30 7521 H 736.314 -2.67125 2.82093 0
M  V30 7522 H 737.986 -0.721959 4.55615 0
M  V30 7523 H 736.229 -0.610283 4.29486 0
M  V30 7524 H 736.9 -2.00718 5.14214 0
M  V30 7525 H 739.376 -2.5451 3.29187 0
M  V30 7526 H 738.252 -3.69772 4.05659 0
M  V30 7527 H 738.513 -3.76289 2.32076 0
M  V30 7528 N 737.572 -1.44907 -0.619662 0
M  V30 7529 C 738.983 -1.42905 -1.20146 0
M  V30 7530 C 739.334 -0.150341 -1.95623 0
M  V30 7531 O 738.459 0.748732 -2.03034 0
M  V30 7532 C 739.054 -2.58889 -2.18545 0
M  V30 7533 C 737.613 -2.60046 -2.72127 0
M  V30 7534 C 736.76 -2.3493 -1.4732 0
M  V30 7535 H 739.711 -1.53321 -0.409666 0
M  V30 7536 H 739.732 -2.32298 -3.0136 0
M  V30 7537 H 739.244 -3.51941 -1.63583 0
M  V30 7538 H 737.345 -1.70968 -3.3106 0
M  V30 7539 H 737.458 -3.58893 -3.17384 0
M  V30 7540 H 735.822 -1.84248 -1.75855 0
M  V30 7541 H 736.605 -3.3011 -0.942442 0
M  V30 7542 N 739.05 0.861098 -1.31996 0
M  V30 7543 C 740.296 1.61707 -1.23379 0
M  V30 7544 C 740.651 1.91315 0.204026 0
M  V30 7545 O 739.944 1.53997 1.13998 0
M  V30 7546 C 740.138 2.94822 -2.02027 0
M  V30 7547 C 739.967 2.78212 -3.5331 0
M  V30 7548 C 738.737 2.76933 -4.22654 0
M  V30 7549 C 740.935 2.52432 -4.48088 0
M  V30 7550 N 738.917 2.51466 -5.60034 0
M  V30 7551 C 740.288 2.36312 -5.73198 0
M  V30 7552 C 742.343 2.37848 -4.37416 0
M  V30 7553 C 741.046 2.0709 -6.88844 0
M  V30 7554 C 743.072 2.10016 -5.52854 0
M  V30 7555 C 742.434 1.94691 -6.7696 0
M  V30 7556 H 738.533 0.595703 -0.506618 0
M  V30 7557 H 741.117 1.01275 -1.66287 0
M  V30 7558 H 739.288 3.53243 -1.61474 0
M  V30 7559 H 741.02 3.59756 -1.85358 0
M  V30 7560 H 737.775 2.89638 -3.74709 0
M  V30 7561 H 738.199 2.41679 -6.32392 0
M  V30 7562 H 742.841 2.4842 -3.42122 0
M  V30 7563 H 740.559 1.95256 -7.84156 0
M  V30 7564 H 744.145 1.99519 -5.46519 0
M  V30 7565 H 743.025 1.7346 -7.64775 0
M  V30 7566 N 740.528 1.15101 1.07655 0
M  V30 7567 C 741.777 0.918528 1.79572 0
M  V30 7568 C 742.09 -0.555922 1.87534 0
M  V30 7569 O 743.296 -0.905893 2.55941 0
M  V30 7570 C 741.752 1.59394 3.22679 0
M  V30 7571 C 741.36 3.1052 3.22927 0
M  V30 7572 C 743.104 1.44289 3.99225 0
M  V30 7573 C 741.011 3.70862 4.60668 0
M  V30 7574 H 739.941 0.340006 0.672987 0
M  V30 7575 H 742.592 1.38079 1.20857 0
M  V30 7576 H 740.974 1.05936 3.81567 0
M  V30 7577 H 742.148 3.70708 2.737 0
M  V30 7578 H 740.463 3.25351 2.59876 0
M  V30 7579 H 743.06 1.86766 5.01022 0
M  V30 7580 H 743.403 0.389975 4.14469 0
M  V30 7581 H 743.936 1.94826 3.46825 0
M  V30 7582 H 740.675 4.7604 4.50628 0
M  V30 7583 H 740.195 3.15456 5.10145 0
M  V30 7584 H 741.874 3.71607 5.29639 0
M  V30 7585 N 742.006 -1.2595 0.947325 0
M  V30 7586 C 743.231 -1.98083 0.614633 0
M  V30 7587 C 743.656 -1.70013 -0.804815 0
M  V30 7588 O 743.014 -0.95175 -1.54309 0
M  V30 7589 C 743.062 -3.4993 0.870706 0
M  V30 7590 O 742.166 -4.12364 -0.0541451 0
M  V30 7591 H 741.507 -0.621232 0.234451 0
M  V30 7592 H 744.037 -1.60259 1.27193 0
M  V30 7593 H 744.047 -4.00198 0.794051 0
M  V30 7594 H 742.722 -3.69691 1.90529 0
M  V30 7595 H 741.299 -3.72826 0.0740917 0
M  V30 7596 N 743.484 -0.715051 -1.40445 0
M  V30 7597 C 744.416 -0.0227516 -2.29189 0
M  V30 7598 C 745.429 0.724313 -1.458 0
M  V30 7599 O 746.618 0.571781 -1.69094 0
M  V30 7600 C 743.718 0.992038 -3.24055 0
M  V30 7601 C 742.891 0.310613 -4.36296 0
M  V30 7602 C 741.95 1.23071 -5.11605 0
M  V30 7603 O 740.976 0.71571 -5.64682 0
M  V30 7604 N 742.178 2.56188 -5.2091 0
M  V30 7605 H 744.943 -0.78473 -2.89244 0
M  V30 7606 H 742.504 -0.562637 -1.51809 0
M  V30 7607 H 744.496 1.60973 -3.71308 0
M  V30 7608 H 743.066 1.65538 -2.65171 0
M  V30 7609 H 742.286 -0.487269 -3.91177 0
M  V30 7610 H 743.574 -0.162415 -5.08541 0
M  V30 7611 H 742.972 3.00527 -4.7927 0
M  V30 7612 H 741.529 3.13103 -5.71673 0
M  V30 7613 N 744.962 1.50701 -0.461195 0
M  V30 7614 C 746.19 2.06681 0.0951756 0
M  V30 7615 C 746.605 1.32615 1.34382 0
M  V30 7616 O 745.962 0.392531 1.78229 0
M  V30 7617 C 746.013 3.59354 0.393316 0
M  V30 7618 O 745.734 4.30626 -0.805797 0
M  V30 7619 C 747.235 4.31926 0.997744 0
M  V30 7620 H 744.455 0.670995 -0.00267259 0
M  V30 7621 H 746.999 1.93991 -0.647137 0
M  V30 7622 H 745.154 3.7188 1.08555 0
M  V30 7623 H 745.568 5.21667 -0.544409 0
M  V30 7624 H 747.042 5.39756 1.15619 0
M  V30 7625 H 747.519 3.91772 1.98523 0
M  V30 7626 H 748.125 4.23905 0.344188 0
M  V30 7627 N 746.441 0.193421 1.56409 0
M  V30 7628 C 747.391 -0.74089 2.15627 0
M  V30 7629 C 748.375 -1.17747 1.09656 0
M  V30 7630 O 749.567 -1.13615 1.35723 0
M  V30 7631 C 746.696 -1.96091 2.81786 0
M  V30 7632 C 745.782 -1.54531 3.94944 0
M  V30 7633 N 746.173 -0.840569 4.98767 0
M  V30 7634 C 744.471 -1.83473 4.06514 0
M  V30 7635 C 745.172 -0.632571 5.7825 0
M  V30 7636 N 744.148 -1.18078 5.30621 0
M  V30 7637 H 747.95 -0.193718 2.93261 0
M  V30 7638 H 745.464 -0.00643211 1.62399 0
M  V30 7639 H 747.461 -2.64071 3.22602 0
M  V30 7640 H 746.121 -2.51282 2.05639 0
M  V30 7641 H 747.132 -0.496218 5.15517 0
M  V30 7642 H 743.809 -2.40184 3.41493 0
M  V30 7643 H 745.199 -0.0736433 6.7186 0
M  V30 7644 N 747.919 -1.57396 -0.0801906 0
M  V30 7645 C 749.149 -1.90778 -0.792924 0
M  V30 7646 C 749.557 -0.786814 -1.72064 0
M  V30 7647 O 748.9 0.249259 -1.82001 0
M  V30 7648 C 748.962 -3.19552 -1.64702 0
M  V30 7649 C 748.626 -4.48259 -0.889567 0
M  V30 7650 C 749.623 -5.19465 -0.212602 0
M  V30 7651 C 747.308 -4.94896 -0.859229 0
M  V30 7652 C 749.302 -6.35555 0.484566 0
M  V30 7653 C 746.989 -6.10895 -0.158284 0
M  V30 7654 C 747.987 -6.81075 0.512421 0
M  V30 7655 O 747.675 -7.94862 1.20209 0
M  V30 7656 H 747.407 -0.63527 -0.231103 0
M  V30 7657 H 749.961 -2.0532 -0.0573081 0
M  V30 7658 H 748.191 -3.01196 -2.42524 0
M  V30 7659 H 749.88 -3.38649 -2.23767 0
M  V30 7660 H 750.646 -4.84467 -0.227403 0
M  V30 7661 H 746.525 -4.4015 -1.37073 0
M  V30 7662 H 750.069 -6.9027 1.00864 0
M  V30 7663 H 745.966 -6.45345 -0.141381 0
M  V30 7664 H 746.734 -8.10932 1.11051 0
M  V30 7665 N 749.397 0.351382 -1.53633 0
M  V30 7666 C 750.813 0.693987 -1.43722 0
M  V30 7667 C 751.013 1.9274 -0.587669 0
M  V30 7668 O 750.069 2.52387 -0.0756082 0
M  V30 7669 C 751.382 0.893937 -2.87105 0
M  V30 7670 C 752.93 0.993051 -2.96829 0
M  V30 7671 C 753.405 1.22537 -4.41303 0
M  V30 7672 N 754.896 1.29275 -4.44795 0
M  V30 7673 C 755.631 1.48988 -5.53706 0
M  V30 7674 N 755.127 1.65924 -6.72637 0
M  V30 7675 N 756.92 1.51472 -5.41306 0
M  V30 7676 H 749.071 -0.459688 -2.07366 0
M  V30 7677 H 751.334 -0.143684 -0.937048 0
M  V30 7678 H 751.04 0.0592517 -3.5165 0
M  V30 7679 H 750.914 1.79795 -3.31592 0
M  V30 7680 H 753.301 1.81827 -2.32429 0
M  V30 7681 H 753.382 0.0661119 -2.55715 0
M  V30 7682 H 753.026 0.405117 -5.06282 0
M  V30 7683 H 752.956 2.16575 -4.80003 0
M  V30 7684 H 755.447 1.17743 -3.59089 0
M  V30 7685 H 755.76 1.80578 -7.51406 0
M  V30 7686 H 754.105 1.63075 -6.75597 0
M  V30 7687 H 757.296 1.37818 -4.47352 0
M  V30 7688 H 757.469 1.66493 -6.26246 0
M  V30 7689 N 750.875 1.45233 0.611969 0
M  V30 7690 C 751.805 1.5641 1.73373 0
M  V30 7691 C 752.786 0.415896 1.64937 0
M  V30 7692 O 753.971 0.638478 1.83404 0
M  V30 7693 C 751.101 1.52627 3.11965 0
M  V30 7694 C 750.055 2.66119 3.35208 0
M  V30 7695 C 749.381 2.4739 4.74028 0
M  V30 7696 C 750.681 4.08157 3.25891 0
M  V30 7697 H 752.375 2.50307 1.64277 0
M  V30 7698 H 749.921 1.20467 0.788904 0
M  V30 7699 H 751.874 1.59043 3.90235 0
M  V30 7700 H 750.598 0.552564 3.21892 0
M  V30 7701 H 749.257 2.59123 2.59327 0
M  V30 7702 H 748.905 1.48168 4.80682 0
M  V30 7703 H 748.605 3.23494 4.90536 0
M  V30 7704 H 750.129 2.55653 5.54503 0
M  V30 7705 H 751.543 4.1642 3.9404 0
M  V30 7706 H 749.94 4.84617 3.5393 0
M  V30 7707 H 751.01 4.30374 2.23397 0
M  V30 7708 N 752.353 -0.854086 1.3245 0
M  V30 7709 C 753.599 -1.61069 1.23225 0
M  V30 7710 C 753.932 -1.93111 -0.205349 0
M  V30 7711 O 753.207 -1.57397 -1.14265 0
M  V30 7712 C 753.49 -2.93065 2.09249 0
M  V30 7713 C 753.343 -2.67801 3.6139 0
M  V30 7714 C 754.662 -3.94341 1.95406 0
M  V30 7715 H 751.781 -0.584449 0.448986 0
M  V30 7716 H 754.423 -0.986189 1.62402 0
M  V30 7717 H 752.573 -3.46364 1.75967 0
M  V30 7718 H 754.245 -2.21052 4.04887 0
M  V30 7719 H 752.488 -2.01756 3.84027 0
M  V30 7720 H 753.159 -3.6179 4.16907 0
M  V30 7721 H 755.635 -3.50301 2.24562 0
M  V30 7722 H 754.511 -4.84555 2.57872 0
M  V30 7723 H 754.772 -4.32382 0.921865 0
M  V30 7724 N 753.831 -1.1567 -1.07043 0
M  V30 7725 C 754.763 -0.814095 -2.14255 0
M  V30 7726 C 755.776 0.175293 -1.61854 0
M  V30 7727 O 756.965 -0.0483984 -1.78434 0
M  V30 7728 C 754.065 -0.190082 -3.38367 0
M  V30 7729 C 753.238 -1.21768 -4.20109 0
M  V30 7730 C 752.297 -0.614863 -5.22595 0
M  V30 7731 O 751.323 -1.28167 -5.54583 0
M  V30 7732 N 752.525 0.601955 -5.77371 0
M  V30 7733 H 755.29 -1.73677 -2.44247 0
M  V30 7734 H 752.851 -1.05301 -1.22977 0
M  V30 7735 H 754.843 0.22604 -4.04068 0
M  V30 7736 H 753.413 0.635992 -3.06062 0
M  V30 7737 H 752.633 -1.81025 -3.50177 0
M  V30 7738 H 753.921 -1.9114 -4.71533 0
M  V30 7739 H 753.319 1.162 -5.53637 0
M  V30 7740 H 751.876 0.96039 -6.44686 0
M  V30 7741 N 755.309 1.25446 -0.953992 0
M  V30 7742 C 756.241 2.25111 -0.431004 0
M  V30 7743 C 757.254 1.56377 0.452764 0
M  V30 7744 O 758.443 1.76579 0.261144 0
M  V30 7745 C 755.543 3.3655 0.39839 0
M  V30 7746 C 754.716 4.34843 -0.472229 0
M  V30 7747 C 753.775 5.25351 0.29886 0
M  V30 7748 O 752.801 5.68396 -0.302522 0
M  V30 7749 N 754.003 5.5824 1.59211 0
M  V30 7750 H 756.768 2.70619 -1.28785 0
M  V30 7751 H 754.329 1.39346 -0.824281 0
M  V30 7752 H 756.321 3.94059 0.921941 0
M  V30 7753 H 754.891 2.90436 1.15609 0
M  V30 7754 H 754.111 3.76222 -1.17689 0
M  V30 7755 H 755.399 4.97497 -1.06648 0
M  V30 7756 H 754.797 5.25172 2.10264 0
M  V30 7757 H 753.354 6.18336 2.06164 0
M  V30 7758 N 756.787 0.722489 1.40064 0
M  V30 7759 C 758.064 0.191829 1.94657 0
M  V30 7760 C 758.444 -1.30389 1.66018 0
M  V30 7761 O 757.792 -2.06342 0.981588 0
M  V30 7762 C 758.002 0.511978 3.45224 0
M  V30 7763 C 759.35 0.454426 4.22161 0
M  V30 7764 O 760.374 0.448438 3.53366 0
M  V30 7765 O 759.233 0.437986 5.44742 0
M  V30 7766 H 756.327 0.0307821 0.826427 0
M  V30 7767 H 758.873 0.800493 1.49634 0
M  V30 7768 H 757.645 1.54622 3.59455 0
M  V30 7769 H 757.268 -0.126296 3.97399 0
M  V30 7770 N 758.265 -1.50454 0.469181 0
M  V30 7771 C 759.175 -2.32248 -0.331349 0
M  V30 7772 C 760.191 -1.42548 -0.997807 0
M  V30 7773 O 761.367 -1.75602 -0.9862 0
M  V30 7774 C 758.432 -3.17171 -1.40012 0
M  V30 7775 C 757.493 -4.2269 -0.750463 0
M  V30 7776 C 756.726 -5.03554 -1.76831 0
M  V30 7777 O 756.949 -4.85469 -2.99459 0
M  V30 7778 O 755.883 -5.86767 -1.3412 0
M  V30 7779 H 759.709 -3.01821 0.337279 0
M  V30 7780 H 757.294 -1.47602 0.231066 0
M  V30 7781 H 759.176 -3.69871 -2.01924 0
M  V30 7782 H 757.851 -2.50328 -2.05226 0
M  V30 7783 H 756.758 -3.73986 -0.0924446 0
M  V30 7784 H 758.091 -4.91997 -0.14131 0
M  V30 7785 N 759.743 -0.201713 -1.56304 0
M  V30 7786 C 760.973 0.440084 -2.01858 0
M  V30 7787 C 761.381 1.55279 -1.08098 0
M  V30 7788 O 760.724 1.83529 -0.0792216 0
M  V30 7789 C 760.786 1.05091 -3.43797 0
M  V30 7790 C 760.45 0.0761208 -4.56937 0
M  V30 7791 C 761.447 -0.716951 -5.14933 0
M  V30 7792 C 759.132 -0.0368815 -5.02286 0
M  V30 7793 C 761.126 -1.60993 -6.16733 0
M  V30 7794 C 758.813 -0.933409 -6.03929 0
M  V30 7795 C 759.811 -1.71849 -6.61027 0
M  V30 7796 O 759.499 -2.59998 -7.60695 0
M  V30 7797 H 759.231 0.114139 -0.666294 0
M  V30 7798 H 761.785 -0.309672 -2.03052 0
M  V30 7799 H 760.015 1.84938 -3.3961 0
M  V30 7800 H 761.704 1.59804 -3.73118 0
M  V30 7801 H 762.47 -0.63999 -4.80759 0
M  V30 7802 H 758.349 0.564034 -4.57537 0
M  V30 7803 H 761.893 -2.22315 -6.61227 0
M  V30 7804 H 757.79 -1.01146 -6.37526 0
M  V30 7805 H 758.558 -2.53851 -7.7814 0
M  V30 7806 N 761.222 1.57436 0.0718424 0
M  V30 7807 C 762.45 1.91474 0.783932 0
M  V30 7808 C 762.865 0.797669 1.71122 0
M  V30 7809 O 762.222 -0.228989 1.81058 0
M  V30 7810 C 762.273 3.25259 1.57761 0
M  V30 7811 O 761.994 4.3267 0.687596 0
M  V30 7812 C 763.495 3.7331 2.3907 0
M  V30 7813 H 760.715 0.632901 0.222885 0
M  V30 7814 H 763.259 2.04457 0.0421262 0
M  V30 7815 H 761.414 3.13804 2.27169 0
M  V30 7816 H 761.828 5.09641 1.23962 0
M  V30 7817 H 763.302 4.69551 2.90216 0
M  V30 7818 H 763.779 3.02318 3.18591 0
M  V30 7819 H 764.385 3.8771 1.74818 0
M  V30 7820 N 762.7 -0.34323 1.53817 0
M  V30 7821 C 763.925 -1.1079 1.75329 0
M  V30 7822 C 764.35 -1.81571 0.491293 0
M  V30 7823 O 763.708 -1.72561 -0.556089 0
M  V30 7824 C 763.756 -2.09681 2.9337 0
M  V30 7825 O 762.86 -3.17207 2.63541 0
M  V30 7826 H 762.201 -0.320402 0.581583 0
M  V30 7827 H 764.731 -0.393525 2.0078 0
M  V30 7828 H 764.741 -2.52897 3.20168 0
M  V30 7829 H 763.416 -1.5756 3.84899 0
M  V30 7830 H 761.993 -2.78806 2.47632 0
M  V30 7831 N 764.178 -1.45556 -0.604258 0
M  V30 7832 C 765.141 -1.54091 -1.69672 0
M  V30 7833 C 766.141 -0.420076 -1.55216 0
M  V30 7834 O 767.331 -0.683671 -1.60224 0
M  V30 7835 C 764.463 -1.44063 -3.08964 0
M  V30 7836 H 765.656 -2.51431 -1.6347 0
M  V30 7837 H 763.209 -1.33046 -0.820273 0
M  V30 7838 H 763.944 -0.479201 -3.2074 0
M  V30 7839 H 763.729 -2.25362 -3.20865 0
M  V30 7840 H 765.219 -1.53075 -3.88533 0
M  V30 7841 N 765.656 0.84705 -1.32902 0
M  V30 7842 C 766.904 1.5986 -1.2365 0
M  V30 7843 C 767.225 1.93974 0.199789 0
M  V30 7844 O 766.495 1.60273 1.12648 0
M  V30 7845 H 765.075 0.592696 -0.454665 0
M  V30 7846 H 767.737 1.01278 -1.66519 0
M  V30 7847 H 766.833 2.53218 -1.82448 0
M  V30 7848 N 767.134 1.16236 1.06428 0
M  V30 7849 C 768.082 0.863669 2.15971 0
M  V30 7850 C 769.076 -0.166723 1.68578 0
M  V30 7851 O 770.282 -0.0208425 1.79988 0
M  V30 7852 H 766.657 0.261684 0.705 0
M  V30 7853 H 768.628 1.79498 2.38376 0
M  V30 7854 C 767.377 0.379697 3.45621 0
M  V30 7855 H 766.7 1.16399 3.82481 0
M  V30 7856 H 768.14 0.209458 4.23482 0
M  V30 7857 C 766.599 -0.900499 3.24642 0
M  V30 7858 O 767.129 -1.97004 3.50074 0
M  V30 7859 N 765.335 -0.843721 2.78082 0
M  V30 7860 H 764.882 0.0268429 2.57586 0
M  V30 7861 H 764.84 -1.70078 2.64425 0
M  V30 7862 N 768.612 -1.24939 0.960631 0
M  V30 7863 C 769.858 -1.93104 0.61958 0
M  V30 7864 C 770.191 -1.74991 -0.84212 0
M  V30 7865 O 769.466 -1.09867 -1.60498 0
M  V30 7866 C 769.749 -3.46326 0.986422 0
M  V30 7867 C 769.602 -3.73638 2.50429 0
M  V30 7868 C 770.921 -4.37067 0.515827 0
M  V30 7869 H 768.04 -0.701311 0.226566 0
M  V30 7870 H 770.682 -1.47442 1.19836 0
M  V30 7871 H 768.832 -3.85348 0.493907 0
M  V30 7872 H 770.504 -3.44217 3.07103 0
M  V30 7873 H 768.747 -3.19035 2.93937 0
M  V30 7874 H 769.418 -4.80815 2.71147 0
M  V30 7875 H 771.894 -4.05381 0.938389 0
M  V30 7876 H 770.77 -5.43022 0.80114 0
M  V30 7877 H 771.031 -4.38224 -0.584171 0
M  V30 7878 N 770.09 -0.729906 -1.39679 0
M  V30 7879 C 771.318 -0.285709 -2.04918 0
M  V30 7880 C 771.733 1.07765 -1.55023 0
M  V30 7881 O 771.09 1.67999 -0.712923 0
M  V30 7882 C 771.141 -0.272793 -3.60469 0
M  V30 7883 O 770.862 -1.58233 -4.08527 0
M  V30 7884 C 772.363 0.188199 -4.429 0
M  V30 7885 H 769.583 -0.125758 -0.65911 0
M  V30 7886 H 772.127 -0.992129 -1.78821 0
M  V30 7887 H 770.282 0.384699 -3.85485 0
M  V30 7888 H 770.696 -1.49245 -5.02818 0
M  V30 7889 H 772.17 0.14608 -5.51807 0
M  V30 7890 H 772.647 1.2326 -4.21549 0
M  V30 7891 H 773.253 -0.439541 -4.23023 0
M  V30 7892 N 771.568 1.50203 -0.477153 0
M  V30 7893 C 772.808 2.04265 0.0744065 0
M  V30 7894 C 773.172 1.35082 1.36443 0
M  V30 7895 O 774.373 1.79732 1.99875 0
M  V30 7896 C 772.644 3.56539 0.247874 0
M  V30 7897 S 774.203 4.32219 0.757117 0
M  V30 7898 H 771.021 0.71088 0.0130891 0
M  V30 7899 H 773.623 1.8453 -0.645678 0
M  V30 7900 H 772.327 4.04443 -0.696709 0
M  V30 7901 H 771.858 3.80638 0.993896 0
M  V30 7902 H 773.873 4.52789 2.0297 0
M  V30 7903 N 773.046 0.209999 1.56195 0
M  V30 7904 C 774.292 -0.418742 1.99043 0
M  V30 7905 C 774.647 -1.58201 1.095 0
M  V30 7906 O 773.94 -1.91069 0.1425 0
M  V30 7907 C 774.134 -0.91312 3.45539 0
M  V30 7908 C 773.963 0.200706 4.49252 0
M  V30 7909 C 772.733 0.663287 5.00928 0
M  V30 7910 C 774.931 1.01493 5.04186 0
M  V30 7911 N 772.913 1.75338 5.88328 0
M  V30 7912 C 774.284 1.95411 5.884 0
M  V30 7913 C 776.339 1.05567 4.8658 0
M  V30 7914 C 775.042 2.93069 6.56889 0
M  V30 7915 C 777.068 2.02037 5.55819 0
M  V30 7916 C 776.43 2.94697 6.39791 0
M  V30 7917 H 772.529 -0.120226 0.772703 0
M  V30 7918 H 775.113 0.319119 1.92067 0
M  V30 7919 H 773.284 -1.62038 3.52985 0
M  V30 7920 H 775.016 -1.51371 3.75325 0
M  V30 7921 H 771.771 0.253945 4.72919 0
M  V30 7922 H 772.195 2.30007 6.3673 0
M  V30 7923 H 776.837 0.353242 4.21322 0
M  V30 7924 H 774.555 3.6428 7.21336 0
M  V30 7925 H 778.141 2.05849 5.44167 0
M  V30 7926 H 777.021 3.68128 6.92425 0
M  V30 7927 N 774.524 -1.57472 -0.0634922 0
M  V30 7928 C 775.754 -1.91608 -0.772645 0
M  V30 7929 C 776.162 -0.805019 -1.71219 0
M  V30 7930 O 775.505 0.229941 -1.82255 0
M  V30 7931 C 775.567 -3.21281 -1.61304 0
M  V30 7932 C 775.231 -4.49177 -0.841973 0
M  V30 7933 C 776.228 -5.19661 -0.157494 0
M  V30 7934 C 773.913 -4.9578 -0.80669 0
M  V30 7935 C 775.907 -6.35006 0.551948 0
M  V30 7936 C 773.594 -6.11028 -0.0934812 0
M  V30 7937 C 774.592 -6.80493 0.58463 0
M  V30 7938 O 774.28 -7.93542 1.28633 0
M  V30 7939 H 774.012 -0.637685 -0.224352 0
M  V30 7940 H 776.566 -2.05369 -0.0355279 0
M  V30 7941 H 774.796 -3.03752 -2.39315 0
M  V30 7942 H 776.485 -3.41003 -2.20162 0
M  V30 7943 H 777.251 -4.84681 -0.176006 0
M  V30 7944 H 773.13 -4.41579 -1.32397 0
M  V30 7945 H 776.674 -6.89161 1.0818 0
M  V30 7946 H 772.571 -6.45459 -0.0729258 0
M  V30 7947 H 773.339 -8.09708 1.19646 0
M  V30 7948 N 776.003 0.335068 -1.53997 0
M  V30 7949 C 776.935 1.4327 -1.78903 0
M  V30 7950 C 777.948 1.48347 -0.670598 0
M  V30 7951 O 779.137 1.51277 -0.947494 0
M  V30 7952 C 776.237 2.81878 -1.88144 0
M  V30 7953 C 775.41 3.00141 -3.18174 0
M  V30 7954 C 774.469 4.19041 -3.18263 0
M  V30 7955 O 773.495 4.12751 -3.9195 0
M  V30 7956 N 774.697 5.28004 -2.41231 0
M  V30 7957 H 777.462 1.22272 -2.73623 0
M  V30 7958 H 775.023 0.524996 -1.53152 0
M  V30 7959 H 777.015 3.59609 -1.85644 0
M  V30 7960 H 775.585 2.9598 -1.00572 0
M  V30 7961 H 774.805 2.09808 -3.33728 0
M  V30 7962 H 776.093 3.0923 -4.04047 0
M  V30 7963 H 775.491 5.35986 -1.8093 0
M  V30 7964 H 774.048 6.04196 -2.44521 0
M  V30 7965 N 777.481 1.45874 0.596531 0
M  V30 7966 C 778.709 1.54013 1.38158 0
M  V30 7967 C 779.124 0.17648 1.87973 0
M  V30 7968 O 778.481 -0.823895 1.62844 0
M  V30 7969 C 778.532 2.53363 2.57855 0
M  V30 7970 O 778.253 3.8443 2.10108 0
M  V30 7971 C 779.754 2.71308 3.50581 0
M  V30 7972 H 776.974 0.521251 0.422538 0
M  V30 7973 H 779.518 1.9116 0.726493 0
M  V30 7974 H 777.673 2.19257 3.19382 0
M  V30 7975 H 778.087 4.38384 2.87958 0
M  V30 7976 H 779.561 3.44776 4.31084 0
M  V30 7977 H 780.038 1.77728 4.01633 0
M  V30 7978 H 780.644 3.06455 2.94899 0
M  V30 7979 N 778.959 -0.83999 1.33349 0
M  V30 7980 C 780.207 -1.59202 1.24496 0
M  V30 7981 C 780.528 -1.94077 -0.189499 0
M  V30 7982 O 779.798 -1.60868 -1.11796 0
M  V30 7983 H 778.378 -0.590276 0.457802 0
M  V30 7984 H 781.04 -1.00394 1.67054 0
M  V30 7985 H 780.136 -2.52247 1.83788 0
M  V30 7986 N 780.437 -1.16799 -1.0581 0
M  V30 7987 C 781.686 -0.94698 -1.78088 0
M  V30 7988 C 781.999 0.526016 -1.88394 0
M  V30 7989 O 783.205 0.865061 -2.5735 0
M  V30 7990 C 781.661 -1.64508 -3.20102 0
M  V30 7991 C 781.269 -3.15618 -3.17946 0
M  V30 7992 C 783.013 -1.50622 -3.96879 0
M  V30 7993 C 780.92 -3.78144 -4.5471 0
M  V30 7994 H 779.85 -0.35067 -0.667493 0
M  V30 7995 H 782.501 -1.39985 -1.18645 0
M  V30 7996 H 780.883 -1.11993 -3.79834 0
M  V30 7997 H 782.057 -3.75016 -2.67768 0
M  V30 7998 H 780.372 -3.29444 -2.54667 0
M  V30 7999 H 782.969 -1.94713 -4.97987 0
M  V30 8000 H 783.312 -0.455864 -4.13797 0
M  V30 8001 H 783.845 -2.00319 -3.43682 0
M  V30 8002 H 780.584 -4.83149 -4.42998 0
M  V30 8003 H 780.104 -3.23532 -5.05062 0
M  V30 8004 H 781.783 -3.79986 -5.2366 0
M  V30 8005 N 781.915 1.24427 -0.967243 0
M  V30 8006 C 783.161 1.92772 -0.629812 0
M  V30 8007 C 783.494 1.75436 0.832827 0
M  V30 8008 O 782.769 1.10716 1.59913 0
M  V30 8009 C 783.052 3.45798 -1.00477 0
M  V30 8010 C 782.905 3.72304 -2.52407 0
M  V30 8011 C 784.224 4.36787 -0.538999 0
M  V30 8012 H 781.343 0.700099 -0.230282 0
M  V30 8013 H 783.985 1.46805 -1.20616 0
M  V30 8014 H 782.135 3.8508 -0.514336 0
M  V30 8015 H 783.807 3.42584 -3.08924 0
M  V30 8016 H 782.05 3.17472 -2.95625 0
M  V30 8017 H 782.721 4.7937 -2.73693 0
M  V30 8018 H 785.197 4.04877 -0.959874 0
M  V30 8019 H 784.073 5.4259 -0.829926 0
M  V30 8020 H 784.334 4.38527 0.560923 0
M  V30 8021 N 783.393 0.737304 1.3929 0
M  V30 8022 C 784.639 0.286681 2.00763 0
M  V30 8023 C 784.972 -1.12388 1.58375 0
M  V30 8024 O 784.247 -1.76661 0.813699 0
M  V30 8025 C 784.53 0.391147 3.57969 0
M  V30 8026 C 784.383 1.84165 4.1037 0
M  V30 8027 C 785.702 -0.225072 4.39524 0
M  V30 8028 H 782.821 0.105642 0.729389 0
M  V30 8029 H 785.463 0.933892 1.65464 0
M  V30 8030 H 783.613 -0.159875 3.88171 0
M  V30 8031 H 785.285 2.44972 3.90879 0
M  V30 8032 H 783.528 2.3622 3.63844 0
M  V30 8033 H 784.199 1.866 5.19504 0
M  V30 8034 H 786.675 0.244677 4.1538 0
M  V30 8035 H 785.551 -0.121646 5.48765 0
M  V30 8036 H 785.812 -1.31141 4.22202 0
M  V30 8037 N 784.871 -1.49948 0.485112 0
M  V30 8038 C 786.282 -1.8667 0.0334041 0
M  V30 8039 C 786.633 -1.3988 -1.37579 0
M  V30 8040 O 785.758 -0.769788 -2.02245 0
M  V30 8041 C 786.353 -3.38757 0.0538426 0
M  V30 8042 C 784.912 -3.74839 -0.342453 0
M  V30 8043 C 784.059 -2.73894 0.433281 0
M  V30 8044 H 787.01 -1.42492 0.698699 0
M  V30 8045 H 787.031 -3.73132 -0.745146 0
M  V30 8046 H 786.543 -3.72782 1.07959 0
M  V30 8047 H 784.644 -3.46419 -1.37203 0
M  V30 8048 H 784.757 -4.79088 -0.0340503 0
M  V30 8049 H 783.121 -2.54441 -0.114849 0
M  V30 8050 H 783.904 -3.10763 1.45881 0
M  V30 8051 N 786.349 -0.21828 -1.56081 0
M  V30 8052 C 787.312 0.679633 -2.18892 0
M  V30 8053 C 788.312 1.12405 -1.14986 0
M  V30 8054 O 789.502 1.03339 -1.40238 0
M  V30 8055 C 786.634 1.93063 -2.80962 0
M  V30 8056 H 787.827 0.132066 -2.99609 0
M  V30 8057 H 785.38 0.0313374 -1.56269 0
M  V30 8058 H 786.115 2.52015 -2.04106 0
M  V30 8059 H 785.9 1.62046 -3.57048 0
M  V30 8060 H 787.39 2.57043 -3.29118 0
M  V30 8061 N 787.827 1.57504 0.0551401 0
M  V30 8062 C 789.075 1.87684 0.74962 0
M  V30 8063 C 789.396 0.812547 1.77264 0
M  V30 8064 O 788.666 -0.15694 1.9527 0
M  V30 8065 H 787.246 0.6926 0.279846 0
M  V30 8066 H 789.908 1.94881 0.0272745 0
M  V30 8067 H 789.004 2.85734 1.25548 0
M  V30 8068 N 789.305 -0.326896 1.54172 0
M  V30 8069 C 790.533 -1.08486 1.76177 0
M  V30 8070 C 790.948 -1.81815 0.508788 0
M  V30 8071 O 790.305 -1.74924 -0.520362 0
M  V30 8072 C 790.356 -2.08552 2.95276 0
M  V30 8073 O 790.077 -1.38202 4.15731 0
M  V30 8074 C 791.578 -2.96593 3.29466 0
M  V30 8075 H 788.798 -0.322835 0.588233 0
M  V30 8076 H 791.342 -0.374036 2.0105 0
M  V30 8077 H 789.497 -2.75174 2.72687 0
M  V30 8078 H 789.911 -2.05186 4.827 0
M  V30 8079 H 791.385 -3.62708 4.16109 0
M  V30 8080 H 791.862 -3.63511 2.46487 0
M  V30 8081 H 792.468 -2.35537 3.54122 0
M  V30 8082 N 790.784 -1.46188 -0.588786 0
M  V30 8083 C 792.195 -1.45421 -1.17088 0
M  V30 8084 C 792.546 -0.191801 -1.9526 0
M  V30 8085 O 791.671 0.705497 -2.04577 0
M  V30 8086 C 792.266 -2.63467 -2.13004 0
M  V30 8087 C 790.825 -2.6576 -2.6655 0
M  V30 8088 C 789.972 -2.38002 -1.42304 0
M  V30 8089 H 792.923 -1.54156 -0.377052 0
M  V30 8090 H 792.944 -2.38638 -2.96365 0
M  V30 8091 H 792.456 -3.55331 -1.56081 0
M  V30 8092 H 790.557 -1.77952 -3.27359 0
M  V30 8093 H 790.67 -3.65545 -3.09699 0
M  V30 8094 H 789.034 -1.87936 -1.71907 0
M  V30 8095 H 789.817 -3.32035 -0.872209 0
M  V30 8096 N 792.262 0.832906 -1.33792 0
M  V30 8097 C 793.49 1.62048 -1.28639 0
M  V30 8098 C 793.905 1.88269 0.141522 0
M  V30 8099 O 793.262 1.46706 1.08553 0
M  V30 8100 C 793.313 2.96722 -2.0649 0
M  V30 8101 O 793.034 2.7165 -3.43712 0
M  V30 8102 C 794.535 3.91144 -2.08617 0
M  V30 8103 H 791.755 0.504032 -0.442937 0
M  V30 8104 H 794.299 1.03704 -1.76255 0
M  V30 8105 H 792.454 3.51652 -1.62541 0
M  V30 8106 H 792.868 3.57453 -3.83833 0
M  V30 8107 H 794.342 4.82837 -2.67531 0
M  V30 8108 H 794.819 4.25766 -1.07796 0
M  V30 8109 H 795.425 3.42152 -2.52611 0
M  V30 8110 N 793.74 1.17359 1.05189 0
M  V30 8111 C 794.965 0.98709 1.82404 0
M  V30 8112 C 795.39 -0.459848 1.82392 0
M  V30 8113 O 794.748 -1.32924 1.23292 0
M  V30 8114 C 794.796 1.53276 3.26403 0
M  V30 8115 O 793.9 0.746541 4.05587 0
M  V30 8116 H 793.241 0.35047 0.563974 0
M  V30 8117 H 795.771 1.55856 1.32552 0
M  V30 8118 H 795.781 1.55504 3.77203 0
M  V30 8119 H 794.456 2.58603 3.25726 0
M  V30 8120 H 793.033 0.795671 3.64312 0
M  V30 8121 N 795.218 -1.23913 0.973828 0
M  V30 8122 C 796.458 -1.93889 0.647015 0
M  V30 8123 C 796.822 -1.74368 -0.803735 0
M  V30 8124 O 798.023 -2.38435 -1.24106 0
M  V30 8125 C 796.294 -3.4257 1.01885 0
M  V30 8126 S 797.853 -4.31306 0.807517 0
M  V30 8127 H 794.671 -0.670279 0.237165 0
M  V30 8128 H 797.273 -1.50144 1.25208 0
M  V30 8129 H 795.977 -3.54286 2.07146 0
M  V30 8130 H 795.508 -3.91312 0.404812 0
M  V30 8131 H 797.523 -4.95218 -0.311986 0
M  V30 8132 N 796.696 -0.74468 -1.38897 0
M  V30 8133 C 797.921 -0.306119 -2.05128 0
M  V30 8134 C 798.346 1.0541 -1.55789 0
M  V30 8135 O 797.704 1.66993 -0.705909 0
M  V30 8136 C 797.752 -0.328195 -3.59103 0
M  V30 8137 O 796.856 0.680876 -4.06741 0
M  V30 8138 H 796.197 -0.137209 -0.649669 0
M  V30 8139 H 798.727 -1.01331 -1.77745 0
M  V30 8140 H 798.737 -0.175956 -4.0762 0
M  V30 8141 H 797.412 -1.32067 -3.94374 0
M  V30 8142 H 795.989 0.49398 -3.69614 0
M  V30 8143 N 798.174 1.49689 -0.493057 0
M  V30 8144 C 799.423 2.01622 0.0560733 0
M  V30 8145 C 799.736 1.37838 1.3878 0
M  V30 8146 O 800.942 1.81054 2.02316 0
M  V30 8147 C 799.398 3.59586 0.150409 0
M  V30 8148 C 799.006 4.32338 -1.1742 0
M  V30 8149 C 800.75 4.19489 0.650327 0
M  V30 8150 C 798.657 5.8214 -1.04246 0
M  V30 8151 H 797.587 0.753594 0.0247297 0
M  V30 8152 H 800.238 1.723 -0.631279 0
M  V30 8153 H 798.62 3.8559 0.902035 0
M  V30 8154 H 799.794 4.18042 -1.9385 0
M  V30 8155 H 798.109 3.84144 -1.60694 0
M  V30 8156 H 800.706 5.29181 0.766272 0
M  V30 8157 H 801.049 3.82326 1.6472 0
M  V30 8158 H 801.582 3.97775 -0.0445371 0
M  V30 8159 H 798.321 6.23814 -2.01336 0
M  V30 8160 H 797.841 5.98952 -0.31892 0
M  V30 8161 H 799.52 6.43004 -0.717957 0
M  V30 8162 N 799.652 0.226554 1.55963 0
M  V30 8163 C 800.585 -0.721625 2.1649 0
M  V30 8164 C 801.563 -1.18745 1.11078 0
M  V30 8165 O 802.747 -1.26929 1.3936 0
M  V30 8166 C 799.874 -1.97828 2.74921 0
M  V30 8167 C 798.92 -1.65202 3.93206 0
M  V30 8168 S 799.753 -0.772419 5.299 0
M  V30 8169 C 800.909 -2.03853 5.91773 0
M  V30 8170 H 801.142 -0.207192 2.96577 0
M  V30 8171 H 798.675 0.0111976 1.54396 0
M  V30 8172 H 800.633 -2.69982 3.09225 0
M  V30 8173 H 799.294 -2.46384 1.94817 0
M  V30 8174 H 798.487 -2.58583 4.32609 0
M  V30 8175 H 798.089 -1.01108 3.60074 0
M  V30 8176 H 800.381 -2.98799 6.08051 0
M  V30 8177 H 801.324 -1.68831 6.87678 0
M  V30 8178 H 801.732 -2.18134 5.20651 0
M  V30 8179 N 801.13 -1.57531 -0.0467866 0
M  V30 8180 C 802.37 -1.90294 -0.746171 0
M  V30 8181 C 802.734 -0.823194 -1.73458 0
M  V30 8182 O 803.935 -1.03463 -2.48091 0
M  V30 8183 C 802.206 -3.28249 -1.41378 0
M  V30 8184 S 803.765 -3.82812 -2.14477 0
M  V30 8185 H 800.583 -0.666496 -0.247598 0
M  V30 8186 H 803.185 -1.955 -0.00135143 0
M  V30 8187 H 801.889 -4.04712 -0.680937 0
M  V30 8188 H 801.42 -3.26302 -2.19751 0
M  V30 8189 H 803.435 -3.60111 -3.41372 0
M  V30 8190 N 802.608 0.318715 -1.54344 0
M  V30 8191 C 803.855 1.05608 -1.72781 0
M  V30 8192 C 804.183 1.87854 -0.504083 0
M  V30 8193 O 803.438 1.88826 0.51414 0
M  V30 8194 C 803.737 2.00514 -2.95853 0
M  V30 8195 C 803.403 1.34385 -4.30409 0
M  V30 8196 C 802.065 1.16081 -4.66989 0
M  V30 8197 C 804.417 0.869627 -5.13894 0
M  V30 8198 C 801.745 0.490114 -5.84649 0
M  V30 8199 C 804.097 0.212735 -6.32242 0
M  V30 8200 C 802.761 0.0175882 -6.67498 0
M  V30 8201 H 802.031 0.386449 -0.632249 0
M  V30 8202 H 804.678 0.332729 -1.88587 0
M  V30 8203 H 802.983 2.79317 -2.74753 0
M  V30 8204 H 804.68 2.57605 -3.07312 0
M  V30 8205 H 801.27 1.49634 -4.01631 0
M  V30 8206 H 805.454 0.998809 -4.86146 0
M  V30 8207 H 800.71 0.327767 -6.10521 0
M  V30 8208 H 804.884 -0.162699 -6.9621 0
M  V30 8209 H 802.511 -0.504137 -7.58527 0
M  V30 8210 N 804.086 1.46499 0.581025 0
M  V30 8211 C 805.332 1.52121 1.34116 0
M  V30 8212 C 805.665 0.173031 1.93428 0
M  V30 8213 O 804.94 -0.815729 1.76568 0
M  V30 8214 C 805.223 2.62108 2.46924 0
M  V30 8215 C 805.076 4.06462 1.92636 0
M  V30 8216 C 806.395 2.68167 3.48962 0
M  V30 8217 H 803.514 0.5538 0.486287 0
M  V30 8218 H 806.156 1.78443 0.652538 0
M  V30 8219 H 804.306 2.39794 3.05665 0
M  V30 8220 H 805.978 4.40068 1.3834 0
M  V30 8221 H 804.221 4.15862 1.23455 0
M  V30 8222 H 804.892 4.79152 2.74076 0
M  V30 8223 H 807.368 2.8823 3.00104 0
M  V30 8224 H 806.244 3.46942 4.2535 0
M  V30 8225 H 806.505 1.74284 4.06297 0
M  V30 8226 N 805.565 -0.825799 1.34232 0
M  V30 8227 C 806.79 -1.61883 1.29648 0
M  V30 8228 C 807.215 -1.87669 -0.127295 0
M  V30 8229 O 806.573 -1.45016 -1.08813 0
M  V30 8230 C 806.621 -2.93846 2.09014 0
M  V30 8231 O 805.725 -3.85778 1.4577 0
M  V30 8232 H 805.066 -0.492454 0.445405 0
M  V30 8233 H 807.596 -1.02641 1.76992 0
M  V30 8234 H 807.606 -3.43435 2.20264 0
M  V30 8235 H 806.281 -2.74401 3.12533 0
M  V30 8236 H 804.858 -3.4429 1.43245 0
M  V30 8237 N 807.043 -1.17915 -1.04565 0
M  V30 8238 C 808.006 -0.903787 -2.10628 0
M  V30 8239 C 809.006 0.10873 -1.60432 0
M  V30 8240 O 810.196 -0.124152 -1.73757 0
M  V30 8241 C 807.328 -0.355017 -3.39046 0
M  V30 8242 H 808.521 -1.84425 -2.3649 0
M  V30 8243 H 806.074 -0.990477 -1.2091 0
M  V30 8244 H 806.809 0.592297 -3.18845 0
M  V30 8245 H 806.594 -1.08484 -3.76794 0
M  V30 8246 H 808.084 -0.180891 -4.17208 0
M  V30 8247 N 808.521 1.23394 -0.980386 0
M  V30 8248 C 809.761 1.93543 -0.657288 0
M  V30 8249 C 810.125 1.74791 0.794477 0
M  V30 8250 O 811.326 2.39089 1.2284 0
M  V30 8251 C 809.597 3.42025 -1.03701 0
M  V30 8252 S 811.156 4.30871 -0.830379 0
M  V30 8253 H 807.974 0.669012 -0.240717 0
M  V30 8254 H 810.576 1.49478 -1.26002 0
M  V30 8255 H 809.28 3.53183 -2.09022 0
M  V30 8256 H 808.811 3.91091 -0.425559 0
M  V30 8257 H 810.826 4.95377 0.285719 0
M  V30 8258 N 809.999 0.752036 1.385 0
M  V30 8259 C 810.947 0.112634 2.32327 0
M  V30 8260 C 811.941 -0.707037 1.53939 0
M  V30 8261 O 813.147 -0.606309 1.69481 0
M  V30 8262 H 809.522 0.0176275 0.751793 0
M  V30 8263 H 811.493 0.920074 2.83861 0
M  V30 8264 C 810.242 -0.767458 3.39124 0
M  V30 8265 H 809.565 -0.146122 3.99533 0
M  V30 8266 H 811.005 -1.18216 4.07187 0
M  V30 8267 C 809.464 -1.90938 2.77568 0
M  V30 8268 O 809.994 -3.00342 2.66754 0
M  V30 8269 N 808.2 -1.70396 2.35401 0
M  V30 8270 H 807.747 -0.81413 2.44397 0
M  V30 8271 H 807.705 -2.46972 1.94557 0
M  V30 8272 N 811.477 -1.49425 0.500989 0
M  V30 8273 C 812.754 -1.9531 -0.106551 0
M  V30 8274 C 813.134 -1.44248 -1.54129 0
M  V30 8275 O 812.482 -0.656237 -2.18874 0
M  V30 8276 C 812.692 -3.48995 -0.0191972 0
M  V30 8277 C 814.04 -4.24161 -0.193129 0
M  V30 8278 O 815.064 -3.56075 -0.0943843 0
M  V30 8279 O 813.923 -5.45064 -0.395869 0
M  V30 8280 H 811.017 -0.82149 -0.0953068 0
M  V30 8281 H 813.563 -1.6007 0.563526 0
M  V30 8282 H 812.335 -3.78794 0.981353 0
M  V30 8283 H 811.958 -3.90852 -0.72942 0
M  V30 8284 N 812.955 -0.234822 -1.55841 0
M  V30 8285 C 814.202 0.39326 -1.98645 0
M  V30 8286 C 814.53 1.58823 -1.12274 0
M  V30 8287 O 813.785 1.94954 -0.170731 0
M  V30 8288 C 814.084 0.858032 -3.46947 0
M  V30 8289 C 813.75 -0.227858 -4.50324 0
M  V30 8290 C 812.412 -0.526128 -4.78315 0
M  V30 8291 C 814.764 -0.961576 -5.12253 0
M  V30 8292 C 812.092 -1.5624 -5.65514 0
M  V30 8293 C 814.444 -1.98728 -6.00575 0
M  V30 8294 C 813.108 -2.29233 -6.26904 0
M  V30 8295 H 812.378 0.143904 -0.726892 0
M  V30 8296 H 815.025 -0.34012 -1.88455 0
M  V30 8297 H 813.33 1.67041 -3.54408 0
M  V30 8298 H 815.027 1.35407 -3.77447 0
M  V30 8299 H 811.617 0.0147624 -4.28597 0
M  V30 8300 H 815.801 -0.744388 -4.90686 0
M  V30 8301 H 811.057 -1.80422 -5.84173 0
M  V30 8302 H 815.231 -2.5608 -6.47608 0
M  V30 8303 H 812.858 -3.09671 -6.94268 0
M  V30 8304 N 814.433 1.57553 0.0384317 0
M  V30 8305 C 815.658 1.93485 0.746872 0
M  V30 8306 C 816.083 0.834069 1.68597 0
M  V30 8307 O 815.441 -0.210902 1.80069 0
M  V30 8308 C 815.489 3.28463 1.4881 0
M  V30 8309 O 814.593 3.20051 2.60079 0
M  V30 8310 H 813.934 0.632675 0.201539 0
M  V30 8311 H 816.464 2.046 -0.00329815 0
M  V30 8312 H 816.474 3.63132 1.86009 0
M  V30 8313 H 815.149 4.08147 0.799297 0
M  V30 8314 H 813.726 2.96998 2.25492 0
M  V30 8315 N 815.911 -0.310526 1.54511 0
M  V30 8316 C 817.157 -1.04846 1.73595 0
M  V30 8317 C 817.49 -1.87244 0.515118 0
M  V30 8318 O 816.765 -1.88282 -0.48786 0
M  V30 8319 C 817.048 -1.96237 3.01932 0
M  V30 8320 C 816.901 -1.17082 4.34295 0
M  V30 8321 C 818.22 -2.9556 3.26086 0
M  V30 8322 H 815.339 -0.37976 0.631626 0
M  V30 8323 H 817.981 -0.32394 1.87218 0
M  V30 8324 H 816.131 -2.58015 2.90449 0
M  V30 8325 H 817.803 -0.576643 4.57682 0
M  V30 8326 H 816.046 -0.473336 4.3121 0
M  V30 8327 H 816.717 -1.84257 5.20339 0
M  V30 8328 H 819.193 -2.43908 3.37117 0
M  V30 8329 H 818.069 -3.5668 4.17218 0
M  V30 8330 H 818.33 -3.68715 2.4393 0
M  V30 8331 N 817.389 -1.46805 -0.573248 0
M  V30 8332 C 818.805 -1.31969 -0.897577 0
M  V30 8333 C 819.005 -0.298171 -1.99282 0
M  V30 8334 O 818.061 0.295953 -2.5076 0
M  V30 8335 C 819.374 -2.70859 -1.30598 0
M  V30 8336 C 820.922 -2.79022 -1.4183 0
M  V30 8337 C 821.397 -4.18516 -1.86033 0
M  V30 8338 N 822.888 -4.2098 -1.9321 0
M  V30 8339 C 823.623 -5.25814 -2.28707 0
M  V30 8340 N 823.119 -6.40968 -2.6293 0
M  V30 8341 N 824.912 -5.13184 -2.29343 0
M  V30 8342 H 817.063 -2.11869 0.150094 0
M  V30 8343 H 819.326 -0.947989 0.00447895 0
M  V30 8344 H 819.032 -3.46965 -0.575161 0
M  V30 8345 H 818.906 -3.01585 -2.26554 0
M  V30 8346 H 821.293 -2.03198 -2.13996 0
M  V30 8347 H 821.374 -2.51969 -0.441024 0
M  V30 8348 H 821.018 -4.94839 -1.14442 0
M  V30 8349 H 820.948 -4.42982 -2.84735 0
M  V30 8350 H 823.439 -3.37898 -1.69214 0
M  V30 8351 H 823.752 -7.16729 -2.88996 0
M  V30 8352 H 822.097 -6.44314 -2.60547 0
M  V30 8353 H 825.288 -4.22255 -2.02036 0
M  V30 8354 H 825.461 -5.94996 -2.56679 0
M  V30 8355 N 818.867 0.818669 -1.34668 0
M  V30 8356 C 819.797 1.94468 -1.29245 0
M  V30 8357 C 820.778 1.69257 -0.169101 0
M  V30 8358 O 821.963 1.90794 -0.362143 0
M  V30 8359 C 819.093 3.31001 -1.05145 0
M  V30 8360 C 818.047 3.70663 -2.13992 0
M  V30 8361 C 817.373 5.05226 -1.75074 0
M  V30 8362 C 818.673 3.82312 -3.55858 0
M  V30 8363 H 820.367 1.99263 -2.2346 0
M  V30 8364 H 817.913 0.957304 -1.07572 0
M  V30 8365 H 819.866 4.09364 -0.999949 0
M  V30 8366 H 818.59 3.26517 -0.0737312 0
M  V30 8367 H 817.249 2.94578 -2.18219 0
M  V30 8368 H 816.897 4.97233 -0.759518 0
M  V30 8369 H 816.597 5.32734 -2.47928 0
M  V30 8370 H 818.121 5.86042 -1.71427 0
M  V30 8371 H 819.535 4.50935 -3.5402 0
M  V30 8372 H 817.932 4.21278 -4.2737 0
M  V30 8373 H 819.002 2.84193 -3.9289 0
M  V30 8374 N 820.346 1.18468 1.03938 0
M  V30 8375 C 821.276 0.936389 2.13902 0
M  V30 8376 C 822.257 -0.126381 1.6963 0
M  V30 8377 O 823.442 0.0264757 1.94182 0
M  V30 8378 C 820.572 0.462729 3.44204 0
M  V30 8379 C 819.526 1.46613 4.02105 0
M  V30 8380 C 818.852 0.84994 5.27902 0
M  V30 8381 C 820.152 2.84323 4.3813 0
M  V30 8382 H 821.846 1.85602 2.3493 0
M  V30 8383 H 819.392 0.893806 1.12903 0
M  V30 8384 H 821.345 0.276382 4.20493 0
M  V30 8385 H 820.069 -0.492477 3.22866 0
M  V30 8386 H 818.728 1.63944 3.27899 0
M  V30 8387 H 818.376 -0.112493 5.02874 0
M  V30 8388 H 818.076 1.51988 5.67603 0
M  V30 8389 H 819.6 0.674152 6.06867 0
M  V30 8390 H 821.014 2.70636 5.054 0
M  V30 8391 H 819.411 3.48012 4.88884 0
M  V30 8392 H 820.481 3.37776 3.47901 0
M  V30 8393 N 821.824 -1.22873 0.986916 0
M  V30 8394 C 822.771 -2.2458 0.532215 0
M  V30 8395 C 823.741 -1.60375 -0.432322 0
M  V30 8396 O 824.926 -1.87775 -0.338416 0
M  V30 8397 C 822.066 -3.44761 -0.152864 0
M  V30 8398 C 821.179 -4.23501 0.852704 0
M  V30 8399 C 820.314 -5.31011 0.14176 0
M  V30 8400 C 819.353 -6.01464 1.1361 0
M  V30 8401 N 818.49 -7.00631 0.453871 0
M  V30 8402 H 823.33 -2.62838 1.40428 0
M  V30 8403 H 820.867 -1.29185 0.703543 0
M  V30 8404 H 822.825 -4.1333 -0.566926 0
M  V30 8405 H 821.455 -3.07284 -0.988756 0
M  V30 8406 H 820.507 -3.54286 1.38512 0
M  V30 8407 H 821.819 -4.72097 1.61014 0
M  V30 8408 H 820.973 -6.05805 -0.329337 0
M  V30 8409 H 819.712 -4.83373 -0.648229 0
M  V30 8410 H 818.717 -5.25456 1.61789 0
M  V30 8411 H 819.942 -6.5119 1.92686 0
M  V30 8412 H 817.888 -6.55235 -0.316791 0
M  V30 8413 H 817.805 -7.47204 1.14986 0
M  V30 8414 H 819.073 -7.795 0.00537823 0
M  V30 8415 N 823.302 -0.75937 -1.38099 0
M  V30 8416 C 824.579 -0.243371 -1.9408 0
M  V30 8417 C 824.959 1.25942 -1.69416 0
M  V30 8418 O 824.307 2.03667 -1.03595 0
M  V30 8419 C 824.517 -0.603328 -3.43745 0
M  V30 8420 C 825.865 -0.566195 -4.20808 0
M  V30 8421 O 826.889 -0.541969 -3.52053 0
M  V30 8422 O 825.748 -0.582261 -5.43389 0
M  V30 8423 H 822.842 -0.0526825 -0.82532 0
M  V30 8424 H 825.388 -0.839884 -1.47459 0
M  V30 8425 H 824.16 -1.64098 -3.55229 0
M  V30 8426 H 823.783 0.0208887 -3.97595 0
M  V30 8427 N 824.78 1.49157 -0.508906 0
M  V30 8428 C 826.008 2.06879 0.0293734 0
M  V30 8429 C 826.423 1.36823 1.30095 0
M  V30 8430 O 825.78 0.449034 1.7689 0
M  V30 8431 C 825.831 3.60423 0.278791 0
M  V30 8432 O 825.552 4.27844 -0.942389 0
M  V30 8433 C 827.053 4.34881 0.859825 0
M  V30 8434 H 824.273 0.67057 -0.0240184 0
M  V30 8435 H 826.817 1.91834 -0.708526 0
M  V30 8436 H 824.972 3.75145 0.966689 0
M  V30 8437 H 825.386 5.19671 -0.710097 0
M  V30 8438 H 826.86 5.43161 0.983884 0
M  V30 8439 H 827.337 3.9789 1.85958 0
M  V30 8440 H 827.943 4.24785 0.209152 0
M  V30 8441 N 826.258 0.243083 1.55714 0
M  V30 8442 C 827.669 -0.260788 1.8487 0
M  V30 8443 C 828.02 -1.57879 1.16485 0
M  V30 8444 O 827.145 -2.1184 0.441908 0
M  V30 8445 C 827.74 -0.479954 3.35383 0
M  V30 8446 C 826.299 -0.928096 3.64778 0
M  V30 8447 C 825.446 -0.00316416 2.773 0
M  V30 8448 H 828.397 0.465743 1.51712 0
M  V30 8449 H 828.418 -1.32308 3.56756 0
M  V30 8450 H 827.93 0.479468 3.85127 0
M  V30 8451 H 826.031 -1.90012 3.20509 0
M  V30 8452 H 826.144 -0.7876 4.72582 0
M  V30 8453 H 824.508 -0.513849 2.49463 0
M  V30 8454 H 825.291 0.951562 3.29849 0
M  V30 8455 N 827.736 -1.57571 -0.0300757 0
M  V30 8456 C 828.983 -1.89226 -0.721091 0
M  V30 8457 C 829.311 -0.840244 -1.75414 0
M  V30 8458 O 828.566 0.158906 -1.95054 0
M  V30 8459 C 828.865 -3.27624 -1.42818 0
M  V30 8460 C 828.531 -4.4776 -0.531208 0
M  V30 8461 C 827.193 -4.8036 -0.28415 0
M  V30 8462 C 829.545 -5.21125 0.0881582 0
M  V30 8463 C 826.873 -5.83715 0.591065 0
M  V30 8464 C 829.225 -6.2541 0.95107 0
M  V30 8465 C 827.889 -6.56486 1.2076 0
M  V30 8466 H 827.159 -0.692428 -0.263866 0
M  V30 8467 H 829.806 -1.91491 0.0189874 0
M  V30 8468 H 828.111 -3.21343 -2.24155 0
M  V30 8469 H 829.808 -3.49365 -1.96838 0
M  V30 8470 H 826.398 -4.2227 -0.73392 0
M  V30 8471 H 830.582 -4.96219 -0.0897496 0
M  V30 8472 H 825.838 -6.06168 0.798132 0
M  V30 8473 H 830.012 -6.81402 1.43751 0
M  V30 8474 H 827.639 -7.36395 1.88751 0
M  V30 8475 N 829.214 0.302327 -1.54673 0
M  V30 8476 C 830.463 1.03533 -1.73101 0
M  V30 8477 C 830.776 1.88473 -0.523174 0
M  V30 8478 O 831.982 2.65029 -0.589229 0
M  V30 8479 C 830.438 1.89043 -3.06252 0
M  V30 8480 C 830.046 1.09112 -4.3451 0
M  V30 8481 C 831.79 2.61951 -3.34039 0
M  V30 8482 C 829.697 1.93891 -5.58713 0
M  V30 8483 H 828.627 0.390261 -0.645145 0
M  V30 8484 H 831.278 0.2924 -1.81155 0
M  V30 8485 H 829.66 2.67319 -2.92159 0
M  V30 8486 H 830.834 0.354596 -4.59434 0
M  V30 8487 H 829.149 0.477923 -4.13648 0
M  V30 8488 H 831.746 3.25729 -4.24033 0
M  V30 8489 H 832.089 3.30711 -2.52855 0
M  V30 8490 H 832.622 1.90725 -3.49097 0
M  V30 8491 H 829.361 1.29604 -6.4256 0
M  V30 8492 H 828.881 2.6522 -5.37976 0
M  V30 8493 H 830.56 2.51971 -5.95919 0
M  V30 8494 N 830.692 1.47107 0.565454 0
M  V30 8495 C 831.602 1.61591 1.70075 0
M  V30 8496 C 832.618 0.498931 1.66693 0
M  V30 8497 O 833.794 0.765372 1.8629 0
M  V30 8498 C 830.859 1.61887 3.06583 0
M  V30 8499 C 829.92 2.84949 3.21096 0
M  V30 8500 C 829.153 2.85221 4.51093 0
M  V30 8501 O 829.376 1.94959 5.36048 0
M  V30 8502 O 828.31 3.76982 4.69221 0
M  V30 8503 H 832.136 2.57638 1.60799 0
M  V30 8504 H 829.721 1.30097 0.73451 0
M  V30 8505 H 831.603 1.64809 3.87835 0
M  V30 8506 H 830.278 0.69005 3.16259 0
M  V30 8507 H 829.185 2.87575 2.39273 0
M  V30 8508 H 830.518 3.77098 3.1632 0
M  V30 8509 N 832.17 -0.811516 1.35101 0
M  V30 8510 C 833.102 -1.93102 1.23468 0
M  V30 8511 C 834.115 -1.62021 0.159095 0
M  V30 8512 O 835.304 -1.73682 0.411945 0
M  V30 8513 C 832.404 -3.27345 0.877404 0
M  V30 8514 C 831.577 -3.86368 2.05033 0
M  V30 8515 C 830.636 -4.99009 1.66963 0
M  V30 8516 O 829.662 -5.16698 2.38772 0
M  V30 8517 N 830.864 -5.7749 0.590394 0
M  V30 8518 H 833.629 -2.0361 2.19916 0
M  V30 8519 H 831.19 -0.988687 1.28205 0
M  V30 8520 H 833.182 -4.00163 0.604298 0
M  V30 8521 H 831.752 -3.126 0.00275267 0
M  V30 8522 H 830.972 -3.05804 2.48752 0
M  V30 8523 H 832.26 -4.22533 2.83449 0
M  V30 8524 H 831.658 -5.657 -0.00633259 0
M  V30 8525 H 830.215 -6.50708 0.377055 0
M  V30 8526 N 833.648 -1.19017 -1.03309 0
M  V30 8527 C 834.876 -1.01534 -1.80273 0
M  V30 8528 C 835.291 0.43605 -1.83696 0
M  V30 8529 O 834.648 1.30288 -1.27794 0
M  V30 8530 C 834.699 -1.5722 -3.25522 0
M  V30 8531 O 834.42 -2.96677 -3.22358 0
M  V30 8532 C 835.921 -1.4446 -4.19102 0
M  V30 8533 H 833.141 -0.358094 -0.567459 0
M  V30 8534 H 835.685 -1.57738 -1.3015 0
M  V30 8535 H 833.84 -1.05174 -3.7285 0
M  V30 8536 H 834.254 -3.22795 -4.13405 0
M  V30 8537 H 835.728 -1.88209 -5.18923 0
M  V30 8538 H 836.205 -0.394471 -4.37425 0
M  V30 8539 H 836.811 -1.95616 -3.77643 0
M  V30 8540 N 835.127 1.22348 -0.993418 0
M  V30 8541 C 836.09 2.22522 -0.549251 0
M  V30 8542 C 837.09 1.56529 0.368164 0
M  V30 8543 O 838.28 1.73463 0.16005 0
M  V30 8544 C 835.412 3.40307 0.201037 0
M  V30 8545 H 836.605 2.63332 -1.43515 0
M  V30 8546 H 834.158 1.35407 -0.78068 0
M  V30 8547 H 834.893 3.0497 1.10289 0
M  V30 8548 H 834.678 3.8942 -0.457685 0
M  V30 8549 H 836.168 4.14597 0.499946 0
M  V30 8550 N 836.605 0.766683 1.37694 0
M  V30 8551 C 837.535 0.163432 2.32927 0
M  V30 8552 C 838.516 -0.688861 1.55527 0
M  V30 8553 O 839.701 -0.627363 1.83787 0
M  V30 8554 C 836.831 -0.720416 3.39746 0
M  V30 8555 C 835.785 0.0301718 4.27989 0
M  V30 8556 C 835.111 -0.972788 5.25776 0
M  V30 8557 C 836.411 1.20623 5.0818 0
M  V30 8558 H 838.105 0.958988 2.83626 0
M  V30 8559 H 835.651 0.462601 1.36367 0
M  V30 8560 H 837.604 -1.15221 4.05342 0
M  V30 8561 H 836.328 -1.54844 2.8756 0
M  V30 8562 H 834.987 0.442685 3.63917 0
M  V30 8563 H 834.635 -1.79522 4.69873 0
M  V30 8564 H 834.335 -0.475145 5.85676 0
M  V30 8565 H 835.859 -1.40362 5.94248 0
M  V30 8566 H 837.273 0.851341 5.66944 0
M  V30 8567 H 835.67 1.63561 5.7738 0
M  V30 8568 H 836.74 2.01281 4.41151 0
M  V30 8569 N 838.083 -1.48885 0.516809 0
M  V30 8570 C 839.013 -2.32241 -0.242157 0
M  V30 8571 C 839.994 -1.41258 -0.947633 0
M  V30 8572 O 841.179 -1.70156 -0.935973 0
M  V30 8573 C 838.309 -3.22151 -1.29754 0
M  V30 8574 C 837.263 -4.22053 -0.710995 0
M  V30 8575 C 836.589 -5.01007 -1.86806 0
M  V30 8576 C 837.889 -5.21388 0.30853 0
M  V30 8577 H 839.583 -2.95943 0.453651 0
M  V30 8578 H 837.129 -1.42316 0.219612 0
M  V30 8579 H 839.082 -3.79284 -1.83634 0
M  V30 8580 H 837.806 -2.56423 -2.02274 0
M  V30 8581 H 836.465 -3.66087 -0.193819 0
M  V30 8582 H 836.113 -4.31713 -2.58133 0
M  V30 8583 H 835.813 -5.68615 -1.48159 0
M  V30 8584 H 837.337 -5.60989 -2.4109 0
M  V30 8585 H 838.751 -5.73122 -0.142703 0
M  V30 8586 H 837.148 -5.96975 0.611673 0
M  V30 8587 H 838.218 -4.69329 1.21894 0
M  V30 8588 N 839.561 -0.251338 -1.55583 0
M  V30 8589 C 840.493 0.679167 -2.18906 0
M  V30 8590 C 841.506 1.13545 -1.16667 0
M  V30 8591 O 842.695 1.06146 -1.4351 0
M  V30 8592 C 839.795 1.93544 -2.78198 0
M  V30 8593 C 838.968 1.62987 -4.05899 0
M  V30 8594 C 838.027 2.73618 -4.49466 0
M  V30 8595 O 837.053 2.40815 -5.15749 0
M  V30 8596 N 838.255 4.03204 -4.1762 0
M  V30 8597 H 841.02 0.137328 -2.99385 0
M  V30 8598 H 838.581 -0.0714754 -1.61742 0
M  V30 8599 H 840.573 2.66804 -3.04299 0
M  V30 8600 H 839.143 2.38695 -2.0185 0
M  V30 8601 H 838.363 0.732237 -3.8734 0
M  V30 8602 H 839.651 1.40041 -4.89148 0
M  V30 8603 H 839.049 4.32686 -3.64416 0
M  V30 8604 H 837.606 4.72916 -4.48547 0
M  V30 8605 N 841.039 1.57585 0.0217189 0
M  V30 8606 C 842.287 1.89231 0.709641 0
M  V30 8607 C 842.608 0.849964 1.75501 0
M  V30 8608 O 841.878 -0.115485 1.95559 0
M  V30 8609 H 840.458 0.69838 0.265092 0
M  V30 8610 H 843.12 1.94895 -0.0140688 0
M  V30 8611 H 842.216 2.88333 1.19459 0
M  V30 8612 N 842.517 -0.29412 1.54831 0
M  V30 8613 C 843.794 -1.04847 1.65126 0
M  V30 8614 C 844.174 -2.04996 0.503986 0
M  V30 8615 O 843.522 -2.22996 -0.498496 0
M  V30 8616 C 843.732 -1.72418 3.03435 0
M  V30 8617 C 845.08 -2.24362 3.60481 0
M  V30 8618 O 846.104 -1.8244 3.05932 0
M  V30 8619 O 844.963 -3.01196 4.56008 0
M  V30 8620 H 842.057 -0.485032 0.669831 0
M  V30 8621 H 844.603 -0.291659 1.67175 0
M  V30 8622 H 843.375 -0.997351 3.78376 0
M  V30 8623 H 842.998 -2.54839 3.05193 0
M  V30 8624 N 843.995 -1.47404 -0.557645 0
M  V30 8625 C 845.241 -1.54235 -1.31679 0
M  V30 8626 C 845.574 -0.203782 -1.93128 0
M  V30 8627 O 844.849 0.787536 -1.77843 0
M  V30 8628 C 845.132 -2.66003 -2.42723 0
M  V30 8629 C 844.985 -4.09475 -1.86145 0
M  V30 8630 C 846.304 -2.73685 -3.44652 0
M  V30 8631 H 843.423 -0.561466 -0.477415 0
M  V30 8632 H 846.065 -1.79459 -0.624067 0
M  V30 8633 H 844.215 -2.44627 -3.01811 0
M  V30 8634 H 845.887 -4.42213 -1.31321 0
M  V30 8635 H 844.13 -4.17774 -1.16823 0
M  V30 8636 H 844.801 -4.83451 -2.66418 0
M  V30 8637 H 847.277 -2.92968 -2.95481 0
M  V30 8638 H 846.153 -3.53665 -4.19777 0
M  V30 8639 H 846.414 -1.80726 -4.03473 0
M  V30 8640 N 845.473 0.80434 -1.35529 0
M  V30 8641 C 846.719 1.56385 -1.29118 0
M  V30 8642 C 847.052 1.9374 0.133536 0
M  V30 8643 O 846.327 1.6153 1.08344 0
M  V30 8644 C 846.61 2.85097 -2.19981 0
M  V30 8645 C 846.463 2.54204 -3.7108 0
M  V30 8646 C 847.782 3.86817 -2.09907 0
M  V30 8647 H 844.901 0.567382 -0.470368 0
M  V30 8648 H 847.543 0.925235 -1.6595 0
M  V30 8649 H 845.693 3.39594 -1.88701 0
M  V30 8650 H 847.365 2.05872 -4.12813 0
M  V30 8651 H 845.608 1.87364 -3.91251 0
M  V30 8652 H 846.279 3.46068 -4.30048 0
M  V30 8653 H 848.755 3.41725 -2.37409 0
M  V30 8654 H 847.631 4.7465 -2.75678 0
M  V30 8655 H 847.892 4.28663 -1.08171 0
M  V30 8656 N 846.951 1.19563 1.02676 0
M  V30 8657 C 847.861 0.950691 2.14474 0
M  V30 8658 C 848.877 -0.0900219 1.73767 0
M  V30 8659 O 850.053 0.0951063 2.01175 0
M  V30 8660 C 847.118 0.494917 3.43149 0
M  V30 8661 C 846.179 1.60527 3.98158 0
M  V30 8662 C 845.412 1.17115 5.20692 0
M  V30 8663 O 845.635 0.0355937 5.70389 0
M  V30 8664 O 844.569 1.97454 5.68591 0
M  V30 8665 H 848.395 1.88651 2.38001 0
M  V30 8666 H 845.98 0.978635 1.12885 0
M  V30 8667 H 847.862 0.249492 4.20661 0
M  V30 8668 H 846.537 -0.412434 3.21062 0
M  V30 8669 H 845.444 1.90487 3.21971 0
M  V30 8670 H 846.777 2.48925 4.24614 0
M  V30 8671 N 848.429 -1.21819 0.999893 0
M  V30 8672 C 849.392 -2.22227 0.561044 0
M  V30 8673 C 850.392 -1.56722 -0.359858 0
M  V30 8674 O 851.582 -1.73546 -0.150848 0
M  V30 8675 C 848.714 -3.40409 -0.182987 0
M  V30 8676 H 849.907 -2.62567 1.44909 0
M  V30 8677 H 847.46 -1.34991 0.78785 0
M  V30 8678 H 848.195 -3.05551 -1.08671 0
M  V30 8679 H 847.98 -3.89171 0.47833 0
M  V30 8680 H 849.47 -4.14856 -0.477952 0
M  V30 8681 N 849.908 -0.773975 -1.37286 0
M  V30 8682 C 851.154 -0.339809 -1.99933 0
M  V30 8683 C 851.487 1.0815 -1.61299 0
M  V30 8684 O 850.762 1.74442 -0.860252 0
M  V30 8685 C 851.045 -0.485919 -3.56806 0
M  V30 8686 C 850.898 -1.9498 -4.05343 0
M  V30 8687 C 852.217 0.108461 -4.39966 0
M  V30 8688 H 849.336 -0.124944 -0.726332 0
M  V30 8689 H 851.978 -0.977433 -1.6293 0
M  V30 8690 H 850.128 0.0569023 -3.88458 0
M  V30 8691 H 851.8 -2.5525 -3.84246 0
M  V30 8692 H 850.043 -2.45784 -3.57453 0
M  V30 8693 H 850.714 -2.00308 -5.14374 0
M  V30 8694 H 853.19 -0.354722 -4.14585 0
M  V30 8695 H 852.066 -0.0238926 -5.48895 0
M  V30 8696 H 852.327 1.19901 -4.25531 0
M  V30 8697 N 851.386 1.48609 -0.524698 0
M  V30 8698 C 852.296 2.33318 0.244923 0
M  V30 8699 C 853.312 1.46153 0.944214 0
M  V30 8700 O 854.488 1.79141 0.920347 0
M  V30 8701 C 851.553 3.22149 1.28144 0
M  V30 8702 C 850.614 4.25184 0.593068 0
M  V30 8703 C 849.847 5.0977 1.5802 0
M  V30 8704 O 850.07 4.96249 2.81235 0
M  V30 8705 O 849.004 5.9134 1.1225 0
M  V30 8706 H 852.83 3.00362 -0.449066 0
M  V30 8707 H 850.415 1.46643 -0.285689 0
M  V30 8708 H 852.297 3.77111 1.88057 0
M  V30 8709 H 850.972 2.57772 1.95793 0
M  V30 8710 H 849.879 3.74071 -0.0464214 0
M  V30 8711 H 851.212 4.92183 -0.0413893 0
M  V30 8712 N 852.864 0.259585 1.55447 0
M  V30 8713 C 853.812 -0.6507 2.23313 0
M  V30 8714 C 854.806 -1.17014 1.22491 0
M  V30 8715 O 856.012 -1.12557 1.40467 0
M  V30 8716 H 852.387 -0.228354 0.71649 0
M  V30 8717 H 854.358 -0.0553039 2.98349 0
M  V30 8718 C 853.107 -1.83081 2.95596 0
M  V30 8719 H 852.43 -1.44027 3.72956 0
M  V30 8720 H 853.87 -2.44469 3.46426 0
M  V30 8721 C 852.329 -2.70976 2.00184 0
M  V30 8722 O 852.859 -3.70882 1.54304 0
M  V30 8723 N 851.065 -2.37813 1.67014 0
M  V30 8724 H 850.612 -1.5662 2.04519 0
M  V30 8725 H 850.57 -2.96896 1.03443 0
M  V30 8726 N 854.342 -1.57594 -0.0133615 0
M  V30 8727 C 855.305 -2.06534 -0.993799 0
M  V30 8728 C 856.305 -0.972267 -1.28077 0
M  V30 8729 O 857.495 -1.23537 -1.22818 0
M  V30 8730 C 854.627 -2.49554 -2.3224 0
M  V30 8731 H 855.82 -2.94419 -0.570741 0
M  V30 8732 H 853.373 -1.54113 -0.260546 0
M  V30 8733 H 854.108 -1.64872 -2.79263 0
M  V30 8734 H 853.893 -3.29371 -2.12737 0
M  V30 8735 H 855.383 -2.8779 -3.026 0
M  V30 8736 N 855.82 0.285905 -1.54985 0
M  V30 8737 C 857.066 1.02071 -1.75241 0
M  V30 8738 C 857.399 1.864 -0.544842 0
M  V30 8739 O 856.674 1.89034 0.457844 0
M  V30 8740 C 856.957 1.91409 -3.05016 0
M  V30 8741 C 856.81 1.10158 -4.36102 0
M  V30 8742 C 858.129 2.90335 -3.30747 0
M  V30 8743 H 855.248 0.369663 -0.637588 0
M  V30 8744 H 857.89 0.294114 -1.8771 0
M  V30 8745 H 856.04 2.53362 -2.94517 0
M  V30 8746 H 857.712 0.503756 -4.58541 0
M  V30 8747 H 855.955 0.404675 -4.31908 0
M  V30 8748 H 856.626 1.75956 -5.23205 0
M  V30 8749 H 859.102 2.38514 -3.40955 0
M  V30 8750 H 857.978 3.49997 -4.2284 0
M  V30 8751 H 858.239 3.64787 -2.49765 0
M  V30 8752 N 857.298 1.47698 0.54982 0
M  V30 8753 C 858.261 1.60282 1.63837 0
M  V30 8754 C 859.261 0.477394 1.5355 0
M  V30 8755 O 860.451 0.742665 1.57576 0
M  V30 8756 C 857.583 1.55431 3.03404 0
M  V30 8757 H 858.776 2.57325 1.54026 0
M  V30 8758 H 856.329 1.35999 0.770329 0
M  V30 8759 H 857.064 0.597912 3.1874 0
M  V30 8760 H 856.849 2.37116 3.12279 0
M  V30 8761 H 858.339 1.6739 3.82584 0
M  V30 8762 N 858.776 -0.797141 1.35954 0
M  V30 8763 C 860.192 -1.09408 1.16198 0
M  V30 8764 C 860.392 -2.01491 -0.0191682 0
M  V30 8765 O 859.448 -2.42977 -0.686902 0
M  V30 8766 C 860.761 -1.71597 2.46931 0
M  V30 8767 C 862.309 -1.83974 2.53224 0
M  V30 8768 C 862.784 -2.49579 3.84024 0
M  V30 8769 N 864.275 -2.57055 3.85327 0
M  V30 8770 C 865.01 -3.08608 4.83268 0
M  V30 8771 N 864.506 -3.60527 5.91601 0
M  V30 8772 N 866.299 -3.07249 4.70696 0
M  V30 8773 H 858.45 -0.185209 2.11591 0
M  V30 8774 H 860.713 -0.144768 0.936881 0
M  V30 8775 H 860.419 -1.11404 3.3359 0
M  V30 8776 H 860.293 -2.71193 2.62172 0
M  V30 8777 H 862.68 -2.43308 1.66988 0
M  V30 8778 H 862.761 -0.83207 2.41889 0
M  V30 8779 H 862.405 -1.90892 4.70662 0
M  V30 8780 H 862.335 -3.50902 3.92651 0
M  V30 8781 H 864.826 -2.20283 3.07057 0
M  V30 8782 H 865.139 -3.98192 6.62317 0
M  V30 8783 H 863.484 -3.587 5.95281 0
M  V30 8784 H 866.675 -2.65972 3.85197 0
M  V30 8785 H 866.848 -3.47119 5.47186 0
M  V30 8786 N 860.254 -1.20106 -1.0204 0
M  V30 8787 C 861.5 -1.01039 -1.75838 0
M  V30 8788 C 861.833 0.456819 -1.88751 0
M  V30 8789 O 861.108 1.33919 -1.41053 0
M  V30 8790 C 861.391 -1.69009 -3.17975 0
M  V30 8791 C 861.244 -3.2315 -3.1288 0
M  V30 8792 C 862.563 -1.42005 -4.16561 0
M  V30 8793 H 859.682 -0.368465 -0.638281 0
M  V30 8794 H 862.324 -1.48066 -1.19064 0
M  V30 8795 H 860.474 -1.29026 -3.66449 0
M  V30 8796 H 862.146 -3.72402 -2.72239 0
M  V30 8797 H 860.389 -3.54253 -2.50374 0
M  V30 8798 H 861.06 -3.65862 -4.13339 0
M  V30 8799 H 863.536 -1.76685 -3.76725 0
M  V30 8800 H 862.412 -1.92101 -5.14187 0
M  V30 8801 H 862.673 -0.346884 -4.40737 0
M  V30 8802 N 861.732 1.21287 -1.00634 0
M  V30 8803 C 862.695 2.21927 -0.572821 0
M  V30 8804 C 863.695 1.5691 0.351541 0
M  V30 8805 O 864.885 1.73623 0.141643 0
M  V30 8806 C 862.017 3.40501 0.164932 0
M  V30 8807 H 863.21 2.61795 -1.463 0
M  V30 8808 H 860.763 1.34571 -0.794998 0
M  V30 8809 H 861.498 3.06123 1.07049 0
M  V30 8810 H 861.283 3.88912 -0.498962 0
M  V30 8811 H 862.773 4.15103 0.455945 0
M  V30 8812 N 863.21 0.781244 1.36873 0
M  V30 8813 C 864.487 0.274217 1.93668 0
M  V30 8814 C 864.867 -1.2323 1.71399 0
M  V30 8815 O 864.215 -2.01993 1.06822 0
M  V30 8816 C 864.425 0.657939 3.42742 0
M  V30 8817 C 865.773 0.63307 4.19854 0
M  V30 8818 O 866.797 0.597909 3.51146 0
M  V30 8819 O 865.656 0.668636 5.42394 0
M  V30 8820 H 862.75 0.0658059 0.824378 0
M  V30 8821 H 865.296 0.863238 1.46104 0
M  V30 8822 H 864.068 1.69728 3.52573 0
M  V30 8823 H 863.691 0.0423678 3.97577 0
M  V30 8824 N 864.689 -1.48329 0.532571 0
M  V30 8825 C 865.917 -2.069 0.00354299 0
M  V30 8826 C 866.332 -1.38876 -1.27902 0
M  V30 8827 O 865.689 -0.477119 -1.76153 0
M  V30 8828 C 865.74 -3.60821 -0.221416 0
M  V30 8829 O 865.461 -4.26291 1.01034 0
M  V30 8830 C 866.962 -4.36194 -0.790531 0
M  V30 8831 H 864.182 -0.670103 0.0346836 0
M  V30 8832 H 866.726 -1.90682 0.738955 0
M  V30 8833 H 864.881 -3.76636 -0.906884 0
M  V30 8834 H 865.295 -5.18475 0.792683 0
M  V30 8835 H 866.769 -5.44657 -0.897347 0
M  V30 8836 H 867.246 -4.00798 -1.79605 0
M  V30 8837 H 867.852 -4.25064 -0.141546 0
M  V30 8838 N 866.167 -0.267825 -1.55308 0
M  V30 8839 C 867.416 0.351635 -1.98611 0
M  V30 8840 C 867.729 1.57522 -1.15957 0
M  V30 8841 O 868.935 2.26717 -1.49371 0
M  V30 8842 C 867.391 0.676986 -3.53475 0
M  V30 8843 C 866.999 -0.526385 -4.44897 0
M  V30 8844 C 868.743 1.25948 -4.05386 0
M  V30 8845 C 866.65 -0.176026 -5.91138 0
M  V30 8846 H 865.58 0.13516 -0.741787 0
M  V30 8847 H 868.231 -0.371333 -1.79704 0
M  V30 8848 H 866.613 1.45866 -3.68156 0
M  V30 8849 H 867.787 -1.30339 -4.41982 0
M  V30 8850 H 866.102 -1.02522 -4.03582 0
M  V30 8851 H 868.699 1.53529 -5.12184 0
M  V30 8852 H 869.042 2.19094 -3.53982 0
M  V30 8853 H 869.575 0.540253 -3.94114 0
M  V30 8854 H 866.314 -1.07518 -6.46622 0
M  V30 8855 H 865.834 0.564363 -5.97139 0
M  V30 8856 H 867.513 0.234365 -6.46575 0
M  V30 8857 N 867.645 1.57599 0.00500368 0
M  V30 8858 C 868.893 1.89973 0.68953 0
M  V30 8859 C 869.214 0.868531 1.7459 0
M  V30 8860 O 868.484 -0.0947367 1.95671 0
M  V30 8861 H 867.064 0.701153 0.25767 0
M  V30 8862 H 869.726 1.94869 -0.0347392 0
M  V30 8863 H 868.822 2.89584 1.16394 0
M  V30 8864 N 869.123 -0.277682 1.55134 0
M  V30 8865 C 870.348 -1.03254 1.7987 0
M  V30 8866 C 870.773 -1.79324 0.567861 0
M  V30 8867 O 870.131 -1.74764 -0.4824 0
M  V30 8868 C 870.179 -1.9705 3.02 0
M  V30 8869 O 869.283 -3.05744 2.76757 0
M  V30 8870 H 868.624 -0.295447 0.594649 0
M  V30 8871 H 871.154 -0.308013 2.02268 0
M  V30 8872 H 871.164 -2.3909 3.30606 0
M  V30 8873 H 869.839 -1.41094 3.91236 0
M  V30 8874 H 868.416 -2.68052 2.59235 0
M  V30 8875 N 870.601 -1.47988 -0.541979 0
M  V30 8876 C 871.849 -1.55086 -1.29587 0
M  V30 8877 C 872.17 -0.221304 -1.9374 0
M  V30 8878 O 871.44 0.756128 -1.80719 0
M  V30 8879 H 870.02 -0.571307 -0.481266 0
M  V30 8880 H 872.682 -1.8438 -0.631675 0
M  V30 8881 H 871.778 -2.32556 -2.08144 0
M  V30 8882 N 872.079 0.78992 -1.36375 0
M  V30 8883 C 873.49 1.36506 -1.2737 0
M  V30 8884 C 873.841 1.96008 0.086711 0
M  V30 8885 O 872.966 1.92521 0.988159 0
M  V30 8886 C 873.561 2.48175 -2.30639 0
M  V30 8887 C 872.12 3.01506 -2.25325 0
M  V30 8888 C 871.267 1.74581 -2.15445 0
M  V30 8889 H 874.218 0.591606 -1.47261 0
M  V30 8890 H 874.239 3.27179 -1.94253 0
M  V30 8891 H 873.751 2.04838 -3.2964 0
M  V30 8892 H 871.852 3.49265 -1.29788 0
M  V30 8893 H 871.965 3.58355 -3.17992 0
M  V30 8894 H 870.329 1.96794 -1.61692 0
M  V30 8895 H 871.112 1.33373 -3.16333 0
M  V30 8896 N 873.557 1.20646 1.01402 0
M  V30 8897 C 874.782 1.04462 1.79172 0
M  V30 8898 C 875.207 -0.401588 1.83763 0
M  V30 8899 O 874.565 -1.28934 1.27459 0
M  V30 8900 C 874.613 1.63583 3.21361 0
M  V30 8901 O 873.717 0.875198 4.03006 0
M  V30 8902 H 873.058 0.368235 0.552539 0
M  V30 8903 H 875.588 1.59994 1.27526 0
M  V30 8904 H 875.598 1.67426 3.72065 0
M  V30 8905 H 874.273 2.68835 3.17334 0
M  V30 8906 H 872.85 0.911172 3.61597 0
M  V30 8907 N 875.035 -1.20752 1.01276 0
M  V30 8908 C 875.983 -2.25432 0.572989 0
M  V30 8909 C 876.977 -1.64935 -0.386354 0
M  V30 8910 O 878.183 -1.7816 -0.256696 0
M  V30 8911 H 874.558 -0.733229 0.166972 0
M  V30 8912 H 876.529 -2.59856 1.46687 0
M  V30 8913 C 875.278 -3.47615 -0.0768249 0
M  V30 8914 H 874.601 -3.94442 0.652354 0
M  V30 8915 H 876.041 -4.22572 -0.3477 0
M  V30 8916 C 874.5 -3.1003 -1.31845 0
M  V30 8917 O 875.03 -3.21216 -2.41211 0
M  V30 8918 N 873.236 -2.64616 -1.20111 0
M  V30 8919 H 872.783 -2.55714 -0.311184 0
M  V30 8920 H 872.741 -2.39838 -2.03286 0
M  V30 8921 N 876.513 -0.788492 -1.36457 0
M  V30 8922 C 877.738 -0.371224 -2.04051 0
M  V30 8923 C 878.163 1.004 -1.59064 0
M  V30 8924 O 877.521 1.64663 -0.758679 0
M  V30 8925 C 877.569 -0.442275 -3.57877 0
M  V30 8926 O 876.673 0.55113 -4.08701 0
M  V30 8927 H 876.014 -0.157808 -0.644975 0
M  V30 8928 H 878.544 -1.06935 -1.74431 0
M  V30 8929 H 878.554 -0.305548 -4.06854 0
M  V30 8930 H 877.229 -1.44547 -3.89973 0
M  V30 8931 H 875.806 0.37614 -3.70998 0
M  V30 8932 N 877.991 1.48044 -0.54043 0
M  V30 8933 C 878.923 2.2779 0.253854 0
M  V30 8934 C 879.936 1.35999 0.894883 0
M  V30 8935 O 881.125 1.60963 0.771563 0
M  V30 8936 C 878.225 3.09724 1.37566 0
M  V30 8937 C 877.398 4.29364 0.83459 0
M  V30 8938 C 876.457 4.93026 1.83881 0
M  V30 8939 O 875.483 5.51927 1.39159 0
M  V30 8940 N 876.685 4.86207 3.17149 0
M  V30 8941 H 879.45 2.96597 -0.430125 0
M  V30 8942 H 877.011 1.57487 -0.375423 0
M  V30 8943 H 879.003 3.49181 2.04584 0
M  V30 8944 H 877.573 2.43269 1.96314 0
M  V30 8945 H 876.793 3.94198 -0.0118878 0
M  V30 8946 H 878.081 5.06787 0.452155 0
M  V30 8947 H 877.479 4.39523 3.56141 0
M  V30 8948 H 876.036 5.29733 3.79771 0
M  V30 8949 N 879.47 0.276058 1.55163 0
M  V30 8950 C 880.433 -0.597924 2.21263 0
M  V30 8951 C 881.433 -1.0806 1.19078 0
M  V30 8952 O 882.623 -0.980626 1.43977 0
M  V30 8953 C 879.755 -1.82503 2.87933 0
M  V30 8954 H 880.948 -0.0207769 2.99893 0
M  V30 8955 H 878.501 0.0266823 1.56277 0
M  V30 8956 H 879.236 -2.44266 2.13318 0
M  V30 8957 H 879.021 -1.48683 3.62816 0
M  V30 8958 H 880.511 -2.44651 3.38431 0
M  V30 8959 N 880.948 -1.576 0.00335426 0
M  V30 8960 C 882.194 -1.90996 -0.681799 0
M  V30 8961 C 882.527 -0.877643 -1.73237 0
M  V30 8962 O 881.802 0.103183 -1.94226 0
M  V30 8963 C 882.085 -3.34961 -1.32187 0
M  V30 8964 C 881.938 -4.48911 -0.28261 0
M  V30 8965 C 883.257 -3.78408 -2.24711 0
M  V30 8966 H 880.376 -0.694596 -0.246386 0
M  V30 8967 H 883.018 -1.89919 0.055336 0
M  V30 8968 H 881.168 -3.36008 -1.95014 0
M  V30 8969 H 882.84 -4.59999 0.346241 0
M  V30 8970 H 881.083 -4.32 0.394768 0
M  V30 8971 H 881.754 -5.46609 -0.769576 0
M  V30 8972 H 884.23 -3.78934 -1.71897 0
M  V30 8973 H 883.106 -4.79885 -2.66461 0
M  V30 8974 H 883.367 -3.12464 -3.1276 0
M  V30 8975 N 882.426 0.269451 -1.5528 0
M  V30 8976 C 883.837 0.840233 -1.66724 0
M  V30 8977 C 884.188 1.86909 -0.596621 0
M  V30 8978 O 883.313 2.14817 0.261246 0
M  V30 8979 C 883.908 1.5308 -3.02245 0
M  V30 8980 C 882.467 2.04957 -3.15705 0
M  V30 8981 C 881.614 0.892838 -2.62533 0
M  V30 8982 H 884.565 0.0457236 -1.58634 0
M  V30 8983 H 884.586 2.39792 -2.95432 0
M  V30 8984 H 884.098 0.781741 -3.80145 0
M  V30 8985 H 882.199 2.82813 -2.42585 0
M  V30 8986 H 882.312 2.26244 -4.22316 0
M  V30 8987 H 880.676 1.28719 -2.19781 0
M  V30 8988 H 881.459 0.157229 -3.4294 0
M  V30 8989 N 883.904 1.48273 0.534124 0
M  V30 8990 C 884.867 1.6201 1.62127 0
M  V30 8991 C 885.867 0.493653 1.53035 0
M  V30 8992 O 887.057 0.759337 1.56779 0
M  V30 8993 C 884.189 1.5864 3.01739 0
M  V30 8994 H 885.382 2.58944 1.51288 0
M  V30 8995 H 882.935 1.36808 0.755861 0
M  V30 8996 H 883.67 0.631685 3.18088 0
M  V30 8997 H 883.455 2.40415 3.09747 0
M  V30 8998 H 884.945 1.71438 3.80787 0
M  V30 8999 N 885.382 -0.782676 1.36792 0
M  V30 9000 C 886.312 -1.90973 1.34356 0
M  V30 9001 C 887.293 -1.6875 0.213917 0
M  V30 9002 O 888.478 -1.89766 0.412601 0
M  V30 9003 C 885.608 -3.28097 1.13884 0
M  V30 9004 C 884.562 -3.6486 2.23744 0
M  V30 9005 C 883.888 -5.00406 1.88408 0
M  V30 9006 C 885.188 -3.72742 3.6587 0
M  V30 9007 H 886.882 -1.93268 2.28665 0
M  V30 9008 H 884.428 -0.928447 1.10072 0
M  V30 9009 H 886.381 -4.06569 1.10813 0
M  V30 9010 H 885.105 -3.26206 0.160275 0
M  V30 9011 H 883.764 -2.88689 2.25952 0
M  V30 9012 H 883.412 -4.95044 0.891083 0
M  V30 9013 H 883.112 -5.25973 2.61966 0
M  V30 9014 H 884.636 -5.81291 1.86905 0
M  V30 9015 H 886.05 -4.4139 3.65852 0
M  V30 9016 H 884.447 -4.09798 4.38389 0
M  V30 9017 H 885.517 -2.73676 4.00287 0
M  V30 9018 N 886.86 -1.21182 -1.00761 0
M  V30 9019 C 888.088 -1.05335 -1.78079 0
M  V30 9020 C 888.503 0.396988 -1.84579 0
M  V30 9021 O 887.86 1.27548 -1.30529 0
M  V30 9022 C 887.911 -1.64089 -3.22113 0
M  V30 9023 O 887.632 -3.03448 -3.15992 0
M  V30 9024 C 889.133 -1.53318 -4.15943 0
M  V30 9025 H 886.353 -0.37005 -0.559736 0
M  V30 9026 H 888.897 -1.60463 -1.26775 0
M  V30 9027 H 887.052 -1.13059 -3.70535 0
M  V30 9028 H 887.466 -3.31492 -4.06465 0
M  V30 9029 H 888.94 -1.99174 -5.14814 0
M  V30 9030 H 889.417 -0.487166 -4.3649 0
M  V30 9031 H 890.023 -2.03582 -3.73409 0
M  V30 9032 N 888.338 1.20213 -1.01915 0
M  V30 9033 C 889.301 2.21307 -0.596327 0
M  V30 9034 C 890.301 1.57274 0.334879 0
M  V30 9035 O 891.491 1.73764 0.12322 0
M  V30 9036 C 888.623 3.40657 0.128808 0
M  V30 9037 H 889.816 2.60228 -1.49068 0
M  V30 9038 H 887.369 1.33721 -0.809226 0
M  V30 9039 H 888.104 3.07241 1.03796 0
M  V30 9040 H 887.889 3.88361 -0.540183 0
M  V30 9041 H 889.379 4.15564 0.411892 0
M  V30 9042 N 889.816 0.795718 1.36037 0
M  V30 9043 C 891.062 0.371574 1.99367 0
M  V30 9044 C 891.395 -1.0557 1.62999 0
M  V30 9045 O 890.67 -1.73051 0.887895 0
M  V30 9046 C 890.953 0.542622 3.55988 0
M  V30 9047 C 890.806 2.01404 4.0219 0
M  V30 9048 C 892.125 -0.0384527 4.40083 0
M  V30 9049 H 889.244 0.136483 0.724252 0
M  V30 9050 H 891.886 1.00323 1.61355 0
M  V30 9051 H 890.036 0.0049053 3.885 0
M  V30 9052 H 891.708 2.6133 3.80137 0
M  V30 9053 H 889.951 2.51439 3.53498 0
M  V30 9054 H 890.622 2.08466 5.11122 0
M  V30 9055 H 893.098 0.420634 4.13968 0
M  V30 9056 H 891.974 0.111214 5.48787 0
M  V30 9057 H 892.235 -1.13116 4.27384 0
M  V30 9058 N 891.294 -1.47756 0.548274 0
M  V30 9059 C 892.204 -2.33678 -0.207773 0
M  V30 9060 C 893.22 -1.47636 -0.920843 0
M  V30 9061 O 894.396 -1.80583 -0.89173 0
M  V30 9062 C 891.461 -3.24147 -1.23003 0
M  V30 9063 C 890.522 -4.26073 -0.52535 0
M  V30 9064 C 889.755 -5.12219 -1.4989 0
M  V30 9065 O 889.978 -5.0066 -2.73305 0
M  V30 9066 O 888.912 -5.93051 -1.02828 0
M  V30 9067 H 892.738 -2.99609 0.496794 0
M  V30 9068 H 890.323 -1.4617 0.308982 0
M  V30 9069 H 892.205 -3.80055 -1.82034 0
M  V30 9070 H 890.88 -2.60855 -1.91668 0
M  V30 9071 H 889.787 -3.7395 0.105927 0
M  V30 9072 H 891.12 -4.92054 0.119686 0
M  V30 9073 N 892.772 -0.284283 -1.55015 0
M  V30 9074 C 894 0.332948 -2.04203 0
M  V30 9075 C 894.415 1.48783 -1.16229 0
M  V30 9076 O 893.772 1.81567 -0.184323 0
M  V30 9077 C 893.823 0.805207 -3.52418 0
M  V30 9078 O 893.544 -0.303689 -4.37046 0
M  V30 9079 C 895.045 1.48931 -4.17534 0
M  V30 9080 H 892.265 0.0747447 -0.666824 0
M  V30 9081 H 894.809 -0.419048 -2.00161 0
M  V30 9082 H 892.964 1.50727 -3.56876 0
M  V30 9083 H 893.378 0.0609703 -5.24465 0
M  V30 9084 H 894.852 1.77108 -5.22816 0
M  V30 9085 H 895.329 2.42389 -3.66257 0
M  V30 9086 H 895.935 0.830867 -4.17105 0
M  V30 9087 N 894.251 1.57596 -0.0117121 0
M  V30 9088 C 895.499 1.90694 0.669342 0
M  V30 9089 C 895.82 0.886999 1.73659 0
M  V30 9090 O 895.09 -0.0739779 1.9576 0
M  V30 9091 H 893.67 0.703846 0.250219 0
M  V30 9092 H 896.332 1.94821 -0.0554057 0
M  V30 9093 H 895.428 2.90802 1.13316 0
M  V30 9094 N 895.729 -0.261212 1.5542 0
M  V30 9095 C 896.679 -1.32571 1.85496 0
M  V30 9096 C 897.663 -1.44155 0.714722 0
M  V30 9097 O 898.855 -1.47637 0.976336 0
M  V30 9098 C 895.984 -2.68384 2.14067 0
M  V30 9099 C 895.07 -2.60864 3.34381 0
M  V30 9100 N 895.461 -2.22967 4.54004 0
M  V30 9101 C 893.759 -2.91904 3.37206 0
M  V30 9102 C 894.46 -2.25727 5.36118 0
M  V30 9103 N 893.436 -2.64667 4.74818 0
M  V30 9104 H 897.238 -1.02298 2.75522 0
M  V30 9105 H 894.752 -0.469849 1.55455 0
M  V30 9106 H 896.749 -3.45189 2.33774 0
M  V30 9107 H 895.409 -2.99536 1.25332 0
M  V30 9108 H 896.42 -1.94748 4.79889 0
M  V30 9109 H 893.097 -3.2769 2.587 0
M  V30 9110 H 894.487 -1.98889 6.41789 0
M  V30 9111 N 897.207 -1.48554 -0.526253 0
M  V30 9112 C 898.435 -1.60429 -1.30652 0
M  V30 9113 C 898.85 -0.265963 -1.86917 0
M  V30 9114 O 898.207 0.745262 -1.6659 0
M  V30 9115 C 898.258 -2.65377 -2.45473 0
M  V30 9116 O 897.979 -3.94017 -1.91527 0
M  V30 9117 C 899.48 -2.87726 -3.37237 0
M  V30 9118 H 896.7 -0.540817 -0.397187 0
M  V30 9119 H 899.244 -1.94409 -0.634461 0
M  V30 9120 H 897.399 -2.34246 -3.08557 0
M  V30 9121 H 897.813 -4.51623 -2.66715 0
M  V30 9122 H 899.287 -3.64951 -4.14144 0
M  V30 9123 H 899.764 -1.96688 -3.92696 0
M  V30 9124 H 900.37 -3.20176 -2.79942 0
M  V30 9125 N 898.685 0.775411 -1.37205 0
M  V30 9126 C 899.91 1.5696 -1.35567 0
M  V30 9127 C 900.335 1.88012 0.0575554 0
M  V30 9128 O 899.693 1.48954 1.03355 0
M  V30 9129 C 899.741 2.85886 -2.19776 0
M  V30 9130 O 898.845 3.80103 -1.59987 0
M  V30 9131 H 898.186 0.475583 -0.463375 0
M  V30 9132 H 900.716 0.96001 -1.80679 0
M  V30 9133 H 900.726 3.35024 -2.32859 0
M  V30 9134 H 899.401 2.62613 -3.22502 0
M  V30 9135 H 897.978 3.38736 -1.55924 0
M  V30 9136 N 900.163 1.21714 1.00117 0
M  V30 9137 C 901.095 0.937627 2.09144 0
M  V30 9138 C 902.108 -0.0806291 1.626 0
M  V30 9139 O 903.297 0.152348 1.77849 0
M  V30 9140 C 900.397 0.387036 3.36683 0
M  V30 9141 C 899.57 1.46054 4.12295 0
M  V30 9142 C 898.629 0.918505 5.18122 0
M  V30 9143 O 897.655 1.60282 5.46167 0
M  V30 9144 N 898.857 -0.264308 5.79898 0
M  V30 9145 H 901.622 1.87622 2.33705 0
M  V30 9146 H 899.183 1.12291 1.16629 0
M  V30 9147 H 901.175 0.00992825 4.04699 0
M  V30 9148 H 899.745 -0.456467 3.09249 0
M  V30 9149 H 898.965 2.01133 3.39027 0
M  V30 9150 H 900.253 2.18306 4.59587 0
M  V30 9151 H 899.651 -0.837242 5.5947 0
M  V30 9152 H 898.208 -0.582886 6.49188 0
M  V30 9153 N 901.641 -1.19671 1.02551 0
M  V30 9154 C 902.887 -1.89548 0.721069 0
M  V30 9155 C 903.22 -1.79209 -0.748176 0
M  V30 9156 O 902.495 -1.1822 -1.54448 0
M  V30 9157 C 902.778 -3.4061 1.16861 0
M  V30 9158 C 902.631 -3.59838 2.69883 0
M  V30 9159 C 903.95 -4.33718 0.746782 0
M  V30 9160 H 901.069 -0.688315 0.263422 0
M  V30 9161 H 903.711 -1.40883 1.27483 0
M  V30 9162 H 901.861 -3.82188 0.697477 0
M  V30 9163 H 903.533 -3.27454 3.24917 0
M  V30 9164 H 901.776 -3.03005 3.10435 0
M  V30 9165 H 902.447 -4.65766 2.96253 0
M  V30 9166 H 904.923 -3.99837 1.15195 0
M  V30 9167 H 903.799 -5.38012 1.08786 0
M  V30 9168 H 904.06 -4.40704 -0.351057 0
M  V30 9169 N 903.119 -0.802921 -1.35613 0
M  V30 9170 C 904.347 -0.39393 -2.03115 0
M  V30 9171 C 904.762 0.993961 -1.60517 0
M  V30 9172 O 904.119 1.63984 -0.800973 0
M  V30 9173 C 904.17 -0.463486 -3.58516 0
M  V30 9174 O 903.891 -1.79666 -3.99565 0
M  V30 9175 C 905.392 -0.0468377 -4.43275 0
M  V30 9176 H 902.612 -0.160519 -0.651517 0
M  V30 9177 H 905.156 -1.08552 -1.73311 0
M  V30 9178 H 903.311 0.179821 -3.86982 0
M  V30 9179 H 903.725 -1.75688 -4.942 0
M  V30 9180 H 905.199 -0.146626 -5.51805 0
M  V30 9181 H 905.676 1.00741 -4.2749 0
M  V30 9182 H 906.282 -0.663158 -4.20098 0
M  V30 9183 N 904.597 1.47463 -0.556102 0
M  V30 9184 C 906.008 1.86298 -0.122429 0
M  V30 9185 C 906.359 1.46285 1.30749 0
M  V30 9186 O 905.484 0.865405 1.98342 0
M  V30 9187 C 906.079 3.38115 -0.215407 0
M  V30 9188 C 904.638 3.76046 0.163223 0
M  V30 9189 C 903.785 2.71515 -0.563466 0
M  V30 9190 H 906.736 1.38996 -0.765888 0
M  V30 9191 H 906.757 3.76263 0.566271 0
M  V30 9192 H 906.269 3.67207 -1.25622 0
M  V30 9193 H 904.37 3.5257 1.20519 0
M  V30 9194 H 904.483 4.78705 -0.194568 0
M  V30 9195 H 902.847 2.54699 -0.00667879 0
M  V30 9196 H 903.63 3.03449 -1.60542 0
M  V30 9197 N 906.075 0.2925 1.54862 0
M  V30 9198 C 907.3 -0.32494 2.04839 0
M  V30 9199 C 907.725 -1.47381 1.16877 0
M  V30 9200 O 907.083 -1.80492 0.171028 0
M  V30 9201 C 907.131 -0.76694 3.5235 0
M  V30 9202 O 906.235 -1.87256 3.67436 0
M  V30 9203 H 905.576 -0.0645195 0.660858 0
M  V30 9204 H 908.106 0.431867 1.9999 0
M  V30 9205 H 908.116 -1.05804 3.94043 0
M  V30 9206 H 906.791 0.0735212 4.15835 0
M  V30 9207 H 905.368 -1.58266 3.37648 0
M  V30 9208 N 907.553 -1.57587 0.0200696 0
M  V30 9209 C 908.83 -1.82696 -0.698677 0
M  V30 9210 C 909.21 -0.902082 -1.90855 0
M  V30 9211 O 908.558 0.0444834 -2.28457 0
M  V30 9212 C 908.768 -3.31691 -1.08546 0
M  V30 9213 C 910.116 -3.97938 -1.4809 0
M  V30 9214 O 911.14 -3.36133 -1.17869 0
M  V30 9215 O 909.999 -5.06851 -2.04364 0
M  V30 9216 H 907.093 -0.752997 -0.341942 0
M  V30 9217 H 909.639 -1.69635 0.04706 0
M  V30 9218 H 908.411 -3.90659 -0.223956 0
M  V30 9219 H 908.034 -3.49825 -1.88965 0
M  V30 9220 N 909.032 0.252966 -1.55557 0
M  V30 9221 C 910.26 0.999565 -1.81153 0
M  V30 9222 C 910.675 1.79181 -0.594955 0
M  V30 9223 O 910.032 1.77208 0.436311 0
M  V30 9224 C 910.083 1.94227 -3.04891 0
M  V30 9225 O 909.804 1.18209 -4.21851 0
M  V30 9226 C 911.305 2.80536 -3.43241 0
M  V30 9227 H 908.525 0.294402 -0.602966 0
M  V30 9228 H 911.069 0.277686 -2.02606 0
M  V30 9229 H 909.224 2.6185 -2.85505 0
M  V30 9230 H 909.638 1.81922 -4.9194 0
M  V30 9231 H 911.112 3.42442 -4.32941 0
M  V30 9232 H 911.589 3.51337 -2.6355 0
M  V30 9233 H 912.195 2.18373 -3.64956 0
M  V30 9234 N 910.51 1.48831 0.518367 0
M  V30 9235 C 911.443 1.588 1.63884 0
M  V30 9236 C 912.421 0.437847 1.56594 0
M  V30 9237 O 913.605 0.651042 1.769 0
M  V30 9238 C 910.732 1.52681 3.02335 0
M  V30 9239 C 909.778 2.7268 3.27945 0
M  V30 9240 S 910.611 4.34536 3.12951 0
M  V30 9241 C 911.767 4.31034 4.53828 0
M  V30 9242 H 912 2.53587 1.5518 0
M  V30 9243 H 909.533 1.37507 0.702218 0
M  V30 9244 H 911.491 1.49837 3.82177 0
M  V30 9245 H 910.152 0.592107 3.08469 0
M  V30 9246 H 909.345 2.64569 4.28974 0
M  V30 9247 H 908.947 2.72847 2.55794 0
M  V30 9248 H 911.239 4.01683 5.45579 0
M  V30 9249 H 912.182 5.32282 4.66991 0
M  V30 9250 H 912.59 3.61343 4.33695 0
M  V30 9251 N 911.988 -0.768124 1.37614 0
M  V30 9252 C 912.92 -1.89076 1.29548 0
M  V30 9253 C 913.933 -1.61433 0.21056 0
M  V30 9254 O 915.122 -1.72283 0.466992 0
M  V30 9255 C 912.222 -3.24388 0.981102 0
M  V30 9256 C 911.395 -3.79649 2.17222 0
M  V30 9257 C 910.454 -4.93444 1.82754 0
M  V30 9258 O 909.48 -5.0884 2.5509 0
M  V30 9259 N 910.682 -5.75319 0.773819 0
M  V30 9260 H 913.447 -1.9651 2.26283 0
M  V30 9261 H 911.008 -0.947399 1.31286 0
M  V30 9262 H 913 -3.98038 0.731301 0
M  V30 9263 H 911.57 -3.12433 0.102203 0
M  V30 9264 H 910.79 -2.97735 2.58355 0
M  V30 9265 H 912.078 -4.13302 2.96748 0
M  V30 9266 H 911.476 -5.65433 0.173644 0
M  V30 9267 H 910.033 -6.4918 0.583882 0
M  V30 9268 N 913.466 -1.22244 -0.994698 0
M  V30 9269 C 914.694 -1.07218 -1.76952 0
M  V30 9270 C 915.109 0.377388 -1.8499 0
M  V30 9271 O 914.466 1.26157 -1.31874 0
M  V30 9272 C 914.517 -1.67496 -3.20355 0
M  V30 9273 O 914.238 -3.06782 -3.12756 0
M  V30 9274 C 915.739 -1.57721 -4.14294 0
M  V30 9275 H 912.959 -0.375966 -0.555779 0
M  V30 9276 H 915.503 -1.61799 -1.25065 0
M  V30 9277 H 913.658 -1.16982 -3.69315 0
M  V30 9278 H 914.072 -3.35784 -4.02926 0
M  V30 9279 H 915.546 -2.04623 -5.12673 0
M  V30 9280 H 916.023 -0.533434 -4.35949 0
M  V30 9281 H 916.629 -2.07531 -3.71229 0
M  V30 9282 N 914.944 1.19125 -1.03184 0
M  V30 9283 C 916.36 1.40909 -0.749447 0
M  V30 9284 C 916.56 1.9022 0.664729 0
M  V30 9285 O 915.616 2.08085 1.43028 0
M  V30 9286 C 916.929 2.41761 -1.78807 0
M  V30 9287 C 918.477 2.55503 -1.80796 0
M  V30 9288 C 918.952 3.59612 -2.83626 0
M  V30 9289 N 920.443 3.6711 -2.82461 0
M  V30 9290 C 921.178 4.47366 -3.5868 0
M  V30 9291 N 920.674 5.31302 -4.44623 0
M  V30 9292 N 922.467 4.42044 -3.47208 0
M  V30 9293 H 914.618 0.854399 -1.94458 0
M  V30 9294 H 916.881 0.437753 -0.840878 0
M  V30 9295 H 916.587 2.12559 -2.80199 0
M  V30 9296 H 916.461 3.40981 -1.61283 0
M  V30 9297 H 918.848 2.84027 -0.800803 0
M  V30 9298 H 918.929 1.56427 -2.02396 0
M  V30 9299 H 918.573 3.3183 -3.84515 0
M  V30 9300 H 918.503 4.58345 -2.59283 0
M  V30 9301 H 920.994 3.07166 -2.2013 0
M  V30 9302 H 921.307 5.89667 -4.99512 0
M  V30 9303 H 919.652 5.30753 -4.48694 0
M  V30 9304 H 922.843 3.75513 -2.79477 0
M  V30 9305 H 923.016 5.0435 -4.06859 0
M  V30 9306 N 916.422 0.810101 1.35185 0
M  V30 9307 C 917.372 0.195541 2.2716 0
M  V30 9308 C 918.356 -0.632691 1.47939 0
M  V30 9309 O 919.548 -0.489372 1.701 0
M  V30 9310 C 916.677 -0.652164 3.37049 0
M  V30 9311 C 915.763 0.185989 4.23692 0
M  V30 9312 N 916.154 1.25073 4.90092 0
M  V30 9313 C 914.452 -0.0318033 4.45989 0
M  V30 9314 C 915.153 1.76272 5.54349 0
M  V30 9315 N 914.129 1.06861 5.32993 0
M  V30 9316 H 917.931 1.01018 2.75994 0
M  V30 9317 H 915.445 0.651612 1.48754 0
M  V30 9318 H 917.442 -1.10851 4.01893 0
M  V30 9319 H 916.102 -1.46511 2.89767 0
M  V30 9320 H 917.113 1.63341 4.91467 0
M  V30 9321 H 913.79 -0.813607 4.09496 0
M  V30 9322 H 915.18 2.65278 6.17315 0
M  V30 9323 N 917.9 -1.47166 0.563914 0
M  V30 9324 C 919.146 -2.02756 0.0424338 0
M  V30 9325 C 919.479 -1.43662 -1.3067 0
M  V30 9326 O 918.754 -0.594676 -1.85186 0
M  V30 9327 C 919.037 -3.60074 -0.0434793 0
M  V30 9328 C 918.89 -4.29587 1.33323 0
M  V30 9329 C 920.209 -4.336 -0.753568 0
M  V30 9330 H 917.328 -0.736806 0.0168946 0
M  V30 9331 H 919.97 -1.75521 0.727496 0
M  V30 9332 H 918.12 -3.83409 -0.626906 0
M  V30 9333 H 919.792 -4.17573 1.96037 0
M  V30 9334 H 918.035 -3.8968 1.9061 0
M  V30 9335 H 918.706 -5.38218 1.22576 0
M  V30 9336 H 921.182 -4.15299 -0.258126 0
M  V30 9337 H 920.058 -5.43291 -0.782659 0
M  V30 9338 H 920.319 -4.03302 -1.81108 0
M  V30 9339 N 919.378 -0.300708 -1.54705 0
M  V30 9340 C 920.325 0.57552 -2.23509 0
M  V30 9341 C 921.295 1.12979 -1.21758 0
M  V30 9342 O 922.48 1.17437 -1.50377 0
M  V30 9343 C 919.62 1.74167 -2.97926 0
M  V30 9344 C 918.733 1.21882 -4.1445 0
M  V30 9345 C 917.868 2.34881 -4.7645 0
M  V30 9346 C 916.907 1.79729 -5.85119 0
M  V30 9347 N 916.044 2.863 -6.41075 0
M  V30 9348 H 920.884 -0.0178257 -2.97995 0
M  V30 9349 H 918.421 -0.0205666 -1.47086 0
M  V30 9350 H 920.379 2.42753 -3.39303 0
M  V30 9351 H 919.009 2.30665 -2.25817 0
M  V30 9352 H 918.061 0.425227 -3.78016 0
M  V30 9353 H 919.373 0.775065 -4.92741 0
M  V30 9354 H 918.527 3.11415 -5.20678 0
M  V30 9355 H 917.266 2.82584 -3.97489 0
M  V30 9356 H 916.271 1.01684 -5.40315 0
M  V30 9357 H 917.496 1.32931 -6.65963 0
M  V30 9358 H 915.442 3.33337 -5.64998 0
M  V30 9359 H 915.359 2.46419 -7.14712 0
M  V30 9360 H 916.627 3.62732 -6.89961 0
M  V30 9361 N 920.856 1.57574 -0.0284266 0
M  V30 9362 C 921.804 2.11332 0.971675 0
M  V30 9363 C 922.798 1.03974 1.33738 0
M  V30 9364 O 924.004 1.22409 1.31969 0
M  V30 9365 H 920.379 0.675174 0.331125 0
M  V30 9366 H 922.35 2.943 0.49296 0
M  V30 9367 C 921.099 2.65496 2.24516 0
M  V30 9368 H 920.422 3.47753 1.9725 0
M  V30 9369 H 921.862 3.06757 2.92705 0
M  V30 9370 C 920.321 1.58207 2.97443 0
M  V30 9371 O 920.851 0.981496 3.89525 0
M  V30 9372 N 919.057 1.30269 2.59766 0
M  V30 9373 H 918.604 1.79294 1.84963 0
M  V30 9374 H 918.562 0.587085 3.0887 0
M  V30 9375 N 922.334 -0.244713 1.55689 0
M  V30 9376 C 923.564 -0.988508 1.81417 0
M  V30 9377 C 923.972 -1.79362 0.602143 0
M  V30 9378 O 923.315 -1.78386 -0.438639 0
M  V30 9379 C 923.377 -1.97287 3.0053 0
M  V30 9380 C 923.041 -1.35448 4.36466 0
M  V30 9381 C 924.038 -0.755874 5.14376 0
M  V30 9382 C 921.723 -1.37319 4.83165 0
M  V30 9383 C 923.717 -0.184218 6.37134 0
M  V30 9384 C 921.404 -0.797681 6.05871 0
M  V30 9385 C 922.402 -0.204224 6.82695 0
M  V30 9386 O 922.09 0.362392 8.03083 0
M  V30 9387 H 921.822 -0.296412 0.607549 0
M  V30 9388 H 924.376 -0.272185 2.03589 0
M  V30 9389 H 922.606 -2.72756 2.74119 0
M  V30 9390 H 924.295 -2.58028 3.13331 0
M  V30 9391 H 925.061 -0.733912 4.79415 0
M  V30 9392 H 920.94 -1.8245 4.23359 0
M  V30 9393 H 924.484 0.279624 6.97039 0
M  V30 9394 H 920.381 -0.816978 6.40309 0
M  V30 9395 H 921.149 0.254467 8.18104 0
M  V30 9396 N 923.813 -1.49104 -0.510467 0
M  V30 9397 C 924.763 -1.6147 -1.6097 0
M  V30 9398 C 925.747 -0.470797 -1.53858 0
M  V30 9399 O 926.939 -0.723266 -1.61548 0
M  V30 9400 C 924.068 -1.67575 -2.99622 0
M  V30 9401 C 923.154 -2.87511 -3.11766 0
M  V30 9402 N 923.545 -4.11704 -2.93826 0
M  V30 9403 C 921.843 -2.85251 -3.42852 0
M  V30 9404 C 922.544 -4.92276 -3.09902 0
M  V30 9405 N 921.52 -4.2546 -3.38355 0
M  V30 9406 H 925.322 -2.5522 -1.45739 0
M  V30 9407 H 922.836 -1.45745 -0.716383 0
M  V30 9408 H 924.833 -1.74531 -3.78609 0
M  V30 9409 H 923.493 -0.749557 -3.1593 0
M  V30 9410 H 924.504 -4.41834 -2.70191 0
M  V30 9411 H 921.181 -2.0197 -3.65396 0
M  V30 9412 H 922.571 -6.00905 -3.00604 0
M  V30 9413 N 925.291 0.760815 -1.38019 0
M  V30 9414 C 926.516 1.55513 -1.37224 0
M  V30 9415 C 926.941 1.88062 0.037611 0
M  V30 9416 O 926.299 1.50042 1.0177 0
M  V30 9417 C 926.347 2.83539 -2.22796 0
M  V30 9418 O 925.451 3.78384 -1.64009 0
M  V30 9419 H 924.792 0.470642 -0.468393 0
M  V30 9420 H 927.322 0.940792 -1.81687 0
M  V30 9421 H 927.332 3.32535 -2.36399 0
M  V30 9422 H 926.007 2.59178 -3.25269 0
M  V30 9423 H 924.584 3.37063 -1.59508 0
M  V30 9424 N 926.769 1.22769 0.988202 0
M  V30 9425 C 928.185 0.988665 1.2529 0
M  V30 9426 C 928.385 -0.314938 1.99024 0
M  V30 9427 O 927.441 -1.03637 2.30251 0
M  V30 9428 C 928.754 2.19046 2.06009 0
M  V30 9429 C 930.302 2.23452 2.19176 0
M  V30 9430 C 930.777 3.43196 3.03283 0
M  V30 9431 N 932.268 3.43387 3.10869 0
M  V30 9432 C 933.003 4.32693 3.7625 0
M  V30 9433 N 932.499 5.32224 4.43519 0
M  V30 9434 N 934.292 4.20457 3.73058 0
M  V30 9435 H 926.443 2.06575 0.494014 0
M  V30 9436 H 928.706 0.905452 0.28082 0
M  V30 9437 H 928.412 3.13607 1.59197 0
M  V30 9438 H 928.286 2.19492 3.06763 0
M  V30 9439 H 930.673 1.29436 2.65199 0
M  V30 9440 H 930.754 2.27042 1.17836 0
M  V30 9441 H 930.398 4.37515 2.57959 0
M  V30 9442 H 930.328 3.36847 4.04774 0
M  V30 9443 H 932.819 2.71368 2.62998 0
M  V30 9444 H 933.132 5.9664 4.91163 0
M  V30 9445 H 931.477 5.36133 4.42252 0
M  V30 9446 H 934.668 3.41949 3.19669 0
M  V30 9447 H 934.841 4.90261 4.23731 0
M  V30 9448 N 928.247 -1.18576 1.03814 0
M  V30 9449 C 929.472 -1.92978 0.759873 0
M  V30 9450 C 929.897 -1.75514 -0.676486 0
M  V30 9451 O 929.255 -1.06359 -1.46824 0
M  V30 9452 C 929.303 -3.42507 1.12788 0
M  V30 9453 O 928.407 -4.1163 0.251886 0
M  V30 9454 H 927.748 -0.602129 0.279886 0
M  V30 9455 H 930.278 -1.50383 1.3873 0
M  V30 9456 H 930.288 -3.93206 1.08872 0
M  V30 9457 H 928.963 -3.5454 2.17427 0
M  V30 9458 H 927.54 -3.7125 0.350441 0
M  V30 9459 N 929.725 -0.817259 -1.34754 0
M  V30 9460 C 930.635 -0.236946 -2.334 0
M  V30 9461 C 931.651 0.625685 -1.62361 0
M  V30 9462 O 932.827 0.534921 -1.94166 0
M  V30 9463 C 929.892 0.596215 -3.41535 0
M  V30 9464 C 928.953 -0.288154 -4.28332 0
M  V30 9465 C 928.186 0.505337 -5.31302 0
M  V30 9466 O 928.409 1.73912 -5.43241 0
M  V30 9467 O 927.343 -0.109374 -6.01801 0
M  V30 9468 H 931.169 -1.05327 -2.84851 0
M  V30 9469 H 928.754 -0.579275 -1.37713 0
M  V30 9470 H 930.636 1.07041 -4.07578 0
M  V30 9471 H 929.311 1.38997 -2.92338 0
M  V30 9472 H 928.218 -0.809724 -3.65232 0
M  V30 9473 H 929.551 -1.04612 -4.80955 0
M  V30 9474 N 931.203 1.46865 -0.571711 0
M  V30 9475 C 932.428 2.07323 -0.0564655 0
M  V30 9476 C 932.853 1.41938 1.23431 0
M  V30 9477 O 932.211 0.499334 1.74288 0
M  V30 9478 C 932.259 3.6044 0.107339 0
M  V30 9479 O 931.363 3.95558 1.1665 0
M  V30 9480 H 930.704 0.661475 -0.0578465 0
M  V30 9481 H 933.234 1.88669 -0.791524 0
M  V30 9482 H 933.244 4.06767 0.316987 0
M  V30 9483 H 931.919 4.07425 -0.835348 0
M  V30 9484 H 930.496 3.60957 0.936189 0
M  V30 9485 N 932.681 0.308908 1.54543 0
M  V30 9486 C 933.906 -0.303196 2.05172 0
M  V30 9487 C 934.331 -1.46133 1.18434 0
M  V30 9488 O 933.689 -1.803 0.190162 0
M  V30 9489 C 933.737 -0.729526 3.53143 0
M  V30 9490 O 932.841 -1.83348 3.69401 0
M  V30 9491 H 932.182 -0.0575066 0.661505 0
M  V30 9492 H 934.712 0.453055 1.99521 0
M  V30 9493 H 934.722 -1.01619 3.95143 0
M  V30 9494 H 933.397 0.117622 4.15734 0
M  V30 9495 H 931.974 -1.54676 3.39308 0
M  V30 9496 N 934.159 -1.57557 0.0367827 0
M  V30 9497 C 935.408 -1.91291 -0.639569 0
M  V30 9498 C 935.721 -0.915601 -1.72847 0
M  V30 9499 O 936.927 -1.14447 -2.46199 0
M  V30 9500 C 935.383 -3.39697 -1.18888 0
M  V30 9501 C 934.991 -4.47803 -0.132851 0
M  V30 9502 C 936.735 -3.82487 -1.8413 0
M  V30 9503 C 934.642 -5.87311 -0.694229 0
M  V30 9504 H 933.572 -0.713886 -0.242658 0
M  V30 9505 H 936.223 -1.83209 0.103332 0
M  V30 9506 H 934.605 -3.42736 -1.98363 0
M  V30 9507 H 935.779 -4.56334 0.640009 0
M  V30 9508 H 934.094 -4.14264 0.421264 0
M  V30 9509 H 936.691 -4.84076 -2.27101 0
M  V30 9510 H 937.034 -3.17959 -2.68716 0
M  V30 9511 H 937.567 -3.81903 -1.11332 0
M  V30 9512 H 934.306 -6.55401 0.113667 0
M  V30 9513 H 933.826 -5.82371 -1.4354 0
M  V30 9514 H 935.505 -6.36119 -1.1816 0
M  V30 9515 N 935.637 0.236453 -1.55816 0
M  V30 9516 C 936.547 1.31418 -1.94336 0
M  V30 9517 C 937.563 1.52095 -0.845164 0
M  V30 9518 O 938.739 1.65515 -1.14746 0
M  V30 9519 C 935.804 2.6468 -2.23932 0
M  V30 9520 C 934.865 2.52435 -3.47239 0
M  V30 9521 C 934.098 3.79342 -3.75414 0
M  V30 9522 O 934.321 4.81694 -3.05495 0
M  V30 9523 O 933.255 3.77347 -4.68927 0
M  V30 9524 H 937.081 1.01739 -2.86152 0
M  V30 9525 H 934.666 0.438084 -1.42833 0
M  V30 9526 H 936.548 3.4341 -2.44228 0
M  V30 9527 H 935.223 2.94071 -1.35292 0
M  V30 9528 H 934.13 1.71955 -3.32238 0
M  V30 9529 H 935.463 2.27987 -4.36214 0
M  V30 9530 N 937.115 1.49373 0.502552 0
M  V30 9531 C 938.063 1.66411 1.62512 0
M  V30 9532 C 939.057 0.530062 1.60893 0
M  V30 9533 O 940.263 0.709648 1.65421 0
M  V30 9534 H 936.638 0.524707 0.538689 0
M  V30 9535 H 938.609 2.60639 1.45293 0
M  V30 9536 C 937.358 1.74648 3.00655 0
M  V30 9537 H 936.681 2.61285 3.02606 0
M  V30 9538 H 938.121 1.90605 3.78742 0
M  V30 9539 C 936.58 0.490963 3.33303 0
M  V30 9540 O 937.11 -0.384039 3.9986 0
M  V30 9541 N 935.316 0.354375 2.88431 0
M  V30 9542 H 934.863 1.06742 2.34444 0
M  V30 9543 H 934.821 -0.484593 3.10643 0
M  V30 9544 N 938.594 -0.753485 1.38421 0
M  V30 9545 C 939.841 -1.51261 1.34634 0
M  V30 9546 C 940.169 -1.94396 -0.0635771 0
M  V30 9547 O 939.424 -1.65736 -1.04068 0
M  V30 9548 C 939.723 -2.77836 2.24816 0
M  V30 9549 C 939.389 -2.53662 3.72782 0
M  V30 9550 C 938.051 -2.46779 4.13103 0
M  V30 9551 C 940.403 -2.32548 4.66445 0
M  V30 9552 C 937.731 -2.16796 5.45176 0
M  V30 9553 C 940.083 -2.04085 5.98775 0
M  V30 9554 C 938.747 -1.95658 6.3818 0
M  V30 9555 H 938.017 -0.553503 0.492661 0
M  V30 9556 H 940.664 -0.866406 1.7078 0
M  V30 9557 H 938.969 -3.47106 1.81726 0
M  V30 9558 H 940.666 -3.35793 2.19189 0
M  V30 9559 H 937.256 -2.59891 3.40815 0
M  V30 9560 H 941.44 -2.36845 4.3614 0
M  V30 9561 H 936.696 -2.0878 5.74648 0
M  V30 9562 H 940.87 -1.86751 6.70893 0
M  V30 9563 H 938.497 -1.7219 7.40442 0
M  V30 9564 N 940.072 -1.23292 -0.981677 0
M  V30 9565 C 941.002 -1.03738 -2.09191 0
M  V30 9566 C 941.983 0.0453041 -1.7004 0
M  V30 9567 O 943.168 -0.119092 -1.93834 0
M  V30 9568 C 940.298 -0.626426 -3.41604 0
M  V30 9569 C 939.252 -1.65631 -3.94652 0
M  V30 9570 C 938.578 -1.10084 -5.23245 0
M  V30 9571 C 939.878 -3.04903 -4.24066 0
M  V30 9572 H 941.572 -1.966 -2.25807 0
M  V30 9573 H 939.118 -0.946656 -1.0851 0
M  V30 9574 H 941.071 -0.476689 -4.18695 0
M  V30 9575 H 939.795 0.337873 -3.24848 0
M  V30 9576 H 938.454 -1.79402 -3.19704 0
M  V30 9577 H 938.102 -0.127562 -5.02838 0
M  V30 9578 H 937.802 -1.78896 -5.59705 0
M  V30 9579 H 939.326 -0.962928 -6.02959 0
M  V30 9580 H 940.74 -2.94441 -4.91912 0
M  V30 9581 H 939.137 -3.70941 -4.71724 0
M  V30 9582 H 940.207 -3.53991 -3.31389 0
M  V30 9583 N 941.55 1.18024 -1.04442 0
M  V30 9584 C 942.775 1.92573 -0.770097 0
M  V30 9585 C 943.2 1.75871 0.667169 0
M  V30 9586 O 942.558 1.07136 1.46258 0
M  V30 9587 C 942.606 3.41904 -1.14602 0
M  V30 9588 O 941.71 4.11491 -0.273712 0
M  V30 9589 H 941.051 0.600636 -0.283076 0
M  V30 9590 H 943.581 1.49645 -1.39526 0
M  V30 9591 H 943.591 3.92623 -1.10956 0
M  V30 9592 H 942.266 3.53382 -2.19304 0
M  V30 9593 H 940.843 3.71059 -0.370124 0
M  V30 9594 N 943.028 0.824394 1.34319 0
M  V30 9595 C 944.444 0.510336 1.51221 0
M  V30 9596 C 944.644 -0.965201 1.76879 0
M  V30 9597 O 943.7 -1.74961 1.82057 0
M  V30 9598 C 945.013 1.37114 2.6762 0
M  V30 9599 C 946.561 1.36842 2.81502 0
M  V30 9600 C 947.036 2.21374 4.00946 0
M  V30 9601 N 948.527 2.19005 4.08156 0
M  V30 9602 C 949.262 2.81159 4.99737 0
M  V30 9603 N 948.758 3.52309 5.96532 0
M  V30 9604 N 950.551 2.70706 4.9262 0
M  V30 9605 H 942.702 1.77976 1.15924 0
M  V30 9606 H 944.965 0.758503 0.568663 0
M  V30 9607 H 944.671 2.41905 2.55294 0
M  V30 9608 H 944.545 1.03689 3.62669 0
M  V30 9609 H 946.932 0.328284 2.93268 0
M  V30 9610 H 947.013 1.74265 1.87257 0
M  V30 9611 H 946.657 3.25437 3.8994 0
M  V30 9612 H 946.587 1.813 4.94407 0
M  V30 9613 H 949.078 1.67252 3.38874 0
M  V30 9614 H 949.391 3.96977 6.63045 0
M  V30 9615 H 947.736 3.56415 5.96652 0
M  V30 9616 H 950.927 2.14694 4.15962 0
M  V30 9617 H 951.1 3.19431 5.63798 0
M  V30 9618 N 944.506 -1.46559 0.579492 0
M  V30 9619 C 945.731 -2.0729 0.0674595 0
M  V30 9620 C 946.156 -1.4259 -1.22677 0
M  V30 9621 O 945.514 -0.50857 -1.74021 0
M  V30 9622 C 945.562 -3.60492 -0.0882227 0
M  V30 9623 O 944.666 -3.96172 -1.14551 0
M  V30 9624 H 944.007 -0.661159 0.0613536 0
M  V30 9625 H 946.537 -1.88247 0.801519 0
M  V30 9626 H 946.547 -4.06929 -0.295411 0
M  V30 9627 H 945.222 -4.06976 0.856943 0
M  V30 9628 H 943.799 -3.61448 -0.917033 0
M  V30 9629 N 945.984 -0.3171 -1.54377 0
M  V30 9630 C 946.947 0.53905 -2.22771 0
M  V30 9631 C 947.947 1.04865 -1.21901 0
M  V30 9632 O 949.137 0.942108 -1.46526 0
M  V30 9633 C 946.269 1.74804 -2.92671 0
M  V30 9634 H 947.462 -0.0587417 -2.99842 0
M  V30 9635 H 945.015 -0.068107 -1.56152 0
M  V30 9636 H 945.75 2.38524 -2.1972 0
M  V30 9637 H 945.535 1.39011 -3.66631 0
M  V30 9638 H 947.025 2.35592 -3.44799 0
M  V30 9639 N 947.462 1.57535 -0.0451378 0
M  V30 9640 C 948.702 1.9432 0.633955 0
M  V30 9641 C 949.066 0.922924 1.68363 0
M  V30 9642 O 950.267 1.17751 2.41636 0
M  V30 9643 C 948.538 3.35933 1.21999 0
M  V30 9644 S 950.097 3.94666 1.91793 0
M  V30 9645 H 946.915 0.679798 0.208318 0
M  V30 9646 H 949.517 1.95175 -0.112633 0
M  V30 9647 H 948.221 4.07993 0.443821 0
M  V30 9648 H 947.752 3.38559 2.00353 0
M  V30 9649 H 949.767 3.79401 3.19796 0
M  V30 9650 N 948.94 -0.228186 1.55939 0
M  V30 9651 C 950.186 -0.954964 1.78909 0
M  V30 9652 C 950.519 -1.8425 0.613648 0
M  V30 9653 O 949.794 -1.90604 -0.38737 0
M  V30 9654 C 950.077 -1.79957 3.1191 0
M  V30 9655 C 949.93 -0.938968 4.3989 0
M  V30 9656 C 951.249 -2.77859 3.41295 0
M  V30 9657 H 948.368 -0.345745 0.650868 0
M  V30 9658 H 951.01 -0.224244 1.88672 0
M  V30 9659 H 949.16 -2.42256 3.03717 0
M  V30 9660 H 950.832 -0.333225 4.60095 0
M  V30 9661 H 949.075 -0.244096 4.33113 0
M  V30 9662 H 949.746 -1.56416 5.29375 0
M  V30 9663 H 952.222 -2.25695 3.49572 0
M  V30 9664 H 951.098 -3.34062 4.35538 0
M  V30 9665 H 951.359 -3.55266 2.63132 0
M  V30 9666 N 950.418 -1.49637 -0.494624 0
M  V30 9667 C 951.648 -1.62928 -1.27036 0
M  V30 9668 C 952.056 -0.302464 -1.86767 0
M  V30 9669 O 951.399 0.722878 -1.68879 0
M  V30 9670 C 951.461 -2.64449 -2.43531 0
M  V30 9671 C 951.125 -4.08632 -2.0462 0
M  V30 9672 C 952.122 -4.95238 -1.58225 0
M  V30 9673 C 949.807 -4.54405 -2.1406 0
M  V30 9674 C 951.801 -6.25658 -1.21782 0
M  V30 9675 C 949.488 -5.84836 -1.77228 0
M  V30 9676 C 950.486 -6.70287 -1.31165 0
M  V30 9677 O 950.174 -7.98287 -0.948339 0
M  V30 9678 H 949.906 -0.551263 -0.391261 0
M  V30 9679 H 952.46 -1.96453 -0.599621 0
M  V30 9680 H 950.69 -2.26117 -3.137 0
M  V30 9681 H 952.379 -2.67203 -3.05545 0
M  V30 9682 H 953.145 -4.611 -1.50373 0
M  V30 9683 H 949.024 -3.88056 -2.48865 0
M  V30 9684 H 952.568 -6.92309 -0.857566 0
M  V30 9685 H 948.465 -6.18502 -1.84732 0
M  V30 9686 H 949.233 -8.11353 -1.07925 0
M  V30 9687 N 951.896 0.746133 -1.38819 0
M  V30 9688 C 952.829 1.86833 -1.31029 0
M  V30 9689 C 953.807 1.61533 -0.185948 0
M  V30 9690 O 954.991 1.84942 -0.364529 0
M  V30 9691 C 952.118 3.22596 -1.03198 0
M  V30 9692 C 951.164 3.66772 -2.17671 0
M  V30 9693 S 951.997 3.77438 -3.7987 0
M  V30 9694 C 953.153 5.16008 -3.54241 0
M  V30 9695 H 953.386 1.93155 -2.26005 0
M  V30 9696 H 950.919 0.909872 -1.24742 0
M  V30 9697 H 952.877 4.00995 -0.878237 0
M  V30 9698 H 951.538 3.13943 -0.0992704 0
M  V30 9699 H 950.731 4.65266 -1.93762 0
M  V30 9700 H 950.333 2.95547 -2.2919 0
M  V30 9701 H 952.625 6.01996 -3.10816 0
M  V30 9702 H 953.568 5.44941 -4.52156 0
M  V30 9703 H 953.976 4.85158 -2.88587 0
M  V30 9704 N 953.375 1.23811 0.975125 0
M  V30 9705 C 954.623 1.07124 1.71373 0
M  V30 9706 C 954.944 -0.391864 1.91022 0
M  V30 9707 O 954.214 -1.28041 1.48265 0
M  V30 9708 H 952.794 0.393415 0.635007 0
M  V30 9709 H 955.456 1.55612 1.17349 0
M  V30 9710 H 954.552 1.56338 2.7012 0
M  V30 9711 N 954.853 -1.17469 1.05066 0
M  V30 9712 C 956.101 -1.87327 0.758485 0
M  V30 9713 C 956.422 -1.81358 -0.716549 0
M  V30 9714 O 955.692 -1.23868 -1.51768 0
M  V30 9715 H 954.272 -0.693512 0.277579 0
M  V30 9716 H 956.934 -1.4251 1.32954 0
M  V30 9717 H 956.03 -2.93101 1.0723 0
M  V30 9718 N 956.331 -0.831506 -1.3388 0
M  V30 9719 C 957.561 -0.436292 -2.01941 0
M  V30 9720 C 957.969 0.964979 -1.62741 0
M  V30 9721 O 957.312 1.63733 -0.832894 0
M  V30 9722 C 957.374 -0.468811 -3.5643 0
M  V30 9723 C 957.038 -1.82491 -4.18982 0
M  V30 9724 C 958.035 -2.78705 -4.38885 0
M  V30 9725 C 955.72 -2.11574 -4.55568 0
M  V30 9726 C 957.714 -4.02168 -4.94509 0
M  V30 9727 C 955.401 -3.35296 -5.10901 0
M  V30 9728 C 956.399 -4.3041 -5.30317 0
M  V30 9729 O 956.087 -5.51944 -5.84477 0
M  V30 9730 H 955.819 -0.172335 -0.653664 0
M  V30 9731 H 958.373 -1.12354 -1.71947 0
M  V30 9732 H 956.603 0.275179 -3.8572 0
M  V30 9733 H 958.292 -0.0924518 -4.05795 0
M  V30 9734 H 959.058 -2.57534 -4.10976 0
M  V30 9735 H 954.937 -1.38338 -4.39754 0
M  V30 9736 H 958.481 -4.76418 -5.09579 0
M  V30 9737 H 954.378 -3.56326 -5.3824 0
M  V30 9738 H 955.146 -5.53582 -6.029 0
M  V30 9739 N 957.809 1.4625 -0.587256 0
M  V30 9740 C 958.759 2.27407 0.164393 0
M  V30 9741 C 959.743 1.36138 0.857628 0
M  V30 9742 O 960.935 1.60279 0.750973 0
M  V30 9743 C 958.064 3.22585 1.17447 0
M  V30 9744 C 957.15 4.21339 0.483121 0
M  V30 9745 N 957.541 5.03669 -0.46385 0
M  V30 9746 C 955.839 4.39931 0.73329 0
M  V30 9747 C 956.54 5.75182 -0.868334 0
M  V30 9748 N 955.516 5.43169 -0.216487 0
M  V30 9749 H 959.318 2.88453 -0.563237 0
M  V30 9750 H 956.832 1.57155 -0.409388 0
M  V30 9751 H 958.829 3.79439 1.72718 0
M  V30 9752 H 957.489 2.63098 1.90288 0
M  V30 9753 H 958.5 5.11049 -0.839602 0
M  V30 9754 H 955.177 3.91588 1.44792 0
M  V30 9755 H 956.567 6.51371 -1.64821 0
M  V30 9756 N 959.287 0.325282 1.54207 0
M  V30 9757 C 960.515 -0.27869 2.05014 0
M  V30 9758 C 960.93 -1.45649 1.20133 0
M  V30 9759 O 960.287 -1.81014 0.232398 0
M  V30 9760 C 960.338 -0.711486 3.54429 0
M  V30 9761 O 960.059 0.419458 4.36087 0
M  V30 9762 C 961.56 -1.37809 4.21336 0
M  V30 9763 H 958.78 -0.0570388 0.668571 0
M  V30 9764 H 961.324 0.47197 1.98979 0
M  V30 9765 H 959.479 -1.41212 3.60746 0
M  V30 9766 H 959.893 0.0781037 5.24442 0
M  V30 9767 H 961.367 -1.63184 5.27328 0
M  V30 9768 H 961.844 -2.32593 3.72555 0
M  V30 9769 H 962.45 -0.719987 4.19161 0
M  V30 9770 N 960.765 -1.57509 0.0534917 0
M  V30 9771 C 961.993 -1.97098 -0.629298 0
M  V30 9772 C 962.408 -0.931128 -1.64242 0
M  V30 9773 O 961.765 0.0843866 -1.82305 0
M  V30 9774 C 961.816 -3.36767 -1.31415 0
M  V30 9775 O 961.537 -4.36766 -0.341599 0
M  V30 9776 C 963.038 -3.91127 -2.08649 0
M  V30 9777 H 960.258 -0.648611 -0.171886 0
M  V30 9778 H 962.802 -2.04145 0.120479 0
M  V30 9779 H 960.957 -3.30863 -2.01515 0
M  V30 9780 H 961.371 -5.1788 -0.830715 0
M  V30 9781 H 962.845 -4.91129 -2.51985 0
M  V30 9782 H 963.322 -3.26679 -2.9356 0
M  V30 9783 H 963.928 -4.00376 -1.43456 0
M  V30 9784 N 962.243 0.219913 -1.56058 0
M  V30 9785 C 963.191 1.29215 -1.93407 0
M  V30 9786 C 964.185 1.48434 -0.816307 0
M  V30 9787 O 965.391 1.49589 -1.00115 0
M  V30 9788 H 961.766 0.433256 -0.614649 0
M  V30 9789 H 963.737 0.949977 -2.82875 0
M  V30 9790 C 962.486 2.63501 -2.26854 0
M  V30 9791 H 961.809 2.4952 -3.12377 0
M  V30 9792 H 963.249 3.37334 -2.56869 0
M  V30 9793 C 961.708 3.18634 -1.09425 0
M  V30 9794 O 962.238 4.00117 -0.356243 0
M  V30 9795 N 960.444 2.7703 -0.877642 0
M  V30 9796 H 959.991 2.10875 -1.47951 0
M  V30 9797 H 959.949 3.1426 -0.0936792 0
M  V30 9798 N 963.721 1.49897 0.486681 0
M  V30 9799 C 964.949 1.63837 1.26353 0
M  V30 9800 C 965.364 0.315428 1.86146 0
M  V30 9801 O 964.721 -0.700831 1.68507 0
M  V30 9802 C 964.772 2.71792 2.38351 0
M  V30 9803 O 964.493 3.98956 1.81013 0
M  V30 9804 C 965.994 2.96566 3.2949 0
M  V30 9805 H 963.214 0.551158 0.382709 0
M  V30 9806 H 965.758 1.96023 0.582694 0
M  V30 9807 H 963.913 2.42344 3.02238 0
M  V30 9808 H 964.327 4.58536 2.54647 0
M  V30 9809 H 965.801 3.75803 4.04322 0
M  V30 9810 H 966.278 2.07031 3.87343 0
M  V30 9811 H 966.884 3.27485 2.71355 0
M  V30 9812 N 965.199 -0.738761 1.39212 0
M  V30 9813 C 966.476 -1.48982 1.26742 0
M  V30 9814 C 966.856 -2.10732 -0.12466 0
M  V30 9815 O 966.204 -1.98287 -1.13554 0
M  V30 9816 C 966.414 -2.54427 2.38889 0
M  V30 9817 C 967.762 -3.20915 2.78027 0
M  V30 9818 O 968.786 -2.64738 2.38311 0
M  V30 9819 O 967.645 -4.22558 3.46565 0
M  V30 9820 H 964.739 -0.661395 0.496473 0
M  V30 9821 H 967.285 -0.772907 1.51077 0
M  V30 9822 H 966.057 -2.07151 3.3197 0
M  V30 9823 H 965.68 -3.33682 2.162 0
M  V30 9824 N 966.677 -1.24326 -0.968545 0
M  V30 9825 C 967.609 -0.992749 -2.06584 0
M  V30 9826 C 968.622 0.0374902 -1.62757 0
M  V30 9827 O 969.811 -0.199448 -1.77382 0
M  V30 9828 C 966.911 -0.476165 -3.35538 0
M  V30 9829 C 966.084 -1.56934 -4.08277 0
M  V30 9830 C 965.143 -1.05555 -5.15504 0
M  V30 9831 O 964.169 -1.74707 -5.41725 0
M  V30 9832 N 965.371 0.110465 -5.80395 0
M  V30 9833 H 968.136 -1.93752 -2.28649 0
M  V30 9834 H 965.697 -1.15344 -1.13611 0
M  V30 9835 H 967.689 -0.117223 -4.0453 0
M  V30 9836 H 966.259 0.374315 -3.10351 0
M  V30 9837 H 965.479 -2.10051 -3.33575 0
M  V30 9838 H 966.767 -2.30415 -4.53637 0
M  V30 9839 H 966.165 0.688614 -5.61493 0
M  V30 9840 H 964.722 0.41056 -6.50506 0
M  V30 9841 N 968.156 1.1691 -1.05688 0
M  V30 9842 C 969.384 1.91204 -0.790485 0
M  V30 9843 C 969.799 1.77095 0.654434 0
M  V30 9844 O 969.156 1.11146 1.44751 0
M  V30 9845 C 969.207 3.42108 -1.16808 0
M  V30 9846 O 968.928 3.55788 -2.55629 0
M  V30 9847 C 970.429 4.33466 -0.92855 0
M  V30 9848 H 967.649 0.606508 -0.287035 0
M  V30 9849 H 970.193 1.48225 -1.40888 0
M  V30 9850 H 968.348 3.82814 -0.59434 0
M  V30 9851 H 968.762 4.49321 -2.70575 0
M  V30 9852 H 970.236 5.37836 -1.24245 0
M  V30 9853 H 970.713 4.38989 0.136016 0
M  V30 9854 H 971.319 3.98481 -1.48638 0
M  V30 9855 N 969.634 0.838594 1.33437 0
M  V30 9856 C 970.581 0.269609 2.2922 0
M  V30 9857 C 971.551 -0.614429 1.54318 0
M  V30 9858 O 972.736 -0.552756 1.82618 0
M  V30 9859 C 969.876 -0.549527 3.40697 0
M  V30 9860 C 968.989 0.358502 4.3051 0
M  V30 9861 C 968.124 -0.471709 5.29101 0
M  V30 9862 C 967.163 0.434728 6.10554 0
M  V30 9863 N 966.3 -0.357339 7.0119 0
M  V30 9864 H 971.14 1.09172 2.77282 0
M  V30 9865 H 968.677 0.549832 1.36438 0
M  V30 9866 H 970.635 -1.03992 4.04032 0
M  V30 9867 H 969.265 -1.33661 2.93828 0
M  V30 9868 H 968.317 0.967204 3.67899 0
M  V30 9869 H 969.629 1.05483 4.87519 0
M  V30 9870 H 968.783 -1.02594 5.97963 0
M  V30 9871 H 967.522 -1.20147 4.72669 0
M  V30 9872 H 966.527 1.00097 5.40611 0
M  V30 9873 H 967.752 1.16285 6.6907 0
M  V30 9874 H 965.698 -1.07049 6.47207 0
M  V30 9875 H 965.615 0.280277 7.5548 0
M  V30 9876 H 966.883 -0.893814 7.74359 0
M  V30 9877 N 971.112 -1.45937 0.595003 0
M  V30 9878 C 972.042 -2.33198 -0.11871 0
M  V30 9879 C 973.023 -1.46083 -0.871423 0
M  V30 9880 O 974.208 -1.74879 -0.844461 0
M  V30 9881 C 971.338 -3.28576 -1.12495 0
M  V30 9882 C 970.292 -4.25229 -0.486275 0
M  V30 9883 C 969.618 -5.10204 -1.59986 0
M  V30 9884 C 970.918 -5.19019 0.584473 0
M  V30 9885 H 972.612 -2.93122 0.609886 0
M  V30 9886 H 970.158 -1.40951 0.294742 0
M  V30 9887 H 972.111 -3.88485 -1.6327 0
M  V30 9888 H 970.835 -2.66784 -1.88398 0
M  V30 9889 H 969.494 -3.666 0.000507962 0
M  V30 9890 H 969.142 -4.44789 -2.34886 0
M  V30 9891 H 968.842 -5.75669 -1.1781 0
M  V30 9892 H 970.366 -5.7298 -2.11014 0
M  V30 9893 H 971.78 -5.73073 0.161297 0
M  V30 9894 H 970.177 -5.92893 0.927256 0
M  V30 9895 H 971.247 -4.62208 1.46601 0
M  V30 9896 N 972.59 -0.333456 -1.54032 0
M  V30 9897 C 973.837 0.266133 -2.00744 0
M  V30 9898 C 974.165 1.51361 -1.22148 0
M  V30 9899 O 973.42 1.93473 -0.294368 0
M  V30 9900 C 973.719 0.63565 -3.51702 0
M  V30 9901 C 973.385 -0.513786 -4.47963 0
M  V30 9902 C 972.047 -0.829253 -4.74001 0
M  V30 9903 C 974.399 -1.2854 -5.05101 0
M  V30 9904 C 971.727 -1.91888 -5.54433 0
M  V30 9905 C 974.079 -2.3652 -5.86721 0
M  V30 9906 C 972.743 -2.68637 -6.11057 0
M  V30 9907 H 972.013 0.097385 -0.734573 0
M  V30 9908 H 974.66 -0.459282 -1.85911 0
M  V30 9909 H 972.965 1.44163 -3.64313 0
M  V30 9910 H 974.662 1.11129 -3.85294 0
M  V30 9911 H 971.252 -0.25784 -4.27824 0
M  V30 9912 H 975.436 -1.05494 -4.84958 0
M  V30 9913 H 970.692 -2.17208 -5.71516 0
M  V30 9914 H 974.866 -2.96747 -6.30011 0
M  V30 9915 H 972.493 -3.53197 -6.73169 0
M  V30 9916 N 974.068 1.57479 -0.061844 0
M  V30 9917 C 975.031 2.1104 0.894127 0
M  V30 9918 C 976.031 1.03227 1.23292 0
M  V30 9919 O 977.221 1.29256 1.16784 0
M  V30 9920 C 974.353 2.6035 2.20069 0
M  V30 9921 H 975.546 2.96807 0.429619 0
M  V30 9922 H 973.099 1.55181 0.18672 0
M  V30 9923 H 973.834 1.78008 2.71079 0
M  V30 9924 H 973.619 3.39146 1.9678 0
M  V30 9925 H 975.109 3.019 2.88525 0
M  V30 9926 N 975.546 -0.211634 1.56173 0
M  V30 9927 C 976.771 -0.955324 1.84088 0
M  V30 9928 C 977.196 -1.76754 0.643407 0
M  V30 9929 O 976.554 -1.76653 -0.407842 0
M  V30 9930 C 976.602 -1.84063 3.10085 0
M  V30 9931 O 975.706 -2.9373 2.89476 0
M  V30 9932 H 975.047 -0.26996 0.606645 0
M  V30 9933 H 977.577 -0.221947 2.03393 0
M  V30 9934 H 977.587 -2.24852 3.40449 0
M  V30 9935 H 976.262 -1.24373 3.96868 0
M  V30 9936 H 974.839 -2.56816 2.7037 0
M  V30 9937 N 977.024 -1.50153 -0.478725 0
M  V30 9938 C 978.27 -1.61968 -1.23036 0
M  V30 9939 C 978.625 -0.312529 -1.89845 0
M  V30 9940 O 977.918 0.688995 -1.78783 0
M  V30 9941 C 978.112 -2.73208 -2.30417 0
M  V30 9942 C 977.941 -4.14614 -1.74142 0
M  V30 9943 C 976.711 -4.81116 -1.54452 0
M  V30 9944 C 978.909 -4.99111 -1.24066 0
M  V30 9945 N 976.891 -6.06763 -0.933399 0
M  V30 9946 C 978.262 -6.15419 -0.752286 0
M  V30 9947 C 980.317 -4.84943 -1.12849 0
M  V30 9948 C 979.02 -7.19116 -0.162808 0
M  V30 9949 C 981.046 -5.88809 -0.552955 0
M  V30 9950 C 980.408 -7.0436 -0.0749195 0
M  V30 9951 H 976.507 -0.646894 -0.439377 0
M  V30 9952 H 979.091 -1.87244 -0.53364 0
M  V30 9953 H 977.262 -2.49667 -2.97525 0
M  V30 9954 H 978.994 -2.74423 -2.97446 0
M  V30 9955 H 975.749 -4.38282 -1.7946 0
M  V30 9956 H 976.173 -6.73906 -0.64647 0
M  V30 9957 H 980.815 -3.959 -1.48402 0
M  V30 9958 H 978.533 -8.0784 0.204943 0
M  V30 9959 H 982.119 -5.7991 -0.468633 0
M  V30 9960 H 980.999 -7.83357 0.363455 0
M  V30 9961 N 978.502 0.731368 -1.39602 0
M  V30 9962 C 979.73 1.52059 -1.40305 0
M  V30 9963 C 980.145 1.888 0.00147921 0
M  V30 9964 O 979.502 1.54354 0.973715 0
M  V30 9965 C 979.553 2.80588 -2.27931 0
M  V30 9966 O 979.274 2.45406 -3.62915 0
M  V30 9967 C 980.775 3.74592 -2.37056 0
M  V30 9968 H 977.995 0.469787 -0.479104 0
M  V30 9969 H 980.539 0.903436 -1.83462 0
M  V30 9970 H 978.694 3.38626 -1.88178 0
M  V30 9971 H 979.108 3.27996 -4.09291 0
M  V30 9972 H 980.582 4.61662 -3.02609 0
M  V30 9973 H 981.059 4.16597 -1.39081 0
M  V30 9974 H 981.665 3.22471 -2.77295 0
M  V30 9975 N 979.98 1.24838 0.961938 0
M  V30 9976 C 981.229 1.0855 1.69999 0
M  V30 9977 C 981.542 -0.374645 1.91979 0
M  V30 9978 O 982.748 -0.657822 2.6341 0
M  V30 9979 C 981.204 1.89424 3.06017 0
M  V30 9980 C 980.812 3.39885 2.9186 0
M  V30 9981 C 982.556 1.81684 3.83655 0
M  V30 9982 C 980.463 4.13082 4.23223 0
M  V30 9983 H 979.393 0.402603 0.637516 0
M  V30 9984 H 982.044 1.4897 1.07146 0
M  V30 9985 H 980.426 1.41823 3.69733 0
M  V30 9986 H 981.6 3.95108 2.37121 0
M  V30 9987 H 979.915 3.4864 2.27683 0
M  V30 9988 H 982.512 2.3367 4.80939 0
M  V30 9989 H 982.855 0.783247 4.08865 0
M  V30 9990 H 983.388 2.26997 3.26676 0
M  V30 9991 H 980.127 5.16824 4.03204 0
M  V30 9992 H 979.647 3.62644 4.77755 0
M  V30 9993 H 981.326 4.20397 4.91808 0
M  V30 9994 N 981.458 -1.16348 1.06306 0
M  V30 9995 C 982.683 -1.91323 0.800636 0
M  V30 9996 C 983.108 -1.7691 -0.639105 0
M  V30 9997 O 982.466 -1.0945 -1.44535 0
M  V30 9998 C 982.514 -3.40038 1.20027 0
M  V30 9999 O 981.618 -4.11003 0.339142 0
M  V30 10000 H 980.959 -0.596057 0.292595 0
M  V30 10001 H 983.489 -1.47406 1.41889 0
M  V30 10002 H 983.499 -3.90808 1.17188 0
M  V30 10003 H 982.174 -3.49848 2.24898 0
M  V30 10004 H 980.751 -3.70423 0.42911 0
M  V30 10005 N 982.937 -0.845659 -1.3299 0
M  V30 10006 C 983.9 -0.288905 -2.27372 0
M  V30 10007 C 984.9 0.546263 -1.51237 0
M  V30 10008 O 986.09 0.359072 -1.70459 0
M  V30 10009 C 983.222 0.59224 -3.35716 0
M  V30 10010 H 984.415 -1.12181 -2.78128 0
M  V30 10011 H 981.968 -0.619276 -1.43508 0
M  V30 10012 H 982.703 1.44732 -2.90212 0
M  V30 10013 H 982.488 -0.00543255 -3.921 0
M  V30 10014 H 983.978 0.974848 -4.06062 0
M  V30 10015 N 984.415 1.45619 -0.602734 0
M  V30 10016 C 985.831 1.57368 -0.26599 0
M  V30 10017 C 986.031 1.59485 1.23154 0
M  V30 10018 O 985.087 1.52254 2.01432 0
M  V30 10019 C 986.4 2.85863 -0.932881 0
M  V30 10020 C 987.948 2.9953 -0.908344 0
M  V30 10021 C 988.423 4.30789 -1.55515 0
M  V30 10022 N 989.914 4.37536 -1.52042 0
M  V30 10023 C 990.649 5.37758 -1.99008 0
M  V30 10024 N 990.145 6.44544 -2.54038 0
M  V30 10025 N 991.938 5.29085 -1.89805 0
M  V30 10026 H 984.089 1.42489 -1.57514 0
M  V30 10027 H 986.352 0.680948 -0.659556 0
M  V30 10028 H 986.058 2.90183 -1.98713 0
M  V30 10029 H 985.932 3.74467 -0.453209 0
M  V30 10030 H 988.319 2.9478 0.137344 0
M  V30 10031 H 988.4 2.12349 -1.42623 0
M  V30 10032 H 988.044 4.36297 -2.60014 0
M  V30 10033 H 987.974 5.16778 -1.01232 0
M  V30 10034 H 990.465 3.60972 -1.11837 0
M  V30 10035 H 990.778 7.17258 -2.87682 0
M  V30 10036 H 989.123 6.45308 -2.58075 0
M  V30 10037 H 992.314 4.44566 -1.46556 0
M  V30 10038 H 992.487 6.07043 -2.26722 0
M  V30 10039 N 985.893 0.34162 1.53853 0
M  V30 10040 C 987.309 -0.0103769 1.59597 0
M  V30 10041 C 987.509 -1.48897 1.35764 0
M  V30 10042 O 986.565 -2.24743 1.15095 0
M  V30 10043 C 987.878 0.424067 2.97695 0
M  V30 10044 C 989.426 0.376247 3.1073 0
M  V30 10045 C 989.901 0.786129 4.51203 0
M  V30 10046 N 991.392 0.74024 4.57247 0
M  V30 10047 C 992.127 1.02937 5.64085 0
M  V30 10048 N 991.623 1.38655 6.78783 0
M  V30 10049 N 993.416 0.953734 5.5395 0
M  V30 10050 H 985.567 1.30477 1.67599 0
M  V30 10051 H 987.83 0.531753 0.78482 0
M  V30 10052 H 987.536 1.45493 3.20195 0
M  V30 10053 H 987.41 -0.201713 3.7666 0
M  V30 10054 H 989.797 -0.645441 2.87955 0
M  V30 10055 H 989.878 1.0372 2.33828 0
M  V30 10056 H 989.522 1.80582 4.74713 0
M  V30 10057 H 989.452 0.102671 5.265 0
M  V30 10058 H 991.943 0.476763 3.7488 0
M  V30 10059 H 992.256 1.59206 7.56223 0
M  V30 10060 H 990.601 1.42498 6.80235 0
M  V30 10061 H 993.792 0.674044 4.63222 0
M  V30 10062 H 993.965 1.18241 6.37121 0
M  V30 10063 N 987.371 -1.57444 0.0701946 0
M  V30 10064 C 988.304 -2.08232 -0.93352 0
M  V30 10065 C 989.282 -0.987073 -1.29212 0
M  V30 10066 O 990.466 -1.26035 -1.40169 0
M  V30 10067 C 987.593 -2.53866 -2.2421 0
M  V30 10068 C 986.639 -3.7481 -2.03518 0
M  V30 10069 S 987.472 -5.1958 -1.29601 0
M  V30 10070 C 988.628 -5.68544 -2.61742 0
M  V30 10071 H 988.861 -2.93042 -0.501354 0
M  V30 10072 H 986.394 -1.53741 -0.142533 0
M  V30 10073 H 988.352 -2.80818 -2.99419 0
M  V30 10074 H 987.013 -1.69327 -2.64551 0
M  V30 10075 H 986.206 -4.04724 -3.00358 0
M  V30 10076 H 985.808 -3.48222 -1.36445 0
M  V30 10077 H 988.1 -5.75291 -3.57836 0
M  V30 10078 H 989.043 -6.67459 -2.3644 0
M  V30 10079 H 989.451 -4.96354 -2.68873 0
M  V30 10080 N 988.849 0.203349 -1.56283 0
M  V30 10081 C 990.095 0.926381 -1.80405 0
M  V30 10082 C 990.428 1.8325 -0.642883 0
M  V30 10083 O 989.703 1.91196 0.356998 0
M  V30 10084 C 989.986 1.74972 -3.14733 0
M  V30 10085 C 989.839 0.868866 -4.41328 0
M  V30 10086 C 991.158 2.72394 -3.45672 0
M  V30 10087 H 988.277 0.335346 -0.656286 0
M  V30 10088 H 990.919 0.1942 -1.89005 0
M  V30 10089 H 989.069 2.37394 -3.07533 0
M  V30 10090 H 990.741 0.259986 -4.60567 0
M  V30 10091 H 988.984 0.175161 -4.33446 0
M  V30 10092 H 989.655 1.47975 -5.31796 0
M  V30 10093 H 992.131 2.20105 -3.53119 0
M  V30 10094 H 991.007 3.27091 -4.40798 0
M  V30 10095 H 991.268 3.51035 -2.6875 0
M  V30 10096 N 990.327 1.50405 0.470755 0
M  V30 10097 C 991.259 1.65447 1.58619 0
M  V30 10098 C 992.272 0.535949 1.53725 0
M  V30 10099 O 993.461 0.80914 1.59107 0
M  V30 10100 C 990.561 1.62318 2.975 0
M  V30 10101 C 989.734 2.90207 3.27259 0
M  V30 10102 C 988.793 2.79717 4.45696 0
M  V30 10103 O 987.819 3.53672 4.45987 0
M  V30 10104 N 989.021 1.93296 5.47373 0
M  V30 10105 H 991.786 2.61659 1.46132 0
M  V30 10106 H 989.347 1.47873 0.659178 0
M  V30 10107 H 991.339 1.52912 3.747 0
M  V30 10108 H 989.909 0.738392 3.03754 0
M  V30 10109 H 989.129 3.13737 2.38669 0
M  V30 10110 H 990.417 3.74931 3.43953 0
M  V30 10111 H 989.815 1.32524 5.49958 0
M  V30 10112 H 988.372 1.89793 6.23556 0
M  V30 10113 N 991.805 -0.723954 1.39988 0
M  V30 10114 C 992.738 -1.84725 1.33985 0
M  V30 10115 C 993.716 -1.61217 0.211623 0
M  V30 10116 O 994.9 -1.84338 0.393905 0
M  V30 10117 C 992.027 -3.20913 1.08317 0
M  V30 10118 C 991.073 -3.63262 2.23478 0
M  V30 10119 S 991.906 -3.71346 3.85827 0
M  V30 10120 C 993.062 -5.10307 3.62405 0
M  V30 10121 H 993.295 -1.89535 2.2905 0
M  V30 10122 H 990.828 -0.889911 1.26174 0
M  V30 10123 H 992.786 -3.99547 0.941921 0
M  V30 10124 H 991.447 -3.13745 0.149203 0
M  V30 10125 H 990.64 -4.62124 2.01139 0
M  V30 10126 H 990.242 -2.91863 2.33863 0
M  V30 10127 H 992.534 -5.96975 3.20354 0
M  V30 10128 H 993.477 -5.37679 4.60768 0
M  V30 10129 H 993.885 -4.80505 2.96269 0
M  V30 10130 N 993.283 -1.25346 -0.955304 0
M  V30 10131 C 994.699 -1.02154 -1.22625 0
M  V30 10132 C 994.899 0.26206 -1.99789 0
M  V30 10133 O 993.955 0.974958 -2.32918 0
M  V30 10134 C 995.268 -2.2443 -2.00129 0
M  V30 10135 C 996.816 -2.29185 -2.13174 0
M  V30 10136 C 997.291 -3.51117 -2.94077 0
M  V30 10137 N 998.782 -3.51509 -3.01655 0
M  V30 10138 C 999.517 -4.42517 -3.64645 0
M  V30 10139 N 999.013 -5.43796 -4.29252 0
M  V30 10140 N 1000.81 -4.302 -3.61779 0
M  V30 10141 H 992.957 -2.07812 -0.439071 0
M  V30 10142 H 995.22 -0.91258 -0.256715 0
M  V30 10143 H 994.926 -3.17717 -1.50827 0
M  V30 10144 H 994.8 -2.27548 -3.00835 0
M  V30 10145 H 997.187 -1.36422 -2.61674 0
M  V30 10146 H 997.268 -2.30087 -1.11775 0
M  V30 10147 H 996.912 -4.44201 -2.46268 0
M  V30 10148 H 996.842 -3.4746 -3.95701 0
M  V30 10149 H 999.333 -2.78245 -2.55711 0
M  V30 10150 H 999.646 -6.09453 -4.75171 0
M  V30 10151 H 997.991 -5.4767 -4.27882 0
M  V30 10152 H 1001.18 -3.50304 -3.10491 0
M  V30 10153 H 1001.36 -5.01323 -4.10584 0
M  V30 10154 N 994.761 1.15782 -1.06922 0
M  V30 10155 C 996.177 1.38454 -0.793896 0
M  V30 10156 C 996.377 1.92238 0.603875 0
M  V30 10157 O 995.433 2.1253 1.36335 0
M  V30 10158 C 996.746 2.3595 -1.86408 0
M  V30 10159 C 998.294 2.49622 -1.88833 0
M  V30 10160 C 998.769 3.50406 -2.94923 0
M  V30 10161 N 1000.26 3.57938 -2.93997 0
M  V30 10162 C 1001 4.35728 -3.72731 0
M  V30 10163 N 1000.49 5.16888 -4.61301 0
M  V30 10164 N 1002.28 4.30774 -3.61096 0
M  V30 10165 H 994.435 0.792101 -1.97077 0
M  V30 10166 H 996.698 0.410779 -0.85438 0
M  V30 10167 H 996.404 2.03537 -2.86819 0
M  V30 10168 H 996.278 3.35677 -1.72049 0
M  V30 10169 H 998.665 2.81335 -0.890759 0
M  V30 10170 H 998.746 1.49909 -2.0727 0
M  V30 10171 H 998.39 3.19429 -3.94877 0
M  V30 10172 H 998.32 4.49864 -2.73734 0
M  V30 10173 H 1000.81 3.00007 -2.29791 0
M  V30 10174 H 1001.12 5.73477 -5.18019 0
M  V30 10175 H 999.469 5.16209 -4.65353 0
M  V30 10176 H 1002.66 3.66432 -2.91282 0
M  V30 10177 H 1002.83 4.91151 -4.22699 0
M  V30 10178 N 996.239 0.8527 1.3254 0
M  V30 10179 C 997.186 0.293905 2.28921 0
M  V30 10180 C 998.156 -0.598027 1.54961 0
M  V30 10181 O 999.341 -0.533355 1.83194 0
M  V30 10182 C 996.481 -0.513361 3.4126 0
M  V30 10183 C 995.594 0.404144 4.30105 0
M  V30 10184 C 994.729 -0.415564 5.29572 0
M  V30 10185 C 993.768 0.499461 6.10059 0
M  V30 10186 N 992.905 -0.282949 7.0153 0
M  V30 10187 H 997.745 1.12107 2.76109 0
M  V30 10188 H 995.282 0.564272 1.35847 0
M  V30 10189 H 997.24 -0.997008 4.05112 0
M  V30 10190 H 995.87 -1.30537 2.95229 0
M  V30 10191 H 994.922 1.00617 3.66852 0
M  V30 10192 H 996.234 1.10648 4.86373 0
M  V30 10193 H 995.388 -0.962458 5.99017 0
M  V30 10194 H 994.127 -1.15127 4.73917 0
M  V30 10195 H 993.132 1.05825 5.39519 0
M  V30 10196 H 994.357 1.23375 6.67799 0
M  V30 10197 H 992.303 -1.00179 6.48306 0
M  V30 10198 H 992.22 0.36039 7.55141 0
M  V30 10199 H 993.488 -0.811632 7.75263 0
M  V30 10200 N 997.718 -1.45297 0.610449 0
M  V30 10201 C 998.648 -2.33311 -0.0939698 0
M  V30 10202 C 999.629 -1.46999 -0.85588 0
M  V30 10203 O 1000.81 -1.75764 -0.825865 0
M  V30 10204 C 997.944 -3.29751 -1.09003 0
M  V30 10205 C 996.898 -4.2572 -0.441146 0
M  V30 10206 C 996.224 -5.11873 -1.54566 0
M  V30 10207 C 997.524 -5.1837 0.639489 0
M  V30 10208 H 999.218 -2.92459 0.640941 0
M  V30 10209 H 996.764 -1.40631 0.309675 0
M  V30 10210 H 998.717 -3.90195 -1.59141 0
M  V30 10211 H 997.441 -2.68768 -1.85557 0
M  V30 10212 H 996.1 -3.66579 0.0393908 0
M  V30 10213 H 995.748 -4.47256 -2.30155 0
M  V30 10214 H 995.448 -5.76886 -1.11698 0
M  V30 10215 H 996.972 -5.75185 -2.04925 0
M  V30 10216 H 998.386 -5.7287 0.22207 0
M  V30 10217 H 996.783 -5.91876 0.990089 0
M  V30 10218 H 997.853 -4.60627 1.51495 0
M  V30 10219 N 999.196 -0.349774 -1.5367 0
M  V30 10220 C 1000.11 0.512421 -2.28935 0
M  V30 10221 C 1001.12 1.1065 -1.34286 0
M  V30 10222 O 1002.3 1.12084 -1.67329 0
M  V30 10223 C 999.363 1.64449 -3.05217 0
M  V30 10224 C 998.424 1.07956 -4.15505 0
M  V30 10225 C 997.657 2.15768 -4.88139 0
M  V30 10226 O 997.88 3.366 -4.60496 0
M  V30 10227 O 996.814 1.79712 -5.74445 0
M  V30 10228 H 1000.64 -0.0996001 -3.03537 0
M  V30 10229 H 998.225 -0.114629 -1.4896 0
M  V30 10230 H 1000.11 2.30302 -3.52901 0
M  V30 10231 H 998.782 2.24221 -2.33467 0
M  V30 10232 H 997.689 0.385381 -3.7211 0
M  V30 10233 H 999.022 0.526621 -4.89375 0
M  V30 10234 N 1000.67 1.57404 -0.0785433 0
M  V30 10235 C 1001.92 1.9292 0.588626 0
M  V30 10236 C 1002.24 0.961106 1.70359 0
M  V30 10237 O 1003.44 1.20934 2.43079 0
M  V30 10238 C 1001.9 3.42729 1.09839 0
M  V30 10239 C 1001.51 4.47998 0.0140773 0
M  V30 10240 C 1003.25 3.87235 1.73924 0
M  V30 10241 C 1001.16 5.88945 0.538269 0
M  V30 10242 H 1000.09 0.720069 0.223645 0
M  V30 10243 H 1002.74 1.8287 -0.15187 0
M  V30 10244 H 1001.12 3.47875 1.89207 0
M  V30 10245 H 1002.29 4.54476 -0.760773 0
M  V30 10246 H 1000.61 4.13001 -0.53095 0
M  V30 10247 H 1003.21 4.89927 2.14186 0
M  V30 10248 H 1003.55 3.24971 2.60191 0
M  V30 10249 H 1004.08 3.84721 1.01168 0
M  V30 10250 H 1000.82 6.5487 -0.287395 0
M  V30 10251 H 1000.34 5.85972 1.28049 0
M  V30 10252 H 1002.02 6.39028 1.01253 0
M  V30 10253 N 1002.15 -0.195058 1.56388 0
M  V30 10254 C 1003.4 -0.915444 1.80626 0
M  V30 10255 C 1003.73 -1.83255 0.651768 0
M  V30 10256 O 1002.98 -1.92314 -0.362464 0
M  V30 10257 C 1003.28 -1.7637 3.10851 0
M  V30 10258 C 1002.95 -0.997572 4.39726 0
M  V30 10259 C 1001.61 -0.786043 4.74737 0
M  V30 10260 C 1003.96 -0.45851 5.19179 0
M  V30 10261 C 1001.29 -0.023972 5.86695 0
M  V30 10262 C 1003.64 0.29035 6.31933 0
M  V30 10263 C 1002.3 0.512895 6.65527 0
M  V30 10264 H 1001.57 -0.334985 0.660959 0
M  V30 10265 H 1004.22 -0.181815 1.90635 0
M  V30 10266 H 1002.53 -2.566 2.9608 0
M  V30 10267 H 1004.22 -2.3237 3.26811 0
M  V30 10268 H 1000.81 -1.17245 4.12252 0
M  V30 10269 H 1005 -0.609334 4.92545 0
M  V30 10270 H 1000.25 0.158421 6.11195 0
M  V30 10271 H 1004.43 0.715429 6.92715 0
M  V30 10272 H 1002.05 1.10531 7.52122 0
M  V30 10273 N 1003.63 -1.50653 -0.462772 0
M  V30 10274 C 1004.86 -1.65826 -1.23731 0
M  V30 10275 C 1005.27 -0.345002 -1.85621 0
M  V30 10276 O 1004.63 0.673935 -1.69601 0
M  V30 10277 C 1004.68 -2.7555 -2.33997 0
M  V30 10278 O 1004.4 -4.01785 -1.74643 0
M  V30 10279 C 1005.9 -3.0177 -3.2473 0
M  V30 10280 H 1003.12 -0.557177 -0.373892 0
M  V30 10281 H 1005.67 -1.96925 -0.551434 0
M  V30 10282 H 1003.82 -2.47122 -2.98345 0
M  V30 10283 H 1004.24 -4.62529 -2.4732 0
M  V30 10284 H 1005.71 -3.82188 -3.98292 0
M  V30 10285 H 1006.19 -2.13167 -3.84001 0
M  V30 10286 H 1006.79 -3.31761 -2.66111 0
M  V30 10287 N 1005.11 0.71652 -1.4037 0
M  V30 10288 C 1006.34 1.50344 -1.41704 0
M  V30 10289 C 1006.75 1.89194 -0.0148011 0
M  V30 10290 O 1006.09 1.55916 0.971391 0
M  V30 10291 C 1006.15 2.80928 -2.2432 0
M  V30 10292 C 1005.82 2.64406 -3.72744 0
M  V30 10293 C 1006.81 2.31727 -4.65401 0
M  V30 10294 C 1004.5 2.807 -4.16549 0
M  V30 10295 C 1006.49 2.15551 -5.99847 0
M  V30 10296 C 1004.18 2.64141 -5.51065 0
M  V30 10297 C 1005.18 2.31614 -6.42529 0
M  V30 10298 O 1004.86 2.15179 -7.74566 0
M  V30 10299 H 1004.6 0.470574 -0.48532 0
M  V30 10300 H 1007.15 0.89152 -1.85043 0
M  V30 10301 H 1005.38 3.4445 -1.75759 0
M  V30 10302 H 1007.07 3.4264 -2.17607 0
M  V30 10303 H 1007.84 2.18773 -4.32855 0
M  V30 10304 H 1003.71 3.05005 -3.45677 0
M  V30 10305 H 1007.26 1.90084 -6.71203 0
M  V30 10306 H 1003.16 2.76679 -5.83197 0
M  V30 10307 H 1003.92 2.30106 -7.85489 0
M  V30 10308 N 1006.59 1.25851 0.948643 0
M  V30 10309 C 1007.83 1.11119 1.69648 0
M  V30 10310 C 1008.17 -0.345995 1.91093 0
M  V30 10311 O 1007.44 -1.25467 1.48621 0
M  V30 10312 C 1007.72 1.87261 3.0758 0
M  V30 10313 C 1007.58 3.40842 2.93507 0
M  V30 10314 C 1008.9 1.6605 4.07573 0
M  V30 10315 H 1006.01 0.405052 0.615713 0
M  V30 10316 H 1008.66 1.54756 1.10229 0
M  V30 10317 H 1006.81 1.50172 3.58303 0
M  V30 10318 H 1008.48 3.87641 2.50064 0
M  V30 10319 H 1006.72 3.68248 2.29294 0
M  V30 10320 H 1007.39 3.89339 3.91305 0
M  V30 10321 H 1009.87 1.98348 3.65783 0
M  V30 10322 H 1008.74 2.21753 5.02113 0
M  V30 10323 H 1009.01 0.603256 4.37965 0
M  V30 10324 N 1008.06 -1.15214 1.07534 0
M  V30 10325 C 1009.48 -1.38031 0.801228 0
M  V30 10326 C 1009.68 -1.92556 -0.593672 0
M  V30 10327 O 1008.74 -2.1325 -1.35206 0
M  V30 10328 C 1010.05 -2.34958 1.87657 0
M  V30 10329 C 1011.6 -2.48617 1.90154 0
M  V30 10330 C 1012.07 -3.48837 2.96777 0
M  V30 10331 N 1013.56 -3.56374 2.95892 0
M  V30 10332 C 1014.3 -4.33746 3.75036 0
M  V30 10333 N 1013.79 -5.14435 4.64036 0
M  V30 10334 N 1015.59 -4.28853 3.63375 0
M  V30 10335 H 1007.74 -0.781639 1.97495 0
M  V30 10336 H 1010 -0.406243 0.856546 0
M  V30 10337 H 1009.71 -2.02013 2.87895 0
M  V30 10338 H 1009.58 -3.3476 1.73827 0
M  V30 10339 H 1011.97 -2.80859 0.905666 0
M  V30 10340 H 1012.05 -1.48808 2.08062 0
M  V30 10341 H 1011.69 -3.1733 3.96565 0
M  V30 10342 H 1011.62 -4.48406 2.76116 0
M  V30 10343 H 1014.11 -2.98784 2.31379 0
M  V30 10344 H 1014.43 -5.70722 5.21053 0
M  V30 10345 H 1012.77 -5.13734 4.68084 0
M  V30 10346 H 1015.96 -3.64882 2.93221 0
M  V30 10347 H 1016.14 -4.88903 4.25298 0
M  V30 10348 N 1009.54 -0.859717 -1.32086 0
M  V30 10349 C 1010.79 -0.465581 -1.97075 0
M  V30 10350 C 1011.12 0.979917 -1.68012 0
M  V30 10351 O 1010.37 1.70337 -0.96353 0
M  V30 10352 C 1010.67 -0.657397 -3.51302 0
M  V30 10353 C 1010.34 -2.07413 -4.00363 0
M  V30 10354 C 1009 -2.4616 -4.13472 0
M  V30 10355 C 1011.35 -2.99855 -4.26305 0
M  V30 10356 C 1008.68 -3.76611 -4.49868 0
M  V30 10357 C 1011.03 -4.2981 -4.64161 0
M  V30 10358 C 1009.7 -4.68485 -4.75476 0
M  V30 10359 H 1008.97 -0.170368 -0.721149 0
M  V30 10360 H 1011.61 -1.09074 -1.57401 0
M  V30 10361 H 1009.92 0.0509638 -3.91767 0
M  V30 10362 H 1011.61 -0.332416 -3.9962 0
M  V30 10363 H 1008.2 -1.76327 -3.90649 0
M  V30 10364 H 1012.39 -2.7115 -4.15682 0
M  V30 10365 H 1007.64 -4.06352 -4.56824 0
M  V30 10366 H 1011.82 -5.015 -4.83188 0
M  V30 10367 H 1009.45 -5.69612 -5.03435 0
M  V30 10368 N 1011.02 1.44971 -0.618145 0
M  V30 10369 C 1012.3 1.95539 -0.0489895 0
M  V30 10370 C 1012.68 1.5604 1.42179 0
M  V30 10371 O 1012.03 0.82809 2.12967 0
M  V30 10372 C 1012.24 3.48044 -0.258193 0
M  V30 10373 C 1013.58 4.24354 -0.144541 0
M  V30 10374 O 1014.61 3.55699 -0.18887 0
M  V30 10375 O 1013.47 5.46486 -0.038519 0
M  V30 10376 H 1010.56 0.826466 0.0297256 0
M  V30 10377 H 1013.11 1.55086 -0.688944 0
M  V30 10378 H 1011.88 3.69798 -1.27926 0
M  V30 10379 H 1011.5 3.95412 0.416522 0
M  V30 10380 N 1012.5 0.357919 1.53482 0
M  V30 10381 C 1013.74 -0.23451 2.0144 0
M  V30 10382 C 1014.08 -1.49044 1.24497 0
M  V30 10383 O 1013.35 -1.91566 0.336535 0
M  V30 10384 C 1013.64 -0.534193 3.56116 0
M  V30 10385 C 1013.49 0.734834 4.43757 0
M  V30 10386 C 1014.81 -1.33793 4.1927 0
M  V30 10387 H 1011.93 -0.0837595 0.732225 0
M  V30 10388 H 1014.57 0.481297 1.83803 0
M  V30 10389 H 1012.72 -1.144 3.71275 0
M  V30 10390 H 1014.39 1.37251 4.40409 0
M  V30 10391 H 1012.63 1.35678 4.12036 0
M  V30 10392 H 1013.3 0.48021 5.49907 0
M  V30 10393 H 1015.78 -0.822158 4.07897 0
M  V30 10394 H 1014.66 -1.51636 5.27539 0
M  V30 10395 H 1014.92 -2.34423 3.74831 0
M  V30 10396 N 1013.98 -1.5736 0.0868897 0
M  V30 10397 C 1014.89 -2.17087 -0.889402 0
M  V30 10398 C 1015.9 -1.13809 -1.31619 0
M  V30 10399 O 1017.08 -1.46143 -1.38579 0
M  V30 10400 C 1014.14 -2.73286 -2.13344 0
M  V30 10401 C 1013.2 -3.91491 -1.76164 0
M  V30 10402 C 1012.44 -4.45 -2.94637 0
M  V30 10403 O 1012.66 -3.97467 -4.09116 0
M  V30 10404 O 1011.59 -5.36133 -2.73579 0
M  V30 10405 H 1015.42 -3.00902 -0.411275 0
M  V30 10406 H 1013.01 -1.4877 -0.137015 0
M  V30 10407 H 1014.89 -3.0924 -2.86266 0
M  V30 10408 H 1013.56 -1.92521 -2.60225 0
M  V30 10409 H 1012.47 -3.60363 -1.00447 0
M  V30 10410 H 1013.8 -4.73593 -1.34053 0
M  V30 10411 N 1015.45 0.186762 -1.56489 0
M  V30 10412 C 1016.7 0.907194 -1.81378 0
M  V30 10413 C 1017.03 1.82558 -0.662283 0
M  V30 10414 O 1016.31 1.91564 0.336699 0
M  V30 10415 C 1016.59 1.71624 -3.16571 0
M  V30 10416 C 1016.44 0.822009 -4.42225 0
M  V30 10417 C 1017.76 2.68713 -3.48542 0
M  V30 10418 H 1014.88 0.328366 -0.659806 0
M  V30 10419 H 1017.52 0.174142 -1.892 0
M  V30 10420 H 1015.67 2.34119 -3.10033 0
M  V30 10421 H 1017.35 0.211122 -4.60817 0
M  V30 10422 H 1015.59 0.129178 -4.33608 0
M  V30 10423 H 1016.26 1.42326 -5.33336 0
M  V30 10424 H 1018.74 2.16348 -3.55433 0
M  V30 10425 H 1017.61 3.22397 -4.44242 0
M  V30 10426 H 1017.87 3.48165 -2.72459 0
M  V30 10427 N 1016.93 1.50896 0.454776 0
M  V30 10428 C 1018.16 1.6648 1.22849 0
M  V30 10429 C 1018.58 0.354841 1.85435 0
M  V30 10430 O 1017.93 -0.664931 1.69956 0
M  V30 10431 C 1017.98 2.76787 2.32532 0
M  V30 10432 O 1017.7 4.02706 1.72509 0
M  V30 10433 C 1019.21 3.03488 3.23125 0
M  V30 10434 H 1016.43 0.559152 0.370932 0
M  V30 10435 H 1018.97 1.97215 0.540983 0
M  V30 10436 H 1017.12 2.48701 2.9703 0
M  V30 10437 H 1017.54 4.63834 2.44863 0
M  V30 10438 H 1019.01 3.84294 3.9626 0
M  V30 10439 H 1019.49 2.152 3.82865 0
M  V30 10440 H 1020.1 3.33167 2.64347 0
M  V30 10441 N 1018.41 -0.709066 1.40748 0
M  V30 10442 C 1019.66 -1.46901 1.39378 0
M  V30 10443 C 1019.99 -1.945 -0.0016993 0
M  V30 10444 O 1019.24 -1.68963 -0.987426 0
M  V30 10445 C 1019.54 -2.70543 2.33541 0
M  V30 10446 C 1019.21 -2.41674 3.80663 0
M  V30 10447 C 1017.87 -2.33511 4.20745 0
M  V30 10448 C 1020.22 -2.1759 4.73607 0
M  V30 10449 C 1017.55 -1.99342 5.51797 0
M  V30 10450 C 1019.9 -1.84933 6.04965 0
M  V30 10451 C 1018.56 -1.75256 6.44082 0
M  V30 10452 H 1017.83 -0.537549 0.510021 0
M  V30 10453 H 1020.48 -0.811635 1.7345 0
M  V30 10454 H 1018.79 -3.41149 1.92677 0
M  V30 10455 H 1020.48 -3.2865 2.29761 0
M  V30 10456 H 1017.07 -2.48917 3.4891 0
M  V30 10457 H 1021.26 -2.22849 4.43454 0
M  V30 10458 H 1016.51 -1.90392 5.81 0
M  V30 10459 H 1020.69 -1.65313 6.76494 0
M  V30 10460 H 1018.31 -1.48547 7.45545 0
M  V30 10461 N 1019.89 -1.26353 -0.941956 0
M  V30 10462 C 1021.14 -1.12017 -1.69056 0
M  V30 10463 C 1021.47 0.335856 -1.91274 0
M  V30 10464 O 1020.74 1.24677 -1.49285 0
M  V30 10465 C 1021.03 -1.88889 -3.06583 0
M  V30 10466 C 1020.88 -3.42394 -2.91696 0
M  V30 10467 C 1022.2 -1.68209 -4.06686 0
M  V30 10468 H 1019.32 -0.408311 -0.613556 0
M  V30 10469 H 1021.96 -1.55339 -1.09407 0
M  V30 10470 H 1020.11 -1.5207 -3.57501 0
M  V30 10471 H 1021.78 -3.88962 -2.48005 0
M  V30 10472 H 1020.02 -3.69459 -2.27338 0
M  V30 10473 H 1020.7 -3.91408 -3.89235 0
M  V30 10474 H 1023.17 -2.00286 -3.64726 0
M  V30 10475 H 1022.05 -2.24412 -5.00929 0
M  V30 10476 H 1022.31 -0.626474 -4.37639 0
M  V30 10477 N 1021.37 1.14642 -1.08144 0
M  V30 10478 C 1022.62 1.84964 -0.804437 0
M  V30 10479 C 1022.93 1.8369 0.672106 0
M  V30 10480 O 1024.14 2.49775 1.06417 0
M  V30 10481 C 1022.59 3.32015 -1.38904 0
M  V30 10482 C 1022.2 3.41713 -2.89718 0
M  V30 10483 C 1023.94 4.07467 -1.19041 0
M  V30 10484 C 1021.85 4.82958 -3.41329 0
M  V30 10485 H 1020.78 0.692932 -0.297256 0
M  V30 10486 H 1023.43 1.29255 -1.30251 0
M  V30 10487 H 1021.81 3.87445 -0.818679 0
M  V30 10488 H 1022.99 2.96347 -3.52867 0
M  V30 10489 H 1021.3 2.79713 -3.08463 0
M  V30 10490 H 1023.9 5.1172 -1.55069 0
M  V30 10491 H 1024.24 4.16097 -0.130027 0
M  V30 10492 H 1024.78 3.58329 -1.72757 0
M  V30 10493 H 1021.51 4.79515 -4.46929 0
M  V30 10494 H 1021.03 5.28873 -2.82937 0
M  V30 10495 H 1022.71 5.51841 -3.37759 0
M  V30 10496 N 1022.85 0.866709 1.31628 0
M  V30 10497 C 1024.07 0.49039 2.01004 0
M  V30 10498 C 1024.49 -0.916244 1.65077 0
M  V30 10499 O 1023.85 -1.59975 0.8783 0
M  V30 10500 C 1023.9 0.634011 3.55897 0
M  V30 10501 O 1023.62 1.98525 3.90537 0
M  V30 10502 C 1025.12 0.258277 4.42547 0
M  V30 10503 H 1022.34 0.191421 0.643117 0
M  V30 10504 H 1024.88 1.16698 1.67934 0
M  V30 10505 H 1023.04 0.00501801 3.874 0
M  V30 10506 H 1023.45 1.99067 4.85255 0
M  V30 10507 H 1024.93 0.409733 5.50477 0
M  V30 10508 H 1025.4 -0.802301 4.3181 0
M  V30 10509 H 1026.01 0.862837 4.16456 0
M  V30 10510 N 1024.32 -1.44642 0.625825 0
M  V30 10511 C 1025.55 -2.06971 0.133373 0
M  V30 10512 C 1025.97 -1.46421 -1.18078 0
M  V30 10513 O 1025.33 -0.563676 -1.72315 0
M  V30 10514 C 1025.38 -3.6059 0.0265097 0
M  V30 10515 O 1024.48 -3.99615 -1.01889 0
M  V30 10516 H 1023.82 -0.658873 0.0823568 0
M  V30 10517 H 1026.35 -1.85601 0.861002 0
M  V30 10518 H 1026.36 -4.07663 -0.1658 0
M  V30 10519 H 1025.04 -4.04043 0.985986 0
M  V30 10520 H 1023.62 -3.64183 -0.801577 0
M  V30 10521 N 1025.8 -0.366053 -1.5329 0
M  V30 10522 C 1026.75 0.480205 -2.25749 0
M  V30 10523 C 1027.72 1.07713 -1.2644 0
M  V30 10524 O 1028.9 1.10953 -1.55222 0
M  V30 10525 C 1026.04 1.61374 -3.05045 0
M  V30 10526 C 1025.16 1.04194 -4.19246 0
M  V30 10527 C 1024.29 2.14462 -4.85983 0
M  V30 10528 C 1023.33 1.5475 -5.92215 0
M  V30 10529 N 1022.47 2.58852 -6.52641 0
M  V30 10530 H 1027.31 -0.144199 -2.97651 0
M  V30 10531 H 1024.84 -0.0829321 -1.46866 0
M  V30 10532 H 1026.8 2.28144 -3.49294 0
M  V30 10533 H 1025.43 2.2088 -2.35397 0
M  V30 10534 H 1024.48 0.264514 -3.79479 0
M  V30 10535 H 1025.8 0.565379 -4.95585 0
M  V30 10536 H 1024.95 2.89051 -5.33418 0
M  V30 10537 H 1023.69 2.6547 -4.09117 0
M  V30 10538 H 1022.69 0.786759 -5.44142 0
M  V30 10539 H 1023.92 1.04566 -6.71001 0
M  V30 10540 H 1021.87 3.09073 -5.78627 0
M  V30 10541 H 1021.78 2.15884 -7.24521 0
M  V30 10542 H 1023.05 3.33142 -7.04724 0
M  V30 10543 N 1027.28 1.57312 -0.0952337 0
M  V30 10544 C 1028.21 2.11059 0.893678 0
M  V30 10545 C 1029.22 1.04787 1.24594 0
M  V30 10546 O 1030.41 1.32233 1.19903 0
M  V30 10547 C 1027.51 2.57552 2.20272 0
M  V30 10548 C 1026.69 3.87661 2.02578 0
M  V30 10549 C 1025.75 4.2 3.16996 0
M  V30 10550 O 1024.77 4.89219 2.90953 0
M  V30 10551 N 1025.97 3.75414 4.42769 0
M  V30 10552 H 1028.74 2.96532 0.434632 0
M  V30 10553 H 1026.3 1.6165 0.0898661 0
M  V30 10554 H 1028.29 2.76232 2.95766 0
M  V30 10555 H 1026.86 1.7709 2.576 0
M  V30 10556 H 1026.08 3.78128 1.11413 0
M  V30 10557 H 1027.37 4.7278 1.88032 0
M  V30 10558 H 1026.77 3.1954 4.66809 0
M  V30 10559 H 1025.32 3.99249 5.15212 0
M  V30 10560 N 1028.76 -0.17846 1.56586 0
M  V30 10561 C 1030.03 -0.923096 1.72448 0
M  V30 10562 C 1030.41 -2.00692 0.654659 0
M  V30 10563 O 1029.76 -2.26079 -0.33171 0
M  V30 10564 C 1029.97 -1.49435 3.15389 0
M  V30 10565 C 1031.32 -1.97005 3.76131 0
M  V30 10566 O 1032.34 -1.59244 3.18622 0
M  V30 10567 O 1031.2 -2.66541 4.77094 0
M  V30 10568 H 1028.3 -0.434009 0.703964 0
M  V30 10569 H 1030.84 -0.16685 1.68878 0
M  V30 10570 H 1029.62 -0.713933 3.84732 0
M  V30 10571 H 1029.24 -2.31498 3.23256 0
M  V30 10572 N 1030.24 -1.51135 -0.446768 0
M  V30 10573 C 1031.17 -1.67949 -1.55967 0
M  V30 10574 C 1032.18 -0.560337 -1.52853 0
M  V30 10575 O 1033.37 -0.83435 -1.578 0
M  V30 10576 C 1030.47 -1.6703 -2.9488 0
M  V30 10577 C 1029.64 -2.95377 -3.22601 0
M  V30 10578 C 1028.7 -2.86772 -4.4119 0
M  V30 10579 O 1027.73 -3.60722 -4.40304 0
M  V30 10580 N 1028.93 -2.01979 -5.44228 0
M  V30 10581 H 1031.69 -2.63951 -1.41951 0
M  V30 10582 H 1029.26 -1.48903 -0.635569 0
M  V30 10583 H 1031.25 -1.58854 -3.7222 0
M  V30 10584 H 1029.82 -0.786623 -3.02541 0
M  V30 10585 H 1029.04 -3.17494 -2.33647 0
M  V30 10586 H 1030.33 -3.80356 -3.37945 0
M  V30 10587 H 1029.72 -1.41257 -5.4778 0
M  V30 10588 H 1028.28 -1.99689 -6.20457 0
M  V30 10589 N 1031.71 0.701592 -1.41122 0
M  V30 10590 C 1032.96 1.45871 -1.39879 0
M  V30 10591 C 1033.28 1.94999 -0.00668769 0
M  V30 10592 O 1032.55 1.71298 0.95047 0
M  V30 10593 H 1031.13 0.541231 -0.514857 0
M  V30 10594 H 1033.79 0.830803 -1.76306 0
M  V30 10595 H 1032.89 2.32479 -2.0823 0
M  V30 10596 N 1033.19 1.2685 0.935242 0
M  V30 10597 C 1034.42 1.15645 1.72165 0
M  V30 10598 C 1034.84 -0.283909 1.85945 0
M  V30 10599 O 1034.2 -1.20567 1.354 0
M  V30 10600 C 1034.25 1.83689 3.10307 0
M  V30 10601 O 1033.35 1.12972 3.96625 0
M  V30 10602 H 1032.69 0.402629 0.528002 0
M  V30 10603 H 1035.22 1.67781 1.17093 0
M  V30 10604 H 1035.23 1.90749 3.60664 0
M  V30 10605 H 1033.91 2.88472 2.99595 0
M  V30 10606 H 1032.48 1.13929 3.5507 0
M  V30 10607 N 1034.67 -1.14067 1.0875 0
M  V30 10608 C 1036.09 -1.37173 0.815823 0
M  V30 10609 C 1036.29 -1.93175 -0.573215 0
M  V30 10610 O 1035.34 -2.14672 -1.32937 0
M  V30 10611 C 1036.66 -2.32955 1.90138 0
M  V30 10612 C 1038.2 -2.46586 1.9278 0
M  V30 10613 C 1038.68 -3.4567 3.0046 0
M  V30 10614 N 1040.17 -3.53216 2.99655 0
M  V30 10615 C 1040.9 -4.29743 3.79616 0
M  V30 10616 N 1040.4 -5.09484 4.69466 0
M  V30 10617 N 1042.19 -4.24975 3.67903 0
M  V30 10618 H 1034.34 -0.760648 1.98313 0
M  V30 10619 H 1036.61 -0.397135 0.860807 0
M  V30 10620 H 1036.31 -1.98949 2.90021 0
M  V30 10621 H 1036.19 -3.32897 1.77368 0
M  V30 10622 H 1038.57 -2.79882 0.935404 0
M  V30 10623 H 1038.66 -1.46593 2.09629 0
M  V30 10624 H 1038.3 -3.13106 3.99909 0
M  V30 10625 H 1038.23 -4.45452 2.80856 0
M  V30 10626 H 1040.72 -2.96314 2.34535 0
M  V30 10627 H 1041.03 -5.65163 5.27077 0
M  V30 10628 H 1039.38 -5.08741 4.73506 0
M  V30 10629 H 1042.57 -3.61751 2.97075 0
M  V30 10630 H 1042.74 -4.84364 4.30459 0
M  V30 10631 N 1036.15 -0.873678 -1.31166 0
M  V30 10632 C 1037.08 -0.348011 -2.30892 0
M  V30 10633 C 1038.06 0.563092 -1.60509 0
M  V30 10634 O 1039.24 0.479332 -1.88192 0
M  V30 10635 C 1036.37 0.448158 -3.44396 0
M  V30 10636 C 1035.33 -0.370179 -4.26396 0
M  V30 10637 C 1034.65 0.551903 -5.31844 0
M  V30 10638 C 1035.95 -1.60624 -4.96988 0
M  V30 10639 H 1037.65 -1.18134 -2.75109 0
M  V30 10640 H 1035.19 -0.569502 -1.3226 0
M  V30 10641 H 1037.15 0.826458 -4.13216 0
M  V30 10642 H 1035.87 1.31503 -2.98956 0
M  V30 10643 H 1034.53 -0.730472 -3.59249 0
M  V30 10644 H 1034.18 1.41616 -4.82653 0
M  V30 10645 H 1033.88 0.00823478 -5.87599 0
M  V30 10646 H 1035.4 0.926965 -6.03523 0
M  V30 10647 H 1036.82 -1.29917 -5.58386 0
M  V30 10648 H 1035.21 -2.08926 -5.62557 0
M  V30 10649 H 1036.28 -2.357 -4.23761 0
M  V30 10650 N 1037.63 1.44308 -0.633487 0
M  V30 10651 C 1038.87 2.01624 -0.138643 0
M  V30 10652 C 1039.2 1.50101 1.24477 0
M  V30 10653 O 1038.47 0.705575 1.82752 0
M  V30 10654 H 1037.05 0.745439 -0.0482636 0
M  V30 10655 H 1039.71 1.76777 -0.820719 0
M  V30 10656 H 1038.8 3.11913 -0.108136 0
M  V30 10657 N 1039.1 0.374177 1.53094 0
M  V30 10658 C 1040.04 -0.503065 2.23611 0
M  V30 10659 C 1041.05 -1.03915 1.25321 0
M  V30 10660 O 1042.24 -0.944064 1.51492 0
M  V30 10661 C 1039.34 -1.70825 2.92698 0
M  V30 10662 C 1038.51 -1.30217 4.17567 0
M  V30 10663 C 1037.57 -2.37036 4.69788 0
M  V30 10664 O 1036.6 -1.99069 5.33254 0
M  V30 10665 N 1037.8 -3.68743 4.4834 0
M  V30 10666 H 1040.56 0.101013 2.9953 0
M  V30 10667 H 1038.12 0.199778 1.60663 0
M  V30 10668 H 1040.12 -2.41779 3.24538 0
M  V30 10669 H 1038.69 -2.219 2.2018 0
M  V30 10670 H 1037.91 -0.422121 3.91933 0
M  V30 10671 H 1039.19 -1.00728 4.9873 0
M  V30 10672 H 1038.59 -4.0236 3.97647 0
M  V30 10673 H 1037.15 -4.35776 4.84709 0
M  V30 10674 N 1040.58 -1.57259 0.103575 0
M  V30 10675 C 1041.86 -1.86143 -0.600852 0
M  V30 10676 C 1042.24 -1.00198 -1.85805 0
M  V30 10677 O 1041.59 -0.0766791 -2.28371 0
M  V30 10678 C 1041.8 -3.36978 -0.908108 0
M  V30 10679 C 1043.15 -4.05228 -1.26788 0
M  V30 10680 O 1044.17 -3.41908 -0.998859 0
M  V30 10681 O 1043.03 -5.16971 -1.7721 0
M  V30 10682 H 1040.12 -0.770064 -0.301547 0
M  V30 10683 H 1042.67 -1.69147 0.136914 0
M  V30 10684 H 1041.44 -3.91296 -0.0165615 0
M  V30 10685 H 1041.06 -3.5935 -1.70156 0
M  V30 10686 N 1042.06 0.170153 -1.56679 0
M  V30 10687 C 1042.99 1.23945 -1.91606 0
M  V30 10688 C 1043.97 1.42725 -0.779004 0
M  V30 10689 O 1045.16 1.57712 -1.03243 0
M  V30 10690 C 1042.28 2.60222 -2.168 0
M  V30 10691 C 1041.33 2.58172 -3.39484 0
M  V30 10692 S 1042.16 2.0714 -4.93815 0
M  V30 10693 C 1043.32 3.45192 -5.22105 0
M  V30 10694 H 1043.55 0.941345 -2.82004 0
M  V30 10695 H 1041.08 0.374771 -1.49783 0
M  V30 10696 H 1043.04 3.38656 -2.31996 0
M  V30 10697 H 1041.7 2.87232 -1.27107 0
M  V30 10698 H 1040.9 3.58435 -3.54317 0
M  V30 10699 H 1040.5 1.87834 -3.2341 0
M  V30 10700 H 1042.79 4.41194 -5.14154 0
M  V30 10701 H 1043.73 3.35233 -6.23718 0
M  V30 10702 H 1044.14 3.41257 -4.49671 0
M  V30 10703 N 1043.54 1.5137 0.438746 0
M  V30 10704 C 1044.95 1.56462 1.01866 0
M  V30 10705 C 1045.3 0.387244 1.9234 0
M  V30 10706 O 1044.43 -0.496131 2.10636 0
M  V30 10707 C 1045.02 2.83557 1.85421 0
M  V30 10708 C 1043.58 2.91224 2.38464 0
M  V30 10709 C 1042.73 2.51109 1.17641 0
M  V30 10710 H 1045.68 1.57167 0.220072 0
M  V30 10711 H 1045.7 2.6724 2.70857 0
M  V30 10712 H 1045.21 3.69229 1.19546 0
M  V30 10713 H 1043.31 2.09979 3.07798 0
M  V30 10714 H 1043.42 3.94844 2.71358 0
M  V30 10715 H 1041.79 2.04276 1.5213 0
M  V30 10716 H 1042.57 3.39125 0.533785 0
M  V30 10717 N 1045.02 -0.694098 1.41492 0
M  V30 10718 C 1046.43 -1.27407 1.36471 0
M  V30 10719 C 1046.78 -1.9614 0.0485209 0
M  V30 10720 O 1045.9 -1.98871 -0.853188 0
M  V30 10721 C 1046.5 -2.31698 2.47188 0
M  V30 10722 C 1045.06 -2.85268 2.45559 0
M  V30 10723 C 1044.2 -1.59325 2.2696 0
M  V30 10724 H 1047.16 -0.488756 1.50986 0
M  V30 10725 H 1047.18 -3.1302 2.1633 0
M  V30 10726 H 1046.69 -1.81644 3.42968 0
M  V30 10727 H 1044.79 -3.39494 1.5354 0
M  V30 10728 H 1044.9 -3.35598 3.41922 0
M  V30 10729 H 1043.27 -1.85188 1.74864 0
M  V30 10730 H 1044.05 -1.11265 3.24769 0
M  V30 10731 N 1046.49 -1.27344 -0.928501 0
M  V30 10732 C 1047.42 -1.12517 -2.04602 0
M  V30 10733 C 1048.41 -0.0268563 -1.70079 0
M  V30 10734 O 1049.59 -0.201197 -1.93155 0
M  V30 10735 C 1046.72 -0.770749 -3.3864 0
M  V30 10736 C 1045.67 -1.8222 -3.87272 0
M  V30 10737 C 1045 -1.32178 -5.18105 0
M  V30 10738 C 1046.3 -3.22614 -4.10752 0
M  V30 10739 H 1047.99 -2.06 -2.17265 0
M  V30 10740 H 1045.54 -0.991827 -1.04397 0
M  V30 10741 H 1047.49 -0.653843 -4.16297 0
M  V30 10742 H 1046.22 0.19979 -3.25988 0
M  V30 10743 H 1044.88 -1.928 -3.11807 0
M  V30 10744 H 1044.52 -0.340719 -5.01845 0
M  V30 10745 H 1044.22 -2.02474 -5.51614 0
M  V30 10746 H 1045.75 -1.2178 -5.98333 0
M  V30 10747 H 1047.16 -3.1504 -4.78981 0
M  V30 10748 H 1045.56 -3.90614 -4.55566 0
M  V30 10749 H 1046.63 -3.67727 -3.16077 0
M  V30 10750 N 1047.97 1.13488 -1.09353 0
M  V30 10751 C 1049.2 1.88592 -0.850915 0
M  V30 10752 C 1049.62 1.79087 0.597761 0
M  V30 10753 O 1048.97 1.15695 1.41142 0
M  V30 10754 C 1049.02 3.38219 -1.27633 0
M  V30 10755 O 1048.74 3.47476 -2.66819 0
M  V30 10756 C 1050.25 4.30293 -1.06598 0
M  V30 10757 H 1047.47 0.597069 -0.306185 0
M  V30 10758 H 1050.01 1.43668 -1.45533 0
M  V30 10759 H 1048.16 3.80729 -0.715828 0
M  V30 10760 H 1048.58 4.40485 -2.84733 0
M  V30 10761 H 1050.05 5.33611 -1.41293 0
M  V30 10762 H 1050.53 4.392 -0.0037135 0
M  V30 10763 H 1051.14 3.9355 -1.6124 0
M  V30 10764 N 1049.45 0.880621 1.30701 0
M  V30 10765 C 1050.4 0.315679 2.25804 0
M  V30 10766 C 1051.39 -0.553382 1.51084 0
M  V30 10767 O 1052.58 -0.398518 1.72455 0
M  V30 10768 C 1049.71 -0.472586 3.40032 0
M  V30 10769 C 1048.79 0.410318 4.2211 0
M  V30 10770 N 1049.18 1.50876 4.82773 0
M  V30 10771 C 1047.48 0.20465 4.4553 0
M  V30 10772 C 1048.18 2.05409 5.44226 0
M  V30 10773 N 1047.16 1.34964 5.26579 0
M  V30 10774 H 1050.96 1.15505 2.70251 0
M  V30 10775 H 1048.47 0.729547 1.45091 0
M  V30 10776 H 1050.47 -0.893918 4.07204 0
M  V30 10777 H 1049.13 -1.30945 2.97125 0
M  V30 10778 H 1050.14 1.89163 4.82118 0
M  V30 10779 H 1046.82 -0.595398 4.13233 0
M  V30 10780 H 1048.21 2.97627 6.02385 0
M  V30 10781 N 1050.93 -1.4397 0.641131 0
M  V30 10782 C 1051.86 -2.28997 -0.0963315 0
M  V30 10783 C 1052.87 -1.4184 -0.799071 0
M  V30 10784 O 1054.06 -1.65896 -0.658846 0
M  V30 10785 C 1051.16 -3.18465 -1.15903 0
M  V30 10786 C 1050.34 -4.34093 -0.536828 0
M  V30 10787 C 1049.4 -5.04522 -1.4948 0
M  V30 10788 O 1048.42 -5.60202 -1.00807 0
M  V30 10789 N 1049.62 -5.06899 -2.82901 0
M  V30 10790 H 1052.39 -2.9293 0.633422 0
M  V30 10791 H 1049.95 -1.54527 0.48302 0
M  V30 10792 H 1051.94 -3.62445 -1.80044 0
M  V30 10793 H 1050.51 -2.56214 -1.79089 0
M  V30 10794 H 1049.73 -3.9318 0.283414 0
M  V30 10795 H 1051.02 -5.08698 -0.101966 0
M  V30 10796 H 1050.42 -4.63012 -3.25017 0
M  V30 10797 H 1048.97 -5.54637 -3.42376 0
M  V30 10798 N 1052.41 -0.382291 -1.52893 0
M  V30 10799 C 1053.66 0.203342 -2.00672 0
M  V30 10800 C 1053.97 1.48487 -1.27322 0
M  V30 10801 O 1055.18 2.15013 -1.65776 0
M  V30 10802 C 1053.63 0.412922 -3.57523 0
M  V30 10803 C 1053.24 -0.854949 -4.39767 0
M  V30 10804 C 1054.98 0.955301 -4.13611 0
M  V30 10805 C 1052.89 -0.614033 -5.88204 0
M  V30 10806 H 1051.82 0.0797635 -0.749769 0
M  V30 10807 H 1054.47 -0.50361 -1.76454 0
M  V30 10808 H 1052.85 1.18155 -3.77962 0
M  V30 10809 H 1054.03 -1.62765 -4.31096 0
M  V30 10810 H 1052.34 -1.32176 -3.94865 0
M  V30 10811 H 1054.94 1.15114 -5.22162 0
M  V30 10812 H 1055.28 1.92233 -3.69259 0
M  V30 10813 H 1055.82 0.24642 -3.97036 0
M  V30 10814 H 1052.55 -1.55187 -6.36865 0
M  V30 10815 H 1052.07 0.119865 -5.9968 0
M  V30 10816 H 1053.75 -0.245895 -6.46533 0
M  V30 10817 N 1053.89 1.57202 -0.111913 0
M  V30 10818 C 1054.82 2.10634 0.877983 0
M  V30 10819 C 1055.8 1.02098 1.26549 0
M  V30 10820 O 1056.98 1.29707 1.36779 0
M  V30 10821 C 1054.11 2.59721 2.174 0
M  V30 10822 C 1053.15 3.80074 1.93509 0
M  V30 10823 S 1053.99 5.22834 1.1578 0
M  V30 10824 C 1055.14 5.75284 2.46576 0
M  V30 10825 H 1055.38 2.94268 0.423483 0
M  V30 10826 H 1052.91 1.54065 0.101721 0
M  V30 10827 H 1054.87 2.88657 2.91868 0
M  V30 10828 H 1053.53 1.76281 2.59969 0
M  V30 10829 H 1052.72 4.12545 2.89522 0
M  V30 10830 H 1052.32 3.51718 1.27164 0
M  V30 10831 H 1054.61 5.84576 3.42457 0
M  V30 10832 H 1055.56 6.73493 2.1866 0
M  V30 10833 H 1055.97 5.03308 2.55619 0
M  V30 10834 N 1055.36 -0.161842 1.56767 0
M  V30 10835 C 1056.59 -0.890953 1.86402 0
M  V30 10836 C 1057 -1.75918 0.696373 0
M  V30 10837 O 1056.34 -1.80461 -0.343463 0
M  V30 10838 C 1056.41 -1.81079 3.10565 0
M  V30 10839 C 1056.07 -1.12121 4.43032 0
M  V30 10840 C 1057.07 -0.482152 5.17659 0
M  V30 10841 C 1054.75 -1.11514 4.89765 0
M  V30 10842 C 1056.75 0.153772 6.37214 0
M  V30 10843 C 1054.43 -0.4754 6.09248 0
M  V30 10844 C 1055.43 0.157944 6.82817 0
M  V30 10845 O 1055.12 0.787579 8.00033 0
M  V30 10846 H 1054.85 -0.26379 0.622407 0
M  V30 10847 H 1057.41 -0.163884 2.04745 0
M  V30 10848 H 1055.64 -2.57842 2.88192 0
M  V30 10849 H 1057.32 -2.41056 3.26568 0
M  V30 10850 H 1058.09 -0.478752 4.82631 0
M  V30 10851 H 1053.97 -1.59752 4.32435 0
M  V30 10852 H 1057.51 0.648716 6.94577 0
M  V30 10853 H 1053.41 -0.476416 6.43739 0
M  V30 10854 H 1054.18 0.687769 8.15605 0
M  V30 10855 N 1056.84 -1.516 -0.430713 0
M  V30 10856 C 1058.09 -1.63829 -1.17657 0
M  V30 10857 C 1058.4 -0.363605 -1.92191 0
M  V30 10858 O 1059.61 -0.365358 -2.6903 0
M  V30 10859 C 1058.07 -2.89357 -2.14011 0
M  V30 10860 C 1057.67 -4.23854 -1.45094 0
M  V30 10861 C 1059.42 -3.10944 -2.88988 0
M  V30 10862 C 1057.32 -5.40526 -2.3997 0
M  V30 10863 H 1056.25 -0.610221 -0.442884 0
M  V30 10864 H 1058.91 -1.78073 -0.442984 0
M  V30 10865 H 1057.29 -2.68762 -2.90832 0
M  V30 10866 H 1058.46 -4.54854 -0.737853 0
M  V30 10867 H 1056.78 -4.08197 -0.822429 0
M  V30 10868 H 1059.37 -3.95286 -3.60074 0
M  V30 10869 H 1059.72 -2.24291 -3.50712 0
M  V30 10870 H 1060.25 -3.3191 -2.19272 0
M  V30 10871 H 1056.99 -6.29459 -1.82925 0
M  V30 10872 H 1056.51 -5.13893 -3.09313 0
M  V30 10873 H 1058.19 -5.72741 -3.00959 0
M  V30 10874 N 1058.32 0.686584 -1.41858 0
M  V30 10875 C 1059.73 1.26682 -1.37145 0
M  V30 10876 C 1060.08 1.96112 -0.058922 0
M  V30 10877 O 1059.21 1.99321 0.842629 0
M  V30 10878 C 1059.8 2.30383 -2.48413 0
M  V30 10879 C 1058.36 2.83961 -2.47069 0
M  V30 10880 C 1057.51 1.58119 -2.27802 0
M  V30 10881 H 1060.46 0.480742 -1.51243 0
M  V30 10882 H 1060.48 3.11868 -2.17987 0
M  V30 10883 H 1059.99 1.79822 -3.43927 0
M  V30 10884 H 1058.09 3.38675 -1.55338 0
M  V30 10885 H 1058.21 3.3378 -3.43697 0
M  V30 10886 H 1056.57 1.84258 -1.75844 0
M  V30 10887 H 1057.35 1.09541 -3.25355 0
M  V30 10888 N 1059.8 1.27835 0.921735 0
M  V30 10889 C 1061.21 1.13151 1.48505 0
M  V30 10890 C 1061.56 -0.281373 1.94172 0
M  V30 10891 O 1060.68 -1.17487 1.8173 0
M  V30 10892 C 1061.28 2.04792 2.69899 0
M  V30 10893 C 1059.84 1.94196 3.22436 0
M  V30 10894 C 1058.99 1.96999 1.95158 0
M  V30 10895 H 1061.94 1.40641 0.735241 0
M  V30 10896 H 1061.96 1.60724 3.44889 0
M  V30 10897 H 1061.47 3.07615 2.36631 0
M  V30 10898 H 1059.57 0.943805 3.60448 0
M  V30 10899 H 1059.68 2.80744 3.88226 0
M  V30 10900 H 1058.05 1.41301 2.11911 0
M  V30 10901 H 1058.83 3.01487 1.64196 0
M  V30 10902 N 1061.28 -1.12907 1.09954 0
M  V30 10903 C 1062.52 -1.83941 0.837255 0
M  V30 10904 C 1062.84 -1.84234 -0.638984 0
M  V30 10905 O 1062.11 -1.30193 -1.46378 0
M  V30 10906 H 1060.69 -0.681115 0.306743 0
M  V30 10907 H 1063.36 -1.36743 1.38879 0
M  V30 10908 H 1062.45 -2.88289 1.19565 0
M  V30 10909 N 1062.75 -0.88754 -1.30232 0
M  V30 10910 C 1064 -0.506277 -1.95656 0
M  V30 10911 C 1064.32 0.948191 -1.70395 0
M  V30 10912 O 1063.59 1.66701 -1.02895 0
M  V30 10913 H 1062.17 -0.184235 -0.723924 0
M  V30 10914 H 1064.83 -1.13118 -1.58715 0
M  V30 10915 H 1063.93 -0.678673 -3.04632 0
M  V30 10916 N 1064.23 1.43628 -0.648757 0
M  V30 10917 C 1065.64 1.85142 -0.24066 0
M  V30 10918 C 1065.99 1.54304 1.21181 0
M  V30 10919 O 1065.12 0.989792 1.92437 0
M  V30 10920 C 1065.71 3.3606 -0.429999 0
M  V30 10921 C 1064.27 3.76323 -0.0762588 0
M  V30 10922 C 1063.42 2.67382 -0.734999 0
M  V30 10923 H 1066.37 1.33844 -0.852734 0
M  V30 10924 H 1066.39 3.79102 0.325836 0
M  V30 10925 H 1065.9 3.58474 -1.48721 0
M  V30 10926 H 1064.01 3.59521 0.978529 0
M  V30 10927 H 1064.12 4.76498 -0.498612 0
M  V30 10928 H 1062.48 2.54141 -0.168644 0
M  V30 10929 H 1063.27 2.92625 -1.79515 0
M  V30 10930 N 1065.71 0.390394 1.52688 0
M  V30 10931 C 1066.96 -0.192697 2.00777 0
M  V30 10932 C 1067.27 -1.4781 1.28108 0
M  V30 10933 O 1068.48 -2.1413 1.66914 0
M  V30 10934 C 1066.93 -0.393955 3.57737 0
M  V30 10935 C 1066.54 0.878259 4.39307 0
M  V30 10936 C 1068.29 -0.933352 4.14112 0
M  V30 10937 C 1066.19 0.645218 5.8787 0
M  V30 10938 H 1065.12 -0.0757862 0.750182 0
M  V30 10939 H 1067.77 0.512961 1.76184 0
M  V30 10940 H 1066.16 -1.16149 3.78583 0
M  V30 10941 H 1067.33 1.65049 4.30227 0
M  V30 10942 H 1065.65 1.34269 3.94158 0
M  V30 10943 H 1068.24 -1.12343 5.22765 0
M  V30 10944 H 1068.59 -1.90272 3.70273 0
M  V30 10945 H 1069.12 -0.225361 3.97161 0
M  V30 10946 H 1065.86 1.58562 6.36033 0
M  V30 10947 H 1065.38 -0.0880609 5.99735 0
M  V30 10948 H 1067.06 0.280178 6.46393 0
M  V30 10949 N 1067.19 -1.57141 0.120249 0
M  V30 10950 C 1068.6 -1.82256 -0.404931 0
M  V30 10951 C 1068.95 -1.03748 -1.66526 0
M  V30 10952 O 1068.08 -0.274456 -2.14653 0
M  V30 10953 C 1068.67 -3.30588 -0.741431 0
M  V30 10954 C 1067.23 -3.56379 -1.21124 0
M  V30 10955 C 1066.38 -2.76421 -0.220569 0
M  V30 10956 H 1069.33 -1.54897 0.345361 0
M  V30 10957 H 1069.35 -3.45284 -1.59872 0
M  V30 10958 H 1068.86 -3.87701 0.176036 0
M  V30 10959 H 1066.96 -3.04625 -2.14556 0
M  V30 10960 H 1067.07 -4.64952 -1.1557 0
M  V30 10961 H 1065.44 -2.44666 -0.707857 0
M  V30 10962 H 1066.22 -3.36294 0.690018 0
M  V30 10963 N 1068.67 0.153526 -1.5685 0
M  V30 10964 C 1069.61 1.18973 -1.97773 0
M  V30 10965 C 1070.58 1.43041 -0.844311 0
M  V30 10966 O 1071.77 1.55484 -1.10586 0
M  V30 10967 C 1068.91 2.51981 -2.35795 0
M  V30 10968 C 1068.02 2.35143 -3.62397 0
M  V30 10969 C 1067.16 3.61141 -3.89552 0
M  V30 10970 C 1066.2 3.39311 -5.09445 0
M  V30 10971 N 1065.33 4.57423 -5.32643 0
M  V30 10972 H 1070.17 0.833758 -2.86099 0
M  V30 10973 H 1067.71 0.400252 -1.4155 0
M  V30 10974 H 1069.67 3.29527 -2.55867 0
M  V30 10975 H 1068.3 2.85539 -1.50557 0
M  V30 10976 H 1067.35 1.48684 -3.50139 0
M  V30 10977 H 1068.66 2.14969 -4.501 0
M  V30 10978 H 1067.82 4.47117 -4.10087 0
M  V30 10979 H 1066.55 3.84312 -3.00259 0
M  V30 10980 H 1065.56 2.51723 -4.8879 0
M  V30 10981 H 1066.78 3.17545 -6.00285 0
M  V30 10982 H 1064.73 4.8078 -4.46303 0
M  V30 10983 H 1064.65 4.40228 -6.14602 0
M  V30 10984 H 1065.92 5.44632 -5.57671 0
M  V30 10985 N 1070.14 1.51827 0.422667 0
M  V30 10986 C 1071.37 1.69337 1.19748 0
M  V30 10987 C 1071.79 0.396312 1.83878 0
M  V30 10988 O 1071.15 -0.644976 1.6944 0
M  V30 10989 C 1071.2 2.82082 2.24637 0
M  V30 10990 O 1070.3 2.46708 3.30468 0
M  V30 10991 H 1069.65 0.564154 0.35018 0
M  V30 10992 H 1072.18 1.98465 0.497289 0
M  V30 10993 H 1072.19 3.06599 2.69186 0
M  V30 10994 H 1070.86 3.76195 1.77341 0
M  V30 10995 H 1069.44 2.32815 2.91293 0
M  V30 10996 N 1071.62 -0.679052 1.4222 0
M  V30 10997 C 1072.87 -1.44125 1.42674 0
M  V30 10998 C 1073.2 -1.94156 0.041438 0
M  V30 10999 O 1072.48 -1.70628 -0.93361 0
M  V30 11000 C 1072.76 -2.64133 2.44756 0
M  V30 11001 C 1072.61 -2.19761 3.9246 0
M  V30 11002 C 1073.93 -3.66347 2.43881 0
M  V30 11003 H 1071.05 -0.522729 0.519541 0
M  V30 11004 H 1073.69 -0.772067 1.73606 0
M  V30 11005 H 1071.84 -3.21225 2.1851 0
M  V30 11006 H 1073.51 -1.67869 4.29671 0
M  V30 11007 H 1071.76 -1.51377 4.06531 0
M  V30 11008 H 1072.43 -3.05944 4.59459 0
M  V30 11009 H 1074.9 -3.18963 2.67211 0
M  V30 11010 H 1073.78 -4.47902 3.17293 0
M  V30 11011 H 1074.04 -4.17183 1.46325 0
M  V30 11012 N 1073.1 -1.28322 -0.914942 0
M  V30 11013 C 1074.33 -1.18254 -1.69775 0
M  V30 11014 C 1074.74 0.258978 -1.87015 0
M  V30 11015 O 1074.1 1.17514 -1.3963 0
M  V30 11016 C 1074.15 -1.8753 -3.09054 0
M  V30 11017 O 1073.87 -3.26051 -2.92613 0
M  V30 11018 C 1075.37 -1.83749 -4.03424 0
M  V30 11019 H 1072.59 -0.41055 -0.530744 0
M  V30 11020 H 1075.14 -1.69425 -1.14523 0
M  V30 11021 H 1073.29 -1.40233 -3.61128 0
M  V30 11022 H 1073.71 -3.60729 -3.80756 0
M  V30 11023 H 1075.18 -2.36813 -4.98622 0
M  V30 11024 H 1075.66 -0.809601 -4.31674 0
M  V30 11025 H 1076.26 -2.3072 -3.57279 0
M  V30 11026 N 1074.58 1.12322 -1.10551 0
M  V30 11027 C 1075.86 1.80201 -0.760715 0
M  V30 11028 C 1076.24 1.97228 0.752628 0
M  V30 11029 O 1075.58 1.54958 1.67929 0
M  V30 11030 C 1075.79 3.14491 -1.51316 0
M  V30 11031 C 1077.14 3.89671 -1.68647 0
M  V30 11032 O 1078.17 3.24151 -1.47664 0
M  V30 11033 O 1077.02 5.0722 -2.03445 0
M  V30 11034 H 1074.12 0.780084 -0.274587 0
M  V30 11035 H 1076.66 1.19147 -1.20839 0
M  V30 11036 H 1075.44 2.97396 -2.54306 0
M  V30 11037 H 1075.06 3.83253 -1.05842 0
M  V30 11038 N 1076.06 0.894434 1.2976 0
M  V30 11039 C 1077.29 0.532143 1.99629 0
M  V30 11040 C 1077.69 -0.886234 1.6716 0
M  V30 11041 O 1077.04 -1.59573 0.910065 0
M  V30 11042 C 1077.1 0.638335 3.53787 0
M  V30 11043 C 1076.76 2.02273 4.09798 0
M  V30 11044 C 1077.76 2.99327 4.25087 0
M  V30 11045 C 1075.45 2.33069 4.44954 0
M  V30 11046 C 1077.44 4.25304 4.74758 0
M  V30 11047 C 1075.13 3.59289 4.94322 0
M  V30 11048 C 1076.12 4.55222 5.09178 0
M  V30 11049 O 1075.81 5.79202 5.57477 0
M  V30 11050 H 1075.54 0.203326 0.644697 0
M  V30 11051 H 1078.1 1.2043 1.6639 0
M  V30 11052 H 1076.33 -0.0908338 3.86593 0
M  V30 11053 H 1078.02 0.285956 4.04891 0
M  V30 11054 H 1078.78 2.76849 3.9822 0
M  V30 11055 H 1074.66 1.59162 4.32653 0
M  V30 11056 H 1078.21 5.00189 4.86269 0
M  V30 11057 H 1074.1 3.816 5.20626 0
M  V30 11058 H 1074.87 5.81717 5.75802 0
M  V30 11059 N 1077.53 -1.43282 0.656365 0
M  V30 11060 C 1078.5 -2.29188 -0.0239173 0
M  V30 11061 C 1079.5 -1.42373 -0.747436 0
M  V30 11062 O 1080.69 -1.63969 -0.588213 0
M  V30 11063 C 1077.82 -3.24501 -1.0446 0
M  V30 11064 H 1079.01 -2.9083 0.731978 0
M  V30 11065 H 1076.57 -1.50614 0.417752 0
M  V30 11066 H 1077.3 -2.6776 -1.82962 0
M  V30 11067 H 1077.09 -3.88509 -0.52942 0
M  V30 11068 H 1078.58 -3.88971 -1.51958 0
M  V30 11069 N 1079.01 -0.398486 -1.52479 0
M  V30 11070 C 1080.26 0.17345 -2.02659 0
M  V30 11071 C 1080.61 1.43702 -1.27935 0
M  V30 11072 O 1079.91 1.87916 -0.37392 0
M  V30 11073 C 1080.1 0.485909 -3.54081 0
M  V30 11074 C 1079.93 -0.745833 -4.43472 0
M  V30 11075 C 1078.7 -1.26785 -4.89136 0
M  V30 11076 C 1080.9 -1.62085 -4.88091 0
M  V30 11077 N 1078.88 -2.45619 -5.62623 0
M  V30 11078 C 1080.25 -2.65552 -5.60252 0
M  V30 11079 C 1082.31 -1.63986 -4.7012 0
M  V30 11080 C 1081.01 -3.70818 -6.1635 0
M  V30 11081 C 1083.04 -2.68164 -5.27107 0
M  V30 11082 C 1082.4 -3.70353 -5.99181 0
M  V30 11083 H 1078.5 0.0253159 -0.78159 0
M  V30 11084 H 1081.08 -0.550442 -1.86757 0
M  V30 11085 H 1079.25 1.17885 -3.70078 0
M  V30 11086 H 1080.98 1.0458 -3.90954 0
M  V30 11087 H 1077.74 -0.827472 -4.66315 0
M  V30 11088 H 1078.16 -3.05771 -6.04014 0
M  V30 11089 H 1082.8 -0.863253 -4.13893 0
M  V30 11090 H 1080.52 -4.49341 -6.71653 0
M  V30 11091 H 1084.11 -2.7053 -5.15077 0
M  V30 11092 H 1082.99 -4.49642 -6.42489 0
M  V30 11093 N 1080.49 1.57075 -0.12858 0
M  V30 11094 C 1081.42 2.12907 0.848708 0
M  V30 11095 C 1082.44 1.07406 1.22343 0
M  V30 11096 O 1083.63 1.34746 1.17071 0
M  V30 11097 C 1080.73 2.62167 2.1476 0
M  V30 11098 C 1079.9 3.91871 1.94309 0
M  V30 11099 C 1078.96 4.26629 3.08016 0
M  V30 11100 O 1077.98 4.9528 2.80511 0
M  V30 11101 N 1079.19 3.84721 4.34706 0
M  V30 11102 H 1081.95 2.97387 0.371636 0
M  V30 11103 H 1079.51 1.61805 0.0555574 0
M  V30 11104 H 1081.5 2.82444 2.89841 0
M  V30 11105 H 1080.07 1.82514 2.53786 0
M  V30 11106 H 1079.29 3.80406 1.03367 0
M  V30 11107 H 1080.58 4.76662 1.77962 0
M  V30 11108 H 1079.98 3.2937 4.59926 0
M  V30 11109 H 1078.54 4.10087 5.06628 0
M  V30 11110 N 1081.97 -0.145205 1.5693 0
M  V30 11111 C 1083.2 -0.872398 1.87608 0
M  V30 11112 C 1083.61 -1.74657 0.716975 0
M  V30 11113 O 1082.97 -1.79792 -0.3132 0
M  V30 11114 C 1083.02 -1.72762 3.17546 0
M  V30 11115 O 1082.74 -0.888681 4.28992 0
M  V30 11116 C 1084.24 -2.56224 3.61751 0
M  V30 11117 H 1081.46 -0.252166 0.621815 0
M  V30 11118 H 1084.01 -0.137456 2.04038 0
M  V30 11119 H 1082.16 -2.41561 3.02865 0
M  V30 11120 H 1082.58 -1.47601 5.03303 0
M  V30 11121 H 1084.05 -3.11804 4.55502 0
M  V30 11122 H 1084.53 -3.32347 2.87127 0
M  V30 11123 H 1085.13 -1.92714 3.79133 0
M  V30 11124 N 1083.45 -1.52049 -0.414609 0
M  V30 11125 C 1084.67 -1.6997 -1.18848 0
M  V30 11126 C 1085.1 -0.406058 -1.83665 0
M  V30 11127 O 1084.46 0.635981 -1.69779 0
M  V30 11128 C 1084.5 -2.8327 -2.23138 0
M  V30 11129 O 1083.61 -2.48457 -3.29155 0
M  V30 11130 H 1082.95 -0.566003 -0.347183 0
M  V30 11131 H 1085.48 -1.98726 -0.486757 0
M  V30 11132 H 1085.49 -3.08022 -2.67557 0
M  V30 11133 H 1084.16 -3.7713 -1.75344 0
M  V30 11134 H 1082.74 -2.34357 -2.90054 0
M  V30 11135 N 1084.93 0.6715 -1.42579 0
M  V30 11136 C 1086.15 1.45972 -1.46628 0
M  V30 11137 C 1086.57 1.88636 -0.0785986 0
M  V30 11138 O 1085.93 1.58345 0.907372 0
M  V30 11139 C 1085.98 2.70668 -2.39627 0
M  V30 11140 O 1085.7 2.29793 -3.72997 0
M  V30 11141 C 1087.2 3.64201 -2.52731 0
M  V30 11142 H 1084.42 0.449044 -0.498598 0
M  V30 11143 H 1086.96 0.824811 -1.87129 0
M  V30 11144 H 1085.12 3.3034 -2.02371 0
M  V30 11145 H 1085.53 3.10341 -4.22834 0
M  V30 11146 H 1087.01 4.48412 -3.21918 0
M  V30 11147 H 1087.48 4.10323 -1.56626 0
M  V30 11148 H 1088.09 3.1042 -2.90722 0
M  V30 11149 N 1086.4 1.28806 0.908124 0
M  V30 11150 C 1087.35 1.13083 2.03261 0
M  V30 11151 C 1088.35 0.0486094 1.6933 0
M  V30 11152 O 1089.55 0.207794 1.78797 0
M  V30 11153 H 1085.93 0.349057 0.666081 0
M  V30 11154 H 1087.9 2.08304 2.13663 0
M  V30 11155 C 1086.65 0.815339 3.38005 0
M  V30 11156 H 1085.97 1.64007 3.64612 0
M  V30 11157 H 1087.41 0.745311 4.17398 0
M  V30 11158 C 1085.87 -0.48113 3.33447 0
M  V30 11159 O 1086.4 -1.50974 3.7225 0
M  V30 11160 N 1084.6 -0.483912 2.86543 0
M  V30 11161 H 1084.15 0.353593 2.55162 0
M  V30 11162 H 1084.11 -1.35138 2.83875 0
M  V30 11163 N 1087.88 -1.11734 1.11145 0
M  V30 11164 C 1089.29 -1.64928 0.874959 0
M  V30 11165 C 1089.64 -1.87012 -0.593375 0
M  V30 11166 O 1088.77 -1.60206 -1.45475 0
M  V30 11167 C 1089.36 -2.99608 1.58178 0
M  V30 11168 C 1087.92 -3.49723 1.39179 0
M  V30 11169 C 1087.07 -2.24595 1.62642 0
M  V30 11170 H 1090.02 -0.954154 1.26813 0
M  V30 11171 H 1090.04 -3.66434 1.02501 0
M  V30 11172 H 1089.55 -2.83504 2.65042 0
M  V30 11173 H 1087.65 -3.70998 0.345111 0
M  V30 11174 H 1087.77 -4.28711 2.13878 0
M  V30 11175 H 1086.13 -2.32067 1.04961 0
M  V30 11176 H 1086.91 -2.11036 2.70774 0
M  V30 11177 N 1089.36 -0.901303 -1.29284 0
M  V30 11178 C 1090.58 -0.542823 -2.0017 0
M  V30 11179 C 1091.01 0.865583 -1.67001 0
M  V30 11180 O 1090.37 1.5764 -0.895502 0
M  V30 11181 C 1090.42 -0.743987 -3.52842 0
M  V30 11182 O 1089.52 0.202771 -4.11901 0
M  V30 11183 H 1088.86 -0.211903 -0.62928 0
M  V30 11184 H 1091.39 -1.21333 -1.64741 0
M  V30 11185 H 1091.4 -0.64926 -4.02801 0
M  V30 11186 H 1090.08 -1.77077 -3.7632 0
M  V30 11187 H 1088.65 0.0603637 -3.72851 0
M  V30 11188 N 1090.84 1.42931 -0.663954 0
M  V30 11189 C 1092.09 2.00904 -0.179011 0
M  V30 11190 C 1092.4 1.53056 1.21791 0
M  V30 11191 O 1093.61 2.03374 1.79865 0
M  V30 11192 C 1092.06 3.58892 -0.269198 0
M  V30 11193 C 1091.67 4.15731 -1.66949 0
M  V30 11194 C 1093.41 4.24207 0.157589 0
M  V30 11195 C 1091.32 5.66047 -1.71303 0
M  V30 11196 H 1090.25 0.75135 -0.0631623 0
M  V30 11197 H 1092.9 1.6378 -0.827556 0
M  V30 11198 H 1091.28 3.93469 0.447048 0
M  V30 11199 H 1092.46 3.92634 -2.41195 0
M  V30 11200 H 1090.77 3.62826 -2.04318 0
M  V30 11201 H 1093.37 5.34503 0.145057 0
M  V30 11202 H 1093.71 3.98901 1.19095 0
M  V30 11203 H 1094.25 3.94552 -0.507274 0
M  V30 11204 H 1090.98 5.96136 -2.72584 0
M  V30 11205 H 1090.5 5.91167 -1.01398 0
M  V30 11206 H 1092.18 6.30275 -1.46158 0
M  V30 11207 N 1092.32 0.406567 1.52266 0
M  V30 11208 C 1093.56 -0.170053 2.01785 0
M  V30 11209 C 1093.89 -1.45361 1.2923 0
M  V30 11210 O 1093.15 -1.91849 0.386342 0
M  V30 11211 C 1093.44 -0.467124 3.54334 0
M  V30 11212 C 1093.11 0.72693 4.45002 0
M  V30 11213 C 1091.77 1.05446 4.69505 0
M  V30 11214 C 1094.12 1.52493 4.98393 0
M  V30 11215 C 1091.45 2.18123 5.44646 0
M  V30 11216 C 1093.8 2.64244 5.74768 0
M  V30 11217 C 1092.47 2.97486 5.97544 0
M  V30 11218 H 1091.74 -0.0622267 0.738383 0
M  V30 11219 H 1094.39 0.54746 1.83508 0
M  V30 11220 H 1092.69 -1.26617 3.70777 0
M  V30 11221 H 1094.39 -0.926194 3.90157 0
M  V30 11222 H 1090.98 0.461666 4.26106 0
M  V30 11223 H 1095.16 1.28512 4.79373 0
M  V30 11224 H 1090.42 2.44228 5.60502 0
M  V30 11225 H 1094.59 3.26468 6.15136 0
M  V30 11226 H 1092.22 3.84913 6.5555 0
M  V30 11227 N 1093.79 -1.57004 0.136909 0
M  V30 11228 C 1095.04 -1.96873 -0.511137 0
M  V30 11229 C 1095.4 -1.02001 -1.63137 0
M  V30 11230 O 1094.69 -0.0532138 -1.91526 0
M  V30 11231 C 1094.88 -3.40903 -1.07331 0
M  V30 11232 C 1094.71 -4.49699 -0.00908112 0
M  V30 11233 C 1093.48 -5.03477 0.42889 0
M  V30 11234 C 1095.68 -5.08372 0.778631 0
M  V30 11235 N 1093.66 -5.95867 1.47702 0
M  V30 11236 C 1095.03 -5.96875 1.67751 0
M  V30 11237 C 1097.09 -4.90975 0.827538 0
M  V30 11238 C 1095.79 -6.69845 2.62108 0
M  V30 11239 C 1097.82 -5.64639 1.75889 0
M  V30 11240 C 1097.18 -6.52842 2.64531 0
M  V30 11241 H 1093.28 -0.766253 -0.156141 0
M  V30 11242 H 1095.86 -1.93347 0.229176 0
M  V30 11243 H 1094.03 -3.45042 -1.78327 0
M  V30 11244 H 1095.76 -3.67855 -1.68715 0
M  V30 11245 H 1092.52 -4.73588 0.03306 0
M  V30 11246 H 1092.94 -6.46767 2.00055 0
M  V30 11247 H 1097.59 -4.22511 0.156318 0
M  V30 11248 H 1095.3 -7.37544 3.30235 0
M  V30 11249 H 1098.89 -5.53177 1.80241 0
M  V30 11250 H 1097.77 -7.08843 3.35426 0
M  V30 11251 N 1095.27 0.136881 -1.57004 0
M  V30 11252 C 1096.5 0.862436 -1.88068 0
M  V30 11253 C 1096.92 1.74274 -0.726227 0
M  V30 11254 O 1096.27 1.79956 0.30366 0
M  V30 11255 C 1096.32 1.71076 -3.18458 0
M  V30 11256 O 1096.04 0.865918 -4.29457 0
M  V30 11257 C 1097.55 2.54302 -3.63105 0
M  V30 11258 H 1094.77 0.248865 -0.623143 0
M  V30 11259 H 1097.31 0.126633 -2.04108 0
M  V30 11260 H 1095.46 2.39951 -3.04142 0
M  V30 11261 H 1095.88 1.4493 -5.04079 0
M  V30 11262 H 1097.35 3.09384 -4.57149 0
M  V30 11263 H 1097.83 3.3082 -2.88886 0
M  V30 11264 H 1098.44 1.907 -3.80149 0
M  V30 11265 N 1096.75 1.52266 0.40654 0
M  V30 11266 C 1097.66 1.78688 1.52012 0
M  V30 11267 C 1098.68 0.6726 1.60475 0
M  V30 11268 O 1099.85 0.95829 1.77141 0
M  V30 11269 C 1096.92 1.93434 2.87722 0
M  V30 11270 C 1095.98 3.17341 2.89125 0
M  V30 11271 C 1095.21 3.31374 4.18362 0
M  V30 11272 O 1095.43 2.50613 5.12396 0
M  V30 11273 O 1094.37 4.24539 4.26674 0
M  V30 11274 H 1098.19 2.73213 1.3262 0
M  V30 11275 H 1095.78 1.37142 0.592653 0
M  V30 11276 H 1097.66 2.04941 3.68208 0
M  V30 11277 H 1096.34 1.02099 3.07177 0
M  V30 11278 H 1095.24 3.1129 2.07483 0
M  V30 11279 H 1096.58 4.08466 2.7462 0
M  V30 11280 N 1098.23 -0.663929 1.42933 0
M  V30 11281 C 1099.48 -1.42111 1.43697 0
M  V30 11282 C 1099.8 -1.94913 0.0583858 0
M  V30 11283 O 1099.07 -1.73757 -0.904719 0
M  V30 11284 H 1097.65 -0.527391 0.529026 0
M  V30 11285 H 1100.31 -0.783766 1.78446 0
M  V30 11286 H 1099.41 -2.26877 2.1432 0
M  V30 11287 N 1099.71 -1.29285 -0.901281 0
M  V30 11288 C 1100.65 -1.14159 -2.02659 0
M  V30 11289 C 1101.65 -0.0575887 -1.69302 0
M  V30 11290 O 1102.85 -0.217273 -1.78684 0
M  V30 11291 H 1099.23 -0.352584 -0.66422 0
M  V30 11292 H 1101.2 -2.09434 -2.12555 0
M  V30 11293 C 1099.95 -0.833253 -3.37568 0
M  V30 11294 H 1099.27 -1.65939 -3.63737 0
M  V30 11295 H 1100.71 -0.767436 -4.16997 0
M  V30 11296 C 1099.17 0.46344 -3.33697 0
M  V30 11297 O 1099.7 1.48998 -3.73045 0
M  V30 11298 N 1097.91 0.468709 -2.86795 0
M  V30 11299 H 1097.45 -0.36712 -2.54971 0
M  V30 11300 H 1097.41 1.3363 -2.84588 0
M  V30 11301 N 1101.18 1.11143 -1.11736 0
M  V30 11302 C 1102.15 2.15456 -0.78174 0
M  V30 11303 C 1103.15 1.59547 0.200383 0
M  V30 11304 O 1104.34 1.74183 -0.0244893 0
M  V30 11305 C 1101.47 3.40523 -0.160364 0
M  V30 11306 H 1102.66 2.46658 -1.70586 0
M  V30 11307 H 1100.22 1.26381 -0.919644 0
M  V30 11308 H 1100.95 3.14932 0.773835 0
M  V30 11309 H 1100.74 3.82386 -0.867378 0
M  V30 11310 H 1102.23 4.17559 0.0582175 0
M  V30 11311 N 1102.66 0.908147 1.28804 0
M  V30 11312 C 1104.07 0.585727 1.77274 0
M  V30 11313 C 1104.42 -0.898842 1.744 0
M  V30 11314 O 1103.55 -1.70301 1.33516 0
M  V30 11315 C 1104.14 1.05647 3.21907 0
M  V30 11316 C 1102.7 0.785066 3.68122 0
M  V30 11317 C 1101.85 1.22638 2.48707 0
M  V30 11318 H 1104.8 1.09 1.15346 0
M  V30 11319 H 1104.82 0.395442 3.7844 0
M  V30 11320 H 1104.33 2.13698 3.23967 0
M  V30 11321 H 1102.44 -0.282477 3.71528 0
M  V30 11322 H 1102.55 1.38888 4.58527 0
M  V30 11323 H 1100.91 0.645217 2.46392 0
M  V30 11324 H 1101.7 2.31512 2.5349 0
M  V30 11325 N 1104.14 -1.42577 0.671525 0
M  V30 11326 C 1105.55 -1.84736 0.270084 0
M  V30 11327 C 1105.9 -1.56212 -1.18711 0
M  V30 11328 O 1105.03 -1.02028 -1.90838 0
M  V30 11329 C 1105.62 -3.35334 0.483409 0
M  V30 11330 C 1104.18 -3.76154 0.136119 0
M  V30 11331 C 1103.33 -2.66179 0.777444 0
M  V30 11332 H 1106.28 -1.3247 0.873919 0
M  V30 11333 H 1106.3 -3.79573 -0.265483 0
M  V30 11334 H 1105.81 -3.56063 1.54405 0
M  V30 11335 H 1103.91 -3.61033 -0.921209 0
M  V30 11336 H 1104.03 -4.75645 0.574356 0
M  V30 11337 H 1102.39 -2.53841 0.209055 0
M  V30 11338 H 1103.17 -2.89732 1.84148 0
M  V30 11339 N 1105.62 -0.414636 -1.52048 0
M  V30 11340 C 1107.03 -0.0657806 -1.59464 0
M  V30 11341 C 1107.23 1.4225 -1.42713 0
M  V30 11342 O 1106.29 2.18996 -1.25687 0
M  V30 11343 C 1107.6 -0.565618 -2.95332 0
M  V30 11344 C 1109.15 -0.524072 -3.08581 0
M  V30 11345 C 1109.63 -1.00051 -4.46938 0
M  V30 11346 N 1111.12 -0.957555 -4.53194 0
M  V30 11347 C 1111.85 -1.29733 -5.58531 0
M  V30 11348 N 1111.35 -1.70883 -6.71395 0
M  V30 11349 N 1113.14 -1.21694 -5.48769 0
M  V30 11350 H 1105.29 -1.38325 -1.61183 0
M  V30 11351 H 1107.56 -0.568593 -0.758556 0
M  V30 11352 H 1107.26 -1.60604 -3.12888 0
M  V30 11353 H 1107.14 0.0217735 -3.77194 0
M  V30 11354 H 1109.52 0.507319 -2.90707 0
M  V30 11355 H 1109.6 -1.14759 -2.28613 0
M  V30 11356 H 1109.25 -2.03025 -4.65557 0
M  V30 11357 H 1109.18 -0.353754 -5.2541 0
M  V30 11358 H 1111.67 -0.65508 -3.72179 0
M  V30 11359 H 1111.98 -1.95105 -7.47766 0
M  V30 11360 H 1110.33 -1.74791 -6.72661 0
M  V30 11361 H 1113.52 -0.894286 -4.59478 0
M  V30 11362 H 1113.69 -1.48504 -6.30754 0
M  V30 11363 N 1107.1 1.56929 -0.145233 0
M  V30 11364 C 1108.03 2.12449 0.833107 0
M  V30 11365 C 1109.01 1.0476 1.24355 0
M  V30 11366 O 1110.19 1.32579 1.33997 0
M  V30 11367 C 1107.32 2.64274 2.11842 0
M  V30 11368 C 1106.36 3.84093 1.85404 0
M  V30 11369 S 1107.2 5.25172 1.04663 0
M  V30 11370 C 1108.35 5.80384 2.34318 0
M  V30 11371 H 1108.59 2.951 0.360969 0
M  V30 11372 H 1106.12 1.54246 0.0690187 0
M  V30 11373 H 1108.08 2.94783 2.8568 0
M  V30 11374 H 1106.74 1.81756 2.56171 0
M  V30 11375 H 1105.93 4.18593 2.80706 0
M  V30 11376 H 1105.53 3.54336 1.19675 0
M  V30 11377 H 1107.83 5.91709 3.29981 0
M  V30 11378 H 1108.77 6.7798 2.04325 0
M  V30 11379 H 1109.18 5.08617 2.44885 0
M  V30 11380 N 1108.58 -0.128553 1.57075 0
M  V30 11381 C 1109.8 -0.8564 1.88893 0
M  V30 11382 C 1110.23 -1.73095 0.736196 0
M  V30 11383 O 1109.58 -1.78567 -0.313629 0
M  V30 11384 C 1109.63 -1.67368 3.19406 0
M  V30 11385 O 1108.74 -2.77973 3.04639 0
M  V30 11386 H 1108.08 -0.237424 0.620102 0
M  V30 11387 H 1110.61 -0.113821 2.04283 0
M  V30 11388 H 1110.62 -2.0649 3.51889 0
M  V30 11389 H 1109.29 -1.03161 4.02903 0
M  V30 11390 H 1107.87 -2.42123 2.83603 0
M  V30 11391 N 1110.05 -1.5248 -0.398459 0
M  V30 11392 C 1111.3 -1.66287 -1.14155 0
M  V30 11393 C 1111.62 -0.40429 -1.91376 0
M  V30 11394 O 1112.82 -0.422341 -2.68195 0
M  V30 11395 C 1111.28 -2.93831 -2.07825 0
M  V30 11396 C 1110.89 -4.26836 -1.3607 0
M  V30 11397 C 1112.63 -3.17004 -2.82327 0
M  V30 11398 C 1110.54 -5.45495 -2.28451 0
M  V30 11399 H 1109.47 -0.619478 -0.42984 0
M  V30 11400 H 1112.12 -1.78972 -0.405112 0
M  V30 11401 H 1110.5 -2.7487 -2.85065 0
M  V30 11402 H 1111.67 -4.56317 -0.641205 0
M  V30 11403 H 1109.99 -4.0985 -0.735659 0
M  V30 11404 H 1112.59 -4.02834 -3.51609 0
M  V30 11405 H 1112.93 -2.3168 -3.45876 0
M  V30 11406 H 1113.46 -3.36487 -2.12183 0
M  V30 11407 H 1110.2 -6.33198 -1.69532 0
M  V30 11408 H 1109.72 -5.20338 -2.98343 0
M  V30 11409 H 1111.4 -5.78996 -2.88743 0
M  V30 11410 N 1111.53 0.65634 -1.43283 0
M  V30 11411 C 1112.94 1.23744 -1.39801 0
M  V30 11412 C 1113.29 1.95942 -0.100507 0
M  V30 11413 O 1112.42 2.01063 0.800161 0
M  V30 11414 C 1113.01 2.25062 -2.53244 0
M  V30 11415 C 1111.57 2.78657 -2.53036 0
M  V30 11416 C 1110.72 1.53251 -2.31105 0
M  V30 11417 H 1113.67 0.448553 -1.52229 0
M  V30 11418 H 1113.69 3.07174 -2.24553 0
M  V30 11419 H 1113.2 1.72487 -3.47664 0
M  V30 11420 H 1111.3 3.35304 -1.62487 0
M  V30 11421 H 1111.42 3.26414 -3.507 0
M  V30 11422 H 1109.78 1.80487 -1.79713 0
M  V30 11423 H 1110.56 1.02615 -3.27605 0
M  V30 11424 N 1113.01 1.29761 0.894412 0
M  V30 11425 C 1114.26 1.18039 1.64539 0
M  V30 11426 C 1114.58 -0.26697 1.92659 0
M  V30 11427 O 1113.84 -1.20865 1.53916 0
M  V30 11428 C 1114.14 1.94458 2.99868 0
M  V30 11429 C 1113.8 3.44143 2.91336 0
M  V30 11430 C 1112.47 3.84963 2.88716 0
M  V30 11431 C 1114.82 4.39503 2.80154 0
M  V30 11432 C 1112.15 5.19451 2.72741 0
M  V30 11433 C 1114.5 5.74088 2.65718 0
M  V30 11434 C 1113.16 6.14159 2.61467 0
M  V30 11435 H 1112.43 0.431936 0.60209 0
M  V30 11436 H 1115.08 1.60758 1.04063 0
M  V30 11437 H 1113.38 1.44346 3.64241 0
M  V30 11438 H 1115.08 1.82788 3.56917 0
M  V30 11439 H 1111.67 3.11699 2.9418 0
M  V30 11440 H 1115.86 4.08915 2.81251 0
M  V30 11441 H 1111.11 5.49602 2.67858 0
M  V30 11442 H 1115.29 6.47625 2.56038 0
M  V30 11443 H 1112.91 7.18317 2.48847 0
M  V30 11444 N 1114.49 -1.10549 1.12324 0
M  V30 11445 C 1115.74 -1.81851 0.872531 0
M  V30 11446 C 1116.05 -1.86058 -0.603468 0
M  V30 11447 O 1117.26 -2.53553 -0.970736 0
M  V30 11448 C 1115.71 -3.26631 1.51131 0
M  V30 11449 C 1115.32 -3.30725 3.02201 0
M  V30 11450 C 1117.06 -4.02768 1.34082 0
M  V30 11451 C 1114.97 -4.69957 3.59018 0
M  V30 11452 H 1113.9 -0.681422 0.322769 0
M  V30 11453 H 1116.55 -1.24332 1.34959 0
M  V30 11454 H 1114.93 -3.8414 0.961913 0
M  V30 11455 H 1116.11 -2.83046 3.63623 0
M  V30 11456 H 1114.42 -2.68072 3.18632 0
M  V30 11457 H 1117.02 -5.05612 1.73955 0
M  V30 11458 H 1117.36 -4.15328 0.284369 0
M  V30 11459 H 1117.9 -3.51671 1.85937 0
M  V30 11460 H 1114.63 -4.62597 4.64418 0
M  V30 11461 H 1114.15 -5.18008 3.02371 0
M  V30 11462 H 1115.83 -5.38925 3.58007 0
M  V30 11463 N 1115.97 -0.914965 -1.28321 0
M  V30 11464 C 1117.19 -0.564023 -1.99583 0
M  V30 11465 C 1117.62 0.847821 -1.6791 0
M  V30 11466 O 1116.97 1.56682 -0.912171 0
M  V30 11467 C 1117.02 -0.781368 -3.52033 0
M  V30 11468 O 1116.13 0.159072 -4.12093 0
M  V30 11469 H 1115.47 -0.218565 -0.626997 0
M  V30 11470 H 1118 -1.23074 -1.63444 0
M  V30 11471 H 1118.01 -0.691946 -4.0209 0
M  V30 11472 H 1116.68 -1.81059 -3.7442 0
M  V30 11473 H 1115.26 0.0208145 -3.72894 0
M  V30 11474 N 1117.44 1.42219 -0.679077 0
M  V30 11475 C 1118.69 2.00703 -0.200309 0
M  V30 11476 C 1119.01 1.54339 1.20161 0
M  V30 11477 O 1120.21 2.0527 1.77698 0
M  V30 11478 C 1118.67 3.58586 -0.307248 0
M  V30 11479 C 1118.28 4.13937 -1.71349 0
M  V30 11480 C 1120.02 4.24351 0.112588 0
M  V30 11481 C 1117.93 5.64198 -1.77297 0
M  V30 11482 H 1116.86 0.750638 -0.0711279 0
M  V30 11483 H 1119.51 1.62893 -0.844881 0
M  V30 11484 H 1117.89 3.93921 0.40529 0
M  V30 11485 H 1119.06 3.90054 -2.45346 0
M  V30 11486 H 1117.38 3.60639 -2.08155 0
M  V30 11487 H 1119.98 5.34627 0.0883578 0
M  V30 11488 H 1120.32 4.00142 1.14857 0
M  V30 11489 H 1120.85 3.93992 -0.549093 0
M  V30 11490 H 1117.59 5.93211 -2.78892 0
M  V30 11491 H 1117.11 5.90058 -1.07662 0
M  V30 11492 H 1118.79 6.2869 -1.52835 0
M  V30 11493 N 1118.92 0.422693 1.51826 0
M  V30 11494 C 1120.17 -0.148348 2.01555 0
M  V30 11495 C 1120.49 -1.44483 1.30956 0
M  V30 11496 O 1119.76 -1.90904 0.439599 0
M  V30 11497 H 1118.34 -0.0578116 0.74476 0
M  V30 11498 H 1121 0.562046 1.8662 0
M  V30 11499 H 1120.1 -0.334766 3.10299 0
M  V30 11500 N 1120.4 -1.5685 0.153553 0
M  V30 11501 C 1121.35 -2.18385 -0.800667 0
M  V30 11502 C 1122.34 -1.14272 -1.25053 0
M  V30 11503 O 1123.55 -1.32509 -1.21825 0
M  V30 11504 H 1119.92 -0.699352 -0.276425 0
M  V30 11505 H 1121.89 -2.97287 -0.257535 0
M  V30 11506 C 1120.64 -2.82497 -2.02708 0
M  V30 11507 H 1119.97 -3.62328 -1.68992 0
M  V30 11508 H 1121.41 -3.29047 -2.67403 0
M  V30 11509 C 1119.86 -1.81343 -2.8393 0
M  V30 11510 O 1120.39 -1.28793 -3.80493 0
M  V30 11511 N 1118.6 -1.50499 -2.48593 0
M  V30 11512 H 1118.15 -1.93425 -1.70131 0
M  V30 11513 H 1118.11 -0.830672 -3.03228 0
M  V30 11514 N 1121.88 0.120221 -1.57141 0
M  V30 11515 C 1122.84 1.13159 -1.99318 0
M  V30 11516 C 1123.84 1.34376 -0.883158 0
M  V30 11517 O 1125.03 1.30914 -1.14922 0
M  V30 11518 C 1122.16 2.48632 -2.33227 0
M  V30 11519 H 1123.36 0.769119 -2.8987 0
M  V30 11520 H 1120.91 0.364475 -1.51991 0
M  V30 11521 H 1121.64 2.89802 -1.45551 0
M  V30 11522 H 1121.43 2.34587 -3.14184 0
M  V30 11523 H 1122.92 3.21423 -2.66603 0
M  V30 11524 N 1123.36 1.52689 0.390367 0
M  V30 11525 C 1124.59 1.71292 1.1551 0
M  V30 11526 C 1124.99 0.430405 1.84239 0
M  V30 11527 O 1124.34 -0.604823 1.73458 0
M  V30 11528 C 1124.4 2.80597 2.24735 0
M  V30 11529 C 1124.06 4.21757 1.75984 0
M  V30 11530 C 1125.06 5.04961 1.23733 0
M  V30 11531 C 1122.75 4.68071 1.82248 0
M  V30 11532 C 1124.74 6.32561 0.783926 0
M  V30 11533 C 1122.43 5.95656 1.36519 0
M  V30 11534 C 1123.42 6.7773 0.846786 0
M  V30 11535 O 1123.11 8.02923 0.396164 0
M  V30 11536 H 1122.84 0.576906 0.352356 0
M  V30 11537 H 1125.4 2.00117 0.462865 0
M  V30 11538 H 1123.63 2.4719 2.97378 0
M  V30 11539 H 1125.32 2.87616 2.86412 0
M  V30 11540 H 1126.08 4.70363 1.18251 0
M  V30 11541 H 1121.96 4.04278 2.21541 0
M  V30 11542 H 1125.51 6.96572 0.378612 0
M  V30 11543 H 1121.4 6.29758 1.41686 0
M  V30 11544 H 1122.17 8.16861 0.517766 0
M  V30 11545 N 1124.83 -0.648732 1.43629 0
M  V30 11546 C 1126.06 -1.44117 1.49148 0
M  V30 11547 C 1126.48 -1.87767 0.111952 0
M  V30 11548 O 1125.84 -1.57655 -0.895249 0
M  V30 11549 C 1125.89 -2.64938 2.44623 0
M  V30 11550 O 1124.99 -3.64155 1.93559 0
M  V30 11551 H 1124.34 -0.431933 0.504312 0
M  V30 11552 H 1126.87 -0.793439 1.88589 0
M  V30 11553 H 1126.88 -3.12698 2.62076 0
M  V30 11554 H 1125.55 -2.3251 3.44836 0
M  V30 11555 H 1124.13 -3.23322 1.85789 0
M  V30 11556 N 1126.31 -1.30234 -0.887518 0
M  V30 11557 C 1127.26 -1.16302 -2.01436 0
M  V30 11558 C 1128.25 -0.0755422 -1.69231 0
M  V30 11559 O 1129.46 -0.236213 -1.78443 0
M  V30 11560 H 1125.84 -0.35961 -0.660443 0
M  V30 11561 H 1127.81 -2.11677 -2.10322 0
M  V30 11562 C 1126.56 -0.869009 -3.36665 0
M  V30 11563 H 1125.88 -1.69787 -3.61956 0
M  V30 11564 H 1127.32 -0.811621 -4.16159 0
M  V30 11565 C 1125.78 0.428021 -3.3417 0
M  V30 11566 O 1126.31 1.45033 -3.74604 0
M  V30 11567 N 1124.51 0.438264 -2.87276 0
M  V30 11568 H 1124.06 -0.394142 -2.54567 0
M  V30 11569 H 1124.02 1.30604 -2.85989 0
M  V30 11570 N 1127.79 1.09952 -1.12909 0
M  V30 11571 C 1129.04 1.82016 -0.887482 0
M  V30 11572 C 1129.37 1.85445 0.586546 0
M  V30 11573 O 1128.62 1.31446 1.44984 0
M  V30 11574 C 1128.92 3.28252 -1.41369 0
M  V30 11575 C 1128.59 3.44965 -2.90362 0
M  V30 11576 C 1127.25 3.49233 -3.31043 0
M  V30 11577 C 1129.6 3.49947 -3.86247 0
M  V30 11578 C 1126.93 3.56057 -4.66305 0
M  V30 11579 C 1129.28 3.58305 -5.21345 0
M  V30 11580 C 1127.94 3.6084 -5.61561 0
M  V30 11581 H 1127.21 0.666046 -0.324753 0
M  V30 11582 H 1129.86 1.29568 -1.41012 0
M  V30 11583 H 1128.17 3.83301 -0.81163 0
M  V30 11584 H 1129.86 3.82533 -1.20289 0
M  V30 11585 H 1126.45 3.42323 -2.57901 0
M  V30 11586 H 1130.64 3.45895 -3.55908 0
M  V30 11587 H 1125.89 3.56305 -4.96847 0
M  V30 11588 H 1130.07 3.61104 -5.95463 0
M  V30 11589 H 1127.69 3.6588 -6.6636 0
M  V30 11590 N 1129.27 0.921757 1.27833 0
M  V30 11591 C 1130.5 0.574368 1.98455 0
M  V30 11592 C 1130.91 -0.850577 1.69002 0
M  V30 11593 O 1130.25 -1.57607 0.943708 0
M  V30 11594 C 1130.31 0.713235 3.52354 0
M  V30 11595 C 1129.98 2.1092 4.05415 0
M  V30 11596 C 1130.97 3.08276 4.18643 0
M  V30 11597 C 1128.66 2.42454 4.3991 0
M  V30 11598 C 1130.65 4.35279 4.6563 0
M  V30 11599 C 1128.34 3.69694 4.8659 0
M  V30 11600 C 1129.34 4.6592 4.99407 0
M  V30 11601 O 1129.02 5.90896 5.45066 0
M  V30 11602 H 1128.76 0.216955 0.640239 0
M  V30 11603 H 1131.31 1.23932 1.63798 0
M  V30 11604 H 1129.54 -0.00881115 3.86699 0
M  V30 11605 H 1131.23 0.371776 4.04194 0
M  V30 11606 H 1132 2.85234 3.92258 0
M  V30 11607 H 1127.87 1.68303 4.2918 0
M  V30 11608 H 1131.42 5.10391 4.75549 0
M  V30 11609 H 1127.32 3.92557 5.12415 0
M  V30 11610 H 1128.08 5.938 5.63333 0
M  V30 11611 N 1130.75 -1.41857 0.686609 0
M  V30 11612 C 1132.02 -1.95082 0.142228 0
M  V30 11613 C 1132.4 -1.62646 -1.34572 0
M  V30 11614 O 1131.75 -0.928757 -2.08773 0
M  V30 11615 C 1131.96 -3.46415 0.423955 0
M  V30 11616 C 1133.31 -4.23181 0.346842 0
M  V30 11617 O 1134.33 -3.54393 0.358363 0
M  V30 11618 O 1133.19 -5.4568 0.299211 0
M  V30 11619 H 1130.29 -0.826943 0.00974 0
M  V30 11620 H 1132.83 -1.51622 0.762153 0
M  V30 11621 H 1131.6 -3.63273 1.45424 0
M  V30 11622 H 1131.23 -3.96949 -0.227391 0
M  V30 11623 N 1132.22 -0.430739 -1.51599 0
M  V30 11624 C 1133.47 0.137657 -2.01631 0
M  V30 11625 C 1133.79 1.43787 -1.31721 0
M  V30 11626 O 1133.06 1.90668 -0.449717 0
M  V30 11627 H 1131.64 0.0538611 -0.745056 0
M  V30 11628 H 1134.31 -0.571935 -1.86319 0
M  V30 11629 H 1133.4 0.318305 -3.10473 0
M  V30 11630 N 1133.7 1.56767 -0.161869 0
M  V30 11631 C 1134.95 1.97661 0.479751 0
M  V30 11632 C 1135.3 1.04583 1.61493 0
M  V30 11633 O 1134.6 0.0836772 1.91417 0
M  V30 11634 C 1134.79 3.42567 1.01894 0
M  V30 11635 C 1134.62 4.49657 -0.0624633 0
M  V30 11636 C 1133.39 5.0273 -0.508935 0
M  V30 11637 C 1135.59 5.07069 -0.85941 0
M  V30 11638 N 1133.57 5.93442 -1.57163 0
M  V30 11639 C 1134.94 5.94131 -1.77225 0
M  V30 11640 C 1137 4.89596 -0.905543 0
M  V30 11641 C 1135.7 6.6559 -2.72731 0
M  V30 11642 C 1137.72 5.61769 -1.8485 0
M  V30 11643 C 1137.09 6.48551 -2.74884 0
M  V30 11644 H 1133.19 0.76864 0.14393 0
M  V30 11645 H 1135.77 1.92957 -0.259906 0
M  V30 11646 H 1133.94 3.47835 1.72815 0
M  V30 11647 H 1135.67 3.70493 1.62841 0
M  V30 11648 H 1132.43 4.73476 -0.1084 0
M  V30 11649 H 1132.85 6.43502 -2.10319 0
M  V30 11650 H 1137.49 4.22209 -0.223516 0
M  V30 11651 H 1135.21 7.32197 -3.41927 0
M  V30 11652 H 1138.8 5.50239 -1.89018 0
M  V30 11653 H 1137.68 7.03417 -3.46661 0
M  V30 11654 N 1135.18 -0.111886 1.57202 0
M  V30 11655 C 1136.41 -0.836317 1.89791 0
M  V30 11656 C 1136.83 -1.72304 0.754513 0
M  V30 11657 O 1136.19 -1.78889 -0.294672 0
M  V30 11658 C 1136.24 -1.63971 3.21164 0
M  V30 11659 O 1135.34 -2.74726 3.0757 0
M  V30 11660 H 1134.68 -0.230833 0.622585 0
M  V30 11661 H 1137.21 -0.0921478 2.04392 0
M  V30 11662 H 1137.22 -2.02746 3.54059 0
M  V30 11663 H 1135.9 -0.98882 4.03974 0
M  V30 11664 H 1134.47 -2.39101 2.86156 0
M  V30 11665 N 1136.66 -1.52894 -0.382264 0
M  V30 11666 C 1137.61 -1.74531 -1.46707 0
M  V30 11667 C 1138.59 -0.599499 -1.49315 0
M  V30 11668 O 1139.78 -0.857577 -1.54837 0
M  V30 11669 C 1136.91 -1.92366 -2.84342 0
M  V30 11670 C 1136 -3.12899 -2.86278 0
M  V30 11671 N 1136.39 -4.35125 -2.57876 0
M  V30 11672 C 1134.69 -3.13282 -3.17444 0
M  V30 11673 C 1135.39 -5.16769 -2.67066 0
M  V30 11674 N 1134.37 -4.52606 -3.0108 0
M  V30 11675 H 1138.17 -2.66653 -1.23585 0
M  V30 11676 H 1135.68 -1.51292 -0.590286 0
M  V30 11677 H 1137.68 -2.0599 -3.62455 0
M  V30 11678 H 1136.34 -1.01461 -3.08441 0
M  V30 11679 H 1137.35 -4.63143 -2.31774 0
M  V30 11680 H 1134.03 -2.32211 -3.46964 0
M  V30 11681 H 1135.42 -6.24219 -2.48595 0
M  V30 11682 N 1138.14 0.641106 -1.43971 0
M  V30 11683 C 1139.38 1.40084 -1.46228 0
M  V30 11684 C 1139.71 1.94287 -0.0911011 0
M  V30 11685 O 1138.97 1.73481 0.905688 0
M  V30 11686 C 1139.27 2.59092 -2.46183 0
M  V30 11687 C 1138.93 2.23237 -3.9176 0
M  V30 11688 C 1137.59 2.13171 -4.31407 0
M  V30 11689 C 1139.95 1.94746 -4.83449 0
M  V30 11690 C 1137.27 1.72788 -5.60679 0
M  V30 11691 C 1139.63 1.55858 -6.13099 0
M  V30 11692 C 1138.29 1.44326 -6.5171 0
M  V30 11693 H 1137.56 0.512603 -0.535088 0
M  V30 11694 H 1140.21 0.727956 -1.77124 0
M  V30 11695 H 1138.51 3.31568 -2.08734 0
M  V30 11696 H 1140.21 3.17313 -2.4518 0
M  V30 11697 H 1136.8 2.31986 -3.60389 0
M  V30 11698 H 1140.98 2.01438 -4.53582 0
M  V30 11699 H 1136.24 1.62455 -5.89422 0
M  V30 11700 H 1140.41 1.32848 -6.83611 0
M  V30 11701 H 1138.04 1.12806 -7.51784 0
M  V30 11702 N 1139.62 1.30703 0.880598 0
M  V30 11703 C 1140.84 1.22843 1.67106 0
M  V30 11704 C 1141.27 -0.204788 1.86982 0
M  V30 11705 O 1140.62 -1.14716 1.40392 0
M  V30 11706 C 1140.67 1.96685 3.02237 0
M  V30 11707 O 1139.78 1.29693 3.91476 0
M  V30 11708 H 1139.12 0.424661 0.51045 0
M  V30 11709 H 1141.65 1.72596 1.09871 0
M  V30 11710 H 1141.66 2.05874 3.52249 0
M  V30 11711 H 1140.33 3.00919 2.8709 0
M  V30 11712 H 1138.91 1.28886 3.49918 0
M  V30 11713 N 1141.09 -1.09351 1.1349 0
M  V30 11714 C 1142.03 -2.15852 0.770763 0
M  V30 11715 C 1143.04 -1.61468 -0.207866 0
M  V30 11716 O 1144.23 -1.78496 0.0124385 0
M  V30 11717 C 1141.33 -3.38681 0.121871 0
M  V30 11718 C 1140.5 -4.22477 1.13279 0
M  V30 11719 C 1139.56 -5.23728 0.509448 0
M  V30 11720 O 1138.59 -5.57052 1.16967 0
M  V30 11721 N 1139.79 -5.76041 -0.718159 0
M  V30 11722 H 1142.55 -2.47696 1.6872 0
M  V30 11723 H 1140.11 -1.25074 1.02801 0
M  V30 11724 H 1142.11 -4.03531 -0.307404 0
M  V30 11725 H 1140.68 -3.04718 -0.697527 0
M  V30 11726 H 1139.9 -3.53753 1.73933 0
M  V30 11727 H 1141.18 -4.75288 1.81601 0
M  V30 11728 H 1140.58 -5.51183 -1.27331 0
M  V30 11729 H 1139.14 -6.4262 -1.09008 0
M  V30 11730 N 1142.57 -0.928524 -1.27343 0
M  V30 11731 C 1143.52 -0.418768 -2.28799 0
M  V30 11732 C 1144.51 0.497334 -1.61935 0
M  V30 11733 O 1145.72 0.376945 -1.76009 0
M  V30 11734 H 1142.09 -0.116855 -0.742865 0
M  V30 11735 H 1144.07 -1.28725 -2.69207 0
M  V30 11736 C 1142.81 0.312422 -3.46294 0
M  V30 11737 H 1142.14 -0.383317 -3.97958 0
M  V30 11738 H 1143.58 0.633514 -4.19241 0
M  V30 11739 C 1142.04 1.5257 -3.00373 0
M  V30 11740 O 1142.57 2.62443 -3.04116 0
M  V30 11741 N 1140.77 1.37782 -2.5586 0
M  V30 11742 H 1140.32 0.483908 -2.53014 0
M  V30 11743 H 1140.28 2.19085 -2.25498 0
M  V30 11744 N 1144.05 1.41491 -0.694123 0
M  V30 11745 C 1145.3 2.00854 -0.224033 0
M  V30 11746 C 1145.62 1.55246 1.17999 0
M  V30 11747 O 1144.89 0.782452 1.79595 0
M  V30 11748 H 1143.47 0.742721 -0.0798368 0
M  V30 11749 H 1146.13 1.73137 -0.894958 0
M  V30 11750 H 1145.23 3.11173 -0.240332 0
M  V30 11751 N 1145.53 0.438773 1.51369 0
M  V30 11752 C 1146.77 -0.127401 2.02399 0
M  V30 11753 C 1147.11 -1.42235 1.32223 0
M  V30 11754 O 1146.38 -1.89513 0.437607 0
M  V30 11755 C 1146.66 -0.344673 3.58447 0
M  V30 11756 C 1146.52 0.969027 4.39238 0
M  V30 11757 C 1147.84 -1.11381 4.25773 0
M  V30 11758 H 1144.96 -0.0448281 0.735635 0
M  V30 11759 H 1147.6 0.57805 1.80993 0
M  V30 11760 H 1145.75 -0.945582 3.76817 0
M  V30 11761 H 1147.42 1.60403 4.32514 0
M  V30 11762 H 1145.66 1.57329 4.04265 0
M  V30 11763 H 1146.33 0.771029 5.46589 0
M  V30 11764 H 1148.81 -0.604785 4.11681 0
M  V30 11765 H 1147.69 -1.23459 5.34835 0
M  V30 11766 H 1147.95 -2.14225 3.8673 0
M  V30 11767 N 1147.01 -1.56678 0.170181 0
M  V30 11768 C 1148.24 -2.00931 -0.480664 0
M  V30 11769 C 1148.64 -1.04947 -1.57425 0
M  V30 11770 O 1147.99 -0.042229 -1.83651 0
M  V30 11771 C 1148.05 -3.4161 -1.11996 0
M  V30 11772 C 1147.71 -4.5669 -0.168167 0
M  V30 11773 C 1148.71 -5.16273 0.613059 0
M  V30 11774 C 1146.39 -5.02259 -0.0643243 0
M  V30 11775 C 1148.39 -6.19852 1.48534 0
M  V30 11776 C 1146.08 -6.05687 0.811542 0
M  V30 11777 C 1147.07 -6.64355 1.58496 0
M  V30 11778 O 1146.76 -7.65778 2.44619 0
M  V30 11779 H 1146.49 -0.66386 -0.12754 0
M  V30 11780 H 1149.05 -2.03635 0.2687 0
M  V30 11781 H 1147.28 -3.35815 -1.91743 0
M  V30 11782 H 1148.97 -3.69823 -1.67289 0
M  V30 11783 H 1149.73 -4.81951 0.542999 0
M  V30 11784 H 1145.61 -4.56307 -0.656102 0
M  V30 11785 H 1149.16 -6.65572 2.08948 0
M  V30 11786 H 1145.05 -6.39435 0.88281 0
M  V30 11787 H 1145.82 -7.83096 2.38122 0
M  V30 11788 N 1148.48 0.103547 -1.57259 0
M  V30 11789 C 1149.73 0.806979 -1.8529 0
M  V30 11790 C 1150.05 1.79679 -0.757653 0
M  V30 11791 O 1149.32 1.94695 0.216913 0
M  V30 11792 H 1147.9 0.301012 -0.683667 0
M  V30 11793 H 1150.56 0.0871886 -1.94705 0
M  V30 11794 H 1149.66 1.34275 -2.81738 0
M  V30 11795 N 1149.96 1.53094 0.37415 0
M  V30 11796 C 1151.19 1.72508 1.13687 0
M  V30 11797 C 1151.6 0.449922 1.83773 0
M  V30 11798 O 1150.94 -0.586391 1.74089 0
M  V30 11799 C 1151 2.82965 2.21746 0
M  V30 11800 C 1150.67 4.23599 1.71501 0
M  V30 11801 C 1151.67 5.06245 1.1837 0
M  V30 11802 C 1149.35 4.69978 1.77273 0
M  V30 11803 C 1151.34 6.33357 0.71679 0
M  V30 11804 C 1149.03 5.9707 1.30194 0
M  V30 11805 C 1150.03 6.7859 0.774856 0
M  V30 11806 O 1149.72 8.03298 0.310981 0
M  V30 11807 H 1149.45 0.580611 0.346218 0
M  V30 11808 H 1152 2.00596 0.441614 0
M  V30 11809 H 1150.23 2.5033 2.9474 0
M  V30 11810 H 1151.92 2.90638 2.83345 0
M  V30 11811 H 1152.69 4.71591 1.13256 0
M  V30 11812 H 1148.57 4.06605 2.17241 0
M  V30 11813 H 1152.11 6.96934 0.30471 0
M  V30 11814 H 1148.01 6.31225 1.34999 0
M  V30 11815 H 1148.78 8.17364 0.431098 0
M  V30 11816 N 1151.44 -0.633461 1.44309 0
M  V30 11817 C 1152.39 -1.76674 1.51292 0
M  V30 11818 C 1153.38 -1.64972 0.384807 0
M  V30 11819 O 1154.59 -1.71079 0.559653 0
M  V30 11820 H 1150.96 -0.583238 0.474697 0
M  V30 11821 H 1152.93 -1.67907 2.46678 0
M  V30 11822 C 1151.68 -3.15002 1.47205 0
M  V30 11823 H 1151.01 -3.24653 2.33325 0
M  V30 11824 H 1152.45 -3.94199 1.56151 0
M  V30 11825 C 1150.9 -3.3635 0.192464 0
M  V30 11826 O 1151.43 -3.94857 -0.738285 0
M  V30 11827 N 1149.64 -2.9044 0.0963424 0
M  V30 11828 H 1149.19 -2.43011 0.85459 0
M  V30 11829 H 1149.15 -3.05099 -0.759061 0
M  V30 11830 N 1152.92 -1.31168 -0.873655 0
M  V30 11831 C 1154.15 -1.23595 -1.65927 0
M  V30 11832 C 1154.56 0.199349 -1.87745 0
M  V30 11833 O 1153.92 1.13013 -1.43298 0
M  V30 11834 C 1153.97 -1.97268 -3.02932 0
M  V30 11835 O 1153.69 -3.35196 -2.82091 0
M  V30 11836 C 1155.19 -1.9649 -3.97374 0
M  V30 11837 H 1152.41 -0.427228 -0.517414 0
M  V30 11838 H 1154.96 -1.72983 -1.09074 0
M  V30 11839 H 1153.11 -1.51651 -3.56484 0
M  V30 11840 H 1153.52 -3.7266 -3.69087 0
M  V30 11841 H 1155 -2.52557 -4.90835 0
M  V30 11842 H 1155.48 -0.946525 -4.28879 0
M  V30 11843 H 1156.08 -2.4197 -3.49758 0
M  V30 11844 N 1154.4 1.08748 -1.14068 0
M  V30 11845 C 1155.33 2.17591 -0.84714 0
M  V30 11846 C 1156.31 1.68962 0.196415 0
M  V30 11847 O 1157.49 1.94125 0.0538415 0
M  V30 11848 C 1154.62 3.45823 -0.320005 0
M  V30 11849 C 1153.58 4.07824 -1.2986 0
M  V30 11850 C 1152.9 5.30965 -0.630925 0
M  V30 11851 C 1154.2 4.49512 -2.65963 0
M  V30 11852 H 1155.9 2.42404 -1.75729 0
M  V30 11853 H 1153.44 1.16502 -0.846356 0
M  V30 11854 H 1155.4 4.21276 -0.102271 0
M  V30 11855 H 1154.12 3.20553 0.625561 0
M  V30 11856 H 1152.78 3.34398 -1.50245 0
M  V30 11857 H 1152.43 5.01979 0.320337 0
M  V30 11858 H 1152.13 5.73402 -1.28388 0
M  V30 11859 H 1153.65 6.09136 -0.422635 0
M  V30 11860 H 1155.06 5.16159 -2.49506 0
M  V30 11861 H 1153.46 5.02857 -3.27498 0
M  V30 11862 H 1154.53 3.6157 -3.23102 0
M  V30 11863 N 1155.87 0.935264 1.26849 0
M  V30 11864 C 1156.82 0.430895 2.28574 0
M  V30 11865 C 1157.82 -0.488739 1.62196 0
M  V30 11866 O 1159.02 -0.367605 1.76206 0
M  V30 11867 H 1155.4 0.120793 0.742235 0
M  V30 11868 H 1157.37 1.3015 2.68521 0
M  V30 11869 C 1156.12 -0.294053 3.46454 0
M  V30 11870 H 1155.44 0.404416 3.97749 0
M  V30 11871 H 1156.88 -0.611272 4.19571 0
M  V30 11872 C 1155.34 -1.50975 3.01178 0
M  V30 11873 O 1155.87 -2.60826 3.05504 0
M  V30 11874 N 1154.08 -1.36423 2.56587 0
M  V30 11875 H 1153.62 -0.470483 2.53267 0
M  V30 11876 H 1153.58 -2.17886 2.26656 0
M  V30 11877 N 1157.35 -1.41121 0.701616 0
M  V30 11878 C 1158.3 -2.27994 0.0168361 0
M  V30 11879 C 1159.29 -1.42523 -0.746733 0
M  V30 11880 O 1160.48 -1.6574 -0.621232 0
M  V30 11881 C 1157.61 -3.30898 -0.914417 0
M  V30 11882 C 1156.69 -4.23846 -0.146776 0
M  V30 11883 N 1157.08 -4.9839 0.862624 0
M  V30 11884 C 1155.38 -4.44366 -0.38138 0
M  V30 11885 C 1156.08 -5.66463 1.32266 0
M  V30 11886 N 1155.06 -5.39731 0.647433 0
M  V30 11887 H 1158.86 -2.83065 0.790675 0
M  V30 11888 H 1156.38 -1.53405 0.532977 0
M  V30 11889 H 1158.37 -3.91964 -1.4202 0
M  V30 11890 H 1157.03 -2.77387 -1.68779 0
M  V30 11891 H 1158.04 -5.02761 1.24305 0
M  V30 11892 H 1154.72 -4.01856 -1.13216 0
M  V30 11893 H 1156.11 -6.36213 2.16061 0
M  V30 11894 N 1158.83 -0.446794 -1.51134 0
M  V30 11895 C 1159.76 0.405311 -2.24572 0
M  V30 11896 C 1160.74 1.01679 -1.26886 0
M  V30 11897 O 1161.93 1.05743 -1.56047 0
M  V30 11898 C 1159.05 1.56573 -3.00338 0
M  V30 11899 C 1158.1 1.07401 -4.12756 0
M  V30 11900 S 1158.93 0.00835038 -5.35499 0
M  V30 11901 C 1160.09 1.17321 -6.14806 0
M  V30 11902 H 1160.32 -0.218143 -2.96499 0
M  V30 11903 H 1157.85 -0.231405 -1.52656 0
M  V30 11904 H 1159.81 2.23092 -3.44587 0
M  V30 11905 H 1158.47 2.16062 -2.27982 0
M  V30 11906 H 1157.67 1.94204 -4.65082 0
M  V30 11907 H 1157.27 0.486906 -3.70817 0
M  V30 11908 H 1159.56 2.08972 -6.44466 0
M  V30 11909 H 1160.5 0.689723 -7.04733 0
M  V30 11910 H 1160.91 1.41605 -5.4645 0
M  V30 11911 N 1160.31 1.56586 -0.178487 0
M  V30 11912 C 1161.56 1.96709 0.4637 0
M  V30 11913 C 1161.88 1.06586 1.63292 0
M  V30 11914 O 1161.15 0.133683 1.95443 0
M  V30 11915 H 1159.73 0.726381 0.174299 0
M  V30 11916 H 1162.39 1.9314 -0.261345 0
M  V30 11917 H 1161.49 3.01164 0.818934 0
M  V30 11918 N 1161.79 -0.095206 1.57312 0
M  V30 11919 C 1162.72 -1.14173 1.98739 0
M  V30 11920 C 1163.73 -1.36323 0.889934 0
M  V30 11921 O 1164.92 -1.34977 1.16805 0
M  V30 11922 C 1162.02 -2.49729 2.29104 0
M  V30 11923 C 1161.19 -2.47857 3.60396 0
M  V30 11924 C 1160.25 -3.65341 3.78699 0
M  V30 11925 O 1159.28 -3.47837 4.50553 0
M  V30 11926 N 1160.48 -4.84818 3.19268 0
M  V30 11927 H 1163.25 -0.789126 2.89124 0
M  V30 11928 H 1160.81 -0.284187 1.59386 0
M  V30 11929 H 1162.8 -3.26925 2.38541 0
M  V30 11930 H 1161.37 -2.7708 1.44726 0
M  V30 11931 H 1160.59 -1.56208 3.61929 0
M  V30 11932 H 1161.88 -2.43685 4.46649 0
M  V30 11933 H 1161.27 -5.01943 2.60902 0
M  V30 11934 H 1159.83 -5.59607 3.34191 0
M  V30 11935 N 1163.26 -1.53291 -0.366026 0
M  V30 11936 C 1164.51 -1.68671 -1.10602 0
M  V30 11937 C 1164.83 -0.444793 -1.90476 0
M  V30 11938 O 1166.03 -0.479135 -2.67239 0
M  V30 11939 C 1164.49 -2.98174 -2.01545 0
M  V30 11940 C 1164.1 -4.29626 -1.26986 0
M  V30 11941 C 1165.84 -3.22921 -2.7554 0
M  V30 11942 C 1163.75 -5.50218 -2.16828 0
M  V30 11943 H 1162.68 -0.628456 -0.416604 0
M  V30 11944 H 1165.33 -1.79791 -0.367058 0
M  V30 11945 H 1163.71 -2.80855 -2.79171 0
M  V30 11946 H 1164.88 -4.57574 -0.544269 0
M  V30 11947 H 1163.2 -4.11318 -0.648558 0
M  V30 11948 H 1165.8 -4.10202 -3.42985 0
M  V30 11949 H 1166.14 -2.38964 -3.40884 0
M  V30 11950 H 1166.67 -3.40912 -2.04997 0
M  V30 11951 H 1163.41 -6.36651 -1.56063 0
M  V30 11952 H 1162.93 -5.26549 -2.87238 0
M  V30 11953 H 1164.61 -5.84991 -2.76396 0
M  V30 11954 N 1164.74 0.6258 -1.44643 0
M  V30 11955 C 1165.97 1.41028 -1.50979 0
M  V30 11956 C 1166.38 1.88717 -0.135092 0
M  V30 11957 O 1165.72 1.61778 0.870268 0
M  V30 11958 C 1165.79 2.66094 -2.41732 0
M  V30 11959 C 1165.45 2.40166 -3.88805 0
M  V30 11960 C 1166.45 2.01661 -4.79196 0
M  V30 11961 C 1164.13 2.53641 -4.33557 0
M  V30 11962 C 1166.13 1.76966 -6.12341 0
M  V30 11963 C 1163.81 2.2856 -5.66748 0
M  V30 11964 C 1164.81 1.90282 -6.55959 0
M  V30 11965 O 1164.5 1.65484 -7.86683 0
M  V30 11966 H 1164.23 0.438757 -0.514265 0
M  V30 11967 H 1166.78 0.772034 -1.90339 0
M  V30 11968 H 1165.01 3.32575 -1.97309 0
M  V30 11969 H 1166.7 3.28107 -2.38957 0
M  V30 11970 H 1167.47 1.90802 -4.45892 0
M  V30 11971 H 1163.35 2.82404 -3.64375 0
M  V30 11972 H 1166.89 1.47014 -6.81933 0
M  V30 11973 H 1162.79 2.3903 -5.99612 0
M  V30 11974 H 1163.56 1.79686 -7.98533 0
M  V30 11975 N 1166.22 1.31629 0.866686 0
M  V30 11976 C 1167.47 1.21683 1.62238 0
M  V30 11977 C 1167.8 -0.223767 1.92907 0
M  V30 11978 O 1167.07 -1.15761 1.563 0
M  V30 11979 C 1167.36 2.06443 2.95048 0
M  V30 11980 C 1167.21 3.58818 2.71237 0
M  V30 11981 C 1168.53 1.91634 3.96187 0
M  V30 11982 H 1165.65 0.443389 0.588707 0
M  V30 11983 H 1168.29 1.61453 1.00164 0
M  V30 11984 H 1166.44 1.72654 3.48027 0
M  V30 11985 H 1168.11 4.0276 2.24905 0
M  V30 11986 H 1166.36 3.82085 2.05411 0
M  V30 11987 H 1167.03 4.13436 3.65752 0
M  V30 11988 H 1169.5 2.21209 3.52428 0
M  V30 11989 H 1168.38 2.53236 4.86993 0
M  V30 11990 H 1168.64 0.880564 4.33242 0
M  V30 11991 N 1167.7 -1.08142 1.14644 0
M  V30 11992 C 1169.12 -1.32656 0.887388 0
M  V30 11993 C 1169.32 -1.95942 -0.470012 0
M  V30 11994 O 1168.37 -2.21417 -1.21371 0
M  V30 11995 C 1169.68 -2.22549 2.02219 0
M  V30 11996 C 1171.23 -2.36021 2.0558 0
M  V30 11997 C 1171.71 -3.29257 3.18361 0
M  V30 11998 N 1173.2 -3.36835 3.17957 0
M  V30 11999 C 1173.93 -4.09017 4.01862 0
M  V30 12000 N 1173.43 -4.83882 4.95812 0
M  V30 12001 N 1175.22 -4.04875 3.89913 0
M  V30 12002 H 1167.37 -0.654457 2.02066 0
M  V30 12003 H 1169.64 -0.350947 0.880648 0
M  V30 12004 H 1169.34 -1.83296 3.00159 0
M  V30 12005 H 1169.22 -3.23027 1.94765 0
M  V30 12006 H 1171.6 -2.74531 1.08245 0
M  V30 12007 H 1171.68 -1.35275 2.17105 0
M  V30 12008 H 1171.33 -2.91468 4.15944 0
M  V30 12009 H 1171.26 -4.29938 3.04074 0
M  V30 12010 H 1173.75 -2.83465 2.49912 0
M  V30 12011 H 1174.06 -5.3643 5.56294 0
M  V30 12012 H 1172.41 -4.82926 4.99808 0
M  V30 12013 H 1175.6 -3.45496 3.15833 0
M  V30 12014 H 1175.77 -4.60866 4.55529 0
M  V30 12015 N 1169.18 -0.941978 -1.26351 0
M  V30 12016 C 1170.13 -0.423053 -2.24041 0
M  V30 12017 C 1171.11 0.480668 -1.53553 0
M  V30 12018 O 1172.3 0.315783 -1.7416 0
M  V30 12019 C 1169.43 0.309814 -3.41899 0
M  V30 12020 C 1168.52 -0.611245 -4.19672 0
M  V30 12021 N 1168.91 -1.73738 -4.75025 0
M  V30 12022 C 1167.21 -0.416985 -4.44046 0
M  V30 12023 C 1167.91 -2.31141 -5.33806 0
M  V30 12024 N 1166.88 -1.59934 -5.1954 0
M  V30 12025 H 1170.69 -1.28268 -2.64433 0
M  V30 12026 H 1168.2 -0.797941 -1.41445 0
M  V30 12027 H 1170.2 0.698618 -4.11005 0
M  V30 12028 H 1168.86 1.1662 -3.03035 0
M  V30 12029 H 1169.87 -2.1195 -4.72544 0
M  V30 12030 H 1166.55 0.397561 -4.15603 0
M  V30 12031 H 1167.94 -3.26029 -5.87499 0
M  V30 12032 N 1170.66 1.40747 -0.709091 0
M  V30 12033 C 1171.9 2.013 -0.246174 0
M  V30 12034 C 1172.23 1.56078 1.15556 0
M  V30 12035 O 1171.51 0.777941 1.78265 0
M  V30 12036 C 1171.79 3.58685 -0.318945 0
M  V30 12037 C 1171.65 4.13997 -1.75859 0
M  V30 12038 C 1172.96 4.38981 0.31358 0
M  V30 12039 H 1170.08 0.73137 -0.0909255 0
M  V30 12040 H 1172.73 1.67312 -0.900365 0
M  V30 12041 H 1170.88 3.8777 0.23805 0
M  V30 12042 H 1172.55 3.95735 -2.37047 0
M  V30 12043 H 1170.79 3.6853 -2.28841 0
M  V30 12044 H 1171.46 5.23158 -1.76095 0
M  V30 12045 H 1173.94 4.15789 -0.160939 0
M  V30 12046 H 1172.81 5.48409 0.232184 0
M  V30 12047 H 1173.07 4.19474 1.39621 0
M  V30 12048 N 1172.13 0.454803 1.50895 0
M  V30 12049 C 1173.08 -0.361974 2.29766 0
M  V30 12050 C 1174.08 -1.00519 1.36353 0
M  V30 12051 O 1175.28 -0.938159 1.53618 0
M  V30 12052 H 1171.66 -0.135559 0.739681 0
M  V30 12053 H 1173.63 0.323853 2.96637 0
M  V30 12054 C 1172.38 -1.44078 3.16444 0
M  V30 12055 H 1171.7 -0.955212 3.88221 0
M  V30 12056 H 1173.14 -1.98518 3.74655 0
M  V30 12057 C 1171.6 -2.43374 2.32961 0
M  V30 12058 O 1172.13 -3.48295 2.00133 0
M  V30 12059 N 1170.33 -2.14689 1.95849 0
M  V30 12060 H 1169.88 -1.29392 2.22745 0
M  V30 12061 H 1169.84 -2.81363 1.40292 0
M  V30 12062 N 1173.61 -1.56489 0.186789 0
M  V30 12063 C 1174.86 -1.96952 -0.453261 0
M  V30 12064 C 1175.18 -1.07451 -1.62725 0
M  V30 12065 O 1174.45 -0.144046 -1.9537 0
M  V30 12066 H 1173.03 -0.727295 -0.170445 0
M  V30 12067 H 1175.69 -1.92999 0.271584 0
M  V30 12068 H 1174.79 -3.01594 -0.802951 0
M  V30 12069 N 1175.09 0.086862 -1.5736 0
M  V30 12070 C 1176.31 0.806017 -1.91097 0
M  V30 12071 C 1176.74 1.71082 -0.78183 0
M  V30 12072 O 1176.1 1.79335 0.266175 0
M  V30 12073 C 1176.15 1.5884 -3.23732 0
M  V30 12074 O 1175.25 2.69798 -3.11902 0
M  V30 12075 H 1174.59 0.220899 -0.626179 0
M  V30 12076 H 1177.12 0.059619 -2.04513 0
M  V30 12077 H 1177.13 1.97088 -3.5724 0
M  V30 12078 H 1175.81 0.924426 -4.05496 0
M  V30 12079 H 1174.38 2.34519 -2.89923 0
M  V30 12080 N 1176.57 1.53483 0.357892 0
M  V30 12081 C 1177.79 1.74264 1.12458 0
M  V30 12082 C 1178.22 0.473944 1.82031 0
M  V30 12083 O 1177.58 -0.57253 1.72023 0
M  V30 12084 C 1177.62 2.91356 2.12471 0
M  V30 12085 O 1176.73 2.60502 3.19707 0
M  V30 12086 H 1176.07 0.578499 0.325937 0
M  V30 12087 H 1178.6 2.00395 0.412666 0
M  V30 12088 H 1178.61 3.1774 2.5594 0
M  V30 12089 H 1177.28 3.83378 1.61226 0
M  V30 12090 H 1175.86 2.44961 2.81156 0
M  V30 12091 N 1178.05 -0.61812 1.44973 0
M  V30 12092 C 1179.46 -1.19994 1.43033 0
M  V30 12093 C 1179.81 -1.95607 0.152422 0
M  V30 12094 O 1178.93 -2.03114 -0.746571 0
M  V30 12095 C 1179.53 -2.18269 2.59122 0
M  V30 12096 C 1178.09 -2.7185 2.60336 0
M  V30 12097 C 1177.23 -1.4707 2.35086 0
M  V30 12098 H 1180.18 -0.408034 1.53365 0
M  V30 12099 H 1180.21 -3.01113 2.32619 0
M  V30 12100 H 1179.72 -1.63208 3.52115 0
M  V30 12101 H 1177.82 -3.30878 1.7132 0
M  V30 12102 H 1177.93 -3.17001 3.59231 0
M  V30 12103 H 1176.3 -1.75658 1.84435 0
M  V30 12104 H 1177.08 -0.938928 3.30211 0
M  V30 12105 N 1179.52 -1.32087 -0.859693 0
M  V30 12106 C 1180.45 -1.23204 -1.98351 0
M  V30 12107 C 1181.43 -0.116974 -1.69697 0
M  V30 12108 O 1182.62 -0.303301 -1.91817 0
M  V30 12109 C 1179.75 -0.949171 -3.34078 0
M  V30 12110 C 1178.7 -2.02493 -3.77069 0
M  V30 12111 C 1178.03 -1.59455 -5.1037 0
M  V30 12112 C 1179.33 -3.43934 -3.93074 0
M  V30 12113 H 1181.02 -2.17227 -2.0604 0
M  V30 12114 H 1178.57 -1.04577 -0.989931 0
M  V30 12115 H 1180.52 -0.873594 -4.12245 0
M  V30 12116 H 1179.25 0.0267095 -3.26589 0
M  V30 12117 H 1177.91 -2.09057 -3.01149 0
M  V30 12118 H 1177.55 -0.606256 -4.99333 0
M  V30 12119 H 1177.25 -2.31429 -5.40106 0
M  V30 12120 H 1178.78 -1.53325 -5.91036 0
M  V30 12121 H 1180.19 -3.39986 -4.61608 0
M  V30 12122 H 1178.59 -4.14214 -4.3422 0
M  V30 12123 H 1179.66 -3.83965 -2.9614 0
M  V30 12124 N 1181 1.07532 -1.15215 0
M  V30 12125 C 1182.41 1.61567 -0.935568 0
M  V30 12126 C 1182.76 1.89085 0.523557 0
M  V30 12127 O 1181.89 1.65495 1.39429 0
M  V30 12128 C 1182.48 2.93531 -1.69189 0
M  V30 12129 C 1181.04 3.44316 -1.52063 0
M  V30 12130 C 1180.19 2.18404 -1.70866 0
M  V30 12131 H 1183.14 0.906431 -1.30267 0
M  V30 12132 H 1183.16 3.62377 -1.16031 0
M  V30 12133 H 1182.67 2.73471 -2.75381 0
M  V30 12134 H 1180.77 3.69462 -0.482567 0
M  V30 12135 H 1180.89 4.20478 -2.29642 0
M  V30 12136 H 1179.25 2.28012 -1.13502 0
M  V30 12137 H 1180.03 2.00841 -2.7842 0
M  V30 12138 N 1182.48 0.948665 1.2585 0
M  V30 12139 C 1183.41 0.408398 2.24516 0
M  V30 12140 C 1184.39 -0.506954 1.54495 0
M  V30 12141 O 1185.58 -0.442695 1.83228 0
M  V30 12142 C 1182.7 -0.41241 3.3618 0
M  V30 12143 C 1181.75 0.442483 4.24198 0
M  V30 12144 S 1182.58 1.87106 5.01749 0
M  V30 12145 C 1183.74 1.05851 6.16884 0
M  V30 12146 H 1183.97 1.24458 2.69995 0
M  V30 12147 H 1181.5 0.752309 1.34832 0
M  V30 12148 H 1183.46 -0.880064 4.00955 0
M  V30 12149 H 1182.12 -1.22335 2.89297 0
M  V30 12150 H 1181.32 -0.186767 5.03654 0
M  V30 12151 H 1180.92 0.845113 3.64327 0
M  V30 12152 H 1183.21 0.304329 6.76816 0
M  V30 12153 H 1184.15 1.82678 6.8413 0
M  V30 12154 H 1184.56 0.591269 5.61395 0
M  V30 12155 N 1183.96 -1.40369 0.716545 0
M  V30 12156 C 1185.19 -2.05181 0.266143 0
M  V30 12157 C 1185.6 -1.53988 -1.09239 0
M  V30 12158 O 1184.96 -0.696859 -1.68672 0
M  V30 12159 C 1185.01 -3.60713 0.238384 0
M  V30 12160 O 1184.73 -4.10018 1.54328 0
M  V30 12161 C 1186.23 -4.42701 -0.230453 0
M  V30 12162 H 1183.45 -0.66028 0.119463 0
M  V30 12163 H 1186 -1.7976 0.97502 0
M  V30 12164 H 1184.15 -3.85101 -0.421466 0
M  V30 12165 H 1184.56 -5.0422 1.4444 0
M  V30 12166 H 1186.04 -5.51642 -0.198728 0
M  V30 12167 H 1186.52 -4.20354 -1.27276 0
M  V30 12168 H 1187.12 -4.23423 0.399155 0
M  V30 12169 N 1185.44 -0.462799 -1.50652 0
M  V30 12170 C 1186.66 0.0952726 -2.07181 0
M  V30 12171 C 1187.09 1.33479 -1.32533 0
M  V30 12172 O 1186.44 1.77473 -0.370564 0
M  V30 12173 C 1186.49 0.370592 -3.58691 0
M  V30 12174 O 1185.6 1.4526 -3.85971 0
M  V30 12175 H 1184.94 -0.00932702 -0.663934 0
M  V30 12176 H 1187.47 -0.651458 -1.93951 0
M  V30 12177 H 1187.48 0.613551 -4.0336 0
M  V30 12178 H 1186.15 -0.535219 -4.12442 0
M  V30 12179 H 1184.73 1.1976 -3.53146 0
M  V30 12180 N 1186.91 1.56388 -0.195085 0
M  V30 12181 C 1188.14 2.01963 0.449289 0
M  V30 12182 C 1188.56 1.07522 1.55192 0
M  V30 12183 O 1187.91 0.0800915 1.82324 0
M  V30 12184 C 1187.97 3.47231 1.00561 0
M  V30 12185 O 1187.69 4.38068 -0.0530241 0
M  V30 12186 C 1189.19 4.08324 1.72587 0
M  V30 12187 H 1186.41 0.661452 0.112792 0
M  V30 12188 H 1188.95 2.02231 -0.303788 0
M  V30 12189 H 1187.11 3.47663 1.70907 0
M  V30 12190 H 1187.52 5.23256 0.361076 0
M  V30 12191 H 1188.99 5.11821 2.06744 0
M  V30 12192 H 1189.47 3.51782 2.62956 0
M  V30 12193 H 1190.08 4.11665 1.06826 0
M  V30 12194 N 1188.39 -0.0785156 1.57404 0
M  V30 12195 C 1189.64 -0.780092 1.87196 0
M  V30 12196 C 1189.97 -1.77562 0.78647 0
M  V30 12197 O 1189.25 -1.93428 -0.203935 0
M  V30 12198 C 1189.53 -1.49408 3.27642 0
M  V30 12199 C 1189.38 -0.515416 4.46837 0
M  V30 12200 C 1190.7 -2.44064 3.66225 0
M  V30 12201 H 1187.82 -0.282134 0.680859 0
M  V30 12202 H 1190.46 -0.0433926 1.8995 0
M  V30 12203 H 1188.61 -2.12205 3.25425 0
M  V30 12204 H 1190.28 0.106827 4.61176 0
M  V30 12205 H 1188.53 0.169832 4.33467 0
M  V30 12206 H 1189.2 -1.05247 5.41874 0
M  V30 12207 H 1191.67 -1.91349 3.69493 0
M  V30 12208 H 1190.55 -2.91029 4.65396 0
M  V30 12209 H 1190.81 -3.28569 2.95796 0
M  V30 12210 N 1189.87 -1.5367 -0.349747 0
M  V30 12211 C 1191.29 -1.43796 -0.692457 0
M  V30 12212 C 1191.49 -0.58972 -1.92677 0
M  V30 12213 O 1190.54 -0.078294 -2.52379 0
M  V30 12214 C 1191.86 -2.872 -0.890881 0
M  V30 12215 C 1193.4 -2.96935 -0.989892 0
M  V30 12216 C 1193.88 -4.41433 -1.22068 0
M  V30 12217 N 1195.37 -4.44932 -1.28802 0
M  V30 12218 C 1196.1 -5.53864 -1.48398 0
M  V30 12219 N 1195.6 -6.72814 -1.65208 0
M  V30 12220 N 1197.39 -5.41467 -1.50896 0
M  V30 12221 H 1189.54 -2.07317 0.461895 0
M  V30 12222 H 1191.81 -0.936895 0.144681 0
M  V30 12223 H 1191.51 -3.51656 -0.0555095 0
M  V30 12224 H 1191.39 -3.31784 -1.79442 0
M  V30 12225 H 1193.77 -2.32622 -1.81579 0
M  V30 12226 H 1193.86 -2.55721 -0.0633906 0
M  V30 12227 H 1193.5 -5.06325 -0.399729 0
M  V30 12228 H 1193.43 -4.80233 -2.16064 0
M  V30 12229 H 1195.92 -3.59214 -1.17361 0
M  V30 12230 H 1196.23 -7.51598 -1.79779 0
M  V30 12231 H 1194.58 -6.7577 -1.62356 0
M  V30 12232 H 1197.77 -4.47498 -1.37342 0
M  V30 12233 H 1197.94 -6.26423 -1.65826 0
M  V30 12234 N 1191.35 0.610423 -1.45298 0
M  V30 12235 C 1192.28 1.73493 -1.48241 0
M  V30 12236 C 1193.26 1.59025 -0.339065 0
M  V30 12237 O 1194.44 1.80625 -0.539144 0
M  V30 12238 C 1191.57 3.11291 -1.33476 0
M  V30 12239 C 1190.62 3.44355 -2.51638 0
M  V30 12240 S 1191.45 3.39512 -4.14116 0
M  V30 12241 C 1192.61 4.79895 -4.01811 0
M  V30 12242 H 1192.84 1.70734 -2.43387 0
M  V30 12243 H 1190.37 0.786833 -1.32847 0
M  V30 12244 H 1192.33 3.90799 -1.25644 0
M  V30 12245 H 1190.99 3.11568 -0.39805 0
M  V30 12246 H 1190.18 4.44679 -2.37226 0
M  V30 12247 H 1189.79 2.72356 -2.56317 0
M  V30 12248 H 1192.08 5.6963 -3.6678 0
M  V30 12249 H 1193.02 4.99363 -5.02038 0
M  V30 12250 H 1193.43 4.55443 -3.33515 0
M  V30 12251 N 1192.83 1.32541 0.852676 0
M  V30 12252 C 1194.06 1.26037 1.63702 0
M  V30 12253 C 1194.46 -0.173583 1.88402 0
M  V30 12254 O 1193.81 -1.12175 1.45473 0
M  V30 12255 C 1193.87 1.95245 3.01861 0
M  V30 12256 C 1193.53 3.44576 3.00193 0
M  V30 12257 C 1194.53 4.40026 2.76899 0
M  V30 12258 C 1192.22 3.86541 3.20766 0
M  V30 12259 C 1194.21 5.75414 2.74185 0
M  V30 12260 C 1191.9 5.22038 3.17678 0
M  V30 12261 C 1192.89 6.16286 2.94416 0
M  V30 12262 O 1192.58 7.49303 2.91206 0
M  V30 12263 H 1192.31 0.436073 0.516543 0
M  V30 12264 H 1194.87 1.75251 1.07127 0
M  V30 12265 H 1193.1 1.40603 3.60233 0
M  V30 12266 H 1194.79 1.82423 3.62597 0
M  V30 12267 H 1195.55 4.0893 2.6077 0
M  V30 12268 H 1191.43 3.13603 3.37897 0
M  V30 12269 H 1194.98 6.4895 2.55947 0
M  V30 12270 H 1190.87 5.52762 3.33353 0
M  V30 12271 H 1191.64 7.58686 3.07146 0
M  V30 12272 N 1194.3 -1.0692 1.15784 0
M  V30 12273 C 1195.55 -1.796 0.935429 0
M  V30 12274 C 1195.88 -1.86935 -0.537173 0
M  V30 12275 O 1195.13 -1.35244 -1.41448 0
M  V30 12276 C 1195.43 -3.24389 1.50022 0
M  V30 12277 C 1195.1 -3.37145 2.99406 0
M  V30 12278 C 1193.76 -3.40334 3.40186 0
M  V30 12279 C 1196.11 -3.39584 3.95389 0
M  V30 12280 C 1193.44 -3.43569 4.75581 0
M  V30 12281 C 1195.79 -3.44356 5.30661 0
M  V30 12282 C 1194.46 -3.45824 5.70931 0
M  V30 12283 H 1193.73 -0.657201 0.342298 0
M  V30 12284 H 1196.37 -1.25784 1.44397 0
M  V30 12285 H 1194.68 -3.81015 0.91297 0
M  V30 12286 H 1196.38 -3.79209 1.30389 0
M  V30 12287 H 1192.97 -3.35365 2.66887 0
M  V30 12288 H 1197.15 -3.36337 3.64954 0
M  V30 12289 H 1192.41 -3.43006 5.06119 0
M  V30 12290 H 1196.58 -3.4519 6.04828 0
M  V30 12291 H 1194.21 -3.48084 6.75826 0
M  V30 12292 N 1195.78 -0.955326 -1.25345 0
M  V30 12293 C 1196.73 -0.474888 -2.25862 0
M  V30 12294 C 1197.7 0.472996 -1.59223 0
M  V30 12295 O 1198.88 0.386094 -1.86853 0
M  V30 12296 C 1196.02 0.240554 -3.44261 0
M  V30 12297 C 1195.14 -0.74465 -4.25534 0
M  V30 12298 C 1194.27 -0.00657513 -5.312 0
M  V30 12299 C 1193.31 -0.982666 -6.04161 0
M  V30 12300 N 1192.45 -0.275418 -7.0156 0
M  V30 12301 H 1197.29 -1.33693 -2.66327 0
M  V30 12302 H 1194.83 -0.670439 -1.30933 0
M  V30 12303 H 1196.78 0.671933 -4.11753 0
M  V30 12304 H 1195.41 1.06664 -3.04668 0
M  V30 12305 H 1194.47 -1.29451 -3.57696 0
M  V30 12306 H 1195.78 -1.48948 -4.76042 0
M  V30 12307 H 1194.93 0.483404 -6.04771 0
M  V30 12308 H 1193.67 0.771035 -4.81567 0
M  V30 12309 H 1192.68 -1.48364 -5.29404 0
M  V30 12310 H 1193.9 -1.76052 -6.55883 0
M  V30 12311 H 1191.85 0.483441 -6.54216 0
M  V30 12312 H 1191.76 -0.959324 -7.49889 0
M  V30 12313 H 1193.03 0.193002 -7.79261 0
M  V30 12314 N 1197.26 1.39987 -0.723979 0
M  V30 12315 C 1198.67 1.83606 -0.338461 0
M  V30 12316 C 1199.02 1.6051 1.12831 0
M  V30 12317 O 1198.15 1.09041 1.8692 0
M  V30 12318 C 1198.74 3.33308 -0.607533 0
M  V30 12319 C 1197.3 3.75389 -0.275632 0
M  V30 12320 C 1196.45 2.6311 -0.875699 0
M  V30 12321 H 1199.4 1.29135 -0.922483 0
M  V30 12322 H 1199.42 3.80297 0.124424 0
M  V30 12323 H 1198.93 3.50087 -1.67514 0
M  V30 12324 H 1197.03 3.64203 0.786579 0
M  V30 12325 H 1197.15 4.73185 -0.750492 0
M  V30 12326 H 1195.51 2.5289 -0.303122 0
M  V30 12327 H 1196.29 2.82698 -1.94774 0
M  V30 12328 N 1198.74 0.470782 1.50404 0
M  V30 12329 C 1199.69 -0.32355 2.28521 0
M  V30 12330 C 1200.66 -0.987472 1.3356 0
M  V30 12331 O 1201.84 -0.999969 1.62497 0
M  V30 12332 C 1198.98 -1.39977 3.15437 0
M  V30 12333 C 1198.09 -0.750656 4.25428 0
M  V30 12334 C 1197.23 -1.80474 4.99602 0
M  V30 12335 C 1196.27 -1.13586 6.01469 0
M  V30 12336 N 1195.41 -2.13279 6.68922 0
M  V30 12337 H 1200.25 0.348902 2.9595 0
M  V30 12338 H 1197.78 0.183908 1.45946 0
M  V30 12339 H 1199.74 -2.0354 3.6418 0
M  V30 12340 H 1198.37 -2.04139 2.50054 0
M  V30 12341 H 1197.42 -0.00247092 3.804 0
M  V30 12342 H 1198.73 -0.222638 4.98303 0
M  V30 12343 H 1197.89 -2.51619 5.52062 0
M  V30 12344 H 1196.63 -2.36657 4.26433 0
M  V30 12345 H 1195.63 -0.410042 5.48269 0
M  V30 12346 H 1196.86 -0.580935 6.76611 0
M  V30 12347 H 1194.8 -2.68479 5.98544 0
M  V30 12348 H 1194.72 -1.65461 7.37671 0
M  V30 12349 H 1195.99 -2.83804 7.26 0
M  V30 12350 N 1200.22 -1.56282 0.203376 0
M  V30 12351 C 1201.17 -2.16094 -0.727145 0
M  V30 12352 C 1202.15 -1.10404 -1.17046 0
M  V30 12353 O 1203.34 -1.36444 -1.12748 0
M  V30 12354 C 1200.47 -2.83029 -1.94293 0
M  V30 12355 C 1199.56 -3.9592 -1.52013 0
M  V30 12356 N 1199.95 -4.99292 -0.808794 0
M  V30 12357 C 1198.25 -4.07674 -1.80881 0
M  V30 12358 C 1198.95 -5.78641 -0.595738 0
M  V30 12359 N 1197.92 -5.31362 -1.14697 0
M  V30 12360 H 1201.73 -2.93378 -0.175041 0
M  V30 12361 H 1199.24 -1.624 0.00390859 0
M  V30 12362 H 1201.24 -3.24277 -2.62012 0
M  V30 12363 H 1199.9 -2.07235 -2.49968 0
M  V30 12364 H 1200.91 -5.15823 -0.463383 0
M  V30 12365 H 1197.59 -3.43016 -2.38005 0
M  V30 12366 H 1198.98 -6.71893 -0.0308618 0
M  V30 12367 N 1201.7 0.070167 -1.57444 0
M  V30 12368 C 1202.94 0.770153 -1.87607 0
M  V30 12369 C 1203.27 1.77143 -0.795875 0
M  V30 12370 O 1202.55 1.93533 0.193674 0
M  V30 12371 C 1202.83 1.47668 -3.2843 0
M  V30 12372 C 1202.69 0.491712 -4.47104 0
M  V30 12373 C 1204 2.42118 -3.67514 0
M  V30 12374 H 1201.12 0.278519 -0.682346 0
M  V30 12375 H 1203.77 0.0333184 -1.89971 0
M  V30 12376 H 1201.92 2.10476 -3.26546 0
M  V30 12377 H 1203.59 -0.131283 -4.61113 0
M  V30 12378 H 1201.83 -0.192817 -4.33371 0
M  V30 12379 H 1202.5 1.02372 -5.42424 0
M  V30 12380 H 1204.98 1.89387 -3.70502 0
M  V30 12381 H 1203.85 2.88556 -4.66933 0
M  V30 12382 H 1204.11 3.26995 -2.97534 0
M  V30 12383 N 1203.17 1.53854 0.341593 0
M  V30 12384 C 1204.12 1.81979 1.41959 0
M  V30 12385 C 1205.09 0.665616 1.5218 0
M  V30 12386 O 1206.28 0.910246 1.67688 0
M  V30 12387 C 1203.42 2.03681 2.78583 0
M  V30 12388 C 1202.53 3.31389 2.77137 0
M  V30 12389 C 1201.66 3.43148 4.05491 0
M  V30 12390 C 1200.7 4.64799 3.98282 0
M  V30 12391 N 1199.84 4.73581 5.18329 0
M  V30 12392 H 1204.68 2.73953 1.17275 0
M  V30 12393 H 1202.22 1.35689 0.568062 0
M  V30 12394 H 1204.17 2.14253 3.57983 0
M  V30 12395 H 1202.8 1.15017 3.01614 0
M  V30 12396 H 1201.86 3.29649 1.89832 0
M  V30 12397 H 1203.17 4.20885 2.67689 0
M  V30 12398 H 1202.32 3.53163 4.93316 0
M  V30 12399 H 1201.06 2.51712 4.17723 0
M  V30 12400 H 1200.07 4.54859 3.08842 0
M  V30 12401 H 1201.29 5.57601 3.87631 0
M  V30 12402 H 1199.24 3.85055 5.31102 0
M  V30 12403 H 1199.15 5.57016 5.11145 0
M  V30 12404 H 1200.42 4.87908 6.0792 0
M  V30 12405 N 1204.65 -0.602709 1.4562 0
M  V30 12406 C 1205.61 -1.69508 1.54271 0
M  V30 12407 C 1206.61 -1.55171 0.421727 0
M  V30 12408 O 1207.8 -1.60151 0.685375 0
M  V30 12409 C 1204.94 -3.0881 1.44392 0
M  V30 12410 H 1206.13 -1.63203 2.51605 0
M  V30 12411 H 1203.68 -0.818857 1.33133 0
M  V30 12412 H 1204.42 -3.20689 0.482614 0
M  V30 12413 H 1204.2 -3.20625 2.25704 0
M  V30 12414 H 1205.69 -3.8837 1.53488 0
M  V30 12415 N 1206.13 -1.32992 -0.845635 0
M  V30 12416 C 1207.38 -1.25258 -1.60256 0
M  V30 12417 C 1207.73 0.181685 -1.9154 0
M  V30 12418 O 1207.02 1.12193 -1.55316 0
M  V30 12419 C 1207.22 -2.05454 -2.92444 0
M  V30 12420 C 1207.05 -3.56533 -2.7407 0
M  V30 12421 C 1205.82 -4.25857 -2.71981 0
M  V30 12422 C 1208.01 -4.51003 -2.47186 0
M  V30 12423 N 1206 -5.6293 -2.44913 0
M  V30 12424 C 1207.37 -5.75917 -2.29607 0
M  V30 12425 C 1209.42 -4.40162 -2.32727 0
M  V30 12426 C 1208.13 -6.91214 -1.99037 0
M  V30 12427 C 1210.15 -5.55267 -2.0355 0
M  V30 12428 C 1209.51 -6.79186 -1.86777 0
M  V30 12429 H 1205.61 -0.513536 -0.58975 0
M  V30 12430 H 1208.2 -1.67458 -0.993277 0
M  V30 12431 H 1206.37 -1.65585 -3.51335 0
M  V30 12432 H 1208.1 -1.89543 -3.57569 0
M  V30 12433 H 1204.85 -3.78064 -2.85245 0
M  V30 12434 H 1205.28 -6.3517 -2.34282 0
M  V30 12435 H 1209.92 -3.44998 -2.4441 0
M  V30 12436 H 1207.64 -7.86381 -1.86091 0
M  V30 12437 H 1211.22 -5.48811 -1.93127 0
M  V30 12438 H 1210.1 -7.66748 -1.64523 0
M  V30 12439 N 1207.61 1.06304 -1.1635 0
M  V30 12440 C 1208.85 1.79366 -0.94634 0
M  V30 12441 C 1209.19 1.86981 0.524569 0
M  V30 12442 O 1208.46 1.36134 1.38917 0
M  V30 12443 C 1208.74 3.23861 -1.57436 0
M  V30 12444 C 1208.6 3.24327 -3.1166 0
M  V30 12445 C 1209.92 4.21409 -1.26895 0
M  V30 12446 H 1207.04 0.65115 -0.345215 0
M  V30 12447 H 1209.68 1.24325 -1.43678 0
M  V30 12448 H 1207.83 3.70862 -1.15731 0
M  V30 12449 H 1209.5 2.85488 -3.62346 0
M  V30 12450 H 1207.74 2.62983 -3.44997 0
M  V30 12451 H 1208.41 4.2626 -3.50723 0
M  V30 12452 H 1210.89 3.8285 -1.62989 0
M  V30 12453 H 1209.77 5.20778 -1.73439 0
M  V30 12454 H 1210.03 4.41701 -0.187768 0
M  V30 12455 N 1209.09 0.96196 1.24836 0
M  V30 12456 C 1210.5 0.660388 1.7463 0
M  V30 12457 C 1210.85 -0.824064 1.78055 0
M  V30 12458 O 1209.97 -1.64485 1.40619 0
M  V30 12459 C 1210.57 1.19205 3.17137 0
M  V30 12460 C 1209.13 0.940493 3.64461 0
M  V30 12461 C 1208.27 1.33076 2.43282 0
M  V30 12462 H 1211.22 1.13794 1.1062 0
M  V30 12463 H 1211.25 0.555595 3.76422 0
M  V30 12464 H 1210.76 2.27247 3.14612 0
M  V30 12465 H 1208.86 -0.124645 3.72391 0
M  V30 12466 H 1208.97 1.5821 4.52224 0
M  V30 12467 H 1207.34 0.749139 2.43434 0
M  V30 12468 H 1208.12 2.42055 2.43442 0
M  V30 12469 N 1210.56 -1.39601 0.731392 0
M  V30 12470 C 1211.98 -1.54334 0.406594 0
M  V30 12471 C 1212.18 -1.69925 -1.08295 0
M  V30 12472 O 1211.24 -1.69771 -1.86906 0
M  V30 12473 C 1212.55 -2.76303 1.18647 0
M  V30 12474 C 1214.1 -2.90135 1.17433 0
M  V30 12475 C 1214.57 -4.15038 1.93669 0
M  V30 12476 N 1216.06 -4.2207 1.90817 0
M  V30 12477 C 1216.8 -5.17656 2.46616 0
M  V30 12478 N 1216.29 -6.19054 3.11037 0
M  V30 12479 N 1218.09 -5.09847 2.3667 0
M  V30 12480 H 1210.24 -1.27728 1.69703 0
M  V30 12481 H 1212.5 -0.6188 0.718186 0
M  V30 12482 H 1212.21 -2.71113 2.24032 0
M  V30 12483 H 1212.08 -3.68866 0.788514 0
M  V30 12484 H 1214.47 -2.9482 0.128615 0
M  V30 12485 H 1214.55 -1.98646 1.61163 0
M  V30 12486 H 1214.19 -4.11115 2.9824 0
M  V30 12487 H 1214.12 -5.05565 1.47349 0
M  V30 12488 H 1216.61 -3.49437 1.43882 0
M  V30 12489 H 1216.93 -6.88444 3.51091 0
M  V30 12490 H 1215.27 -6.19452 3.15126 0
M  V30 12491 H 1218.46 -4.29566 1.85987 0
M  V30 12492 H 1218.64 -5.84165 2.80455 0
M  V30 12493 N 1212.04 -0.478751 -1.50152 0
M  V30 12494 C 1213.45 -0.0254907 -1.86683 0
M  V30 12495 C 1213.8 1.38171 -1.39295 0
M  V30 12496 O 1212.93 2.0257 -0.761207 0
M  V30 12497 C 1213.52 -0.0394819 -3.38777 0
M  V30 12498 C 1212.08 0.35834 -3.7469 0
M  V30 12499 C 1211.23 -0.421667 -2.74075 0
M  V30 12500 H 1214.18 -0.692653 -1.42787 0
M  V30 12501 H 1214.2 0.760957 -3.72813 0
M  V30 12502 H 1213.71 -1.06378 -3.73236 0
M  V30 12503 H 1211.82 1.38671 -3.45834 0
M  V30 12504 H 1211.93 0.0543589 -4.79069 0
M  V30 12505 H 1210.29 0.125634 -2.5439 0
M  V30 12506 H 1211.08 -1.44562 -3.11379 0
M  V30 12507 N 1213.52 1.56172 -0.211661 0
M  V30 12508 C 1214.93 1.84307 0.297982 0
M  V30 12509 C 1215.28 1.1328 1.60194 0
M  V30 12510 O 1214.41 0.399137 2.12687 0
M  V30 12511 C 1215 3.34348 0.547428 0
M  V30 12512 C 1213.56 3.62835 1.0014 0
M  V30 12513 C 1212.71 2.77237 0.0590326 0
M  V30 12514 H 1215.66 1.5262 -0.435083 0
M  V30 12515 H 1215.68 3.54018 1.39469 0
M  V30 12516 H 1215.19 3.86015 -0.401778 0
M  V30 12517 H 1213.29 3.16616 1.96431 0
M  V30 12518 H 1213.41 4.70899 0.882653 0
M  V30 12519 H 1211.77 2.48377 0.564005 0
M  V30 12520 H 1212.55 3.31699 -0.884913 0
M  V30 12521 N 1215 -0.0618163 1.57479 0
M  V30 12522 C 1216.41 -0.416827 1.54061 0
M  V30 12523 C 1216.61 -1.78584 0.933277 0
M  V30 12524 O 1215.67 -2.46656 0.54009 0
M  V30 12525 C 1216.98 -0.348728 2.98671 0
M  V30 12526 C 1218.53 -0.428194 3.10057 0
M  V30 12527 C 1219.01 -0.389898 4.56337 0
M  V30 12528 N 1220.5 -0.449677 4.61012 0
M  V30 12529 C 1221.23 -0.442418 5.71691 0
M  V30 12530 N 1220.73 -0.389381 6.91705 0
M  V30 12531 N 1222.52 -0.489719 5.59963 0
M  V30 12532 H 1214.67 0.834487 1.9532 0
M  V30 12533 H 1216.94 0.314149 0.894435 0
M  V30 12534 H 1216.64 0.590738 3.46703 0
M  V30 12535 H 1216.52 -1.15511 3.59078 0
M  V30 12536 H 1218.9 -1.35808 2.61992 0
M  V30 12537 H 1218.98 0.406946 2.52542 0
M  V30 12538 H 1218.63 0.536186 5.05062 0
M  V30 12539 H 1218.56 -1.24271 5.11727 0
M  V30 12540 H 1221.05 -0.49451 3.74651 0
M  V30 12541 H 1221.36 -0.388042 7.71825 0
M  V30 12542 H 1219.71 -0.355918 6.94088 0
M  V30 12543 H 1222.9 -0.528915 4.65102 0
M  V30 12544 H 1223.07 -0.480592 6.46215 0
M  V30 12545 N 1216.48 -1.54033 -0.333429 0
M  V30 12546 C 1217.41 -1.85719 -1.4153 0
M  V30 12547 C 1218.39 -0.713144 -1.54429 0
M  V30 12548 O 1219.57 -0.965984 -1.68471 0
M  V30 12549 C 1216.7 -2.07578 -2.78439 0
M  V30 12550 C 1215.66 -3.23411 -2.80338 0
M  V30 12551 C 1214.98 -3.30622 -4.2023 0
M  V30 12552 C 1216.28 -4.6129 -2.44968 0
M  V30 12553 H 1217.98 -2.76325 -1.15261 0
M  V30 12554 H 1215.52 -1.32957 -0.55303 0
M  V30 12555 H 1217.48 -2.28329 -3.5418 0
M  V30 12556 H 1216.2 -1.13713 -3.06165 0
M  V30 12557 H 1214.86 -3.02531 -2.07052 0
M  V30 12558 H 1214.51 -2.34333 -4.45081 0
M  V30 12559 H 1214.21 -4.08466 -4.22409 0
M  V30 12560 H 1215.73 -3.53596 -4.97798 0
M  V30 12561 H 1217.14 -4.81987 -3.10421 0
M  V30 12562 H 1215.54 -5.41611 -2.58414 0
M  V30 12563 H 1216.61 -4.6421 -1.40134 0
M  V30 12564 N 1217.95 0.594978 -1.45938 0
M  V30 12565 C 1219.19 1.36479 -1.52161 0
M  V30 12566 C 1219.56 1.91296 -0.164295 0
M  V30 12567 O 1220.76 2.68609 -0.101247 0
M  V30 12568 C 1219.03 2.47286 -2.5804 0
M  V30 12569 S 1220.59 3.34855 -2.8358 0
M  V30 12570 H 1217.41 0.465134 -0.537746 0
M  V30 12571 H 1220.01 0.685257 -1.83097 0
M  V30 12572 H 1218.71 2.05386 -3.5531 0
M  V30 12573 H 1218.24 3.20025 -2.28795 0
M  V30 12574 H 1220.26 4.45788 -2.17916 0
M  V30 12575 N 1219.43 1.33438 0.838571 0
M  V30 12576 C 1220.36 1.19552 1.9555 0
M  V30 12577 C 1221.38 0.12642 1.62308 0
M  V30 12578 O 1222.57 0.376868 1.74476 0
M  V30 12579 C 1219.67 0.811273 3.29046 0
M  V30 12580 C 1218.84 1.97207 3.9042 0
M  V30 12581 C 1217.9 1.56875 5.02271 0
M  V30 12582 O 1216.92 2.28314 5.21403 0
M  V30 12583 N 1218.13 0.473924 5.78562 0
M  V30 12584 H 1220.89 2.15769 2.07999 0
M  V30 12585 H 1218.45 1.26187 1.01432 0
M  V30 12586 H 1220.44 0.523553 4.01299 0
M  V30 12587 H 1219.01 -0.0602291 3.12542 0
M  V30 12588 H 1218.23 2.4254 3.10754 0
M  V30 12589 H 1219.52 2.74878 4.28158 0
M  V30 12590 H 1218.92 -0.120306 5.65572 0
M  V30 12591 H 1217.48 0.245877 6.51336 0
M  V30 12592 N 1220.91 -1.05686 1.16912 0
M  V30 12593 C 1222.14 -1.82018 0.977392 0
M  V30 12594 C 1222.55 -1.83072 -0.477636 0
M  V30 12595 O 1221.89 -1.25296 -1.34338 0
M  V30 12596 C 1221.95 -3.29592 1.4356 0
M  V30 12597 C 1221.62 -3.5223 2.91175 0
M  V30 12598 C 1222.61 -3.44767 3.89142 0
M  V30 12599 C 1220.3 -3.79353 3.29236 0
M  V30 12600 C 1222.29 -3.64104 5.2317 0
M  V30 12601 C 1219.98 -3.98339 4.63432 0
M  V30 12602 C 1220.98 -3.90713 5.60207 0
M  V30 12603 O 1220.67 -4.09175 6.91976 0
M  V30 12604 H 1220.4 -0.580578 0.346273 0
M  V30 12605 H 1222.95 -1.34199 1.55498 0
M  V30 12606 H 1221.18 -3.78302 0.80153 0
M  V30 12607 H 1222.87 -3.87435 1.21032 0
M  V30 12608 H 1223.64 -3.23796 3.61083 0
M  V30 12609 H 1219.52 -3.84395 2.54482 0
M  V30 12610 H 1223.06 -3.58068 5.98693 0
M  V30 12611 H 1218.96 -4.18801 4.91198 0
M  V30 12612 H 1219.73 -4.26429 6.98642 0
M  V30 12613 N 1222.39 -0.968567 -1.24324 0
M  V30 12614 C 1223.34 -0.498817 -2.25345 0
M  V30 12615 C 1224.31 0.456082 -1.59716 0
M  V30 12616 O 1225.49 0.366254 -1.87252 0
M  V30 12617 C 1222.63 0.204027 -3.44496 0
M  V30 12618 C 1221.74 -0.789741 -4.2472 0
M  V30 12619 C 1220.88 -0.0629156 -5.31163 0
M  V30 12620 C 1219.92 -1.04669 -6.03084 0
M  V30 12621 N 1219.05 -0.349812 -7.01228 0
M  V30 12622 H 1223.89 -1.36511 -2.64894 0
M  V30 12623 H 1221.43 -0.684288 -1.30215 0
M  V30 12624 H 1223.39 0.628223 -4.12443 0
M  V30 12625 H 1222.02 1.03426 -3.05782 0
M  V30 12626 H 1221.07 -1.33237 -3.56303 0
M  V30 12627 H 1222.38 -1.53988 -4.74436 0
M  V30 12628 H 1221.54 0.419233 -6.0525 0
M  V30 12629 H 1220.28 0.719915 -4.82357 0
M  V30 12630 H 1219.28 -1.53971 -5.278 0
M  V30 12631 H 1220.51 -1.82998 -6.53979 0
M  V30 12632 H 1218.45 0.414026 -6.54692 0
M  V30 12633 H 1218.37 -1.03881 -7.48829 0
M  V30 12634 H 1219.64 0.11034 -7.79422 0
M  V30 12635 N 1223.87 1.39211 -0.738786 0
M  V30 12636 C 1224.81 2.32424 -0.0904601 0
M  V30 12637 C 1225.81 1.53258 0.721694 0
M  V30 12638 O 1227.01 1.68895 0.622454 0
M  V30 12639 H 1223.39 0.751927 -0.010453 0
M  V30 12640 H 1225.36 2.84726 -0.892945 0
M  V30 12641 C 1224.11 3.38377 0.799783 0
M  V30 12642 H 1223.43 3.99375 0.18424 0
M  V30 12643 H 1224.87 4.0604 1.22096 0
M  V30 12644 C 1223.33 2.75734 1.93578 0
M  V30 12645 O 1223.86 2.63876 3.02874 0
M  V30 12646 N 1222.07 2.33764 1.72634 0
M  V30 12647 H 1221.61 2.43609 0.837413 0
M  V30 12648 H 1221.57 1.92191 2.48817 0
M  V30 12649 N 1225.34 0.486708 1.49896 0
M  V30 12650 C 1226.31 -0.288126 2.27382 0
M  V30 12651 C 1227.31 -0.906675 1.32801 0
M  V30 12652 O 1228.5 -0.773425 1.56089 0
M  V30 12653 C 1225.63 -1.41194 3.10285 0
M  V30 12654 H 1226.82 0.391618 2.97332 0
M  V30 12655 H 1224.38 0.24123 1.54427 0
M  V30 12656 H 1225.11 -2.12627 2.44868 0
M  V30 12657 H 1224.9 -0.974033 3.79809 0
M  V30 12658 H 1226.39 -1.95812 3.68846 0
M  V30 12659 N 1226.82 -1.56058 0.219941 0
M  V30 12660 C 1228.05 -2.031 -0.42014 0
M  V30 12661 C 1228.47 -1.09875 -1.52673 0
M  V30 12662 O 1227.83 -0.0866458 -1.81093 0
M  V30 12663 C 1227.88 -3.48389 -0.93047 0
M  V30 12664 O 1226.98 -3.583 -2.04192 0
M  V30 12665 H 1226.32 -0.657129 -0.0952772 0
M  V30 12666 H 1228.85 -2.01787 0.338105 0
M  V30 12667 H 1228.86 -3.88678 -1.2407 0
M  V30 12668 H 1227.54 -4.15725 -0.120539 0
M  V30 12669 H 1226.12 -3.29898 -1.73845 0
M  V30 12670 N 1228.3 0.053464 -1.57509 0
M  V30 12671 C 1229.53 0.761533 -1.92375 0
M  V30 12672 C 1229.94 1.70179 -0.817585 0
M  V30 12673 O 1229.3 1.81313 0.207843 0
M  V30 12674 C 1229.35 1.53954 -3.27078 0
M  V30 12675 O 1229.07 0.637054 -4.33443 0
M  V30 12676 C 1230.57 2.34697 -3.76075 0
M  V30 12677 H 1227.79 0.215483 -0.635459 0
M  V30 12678 H 1230.34 0.0182624 -2.04492 0
M  V30 12679 H 1228.49 2.23492 -3.16434 0
M  V30 12680 H 1228.91 1.18006 -5.11053 0
M  V30 12681 H 1230.38 2.84716 -4.72906 0
M  V30 12682 H 1230.86 3.15041 -3.06016 0
M  V30 12683 H 1231.46 1.70281 -3.89724 0
M  V30 12684 N 1229.78 1.54207 0.325255 0
M  V30 12685 C 1231.03 1.72587 1.06497 0
M  V30 12686 C 1231.36 0.497228 1.87727 0
M  V30 12687 O 1230.63 -0.505804 1.87808 0
M  V30 12688 C 1230.92 3.00046 1.99109 0
M  V30 12689 C 1230.77 4.33158 1.21221 0
M  V30 12690 C 1232.09 3.23251 2.98658 0
M  V30 12691 H 1229.21 0.627974 0.38577 0
M  V30 12692 H 1231.85 1.869 0.34179 0
M  V30 12693 H 1230 2.87973 2.60775 0
M  V30 12694 H 1231.67 4.57111 0.620289 0
M  V30 12695 H 1229.91 4.30739 0.514462 0
M  V30 12696 H 1230.59 5.18558 1.89214 0
M  V30 12697 H 1233.06 3.34774 2.47114 0
M  V30 12698 H 1231.94 4.13796 3.60645 0
M  V30 12699 H 1232.2 2.40401 3.71026 0
M  V30 12700 N 1231.26 -0.58723 1.46251 0
M  V30 12701 C 1232.21 -1.71771 1.56836 0
M  V30 12702 C 1233.2 -1.63664 0.437096 0
M  V30 12703 O 1234.41 -1.69212 0.613797 0
M  V30 12704 H 1230.78 -0.567841 0.493012 0
M  V30 12705 H 1232.75 -1.59974 2.51895 0
M  V30 12706 C 1231.5 -3.10159 1.57152 0
M  V30 12707 H 1230.82 -3.17066 2.43535 0
M  V30 12708 H 1232.26 -3.89032 1.68613 0
M  V30 12709 C 1230.72 -3.35567 0.299374 0
M  V30 12710 O 1231.25 -3.97006 -0.612291 0
M  V30 12711 N 1229.46 -2.89987 0.188695 0
M  V30 12712 H 1229.01 -2.4017 0.93147 0
M  V30 12713 H 1228.96 -3.0736 -0.661612 0
M  V30 12714 N 1232.74 -1.33881 -0.831482 0
M  V30 12715 C 1233.98 -1.25755 -1.58719 0
M  V30 12716 C 1234.31 0.174746 -1.93713 0
M  V30 12717 O 1233.57 1.13384 -1.59507 0
M  V30 12718 C 1233.86 -2.08544 -2.90249 0
M  V30 12719 C 1233.53 -3.57651 -2.74585 0
M  V30 12720 C 1232.19 -3.983 -2.7002 0
M  V30 12721 C 1234.54 -4.52369 -2.58866 0
M  V30 12722 C 1231.87 -5.31872 -2.47647 0
M  V30 12723 C 1234.22 -5.86112 -2.38025 0
M  V30 12724 C 1232.89 -6.25934 -2.31867 0
M  V30 12725 H 1232.16 -0.460171 -0.580796 0
M  V30 12726 H 1234.81 -1.6554 -0.96274 0
M  V30 12727 H 1233.11 -1.6156 -3.56939 0
M  V30 12728 H 1234.81 -1.99609 -3.47789 0
M  V30 12729 H 1231.4 -3.2538 -2.78973 0
M  V30 12730 H 1235.58 -4.21868 -2.61421 0
M  V30 12731 H 1230.84 -5.61756 -2.41331 0
M  V30 12732 H 1235.01 -6.59103 -2.24847 0
M  V30 12733 H 1232.64 -7.29372 -2.14291 0
M  V30 12734 N 1234.21 1.05064 -1.1747 0
M  V30 12735 C 1235.44 1.81761 -0.988464 0
M  V30 12736 C 1235.86 1.83028 0.463272 0
M  V30 12737 O 1235.21 1.25846 1.32171 0
M  V30 12738 C 1235.26 3.2782 -1.5237 0
M  V30 12739 O 1234.99 3.26726 -2.91859 0
M  V30 12740 C 1236.49 4.212 -1.38223 0
M  V30 12741 H 1233.71 0.572712 -0.349631 0
M  V30 12742 H 1236.25 1.32477 -1.55789 0
M  V30 12743 H 1234.41 3.7437 -0.996272 0
M  V30 12744 H 1234.82 4.18151 -3.16623 0
M  V30 12745 H 1236.29 5.2166 -1.80485 0
M  V30 12746 H 1236.77 4.37962 -0.329491 0
M  V30 12747 H 1237.38 3.80506 -1.89988 0
M  V30 12748 N 1235.69 0.975146 1.23809 0
M  V30 12749 C 1237.1 0.678873 1.7392 0
M  V30 12750 C 1237.45 -0.805133 1.78919 0
M  V30 12751 O 1236.58 -1.62984 1.42356 0
M  V30 12752 C 1237.17 1.22562 3.15854 0
M  V30 12753 C 1235.73 0.979096 3.63443 0
M  V30 12754 C 1234.88 1.35649 2.41857 0
M  V30 12755 H 1237.83 1.14961 1.09406 0
M  V30 12756 H 1237.85 0.595489 3.75811 0
M  V30 12757 H 1237.36 2.30571 3.12184 0
M  V30 12758 H 1235.46 -0.0851407 3.72503 0
M  V30 12759 H 1235.58 1.62998 4.5052 0
M  V30 12760 H 1233.94 0.774916 2.42626 0
M  V30 12761 H 1234.72 2.44624 2.40861 0
M  V30 12762 N 1237.17 -1.38817 0.746158 0
M  V30 12763 C 1238.4 -2.0457 0.309605 0
M  V30 12764 C 1238.81 -1.5627 -1.05948 0
M  V30 12765 O 1238.17 -0.73248 -1.67156 0
M  V30 12766 C 1238.22 -3.60126 0.314843 0
M  V30 12767 O 1237.94 -4.06652 1.6299 0
M  V30 12768 C 1239.44 -4.4309 -0.136497 0
M  V30 12769 H 1236.66 -0.657597 0.133441 0
M  V30 12770 H 1239.21 -1.77651 1.01293 0
M  V30 12771 H 1237.36 -3.85908 -0.339685 0
M  V30 12772 H 1237.78 -5.01042 1.55103 0
M  V30 12773 H 1239.25 -5.5194 -0.0816714 0
M  V30 12774 H 1239.73 -4.22959 -1.18332 0
M  V30 12775 H 1240.33 -4.22481 0.488879 0
M  V30 12776 N 1238.65 -0.49465 -1.49636 0
M  V30 12777 C 1239.6 0.300929 -2.30645 0
M  V30 12778 C 1240.59 0.968687 -1.38971 0
M  V30 12779 O 1241.8 0.897101 -1.56052 0
M  V30 12780 H 1238.17 0.1159 -0.743015 0
M  V30 12781 H 1240.14 -0.402387 -2.95674 0
M  V30 12782 C 1238.89 1.35638 -3.20153 0
M  V30 12783 H 1238.21 0.851946 -3.90617 0
M  V30 12784 H 1239.65 1.88515 -3.79787 0
M  V30 12785 C 1238.11 2.37112 -2.39331 0
M  V30 12786 O 1238.64 3.42867 -2.09298 0
M  V30 12787 N 1236.85 2.09421 -2.01473 0
M  V30 12788 H 1236.4 1.23441 -2.26097 0
M  V30 12789 H 1236.35 2.77545 -1.47703 0
M  V30 12790 N 1240.13 1.55939 -0.228214 0
M  V30 12791 C 1241.37 1.9877 0.402272 0
M  V30 12792 C 1241.7 1.11587 1.5894 0
M  V30 12793 O 1240.98 0.175032 1.93711 0
M  V30 12794 C 1241.26 3.50396 0.830353 0
M  V30 12795 C 1241.12 4.4835 -0.360876 0
M  V30 12796 C 1242.43 4.06602 1.68413 0
M  V30 12797 H 1239.55 0.722646 0.144746 0
M  V30 12798 H 1242.2 1.87186 -0.325784 0
M  V30 12799 H 1240.35 3.60398 1.4507 0
M  V30 12800 H 1242.02 4.5035 -0.999113 0
M  V30 12801 H 1240.26 4.21946 -1.00719 0
M  V30 12802 H 1240.93 5.51997 -0.0183074 0
M  V30 12803 H 1243.41 3.99585 1.16064 0
M  V30 12804 H 1242.28 5.12998 1.95254 0
M  V30 12805 H 1242.54 3.53897 2.64971 0
M  V30 12806 N 1241.6 -0.0451101 1.57535 0
M  V30 12807 C 1242.83 -0.75132 1.92777 0
M  V30 12808 C 1243.25 -1.69743 0.826599 0
M  V30 12809 O 1242.6 -1.8142 -0.198224 0
M  V30 12810 C 1242.66 -1.52218 3.2789 0
M  V30 12811 O 1242.38 -0.614059 4.33775 0
M  V30 12812 C 1243.88 -2.32699 3.77314 0
M  V30 12813 H 1241.1 -0.21211 0.636593 0
M  V30 12814 H 1243.64 -0.0074174 2.04499 0
M  V30 12815 H 1241.8 -2.2181 3.17614 0
M  V30 12816 H 1242.21 -1.15294 5.11671 0
M  V30 12817 H 1243.68 -2.82205 4.7441 0
M  V30 12818 H 1244.16 -3.13414 3.07682 0
M  V30 12819 H 1244.77 -1.68212 3.90621 0
M  V30 12820 N 1243.08 -1.54377 -0.317073 0
M  V30 12821 C 1244.36 -1.63551 -1.07287 0
M  V30 12822 C 1244.74 -0.473499 -2.05721 0
M  V30 12823 O 1244.09 0.531545 -2.22232 0
M  V30 12824 C 1244.3 -3.00842 -1.76904 0
M  V30 12825 C 1245.65 -3.57111 -2.29689 0
M  V30 12826 O 1246.67 -3.0319 -1.86961 0
M  V30 12827 O 1245.53 -4.51486 -3.07932 0
M  V30 12828 H 1242.62 -0.662557 -0.494922 0
M  V30 12829 H 1245.17 -1.66723 -0.316444 0
M  V30 12830 H 1243.94 -3.76854 -1.05341 0
M  V30 12831 H 1243.56 -3.01377 -2.59341 0
M  V30 12832 N 1244.56 0.579466 -1.4656 0
M  V30 12833 C 1245.51 1.68829 -1.5737 0
M  V30 12834 C 1246.48 1.60759 -0.417825 0
M  V30 12835 O 1247.66 1.79923 -0.635001 0
M  V30 12836 C 1244.8 3.07166 -1.573 0
M  V30 12837 C 1243.92 3.25837 -2.83645 0
M  V30 12838 C 1243.05 4.54441 -2.75057 0
M  V30 12839 C 1242.09 4.66467 -3.96327 0
M  V30 12840 N 1241.23 5.86401 -3.86107 0
M  V30 12841 H 1246.07 1.58928 -2.52083 0
M  V30 12842 H 1243.6 0.774526 -1.25058 0
M  V30 12843 H 1245.56 3.8724 -1.55245 0
M  V30 12844 H 1244.19 3.15956 -0.661166 0
M  V30 12845 H 1243.24 2.39345 -2.95666 0
M  V30 12846 H 1244.56 3.30591 -3.73512 0
M  V30 12847 H 1243.71 5.42748 -2.71126 0
M  V30 12848 H 1242.45 4.52131 -1.82836 0
M  V30 12849 H 1241.45 3.76577 -4.00587 0
M  V30 12850 H 1242.68 4.70554 -4.89649 0
M  V30 12851 H 1240.62 5.85082 -2.96673 0
M  V30 12852 H 1240.54 5.92437 -4.69632 0
M  V30 12853 H 1241.81 6.7713 -3.86155 0
M  V30 12854 N 1246.04 1.3432 0.824371 0
M  V30 12855 C 1247.45 1.1397 1.11727 0
M  V30 12856 C 1247.65 -0.0597597 2.01411 0
M  V30 12857 O 1246.71 -0.735717 2.41544 0
M  V30 12858 C 1248.02 2.43423 1.76538 0
M  V30 12859 C 1249.57 2.49466 1.89039 0
M  V30 12860 C 1250.05 3.78917 2.57266 0
M  V30 12861 N 1251.54 3.8007 2.64767 0
M  V30 12862 C 1252.27 4.76953 3.18282 0
M  V30 12863 N 1251.77 5.84217 3.72373 0
M  V30 12864 N 1253.56 4.6441 3.1667 0
M  V30 12865 H 1245.71 2.11175 0.227802 0
M  V30 12866 H 1247.98 0.933774 0.163615 0
M  V30 12867 H 1247.68 3.31278 1.18102 0
M  V30 12868 H 1247.56 2.56655 2.7642 0
M  V30 12869 H 1249.94 1.62052 2.46623 0
M  V30 12870 H 1250.02 2.40163 0.880635 0
M  V30 12871 H 1249.67 4.6672 2.00336 0
M  V30 12872 H 1249.6 3.85502 3.58742 0
M  V30 12873 H 1252.09 3.02556 2.26425 0
M  V30 12874 H 1252.4 6.54159 4.11455 0
M  V30 12875 H 1250.75 5.87933 3.70621 0
M  V30 12876 H 1253.94 3.7976 2.73678 0
M  V30 12877 H 1254.11 5.40081 3.58073 0
M  V30 12878 N 1247.52 -1.0444 1.18026 0
M  V30 12879 C 1248.74 -1.81234 0.998089 0
M  V30 12880 C 1249.16 -1.83271 -0.453559 0
M  V30 12881 O 1248.52 -1.26545 -1.31502 0
M  V30 12882 C 1248.57 -3.27007 1.54106 0
M  V30 12883 O 1248.29 -3.25174 2.93587 0
M  V30 12884 C 1249.79 -4.20461 1.40455 0
M  V30 12885 H 1247.01 -0.57085 0.352663 0
M  V30 12886 H 1249.55 -1.31649 1.56489 0
M  V30 12887 H 1247.71 -3.73837 1.01611 0
M  V30 12888 H 1248.12 -4.16466 3.18836 0
M  V30 12889 H 1249.6 -5.20695 1.83249 0
M  V30 12890 H 1250.07 -4.37781 0.352713 0
M  V30 12891 H 1250.68 -3.79493 1.92004 0
M  V30 12892 N 1248.99 -0.981699 -1.2329 0
M  V30 12893 C 1250.22 -0.669025 -1.96313 0
M  V30 12894 C 1250.64 0.757624 -1.72168 0
M  V30 12895 O 1250 1.51626 -0.993942 0
M  V30 12896 C 1250.05 -0.966875 -3.47396 0
M  V30 12897 O 1249.15 -0.0595933 -4.12357 0
M  V30 12898 H 1248.5 -0.251493 -0.61453 0
M  V30 12899 H 1251.03 -1.31564 -1.56691 0
M  V30 12900 H 1251.04 -0.904112 -3.97857 0
M  V30 12901 H 1249.71 -2.00651 -3.64296 0
M  V30 12902 H 1248.29 -0.176878 -3.7248 0
M  V30 12903 N 1250.47 1.3842 -0.753509 0
M  V30 12904 C 1251.72 1.99359 -0.306416 0
M  V30 12905 C 1252.03 1.60492 1.11811 0
M  V30 12906 O 1253.24 2.14401 1.66567 0
M  V30 12907 C 1251.7 3.56453 -0.496895 0
M  V30 12908 C 1251.3 4.04272 -1.9305 0
M  V30 12909 C 1253.05 4.24351 -0.11251 0
M  V30 12910 C 1250.96 5.54007 -2.06955 0
M  V30 12911 H 1249.89 0.745812 -0.110818 0
M  V30 12912 H 1252.54 1.58185 -0.930039 0
M  V30 12913 H 1250.92 3.95515 0.195912 0
M  V30 12914 H 1252.09 3.765 -2.65677 0
M  V30 12915 H 1250.41 3.49098 -2.26979 0
M  V30 12916 H 1253 5.34344 -0.195161 0
M  V30 12917 H 1253.35 4.05668 0.934849 0
M  V30 12918 H 1253.88 3.90528 -0.757168 0
M  V30 12919 H 1250.62 5.77594 -3.09944 0
M  V30 12920 H 1250.14 5.83522 -1.38788 0
M  V30 12921 H 1251.82 6.19704 -1.85945 0
M  V30 12922 N 1251.95 0.502579 1.49372 0
M  V30 12923 C 1252.9 -0.288693 2.30801 0
M  V30 12924 C 1253.89 -0.961303 1.39482 0
M  V30 12925 O 1255.1 -0.888812 1.56525 0
M  V30 12926 H 1251.47 -0.111958 0.743619 0
M  V30 12927 H 1253.44 0.418062 2.95457 0
M  V30 12928 C 1252.19 -1.33938 3.20867 0
M  V30 12929 H 1251.52 -0.831219 3.91064 0
M  V30 12930 H 1252.96 -1.86498 3.80781 0
M  V30 12931 C 1251.42 -2.35839 2.40586 0
M  V30 12932 O 1251.95 -3.41752 2.11113 0
M  V30 12933 N 1250.15 -2.0835 2.0258 0
M  V30 12934 H 1249.7 -1.2224 2.26749 0
M  V30 12935 H 1249.66 -2.76758 1.49173 0
M  V30 12936 N 1253.43 -1.55816 0.23648 0
M  V30 12937 C 1254.66 -2.02789 -0.39501 0
M  V30 12938 C 1255.07 -1.1153 -1.52832 0
M  V30 12939 O 1254.41 -0.120084 -1.83307 0
M  V30 12940 C 1254.47 -3.46052 -0.974066 0
M  V30 12941 C 1254.14 -4.56993 0.0256825 0
M  V30 12942 C 1255.13 -5.13208 0.831477 0
M  V30 12943 C 1252.82 -5.0208 0.148759 0
M  V30 12944 C 1254.81 -6.12994 1.74691 0
M  V30 12945 C 1252.5 -6.017 1.0677 0
M  V30 12946 C 1253.5 -6.57035 1.86531 0
M  V30 12947 O 1253.18 -7.54714 2.76878 0
M  V30 12948 H 1252.92 -0.668672 -0.0992687 0
M  V30 12949 H 1255.47 -2.02312 0.354826 0
M  V30 12950 H 1253.7 -3.43645 -1.77327 0
M  V30 12951 H 1255.39 -3.76586 -1.51453 0
M  V30 12952 H 1256.16 -4.79214 0.746922 0
M  V30 12953 H 1252.03 -4.58679 -0.461976 0
M  V30 12954 H 1255.58 -6.56111 2.36989 0
M  V30 12955 H 1251.48 -6.35115 1.15322 0
M  V30 12956 H 1252.24 -7.72292 2.71122 0
M  V30 12957 N 1254.91 0.036755 -1.57557 0
M  V30 12958 C 1256.16 0.728107 -1.881 0
M  V30 12959 C 1256.47 1.7693 -0.833974 0
M  V30 12960 O 1257.67 2.5127 -1.02837 0
M  V30 12961 C 1256.13 1.34604 -3.33781 0
M  V30 12962 C 1255.74 0.341599 -4.46696 0
M  V30 12963 C 1257.48 2.01772 -3.73481 0
M  V30 12964 C 1255.39 0.967444 -5.83433 0
M  V30 12965 H 1254.32 0.275695 -0.701789 0
M  V30 12966 H 1256.97 -0.0177555 -1.83491 0
M  V30 12967 H 1255.35 2.14135 -3.3311 0
M  V30 12968 H 1256.53 -0.426441 -4.58823 0
M  V30 12969 H 1254.84 -0.227558 -4.15778 0
M  V30 12970 H 1257.44 2.49435 -4.72955 0
M  V30 12971 H 1257.78 2.83255 -3.05077 0
M  V30 12972 H 1258.31 1.29026 -3.76294 0
M  V30 12973 H 1255.05 0.19219 -6.55218 0
M  V30 12974 H 1254.57 1.70551 -5.75041 0
M  V30 12975 H 1256.25 1.47705 -6.29914 0
M  V30 12976 N 1256.39 1.54543 0.308881 0
M  V30 12977 C 1257.8 1.64532 0.882392 0
M  V30 12978 C 1258.15 0.54886 1.88367 0
M  V30 12979 O 1257.27 -0.315832 2.14083 0
M  V30 12980 C 1257.87 2.98251 1.60722 0
M  V30 12981 C 1256.43 3.10387 2.12925 0
M  V30 12982 C 1255.57 2.60176 0.959362 0
M  V30 12983 H 1258.52 1.58466 0.0860803 0
M  V30 12984 H 1258.55 2.89233 2.47233 0
M  V30 12985 H 1258.06 3.78033 0.878233 0
M  V30 12986 H 1256.16 2.35309 2.88895 0
M  V30 12987 H 1256.27 4.16421 2.36918 0
M  V30 12988 H 1254.64 2.16434 1.3427 0
M  V30 12989 H 1255.42 3.42429 0.244454 0
M  V30 12990 N 1257.86 -0.571685 1.46866 0
M  V30 12991 C 1258.77 -1.70758 1.60869 0
M  V30 12992 C 1259.79 -1.66903 0.49186 0
M  V30 12993 O 1260.97 -1.86613 0.757468 0
M  V30 12994 C 1258.03 -3.07267 1.60586 0
M  V30 12995 C 1257.09 -3.22301 2.83585 0
M  V30 12996 C 1256.32 -4.52298 2.83306 0
M  V30 12997 O 1256.55 -5.36869 1.92685 0
M  V30 12998 O 1255.48 -4.70814 3.7499 0
M  V30 12999 H 1259.31 -1.6189 2.56954 0
M  V30 13000 H 1256.89 -0.740018 1.29785 0
M  V30 13001 H 1258.77 -3.8853 1.63163 0
M  V30 13002 H 1257.45 -3.16549 0.676637 0
M  V30 13003 H 1256.36 -2.4049 2.86558 0
M  V30 13004 H 1257.69 -3.17916 3.75753 0
M  V30 13005 N 1259.34 -1.34755 -0.817236 0
M  V30 13006 C 1260.57 -1.30522 -1.60536 0
M  V30 13007 C 1260.98 0.119541 -1.88421 0
M  V30 13008 O 1260.34 1.06833 -1.47962 0
M  V30 13009 C 1260.39 -2.09939 -2.94292 0
M  V30 13010 O 1260.11 -3.46858 -2.67621 0
M  V30 13011 C 1261.61 -2.13168 -3.88683 0
M  V30 13012 H 1258.83 -0.448789 -0.498828 0
M  V30 13013 H 1261.38 -1.77453 -1.01639 0
M  V30 13014 H 1259.53 -1.66634 -3.49731 0
M  V30 13015 H 1259.95 -3.87979 -3.52949 0
M  V30 13016 H 1261.42 -2.73147 -4.79682 0
M  V30 13017 H 1261.9 -1.12758 -4.24479 0
M  V30 13018 H 1262.5 -2.56587 -3.39181 0
M  V30 13019 N 1260.82 1.03812 -1.18578 0
M  V30 13020 C 1262.07 1.77319 -0.984173 0
M  V30 13021 C 1262.4 1.88052 0.484789 0
M  V30 13022 O 1261.67 1.3905 1.35998 0
M  V30 13023 C 1261.96 3.20448 -1.6427 0
M  V30 13024 C 1261.81 3.17643 -3.1847 0
M  V30 13025 C 1263.13 4.18623 -1.35805 0
M  V30 13026 H 1260.25 0.643681 -0.358949 0
M  V30 13027 H 1262.89 1.21249 -1.46283 0
M  V30 13028 H 1261.04 3.68324 -1.23572 0
M  V30 13029 H 1262.71 2.77738 -3.6832 0
M  V30 13030 H 1260.95 2.55606 -3.50497 0
M  V30 13031 H 1261.63 4.18724 -3.59686 0
M  V30 13032 H 1264.1 3.79306 -1.71073 0
M  V30 13033 H 1262.98 5.16982 -1.84446 0
M  V30 13034 H 1263.24 4.41203 -0.281418 0
M  V30 13035 N 1262.3 0.988223 1.22768 0
M  V30 13036 C 1263.24 0.534605 2.24523 0
M  V30 13037 C 1264.21 -0.430615 1.60421 0
M  V30 13038 O 1265.4 -0.336417 1.87811 0
M  V30 13039 C 1262.54 -0.149195 3.44777 0
M  V30 13040 C 1261.65 0.85721 4.2341 0
M  V30 13041 C 1260.79 0.147411 5.30995 0
M  V30 13042 C 1259.83 1.1425 6.01343 0
M  V30 13043 N 1258.96 0.461327 7.00583 0
M  V30 13044 H 1263.8 1.40708 2.62689 0
M  V30 13045 H 1261.34 0.704918 1.2911 0
M  V30 13046 H 1263.3 -0.562527 4.1339 0
M  V30 13047 H 1261.93 -0.985485 3.07389 0
M  V30 13048 H 1260.98 1.38889 3.54138 0
M  V30 13049 H 1262.29 1.61517 4.71926 0
M  V30 13050 H 1261.45 -0.32289 6.0584 0
M  V30 13051 H 1260.19 -0.643085 4.83442 0
M  V30 13052 H 1259.19 1.62348 5.25284 0
M  V30 13053 H 1260.42 1.93379 6.50985 0
M  V30 13054 H 1258.36 -0.309818 6.55268 0
M  V30 13055 H 1258.28 1.15781 7.47082 0
M  V30 13056 H 1259.55 0.0136734 7.79499 0
M  V30 13057 N 1263.78 -1.38018 0.760839 0
M  V30 13058 C 1265.19 -1.82645 0.387022 0
M  V30 13059 C 1265.54 -1.63445 -1.08536 0
M  V30 13060 O 1264.66 -1.13958 -1.83963 0
M  V30 13061 C 1265.26 -3.3158 0.69569 0
M  V30 13062 C 1263.82 -3.74527 0.375063 0
M  V30 13063 C 1262.96 -2.60696 0.94515 0
M  V30 13064 H 1265.91 -1.26644 0.956396 0
M  V30 13065 H 1265.94 -3.80493 -0.0235511 0
M  V30 13066 H 1265.45 -3.45522 1.76737 0
M  V30 13067 H 1263.55 -3.6616 -0.689741 0
M  V30 13068 H 1263.66 -4.71029 0.875685 0
M  V30 13069 H 1262.03 -2.51997 0.370065 0
M  V30 13070 H 1262.81 -2.77434 2.02201 0
M  V30 13071 N 1265.25 -0.510493 -1.49103 0
M  V30 13072 C 1266.53 0.0941122 -1.95373 0
M  V30 13073 C 1266.91 1.53207 -1.45227 0
M  V30 13074 O 1266.26 2.18452 -0.670161 0
M  V30 13075 C 1266.47 -0.00302507 -3.49 0
M  V30 13076 C 1267.82 0.166117 -4.24275 0
M  V30 13077 O 1268.84 0.0717097 -3.56128 0
M  V30 13078 O 1267.7 0.361155 -5.45305 0
M  V30 13079 H 1264.79 0.0900741 -0.82208 0
M  V30 13080 H 1267.34 -0.573707 -1.59708 0
M  V30 13081 H 1266.11 -1.00545 -3.78162 0
M  V30 13082 H 1265.73 0.704518 -3.91308 0
M  V30 13083 N 1266.73 1.55688 -0.24474 0
M  V30 13084 C 1267.66 2.24272 0.64995 0
M  V30 13085 C 1268.64 1.22226 1.183 0
M  V30 13086 O 1269.83 1.50873 1.22274 0
M  V30 13087 C 1266.96 2.94053 1.84798 0
M  V30 13088 C 1265.91 4.02769 1.44779 0
M  V30 13089 C 1265.24 4.59965 2.72647 0
M  V30 13090 C 1266.54 5.18601 0.62047 0
M  V30 13091 H 1268.23 2.99298 0.0780654 0
M  V30 13092 H 1265.78 1.43955 0.0361069 0
M  V30 13093 H 1267.73 3.40732 2.47951 0
M  V30 13094 H 1266.45 2.16511 2.44521 0
M  V30 13095 H 1265.11 3.56856 0.839609 0
M  V30 13096 H 1264.76 3.79126 3.30564 0
M  V30 13097 H 1264.46 5.33352 2.46596 0
M  V30 13098 H 1265.99 5.09376 3.36703 0
M  V30 13099 H 1267.4 5.61519 1.15625 0
M  V30 13100 H 1265.8 5.98364 0.456097 0
M  V30 13101 H 1266.87 4.83503 -0.367798 0
M  V30 13102 N 1268.21 -0.0283989 1.57574 0
M  V30 13103 C 1269.43 -0.734537 1.93957 0
M  V30 13104 C 1269.86 -1.68062 0.844787 0
M  V30 13105 O 1269.22 -1.802 -0.199432 0
M  V30 13106 C 1269.27 -1.46716 3.29404 0
M  V30 13107 O 1268.37 -2.58036 3.217 0
M  V30 13108 H 1267.71 -0.197507 0.633946 0
M  V30 13109 H 1270.24 0.0163258 2.04593 0
M  V30 13110 H 1270.25 -1.83693 3.64309 0
M  V30 13111 H 1268.93 -0.773292 4.08648 0
M  V30 13112 H 1267.5 -2.23597 2.98427 0
M  V30 13113 N 1269.69 -1.54705 -0.300681 0
M  V30 13114 C 1270.64 -1.86433 -1.39087 0
M  V30 13115 C 1271.63 -0.738101 -1.52474 0
M  V30 13116 O 1272.84 -0.922096 -1.54588 0
M  V30 13117 H 1269.21 -0.591314 -0.464599 0
M  V30 13118 H 1271.18 -2.77558 -1.09563 0
M  V30 13119 C 1269.93 -2.1286 -2.74929 0
M  V30 13120 H 1269.25 -2.98994 -2.6541 0
M  V30 13121 H 1270.69 -2.39 -3.50222 0
M  V30 13122 C 1269.15 -0.92726 -3.23888 0
M  V30 13123 O 1269.68 -0.147921 -4.01428 0
M  V30 13124 N 1267.89 -0.732553 -2.81215 0
M  V30 13125 H 1267.44 -1.36797 -2.18276 0
M  V30 13126 H 1267.39 0.0696902 -3.14323 0
M  V30 13127 N 1271.17 0.563888 -1.47167 0
M  V30 13128 C 1272.4 1.34498 -1.56825 0
M  V30 13129 C 1272.8 1.87974 -0.215011 0
M  V30 13130 O 1272.15 1.65323 0.80087 0
M  V30 13131 C 1272.21 2.55602 -2.528 0
M  V30 13132 C 1271.87 2.23459 -3.98642 0
M  V30 13133 C 1272.87 1.81155 -4.87318 0
M  V30 13134 C 1270.56 2.35024 -4.43925 0
M  V30 13135 C 1272.55 1.50835 -6.19296 0
M  V30 13136 C 1270.24 2.04317 -5.75932 0
M  V30 13137 C 1271.23 1.6229 -6.63439 0
M  V30 13138 O 1270.92 1.31969 -7.92994 0
M  V30 13139 H 1270.65 0.416551 -0.532411 0
M  V30 13140 H 1273.21 0.690611 -1.93442 0
M  V30 13141 H 1271.44 3.23907 -2.11237 0
M  V30 13142 H 1273.13 3.17677 -2.52659 0
M  V30 13143 H 1273.89 1.71719 -4.53583 0
M  V30 13144 H 1269.77 2.66696 -3.76024 0
M  V30 13145 H 1273.32 1.17958 -6.87555 0
M  V30 13146 H 1269.21 2.13383 -6.09211 0
M  V30 13147 H 1269.98 1.45656 -8.05436 0
M  V30 13148 N 1272.64 1.35187 0.810078 0
M  V30 13149 C 1273.89 1.28011 1.56389 0
M  V30 13150 C 1274.21 -0.14622 1.94451 0
M  V30 13151 O 1273.48 -1.08185 1.63318 0
M  V30 13152 H 1272.06 0.470837 0.579932 0
M  V30 13153 H 1274.73 1.69249 0.966476 0
M  V30 13154 H 1273.82 1.89362 2.4809 0
M  V30 13155 N 1274.12 -1.03182 1.19127 0
M  V30 13156 C 1275.09 -2.09559 0.928307 0
M  V30 13157 C 1276.09 -1.60548 -0.0899992 0
M  V30 13158 O 1277.28 -1.736 0.144422 0
M  V30 13159 C 1274.41 -3.38609 0.394561 0
M  V30 13160 H 1275.6 -2.34321 1.87173 0
M  V30 13161 H 1273.15 -1.19746 1.00452 0
M  V30 13162 H 1273.89 -3.19515 -0.555046 0
M  V30 13163 H 1273.67 -3.75502 1.12873 0
M  V30 13164 H 1275.16 -4.16969 0.229569 0
M  V30 13165 N 1275.6 -0.99472 -1.22242 0
M  V30 13166 C 1276.85 -0.671602 -1.91039 0
M  V30 13167 C 1277.18 0.796543 -1.77441 0
M  V30 13168 O 1276.43 1.59179 -1.13845 0
M  V30 13169 C 1276.73 -1.02561 -3.42368 0
M  V30 13170 C 1276.4 -2.48632 -3.76155 0
M  V30 13171 C 1275.06 -2.88549 -3.85088 0
M  V30 13172 C 1277.41 -3.43302 -3.92165 0
M  V30 13173 C 1274.74 -4.22121 -4.07469 0
M  V30 13174 C 1277.09 -4.76534 -4.1605 0
M  V30 13175 C 1275.75 -5.1619 -4.23207 0
M  V30 13176 H 1275.02 -0.245756 -0.69906 0
M  V30 13177 H 1277.67 -1.25125 -1.44969 0
M  V30 13178 H 1275.98 -0.364073 -3.90105 0
M  V30 13179 H 1277.67 -0.753612 -3.93855 0
M  V30 13180 H 1274.26 -2.16693 -3.69787 0
M  V30 13181 H 1278.45 -3.13633 -3.8464 0
M  V30 13182 H 1273.7 -4.52431 -4.11238 0
M  V30 13183 H 1277.88 -5.49835 -4.27381 0
M  V30 13184 H 1275.5 -6.19708 -4.40303 0
M  V30 13185 N 1277.08 1.37613 -0.768148 0
M  V30 13186 C 1278.33 1.99384 -0.330187 0
M  V30 13187 C 1278.65 1.61283 1.09604 0
M  V30 13188 O 1277.92 0.876551 1.75195 0
M  V30 13189 H 1276.5 0.737445 -0.119095 0
M  V30 13190 H 1279.16 1.6815 -0.985476 0
M  V30 13191 H 1278.26 3.09462 -0.40494 0
M  V30 13192 N 1278.56 0.518393 1.4883 0
M  V30 13193 C 1279.79 -0.0161765 2.06594 0
M  V30 13194 C 1280.19 -1.29771 1.37681 0
M  V30 13195 O 1279.54 -1.77991 0.454421 0
M  V30 13196 C 1279.6 -0.322505 3.5805 0
M  V30 13197 C 1279.26 0.863848 4.48761 0
M  V30 13198 C 1280.26 1.75912 4.89235 0
M  V30 13199 C 1277.95 1.06757 4.90824 0
M  V30 13200 C 1279.94 2.84211 5.70528 0
M  V30 13201 C 1277.63 2.15372 5.7189 0
M  V30 13202 C 1278.62 3.03932 6.11649 0
M  V30 13203 O 1278.31 4.1067 6.9109 0
M  V30 13204 H 1278.04 0.0251212 0.675533 0
M  V30 13205 H 1280.6 0.720052 1.92365 0
M  V30 13206 H 1278.83 -1.11256 3.7035 0
M  V30 13207 H 1280.52 -0.797764 3.97983 0
M  V30 13208 H 1281.28 1.61362 4.5737 0
M  V30 13209 H 1277.16 0.387566 4.59368 0
M  V30 13210 H 1280.71 3.53364 6.01481 0
M  V30 13211 H 1276.6 2.2991 6.03168 0
M  V30 13212 H 1277.37 4.08237 7.09426 0
M  V30 13213 N 1280.03 -1.55556 0.252993 0
M  V30 13214 C 1280.97 -2.18978 -0.676837 0
M  V30 13215 C 1281.98 -1.16788 -1.13421 0
M  V30 13216 O 1283.17 -1.43623 -1.05993 0
M  V30 13217 C 1280.27 -2.78404 -1.93248 0
M  V30 13218 C 1279.44 -4.06072 -1.62555 0
M  V30 13219 C 1278.5 -4.49757 -2.7314 0
M  V30 13220 O 1277.53 -5.16005 -2.40266 0
M  V30 13221 N 1278.73 -4.18049 -4.0276 0
M  V30 13222 H 1281.49 -2.994 -0.134142 0
M  V30 13223 H 1279.05 -1.61734 0.0731965 0
M  V30 13224 H 1281.05 -3.04583 -2.6648 0
M  V30 13225 H 1279.62 -2.02104 -2.3848 0
M  V30 13226 H 1278.84 -3.87417 -0.728115 0
M  V30 13227 H 1280.12 -4.89297 -1.39521 0
M  V30 13228 H 1279.52 -3.64876 -4.32298 0
M  V30 13229 H 1278.08 -4.4905 -4.72438 0
M  V30 13230 N 1281.51 0.0200419 -1.57587 0
M  V30 13231 C 1282.74 0.724241 -1.94344 0
M  V30 13232 C 1283.16 1.67612 -0.853688 0
M  V30 13233 O 1282.52 1.80303 0.189873 0
M  V30 13234 C 1282.57 1.44967 -3.30177 0
M  V30 13235 O 1281.67 2.56326 -3.23064 0
M  V30 13236 H 1281.01 0.194142 -0.634984 0
M  V30 13237 H 1283.54 -0.0271756 -2.04582 0
M  V30 13238 H 1283.55 1.81758 -3.65278 0
M  V30 13239 H 1282.23 0.75161 -4.09052 0
M  V30 13240 H 1280.81 2.22011 -2.99609 0
M  V30 13241 N 1282.99 1.54862 0.292472 0
M  V30 13242 C 1284.24 1.74203 1.02458 0
M  V30 13243 C 1284.56 0.535398 1.87506 0
M  V30 13244 O 1283.83 -0.450164 1.90658 0
M  V30 13245 H 1282.41 0.642369 0.381276 0
M  V30 13246 H 1285.07 1.92232 0.321398 0
M  V30 13247 H 1284.17 2.63486 1.67277 0
M  V30 13248 N 1284.47 -0.556076 1.47464 0
M  V30 13249 C 1285.43 -1.64515 1.59586 0
M  V30 13250 C 1286.43 -1.53751 0.470881 0
M  V30 13251 O 1287.62 -1.57889 0.735979 0
M  V30 13252 C 1284.75 -3.0406 1.54143 0
M  V30 13253 H 1285.95 -1.55116 2.56669 0
M  V30 13254 H 1283.5 -0.776087 1.35671 0
M  V30 13255 H 1284.23 -3.18991 0.584395 0
M  V30 13256 H 1284.02 -3.13282 2.3579 0
M  V30 13257 H 1285.51 -3.8329 1.65766 0
M  V30 13258 N 1285.95 -1.35615 -0.802897 0
M  V30 13259 C 1287.19 -1.29285 -1.56247 0
M  V30 13260 C 1287.53 0.131474 -1.93754 0
M  V30 13261 O 1286.8 1.08172 -1.61645 0
M  V30 13262 C 1287.08 -2.20285 -2.84863 0
M  V30 13263 C 1286.94 -3.71351 -2.53808 0
M  V30 13264 C 1288.26 -2.10318 -3.86593 0
M  V30 13265 H 1285.38 -0.470972 -0.566882 0
M  V30 13266 H 1288.02 -1.66048 -0.923469 0
M  V30 13267 H 1286.17 -1.89063 -3.39393 0
M  V30 13268 H 1287.84 -4.13031 -2.05433 0
M  V30 13269 H 1286.08 -3.9145 -1.86947 0
M  V30 13270 H 1286.75 -4.30416 -3.4561 0
M  V30 13271 H 1289.23 -2.37772 -3.41473 0
M  V30 13272 H 1288.11 -2.76183 -4.74357 0
M  V30 13273 H 1288.37 -1.08627 -4.28547 0
M  V30 13274 N 1287.43 1.02549 -1.19673 0
M  V30 13275 C 1288.66 1.79363 -1.02531 0
M  V30 13276 C 1289.06 1.84274 0.42893 0
M  V30 13277 O 1288.41 1.28813 1.30969 0
M  V30 13278 C 1288.47 3.2567 -1.52248 0
M  V30 13279 C 1288.13 3.44386 -3.00412 0
M  V30 13280 C 1289.13 3.34329 -3.98146 0
M  V30 13281 C 1286.81 3.70491 -3.39178 0
M  V30 13282 C 1288.81 3.50106 -5.3264 0
M  V30 13283 C 1286.5 3.85912 -4.7383 0
M  V30 13284 C 1287.49 3.75723 -5.70369 0
M  V30 13285 O 1287.18 3.90685 -7.02581 0
M  V30 13286 H 1286.91 0.571194 -0.361544 0
M  V30 13287 H 1289.47 1.30029 -1.59002 0
M  V30 13288 H 1287.7 3.76044 -0.901548 0
M  V30 13289 H 1289.39 3.8409 -1.31262 0
M  V30 13290 H 1290.15 3.14109 -3.69541 0
M  V30 13291 H 1286.03 3.77513 -2.64585 0
M  V30 13292 H 1289.58 3.42069 -6.07976 0
M  V30 13293 H 1285.47 4.05631 -5.02129 0
M  V30 13294 H 1286.24 4.07756 -7.09702 0
M  V30 13295 N 1288.9 1.00119 1.21713 0
M  V30 13296 C 1290.15 0.682733 1.90962 0
M  V30 13297 C 1290.48 -0.784131 1.77665 0
M  V30 13298 O 1289.76 -1.56799 1.15084 0
M  V30 13299 C 1290.04 1.09975 3.42896 0
M  V30 13300 C 1289.89 2.62578 3.65202 0
M  V30 13301 C 1291.21 0.659247 4.35134 0
M  V30 13302 H 1288.33 0.249501 0.693483 0
M  V30 13303 H 1290.97 1.24619 1.43423 0
M  V30 13304 H 1289.12 0.620334 3.83515 0
M  V30 13305 H 1290.8 3.18254 3.33934 0
M  V30 13306 H 1289.04 3.04268 3.09198 0
M  V30 13307 H 1289.71 2.86809 4.7164 0
M  V30 13308 H 1292.19 1.07116 4.02076 0
M  V30 13309 H 1291.06 0.979241 5.40095 0
M  V30 13310 H 1291.32 -0.439777 4.39907 0
M  V30 13311 N 1290.38 -1.37203 0.775435 0
M  V30 13312 C 1291.63 -1.99897 0.341936 0
M  V30 13313 C 1291.96 -1.61414 -1.07978 0
M  V30 13314 O 1291.24 -0.862108 -1.7435 0
M  V30 13315 C 1291.52 -3.56755 0.489715 0
M  V30 13316 C 1291.37 -4.05135 1.95411 0
M  V30 13317 C 1292.69 -4.39978 -0.103779 0
M  V30 13318 H 1289.81 -0.726199 0.125717 0
M  V30 13319 H 1292.45 -1.62826 0.979167 0
M  V30 13320 H 1290.6 -3.88464 -0.0527684 0
M  V30 13321 H 1292.27 -3.83975 2.55658 0
M  V30 13322 H 1290.52 -3.57192 2.46164 0
M  V30 13323 H 1291.19 -5.14161 2.00855 0
M  V30 13324 H 1293.66 -4.14547 0.359134 0
M  V30 13325 H 1292.54 -5.48892 0.0297337 0
M  V30 13326 H 1292.8 -4.25658 -1.19448 0
M  V30 13327 N 1291.86 -0.526279 -1.48553 0
M  V30 13328 C 1292.81 0.251938 -2.31232 0
M  V30 13329 C 1293.8 0.938991 -1.40994 0
M  V30 13330 O 1295.01 0.863798 -1.57919 0
M  V30 13331 H 1291.38 0.100114 -0.745306 0
M  V30 13332 H 1293.35 -0.465013 -2.94754 0
M  V30 13333 C 1292.1 1.28816 -3.22958 0
M  V30 13334 H 1291.43 0.768899 -3.92337 0
M  V30 13335 H 1292.87 1.80417 -3.837 0
M  V30 13336 C 1291.32 2.31982 -2.44307 0
M  V30 13337 O 1291.85 3.3835 -2.16523 0
M  V30 13338 N 1290.06 2.051 -2.05869 0
M  V30 13339 H 1289.61 1.18618 -2.28665 0
M  V30 13340 H 1289.57 2.74349 -1.53557 0
M  V30 13341 N 1293.34 1.5542 -0.261239 0
M  V30 13342 C 1294.57 2.03391 0.362698 0
M  V30 13343 C 1294.98 1.13947 1.51039 0
M  V30 13344 O 1294.32 0.149231 1.83093 0
M  V30 13345 C 1294.38 3.47558 0.918889 0
M  V30 13346 C 1294.04 4.56894 -0.0983829 0
M  V30 13347 C 1295.04 5.1182 -0.913018 0
M  V30 13348 C 1292.73 5.01779 -0.228616 0
M  V30 13349 C 1294.72 6.10138 -1.84421 0
M  V30 13350 C 1292.41 5.99926 -1.16329 0
M  V30 13351 C 1293.41 6.53984 -1.9696 0
M  V30 13352 O 1293.09 7.50214 -2.8885 0
M  V30 13353 H 1292.83 0.670166 0.0886182 0
M  V30 13354 H 1295.38 2.01722 -0.386967 0
M  V30 13355 H 1293.61 3.46423 1.71838 0
M  V30 13356 H 1295.3 3.78947 1.45443 0
M  V30 13357 H 1296.06 4.77965 -0.823066 0
M  V30 13358 H 1291.94 4.59356 0.388945 0
M  V30 13359 H 1295.49 6.52258 -2.47397 0
M  V30 13360 H 1291.38 6.332 -1.25412 0
M  V30 13361 H 1292.15 7.67881 -2.83374 0
M  V30 13362 N 1294.82 -0.0116844 1.57596 0
M  V30 13363 C 1296.23 -0.367602 1.55309 0
M  V30 13364 C 1296.43 -1.75524 0.98962 0
M  V30 13365 O 1295.49 -2.44813 0.618289 0
M  V30 13366 C 1296.8 -0.253532 2.99629 0
M  V30 13367 C 1298.35 -0.329335 3.11263 0
M  V30 13368 C 1298.82 -0.24452 4.57347 0
M  V30 13369 N 1300.31 -0.302782 4.62209 0
M  V30 13370 C 1301.05 -0.260315 5.72809 0
M  V30 13371 N 1300.55 -0.169124 6.92594 0
M  V30 13372 N 1302.34 -0.311323 5.61237 0
M  V30 13373 H 1294.49 0.896204 1.92567 0
M  V30 13374 H 1296.75 0.342445 0.883988 0
M  V30 13375 H 1296.46 0.70074 3.44648 0
M  V30 13376 H 1296.33 -1.04029 3.62571 0
M  V30 13377 H 1298.72 -1.27405 2.66181 0
M  V30 13378 H 1298.8 0.487084 2.5112 0
M  V30 13379 H 1298.44 0.696597 5.031 0
M  V30 13380 H 1298.37 -1.07927 5.15421 0
M  V30 13381 H 1300.87 -0.375067 3.76034 0
M  V30 13382 H 1301.18 -0.142296 7.72669 0
M  V30 13383 H 1299.52 -0.134919 6.94869 0
M  V30 13384 H 1302.71 -0.380678 4.6655 0
M  V30 13385 H 1302.89 -0.274761 6.47417 0
M  V30 13386 N 1296.29 -1.55015 -0.284256 0
M  V30 13387 C 1297.54 -1.7535 -1.01884 0
M  V30 13388 C 1297.87 -0.546825 -1.86342 0
M  V30 13389 O 1297.15 0.455832 -1.89083 0
M  V30 13390 C 1297.43 -3.05219 -1.91084 0
M  V30 13391 C 1297.28 -4.36219 -1.09694 0
M  V30 13392 C 1298.6 -3.31056 -2.89983 0
M  V30 13393 H 1295.72 -0.637981 -0.368984 0
M  V30 13394 H 1298.36 -1.87741 -0.292116 0
M  V30 13395 H 1296.51 -2.94786 -2.53048 0
M  V30 13396 H 1298.19 -4.58594 -0.498876 0
M  V30 13397 H 1296.43 -4.31951 -0.400078 0
M  V30 13398 H 1297.1 -5.23392 -1.75399 0
M  V30 13399 H 1299.58 -3.41209 -2.38151 0
M  V30 13400 H 1298.45 -4.23212 -3.49547 0
M  V30 13401 H 1298.71 -2.50153 -3.64521 0
M  V30 13402 N 1297.77 0.548248 -1.47757 0
M  V30 13403 C 1299.02 1.30694 -1.55071 0
M  V30 13404 C 1299.35 1.92994 -0.216075 0
M  V30 13405 O 1298.63 1.78341 0.776196 0
M  V30 13406 C 1298.91 2.41024 -2.67543 0
M  V30 13407 C 1298.76 1.83534 -4.10652 0
M  V30 13408 C 1300.08 3.42902 -2.75874 0
M  V30 13409 H 1297.2 0.47383 -0.564494 0
M  V30 13410 H 1299.84 0.612628 -1.79852 0
M  V30 13411 H 1297.99 3.00248 -2.46543 0
M  V30 13412 H 1299.66 1.28503 -4.4304 0
M  V30 13413 H 1297.91 1.14161 -4.18509 0
M  V30 13414 H 1298.58 2.63335 -4.85138 0
M  V30 13415 H 1301.05 2.9361 -2.94843 0
M  V30 13416 H 1299.93 4.17516 -3.5633 0
M  V30 13417 H 1300.19 4.02314 -1.83291 0
M  V30 13418 N 1299.25 1.36039 0.795694 0
M  V30 13419 C 1300.2 1.29902 1.92946 0
M  V30 13420 C 1301.19 0.191943 1.68309 0
M  V30 13421 O 1302.4 0.358577 1.76392 0
M  V30 13422 H 1298.77 0.404252 0.634101 0
M  V30 13423 H 1300.74 2.25663 1.95241 0
M  V30 13424 C 1299.49 1.09887 3.29879 0
M  V30 13425 H 1298.82 1.94318 3.494 0
M  V30 13426 H 1300.26 1.09638 4.0958 0
M  V30 13427 C 1298.71 -0.196802 3.36325 0
M  V30 13428 O 1299.24 -1.18883 3.83705 0
M  V30 13429 N 1297.45 -0.239325 2.89613 0
M  V30 13430 H 1297 0.568571 2.51247 0
M  V30 13431 H 1296.96 -1.10593 2.94307 0
M  V30 13432 N 1300.73 -1.01913 1.20215 0
M  V30 13433 C 1302.14 -1.27766 0.956459 0
M  V30 13434 C 1302.34 -1.98158 -0.365486 0
M  V30 13435 O 1301.4 -2.27539 -1.09463 0
M  V30 13436 C 1302.71 -2.11516 2.13732 0
M  V30 13437 C 1304.26 -2.24792 2.17802 0
M  V30 13438 C 1304.74 -3.11919 3.35367 0
M  V30 13439 N 1306.23 -3.19507 3.35364 0
M  V30 13440 C 1306.96 -3.8714 4.22978 0
M  V30 13441 N 1306.46 -4.5692 5.20765 0
M  V30 13442 N 1308.25 -3.83638 4.10827 0
M  V30 13443 H 1300.4 -0.546426 2.05251 0
M  V30 13444 H 1302.67 -0.303772 0.898012 0
M  V30 13445 H 1302.37 -1.67127 3.09453 0
M  V30 13446 H 1302.25 -3.12249 2.11614 0
M  V30 13447 H 1304.63 -2.68407 1.22645 0
M  V30 13448 H 1304.71 -1.23576 2.2397 0
M  V30 13449 H 1304.36 -2.6901 4.30809 0
M  V30 13450 H 1304.29 -4.13215 3.26436 0
M  V30 13451 H 1306.78 -2.69819 2.64587 0
M  V30 13452 H 1307.09 -5.06188 5.83947 0
M  V30 13453 H 1305.44 -4.55753 5.24704 0
M  V30 13454 H 1308.63 -3.28268 3.33703 0
M  V30 13455 H 1308.8 -4.36071 4.79318 0
M  V30 13456 N 1302.21 -1.00763 -1.2118 0
M  V30 13457 C 1303.16 -0.541218 -2.21483 0
M  V30 13458 C 1304.14 0.398597 -1.55885 0
M  V30 13459 O 1305.33 0.22302 -1.75589 0
M  V30 13460 C 1302.46 0.128145 -3.43061 0
M  V30 13461 C 1301.55 -0.832845 -4.15842 0
M  V30 13462 N 1301.94 -1.98673 -4.65148 0
M  V30 13463 C 1300.24 -0.651779 -4.41212 0
M  V30 13464 C 1300.94 -2.59112 -5.20803 0
M  V30 13465 N 1299.91 -1.87249 -5.10332 0
M  V30 13466 H 1303.72 -1.42105 -2.57262 0
M  V30 13467 H 1301.23 -0.871796 -1.37016 0
M  V30 13468 H 1303.23 0.479771 -4.1413 0
M  V30 13469 H 1301.89 1.00392 -3.0879 0
M  V30 13470 H 1302.9 -2.36701 -4.60644 0
M  V30 13471 H 1299.57 0.1767 -4.17126 0
M  V30 13472 H 1300.96 -3.56713 -5.69391 0
M  V30 13473 N 1303.68 1.3679 -0.7827 0
M  V30 13474 C 1304.61 2.32721 -0.190604 0
M  V30 13475 C 1305.6 1.56321 0.670663 0
M  V30 13476 O 1306.78 1.84507 0.605871 0
M  V30 13477 C 1303.91 3.40564 0.680717 0
M  V30 13478 C 1302.86 4.27925 -0.080118 0
M  V30 13479 C 1302.19 5.26876 0.911361 0
M  V30 13480 C 1303.49 5.06738 -1.26545 0
M  V30 13481 H 1305.18 2.82488 -0.992023 0
M  V30 13482 H 1302.73 1.35818 -0.478484 0
M  V30 13483 H 1304.68 4.06659 1.10482 0
M  V30 13484 H 1303.41 2.89348 1.51477 0
M  V30 13485 H 1302.07 3.63376 -0.485125 0
M  V30 13486 H 1301.71 4.71936 1.74026 0
M  V30 13487 H 1301.41 5.8619 0.406762 0
M  V30 13488 H 1302.94 5.95846 1.33418 0
M  V30 13489 H 1304.35 5.65911 -0.917448 0
M  V30 13490 H 1302.75 5.75432 -1.70289 0
M  V30 13491 H 1303.82 4.38772 -2.06415 0
M  V30 13492 N 1305.16 0.53415 1.48272 0
M  V30 13493 C 1306.13 -0.215641 2.28183 0
M  V30 13494 C 1307.13 -0.863966 1.35618 0
M  V30 13495 O 1308.32 -0.723375 1.58471 0
M  V30 13496 C 1305.45 -1.31251 3.1462 0
M  V30 13497 H 1306.64 0.486014 2.95936 0
M  V30 13498 H 1304.19 0.290237 1.53582 0
M  V30 13499 H 1304.93 -2.04729 2.51508 0
M  V30 13500 H 1304.71 -0.852706 3.82716 0
M  V30 13501 H 1306.2 -1.83978 3.74889 0
M  V30 13502 N 1306.64 -1.55279 0.269478 0
M  V30 13503 C 1307.87 -2.03876 -0.352418 0
M  V30 13504 C 1308.28 -1.14804 -1.49885 0
M  V30 13505 O 1307.64 -0.166989 -1.81734 0
M  V30 13506 C 1307.69 -3.51634 -0.838799 0
M  V30 13507 O 1307.41 -4.37316 0.261972 0
M  V30 13508 C 1308.91 -4.16094 -1.52909 0
M  V30 13509 H 1306.13 -0.66608 -0.0811043 0
M  V30 13510 H 1308.68 -2.00551 0.399929 0
M  V30 13511 H 1306.83 -3.55421 -1.54125 0
M  V30 13512 H 1307.25 -5.24383 -0.111013 0
M  V30 13513 H 1308.72 -5.21102 -1.82089 0
M  V30 13514 H 1309.2 -3.63928 -2.45872 0
M  V30 13515 H 1309.8 -4.16293 -0.87063 0
M  V30 13516 N 1308.12 0.00332656 -1.576 0
M  V30 13517 C 1309.07 1.00425 -2.04692 0
M  V30 13518 C 1310.05 1.30514 -0.941011 0
M  V30 13519 O 1311.24 1.29667 -1.2048 0
M  V30 13520 C 1308.37 2.29731 -2.55105 0
M  V30 13521 C 1307.46 2.02621 -3.72566 0
M  V30 13522 N 1307.85 1.45657 -4.84373 0
M  V30 13523 C 1306.15 2.3278 -3.80433 0
M  V30 13524 C 1306.85 1.34942 -5.65832 0
M  V30 13525 N 1305.83 1.83389 -5.11732 0
M  V30 13526 H 1309.63 0.558262 -2.88549 0
M  V30 13527 H 1307.14 0.209094 -1.61048 0
M  V30 13528 H 1309.14 3.02274 -2.87116 0
M  V30 13529 H 1307.8 2.74985 -1.72665 0
M  V30 13530 H 1308.81 1.13582 -5.05291 0
M  V30 13531 H 1305.49 2.80932 -3.08842 0
M  V30 13532 H 1306.88 0.911707 -6.65686 0
M  V30 13533 N 1309.6 1.55164 0.276031 0
M  V30 13534 C 1310.82 1.79649 1.02635 0
M  V30 13535 C 1311.24 0.568289 1.80044 0
M  V30 13536 O 1310.6 -0.462569 1.7654 0
M  V30 13537 C 1310.65 3.01974 1.98731 0
M  V30 13538 O 1310.37 4.2005 1.24459 0
M  V30 13539 C 1311.87 3.39039 2.856 0
M  V30 13540 H 1309.09 0.598529 0.303321 0
M  V30 13541 H 1311.63 2.02171 0.307733 0
M  V30 13542 H 1309.79 2.81586 2.6606 0
M  V30 13543 H 1310.2 4.89185 1.89205 0
M  V30 13544 H 1311.68 4.27809 3.48831 0
M  V30 13545 H 1312.15 2.58306 3.55211 0
M  V30 13546 H 1312.76 3.61674 2.23767 0
M  V30 13547 N 1311.07 -0.540404 1.48045 0
M  V30 13548 C 1312.35 -1.30148 1.46017 0
M  V30 13549 C 1312.73 -2.10445 0.166171 0
M  V30 13550 O 1312.08 -2.12013 -0.852223 0
M  V30 13551 C 1312.29 -2.19177 2.71593 0
M  V30 13552 C 1313.64 -2.79655 3.19497 0
M  V30 13553 O 1314.66 -2.2947 2.72437 0
M  V30 13554 O 1313.52 -3.70912 4.01356 0
M  V30 13555 H 1310.61 -0.586879 0.582668 0
M  V30 13556 H 1313.16 -0.557918 1.60267 0
M  V30 13557 H 1311.93 -1.59556 3.57292 0
M  V30 13558 H 1311.56 -3.00798 2.60012 0
M  V30 13559 N 1312.55 -1.36459 -0.788468 0
M  V30 13560 C 1313.8 -1.31942 -1.54799 0
M  V30 13561 C 1314.15 0.100282 -1.92138 0
M  V30 13562 O 1313.45 1.05505 -1.59935 0
M  V30 13563 C 1313.64 -2.17672 -2.83467 0
M  V30 13564 C 1313.47 -3.67836 -2.58702 0
M  V30 13565 C 1312.24 -4.37009 -2.53675 0
M  V30 13566 C 1314.44 -4.61081 -2.27835 0
M  V30 13567 N 1312.42 -5.72811 -2.20817 0
M  V30 13568 C 1313.79 -5.85137 -2.04973 0
M  V30 13569 C 1315.85 -4.49636 -2.13849 0
M  V30 13570 C 1314.55 -6.99034 -1.69541 0
M  V30 13571 C 1316.57 -5.63401 -1.79816 0
M  V30 13572 C 1315.94 -6.86497 -1.57803 0
M  V30 13573 H 1312.04 -0.538087 -0.567438 0
M  V30 13574 H 1314.62 -1.7152 -0.921358 0
M  V30 13575 H 1312.79 -1.80338 -3.43995 0
M  V30 13576 H 1314.52 -2.04539 -3.49208 0
M  V30 13577 H 1311.28 -3.89822 -2.68953 0
M  V30 13578 H 1311.7 -6.44535 -2.07132 0
M  V30 13579 H 1316.34 -3.55054 -2.29558 0
M  V30 13580 H 1314.06 -7.93567 -1.52571 0
M  V30 13581 H 1317.65 -5.56508 -1.69677 0
M  V30 13582 H 1316.53 -7.73036 -1.31855 0
M  V30 13583 N 1314.03 1.01274 -1.20754 0
M  V30 13584 C 1314.96 2.10029 -0.917628 0
M  V30 13585 C 1315.98 1.62516 0.0961411 0
M  V30 13586 O 1317.16 1.77986 -0.135371 0
M  V30 13587 C 1314.26 3.37037 -0.354891 0
M  V30 13588 C 1313.44 4.1367 -1.42113 0
M  V30 13589 C 1312.5 5.18974 -0.869023 0
M  V30 13590 O 1311.52 5.47671 -1.55063 0
M  V30 13591 N 1312.72 5.79619 0.319631 0
M  V30 13592 H 1315.49 2.35485 -1.85383 0
M  V30 13593 H 1313.05 1.17695 -1.11173 0
M  V30 13594 H 1315.04 4.0469 0.0286895 0
M  V30 13595 H 1313.61 3.088 0.485956 0
M  V30 13596 H 1312.83 3.40931 -1.97889 0
M  V30 13597 H 1314.12 4.61649 -2.13911 0
M  V30 13598 H 1313.52 5.58646 0.89059 0
M  V30 13599 H 1312.08 6.48603 0.644807 0
M  V30 13600 N 1315.51 1.01404 1.20644 0
M  V30 13601 C 1316.46 0.575388 2.25371 0
M  V30 13602 C 1317.45 -0.384598 1.64976 0
M  V30 13603 O 1318.66 -0.2548 1.78187 0
M  V30 13604 H 1315.03 0.167752 0.733051 0
M  V30 13605 H 1317 1.46964 2.597 0
M  V30 13606 C 1315.75 -0.0731257 3.47623 0
M  V30 13607 H 1315.08 0.656551 3.94372 0
M  V30 13608 H 1316.52 -0.343203 4.22609 0
M  V30 13609 C 1314.97 -1.31515 3.1017 0
M  V30 13610 O 1315.5 -2.40869 3.21473 0
M  V30 13611 N 1313.71 -1.19829 2.64744 0
M  V30 13612 H 1313.26 -0.308463 2.55746 0
M  V30 13613 H 1313.22 -2.0303 2.40054 0
M  V30 13614 N 1316.99 -1.36373 0.789944 0
M  V30 13615 C 1318.23 -2.0106 0.367995 0
M  V30 13616 C 1318.59 -1.61336 -1.0409 0
M  V30 13617 O 1319.79 -2.18618 -1.56396 0
M  V30 13618 C 1318.06 -3.53492 0.527106 0
M  V30 13619 S 1319.62 -4.38375 0.193113 0
M  V30 13620 H 1316.44 -0.696965 0.140573 0
M  V30 13621 H 1319.04 -1.66256 1.02855 0
M  V30 13622 H 1317.75 -3.7989 1.55279 0
M  V30 13623 H 1317.28 -3.93116 -0.149364 0
M  V30 13624 H 1319.29 -4.85913 -1.00513 0
M  V30 13625 N 1318.47 -0.542005 -1.47987 0
M  V30 13626 C 1319.71 -0.0123299 -2.02796 0
M  V30 13627 C 1320.04 1.32789 -1.41707 0
M  V30 13628 O 1319.32 1.86048 -0.567119 0
M  V30 13629 C 1319.6 0.0969277 -3.5997 0
M  V30 13630 C 1319.46 -1.26931 -4.31519 0
M  V30 13631 C 1320.77 0.817854 -4.32434 0
M  V30 13632 H 1317.89 -0.00595479 -0.736976 0
M  V30 13633 H 1320.54 -0.70136 -1.76581 0
M  V30 13634 H 1318.69 0.683755 -3.82436 0
M  V30 13635 H 1320.36 -1.89817 -4.20437 0
M  V30 13636 H 1318.6 -1.84804 -3.92467 0
M  V30 13637 H 1319.27 -1.14573 -5.39979 0
M  V30 13638 H 1321.75 0.319749 -4.1487 0
M  V30 13639 H 1320.62 0.863225 -5.4207 0
M  V30 13640 H 1320.88 1.87075 -4.00569 0
M  V30 13641 N 1319.94 1.55134 -0.277709 0
M  V30 13642 C 1321.19 2.00675 0.331809 0
M  V30 13643 C 1321.54 1.16274 1.53291 0
M  V30 13644 O 1320.84 0.225435 1.90269 0
M  V30 13645 C 1321.03 3.49182 0.762028 0
M  V30 13646 C 1320.86 4.47954 -0.395835 0
M  V30 13647 C 1319.63 4.9757 -0.880446 0
M  V30 13648 C 1321.83 4.99297 -1.23317 0
M  V30 13649 N 1319.81 5.80149 -2.0075 0
M  V30 13650 C 1321.18 5.79348 -2.20808 0
M  V30 13651 C 1323.24 4.8153 -1.26622 0
M  V30 13652 C 1321.94 6.43526 -3.21352 0
M  V30 13653 C 1323.97 5.4651 -2.26011 0
M  V30 13654 C 1323.33 6.26374 -3.22235 0
M  V30 13655 H 1319.43 0.777199 0.086518 0
M  V30 13656 H 1322.01 1.90498 -0.402322 0
M  V30 13657 H 1320.18 3.59696 1.46538 0
M  V30 13658 H 1321.91 3.81551 1.3491 0
M  V30 13659 H 1318.67 4.71367 -0.459314 0
M  V30 13660 H 1319.09 6.26128 -2.57473 0
M  V30 13661 H 1323.73 4.19388 -0.536085 0
M  V30 13662 H 1321.45 7.04816 -3.95297 0
M  V30 13663 H 1325.04 5.34703 -2.29313 0
M  V30 13664 H 1323.92 6.75765 -3.97884 0
M  V30 13665 N 1321.42 0.00503138 1.57599 0
M  V30 13666 C 1322.33 -1.00097 2.12174 0
M  V30 13667 C 1323.35 -1.37353 1.06818 0
M  V30 13668 O 1324.52 -1.45984 1.38747 0
M  V30 13669 C 1321.59 -2.27252 2.61835 0
M  V30 13670 C 1320.65 -1.96262 3.81811 0
M  V30 13671 C 1319.88 -3.17355 4.29094 0
M  V30 13672 O 1320.11 -4.2921 3.75679 0
M  V30 13673 O 1319.04 -3.01059 5.21198 0
M  V30 13674 H 1322.87 -0.567024 2.9836 0
M  V30 13675 H 1320.45 -0.214109 1.47858 0
M  V30 13676 H 1322.33 -3.01944 2.93952 0
M  V30 13677 H 1321.01 -2.69875 1.78744 0
M  V30 13678 H 1319.91 -1.19031 3.54658 0
M  V30 13679 H 1321.25 -1.58473 4.65991 0
M  V30 13680 N 1322.9 -1.55308 -0.267798 0
M  V30 13681 C 1324.18 -1.66881 -1.02029 0
M  V30 13682 C 1324.56 -0.538708 -2.04111 0
M  V30 13683 O 1323.9 0.460575 -2.2381 0
M  V30 13684 C 1324.11 -3.06318 -1.67243 0
M  V30 13685 C 1325.46 -3.64237 -2.18212 0
M  V30 13686 O 1326.49 -3.08984 -1.77221 0
M  V30 13687 O 1325.35 -4.61055 -2.93413 0
M  V30 13688 H 1322.44 -0.677967 -0.473593 0
M  V30 13689 H 1324.99 -1.67646 -0.263242 0
M  V30 13690 H 1323.76 -3.80015 -0.932985 0
M  V30 13691 H 1323.38 -3.09475 -2.49622 0
M  V30 13692 N 1324.38 0.532545 -1.4833 0
M  V30 13693 C 1325.61 1.31141 -1.59642 0
M  V30 13694 C 1326.02 1.87476 -0.254835 0
M  V30 13695 O 1325.36 1.66985 0.765622 0
M  V30 13696 C 1325.42 2.50182 -2.58165 0
M  V30 13697 C 1325.08 2.14953 -4.03292 0
M  V30 13698 C 1326.08 1.70777 -4.91051 0
M  V30 13699 C 1323.77 2.25555 -4.4881 0
M  V30 13700 C 1325.76 1.37665 -6.22356 0
M  V30 13701 C 1323.45 1.92055 -5.80136 0
M  V30 13702 C 1324.45 1.48181 -6.66732 0
M  V30 13703 O 1324.13 1.15119 -7.95615 0
M  V30 13704 H 1323.87 0.405164 -0.541127 0
M  V30 13705 H 1326.42 0.649423 -1.94863 0
M  V30 13706 H 1324.65 3.19353 -2.1806 0
M  V30 13707 H 1326.34 3.12246 -2.5934 0
M  V30 13708 H 1327.1 1.62059 -4.57124 0
M  V30 13709 H 1322.98 2.5866 -3.81597 0
M  V30 13710 H 1326.53 1.03348 -6.89902 0
M  V30 13711 H 1322.42 2.00413 -6.136 0
M  V30 13712 H 1323.19 1.28539 -8.08344 0
M  V30 13713 N 1325.86 1.36875 0.78122 0
M  V30 13714 C 1326.8 1.31941 1.91557 0
M  V30 13715 C 1327.8 0.209783 1.68096 0
M  V30 13716 O 1329 0.377266 1.76002 0
M  V30 13717 H 1325.38 0.410955 0.629778 0
M  V30 13718 H 1327.35 2.27721 1.92836 0
M  V30 13719 C 1326.1 1.13379 3.28695 0
M  V30 13720 H 1325.42 1.98013 3.47319 0
M  V30 13721 H 1326.86 1.13976 4.08394 0
M  V30 13722 C 1325.32 -0.161119 3.36515 0
M  V30 13723 O 1325.85 -1.14806 3.84945 0
M  V30 13724 N 1324.06 -0.208594 2.8985 0
M  V30 13725 H 1323.6 0.595187 2.5063 0
M  V30 13726 H 1323.56 -1.07465 2.95463 0
M  V30 13727 N 1327.33 -1.00632 1.21289 0
M  V30 13728 C 1328.75 -1.26744 0.969956 0
M  V30 13729 C 1328.95 -1.98534 -0.344449 0
M  V30 13730 O 1328.01 -2.28687 -1.07044 0
M  V30 13731 C 1329.32 -2.09238 2.15963 0
M  V30 13732 C 1330.87 -2.22469 2.20174 0
M  V30 13733 C 1331.34 -3.08344 3.38656 0
M  V30 13734 N 1332.83 -3.15932 3.38734 0
M  V30 13735 C 1333.57 -3.82632 4.2706 0
M  V30 13736 N 1333.06 -4.51371 5.25582 0
M  V30 13737 N 1334.86 -3.79259 4.14872 0
M  V30 13738 H 1327.01 -0.524626 2.05819 0
M  V30 13739 H 1329.27 -0.294231 0.901184 0
M  V30 13740 H 1328.98 -1.63835 3.11209 0
M  V30 13741 H 1328.85 -3.09987 2.14914 0
M  V30 13742 H 1331.24 -2.67091 1.25485 0
M  V30 13743 H 1331.32 -1.21194 2.25268 0
M  V30 13744 H 1330.96 -2.64425 4.33638 0
M  V30 13745 H 1330.89 -4.0973 3.30801 0
M  V30 13746 H 1333.38 -2.66998 2.67434 0
M  V30 13747 H 1333.7 -4.99966 5.89283 0
M  V30 13748 H 1332.04 -4.50162 5.29508 0
M  V30 13749 H 1335.23 -3.2471 3.37166 0
M  V30 13750 H 1335.41 -4.30963 4.83916 0
M  V30 13751 N 1328.81 -1.02043 -1.20104 0
M  V30 13752 C 1330.09 -0.626922 -1.85281 0
M  V30 13753 C 1330.47 0.894819 -1.91197 0
M  V30 13754 O 1329.82 1.7881 -1.42265 0
M  V30 13755 C 1330.03 -1.27917 -3.24713 0
M  V30 13756 C 1331.37 -1.39704 -4.00959 0
M  V30 13757 O 1332.4 -1.23568 -3.3408 0
M  V30 13758 O 1331.26 -1.65814 -5.20738 0
M  V30 13759 H 1328.35 -0.216815 -0.798073 0
M  V30 13760 H 1330.9 -1.11804 -1.27663 0
M  V30 13761 H 1329.67 -2.3188 -3.15194 0
M  V30 13762 H 1329.29 -0.775371 -3.89966 0
M  V30 13763 N 1330.29 1.35952 -0.797165 0
M  V30 13764 C 1331.22 2.32506 -0.215277 0
M  V30 13765 C 1332.2 1.57023 0.654046 0
M  V30 13766 O 1333.39 1.85139 0.586268 0
M  V30 13767 C 1330.52 3.41266 0.644557 0
M  V30 13768 C 1329.47 4.27816 -0.125501 0
M  V30 13769 C 1328.8 5.27813 0.855428 0
M  V30 13770 C 1330.1 5.05367 -1.31913 0
M  V30 13771 H 1331.79 2.8142 -1.02193 0
M  V30 13772 H 1329.34 1.35303 -0.492862 0
M  V30 13773 H 1331.29 4.07808 1.06163 0
M  V30 13774 H 1330.01 2.90938 1.484 0
M  V30 13775 H 1328.67 3.62841 -0.523639 0
M  V30 13776 H 1328.32 4.73755 1.69011 0
M  V30 13777 H 1328.02 5.86589 0.344566 0
M  V30 13778 H 1329.54 5.97227 1.2709 0
M  V30 13779 H 1330.96 5.64907 -0.977418 0
M  V30 13780 H 1329.36 5.73593 -1.76382 0
M  V30 13781 H 1330.43 4.36558 -2.11057 0
M  V30 13782 N 1331.77 0.549846 1.47697 0
M  V30 13783 C 1332.7 -0.190364 2.32723 0
M  V30 13784 C 1333.68 -0.915933 1.43334 0
M  V30 13785 O 1334.86 -0.897838 1.72199 0
M  V30 13786 C 1331.99 -1.22545 3.24961 0
M  V30 13787 C 1330.95 -0.616805 4.23532 0
M  V30 13788 C 1330.27 -1.75599 5.05044 0
M  V30 13789 C 1331.57 0.424595 5.20571 0
M  V30 13790 H 1333.27 0.519461 2.94859 0
M  V30 13791 H 1330.81 0.251259 1.41791 0
M  V30 13792 H 1332.77 -1.75139 3.83281 0
M  V30 13793 H 1331.49 -1.96512 2.60865 0
M  V30 13794 H 1330.15 -0.112224 3.66428 0
M  V30 13795 H 1329.8 -2.48453 4.37356 0
M  V30 13796 H 1329.5 -1.35456 5.71774 0
M  V30 13797 H 1331.02 -2.28533 5.6622 0
M  V30 13798 H 1332.44 -0.0150025 5.73298 0
M  V30 13799 H 1330.83 0.7445 5.95464 0
M  V30 13800 H 1331.9 1.32318 4.66497 0
M  V30 13801 N 1333.25 -1.54984 0.285932 0
M  V30 13802 C 1334.5 -1.99008 -0.328433 0
M  V30 13803 C 1334.81 -1.17787 -1.56158 0
M  V30 13804 O 1336.01 -1.52006 -2.24959 0
M  V30 13805 C 1334.47 -3.54241 -0.635688 0
M  V30 13806 C 1334.08 -4.44252 0.578271 0
M  V30 13807 C 1335.82 -4.06828 -1.21208 0
M  V30 13808 C 1333.73 -5.90892 0.245003 0
M  V30 13809 H 1332.66 -0.743314 -0.126494 0
M  V30 13810 H 1335.31 -1.79258 0.39228 0
M  V30 13811 H 1333.69 -3.69834 -1.41559 0
M  V30 13812 H 1334.87 -4.40431 1.35489 0
M  V30 13813 H 1333.18 -4.02358 1.07225 0
M  V30 13814 H 1335.78 -5.13941 -1.47542 0
M  V30 13815 H 1336.12 -3.56515 -2.14948 0
M  V30 13816 H 1336.65 -3.94718 -0.494222 0
M  V30 13817 H 1333.39 -6.45323 1.15057 0
M  V30 13818 H 1332.91 -5.97757 -0.494636 0
M  V30 13819 H 1334.59 -6.46805 -0.158891 0
M  V30 13820 N 1334.72 -0.0133892 -1.57594 0
M  V30 13821 C 1335.95 0.682855 -1.95836 0
M  V30 13822 C 1336.37 1.65763 -0.889049 0
M  V30 13823 O 1335.73 1.80665 0.151585 0
M  V30 13824 C 1335.78 1.37931 -3.33178 0
M  V30 13825 O 1334.88 2.49416 -3.28429 0
M  V30 13826 H 1334.23 0.180629 -0.638959 0
M  V30 13827 H 1336.76 -0.0705644 -2.04478 0
M  V30 13828 H 1336.77 1.73969 -3.69051 0
M  V30 13829 H 1335.44 0.664675 -4.10554 0
M  V30 13830 H 1334.02 2.15606 -3.04251 0
M  V30 13831 N 1336.2 1.55448 0.259558 0
M  V30 13832 C 1337.43 1.80727 1.00723 0
M  V30 13833 C 1337.85 0.587354 1.79431 0
M  V30 13834 O 1337.2 -0.443819 1.77021 0
M  V30 13835 C 1337.25 3.04064 1.95517 0
M  V30 13836 O 1336.97 4.21346 1.19996 0
M  V30 13837 C 1338.48 3.42049 2.81988 0
M  V30 13838 H 1335.7 0.601713 0.296956 0
M  V30 13839 H 1338.24 2.02486 0.286273 0
M  V30 13840 H 1336.39 2.84392 2.63058 0
M  V30 13841 H 1336.81 4.91164 1.84006 0
M  V30 13842 H 1338.28 4.31485 3.44274 0
M  V30 13843 H 1338.76 2.62059 3.52451 0
M  V30 13844 H 1339.37 3.64027 2.19918 0
M  V30 13845 N 1337.68 -0.524672 1.4861 0
M  V30 13846 C 1338.91 -1.30482 1.60568 0
M  V30 13847 C 1339.32 -1.86889 0.267952 0
M  V30 13848 O 1338.68 -1.66669 -0.743488 0
M  V30 13849 C 1338.73 -2.45191 2.65638 0
M  V30 13850 O 1338.45 -1.91107 3.9422 0
M  V30 13851 C 1339.95 -3.36931 2.88084 0
M  V30 13852 H 1337.17 -0.396612 0.541239 0
M  V30 13853 H 1339.72 -0.632392 1.94476 0
M  V30 13854 H 1337.87 -3.08308 2.34574 0
M  V30 13855 H 1338.29 -2.66234 4.51907 0
M  V30 13856 H 1339.76 -4.13755 3.65391 0
M  V30 13857 H 1340.24 -3.92487 1.97106 0
M  V30 13858 H 1340.84 -2.79601 3.20473 0
M  V30 13859 N 1339.16 -1.37287 -0.77395 0
M  V30 13860 C 1340.39 -1.35563 -1.56302 0
M  V30 13861 C 1340.8 0.0595356 -1.88706 0
M  V30 13862 O 1340.16 1.02072 -1.51286 0
M  V30 13863 C 1340.21 -2.19195 -2.87464 0
M  V30 13864 O 1339.93 -3.55197 -2.5645 0
M  V30 13865 C 1341.43 -2.25425 -3.81704 0
M  V30 13866 H 1338.65 -0.464431 -0.484298 0
M  V30 13867 H 1341.2 -1.80597 -0.959425 0
M  V30 13868 H 1339.35 -1.77676 -3.44253 0
M  V30 13869 H 1339.76 -3.99011 -3.40427 0
M  V30 13870 H 1341.24 -2.8827 -4.70749 0
M  V30 13871 H 1341.72 -1.26205 -4.20677 0
M  V30 13872 H 1342.32 -2.67247 -3.30846 0
M  V30 13873 N 1340.64 0.999871 -1.21821 0
M  V30 13874 C 1341.6 2.07024 -0.983541 0
M  V30 13875 C 1342.6 1.6073 0.0474011 0
M  V30 13876 O 1343.79 1.73156 -0.190398 0
M  V30 13877 C 1340.92 3.37444 -0.484199 0
M  V30 13878 H 1342.11 2.29276 -1.9332 0
M  V30 13879 H 1339.67 1.1704 -1.03592 0
M  V30 13880 H 1340.4 3.20874 0.470138 0
M  V30 13881 H 1340.19 3.72378 -1.2279 0
M  V30 13882 H 1341.68 4.16213 -0.34004 0
M  V30 13883 N 1342.11 1.02678 1.19562 0
M  V30 13884 C 1343.06 0.576385 2.20594 0
M  V30 13885 C 1344.05 -0.373747 1.56499 0
M  V30 13886 O 1345.24 -0.195058 1.75922 0
M  V30 13887 C 1342.37 -0.0735507 3.43221 0
M  V30 13888 C 1341.46 0.898896 4.14464 0
M  V30 13889 N 1341.85 2.06048 4.61928 0
M  V30 13890 C 1340.14 0.721889 4.40119 0
M  V30 13891 C 1340.85 2.67364 5.16615 0
M  V30 13892 N 1339.82 1.95344 5.07289 0
M  V30 13893 H 1343.62 1.46179 2.54968 0
M  V30 13894 H 1341.14 0.893484 1.35612 0
M  V30 13895 H 1343.13 -0.413825 4.14841 0
M  V30 13896 H 1341.79 -0.954671 3.10348 0
M  V30 13897 H 1342.81 2.43999 4.5682 0
M  V30 13898 H 1339.48 -0.110317 4.17354 0
M  V30 13899 H 1340.87 3.65726 5.63644 0
M  V30 13900 N 1343.59 -1.35528 0.804364 0
M  V30 13901 C 1344.84 -1.98439 0.382934 0
M  V30 13902 C 1345.16 -1.64132 -1.05289 0
M  V30 13903 O 1344.43 -0.922693 -1.7281 0
M  V30 13904 H 1343.01 -0.734028 0.138605 0
M  V30 13905 H 1345.67 -1.65478 1.02971 0
M  V30 13906 H 1344.77 -3.08279 0.486846 0
M  V30 13907 N 1345.07 -0.557671 -1.47404 0
M  V30 13908 C 1346.31 -0.0361491 -2.04368 0
M  V30 13909 C 1346.68 1.2894 -1.42262 0
M  V30 13910 O 1347.88 1.89864 -1.90276 0
M  V30 13911 C 1346.15 0.0547287 -3.57358 0
M  V30 13912 S 1347.71 0.522307 -4.3568 0
M  V30 13913 H 1344.52 -0.0253676 -0.710547 0
M  V30 13914 H 1347.13 -0.744509 -1.80769 0
M  V30 13915 H 1345.83 -0.914374 -4.00084 0
M  V30 13916 H 1345.36 0.786629 -3.85455 0
M  V30 13917 H 1347.38 1.7819 -4.63101 0
M  V30 13918 N 1346.55 1.54831 -0.294147 0
M  V30 13919 C 1347.83 1.92071 0.369902 0
M  V30 13920 C 1348.21 1.22061 1.72233 0
M  V30 13921 O 1347.55 0.353975 2.25742 0
M  V30 13922 C 1347.76 3.45524 0.49135 0
M  V30 13923 C 1349.11 4.17644 0.765411 0
M  V30 13924 O 1350.14 3.51521 0.575428 0
M  V30 13925 O 1349 5.34692 1.12992 0
M  V30 13926 H 1346.09 0.801033 0.20561 0
M  V30 13927 H 1348.64 1.66224 -0.341702 0
M  V30 13928 H 1347.41 3.88591 -0.459663 0
M  V30 13929 H 1347.03 3.77384 1.25169 0
M  V30 13930 N 1348.03 0.0217466 1.57585 0
M  V30 13931 C 1349.27 -0.659463 1.91778 0
M  V30 13932 C 1349.61 -1.72201 0.897801 0
M  V30 13933 O 1348.88 -1.94333 -0.080509 0
M  V30 13934 C 1349.16 -1.28269 3.36481 0
M  V30 13935 C 1349.02 -0.230201 4.49211 0
M  V30 13936 C 1350.34 -2.20279 3.81005 0
M  V30 13937 H 1347.46 -0.238263 0.697424 0
M  V30 13938 H 1350.1 0.0774967 1.89842 0
M  V30 13939 H 1348.25 -1.9108 3.38262 0
M  V30 13940 H 1349.92 0.399901 4.59563 0
M  V30 13941 H 1348.16 0.445157 4.3151 0
M  V30 13942 H 1348.83 -0.705732 5.4747 0
M  V30 13943 H 1351.31 -1.67463 3.80914 0
M  V30 13944 H 1350.19 -2.60842 4.82962 0
M  V30 13945 H 1350.45 -3.09092 3.16093 0
M  V30 13946 N 1349.51 -1.55583 -0.251311 0
M  V30 13947 C 1350.75 -1.76411 -0.977859 0
M  V30 13948 C 1351.07 -0.584857 -1.86651 0
M  V30 13949 O 1352.27 -0.676046 -2.62948 0
M  V30 13950 C 1350.73 -3.12302 -1.78872 0
M  V30 13951 C 1350.34 -4.37862 -0.947674 0
M  V30 13952 C 1352.08 -3.42471 -2.50827 0
M  V30 13953 C 1349.99 -5.64786 -1.75417 0
M  V30 13954 H 1348.92 -0.657628 -0.368839 0
M  V30 13955 H 1351.57 -1.82019 -0.232682 0
M  V30 13956 H 1349.95 -3.0079 -2.57569 0
M  V30 13957 H 1351.13 -4.60351 -0.203352 0
M  V30 13958 H 1349.44 -4.14996 -0.341666 0
M  V30 13959 H 1352.04 -4.34514 -3.11612 0
M  V30 13960 H 1352.38 -2.63592 -3.22219 0
M  V30 13961 H 1352.91 -3.55179 -1.79145 0
M  V30 13962 H 1349.65 -6.46474 -1.08407 0
M  V30 13963 H 1349.17 -5.46405 -2.47389 0
M  V30 13964 H 1350.85 -6.03881 -2.32242 0
M  V30 13965 N 1350.98 0.516783 -1.48886 0
M  V30 13966 C 1351.95 1.60226 -1.63891 0
M  V30 13967 C 1352.95 1.52448 -0.511479 0
M  V30 13968 O 1354.14 1.55882 -0.777582 0
M  V30 13969 C 1351.27 2.99867 -1.62151 0
M  V30 13970 H 1352.46 1.48256 -2.60692 0
M  V30 13971 H 1350.01 0.739844 -1.37681 0
M  V30 13972 H 1350.75 3.1733 -0.668764 0
M  V30 13973 H 1350.53 3.0692 -2.44013 0
M  V30 13974 H 1352.02 3.7876 -1.7587 0
M  V30 13975 N 1352.46 1.37696 0.766659 0
M  V30 13976 C 1353.88 1.18607 1.06792 0
M  V30 13977 C 1354.08 0.0257195 2.01484 0
M  V30 13978 O 1353.13 -0.632608 2.44447 0
M  V30 13979 C 1354.45 2.50692 1.66054 0
M  V30 13980 C 1355.99 2.57259 1.78288 0
M  V30 13981 C 1356.47 3.89488 2.40963 0
M  V30 13982 N 1357.96 3.90957 2.48408 0
M  V30 13983 C 1358.7 4.90023 2.97767 0
M  V30 13984 N 1358.19 5.99485 3.4726 0
M  V30 13985 N 1359.98 4.77423 2.96688 0
M  V30 13986 H 1352.14 2.11951 0.138031 0
M  V30 13987 H 1354.4 0.939873 0.123863 0
M  V30 13988 H 1354.1 3.35989 1.03945 0
M  V30 13989 H 1353.98 2.68148 2.65286 0
M  V30 13990 H 1356.37 1.72366 2.39528 0
M  V30 13991 H 1356.45 2.43682 0.777981 0
M  V30 13992 H 1356.09 4.74797 1.8036 0
M  V30 13993 H 1356.02 4.0037 3.42069 0
M  V30 13994 H 1358.51 3.11888 2.13388 0
M  V30 13995 H 1358.82 6.71022 3.8334 0
M  V30 13996 H 1357.17 6.03123 3.45351 0
M  V30 13997 H 1360.36 3.91026 2.57325 0
M  V30 13998 H 1360.53 5.54783 3.34844 0
M  V30 13999 N 1353.94 -0.993397 1.22349 0
M  V30 14000 C 1355.18 -1.74807 1.05933 0
M  V30 14001 C 1355.54 -1.87815 -0.398702 0
M  V30 14002 O 1356.74 -2.5996 -0.683703 0
M  V30 14003 C 1355.02 -3.11601 1.75042 0
M  V30 14004 S 1356.57 -4.02813 1.74032 0
M  V30 14005 H 1353.39 -0.601331 0.379371 0
M  V30 14006 H 1355.99 -1.18777 1.55282 0
M  V30 14007 H 1354.7 -2.99775 2.80291 0
M  V30 14008 H 1354.23 -3.72703 1.25922 0
M  V30 14009 H 1356.24 -4.89876 0.789658 0
M  V30 14010 N 1355.42 -1.03311 -1.19015 0
M  V30 14011 C 1356.83 -0.750946 -1.4083 0
M  V30 14012 C 1357.03 0.662704 -1.90291 0
M  V30 14013 O 1356.09 1.42806 -2.08237 0
M  V30 14014 C 1357.4 -1.79064 -2.41571 0
M  V30 14015 C 1358.95 -1.81068 -2.55311 0
M  V30 14016 C 1359.43 -2.84008 -3.59309 0
M  V30 14017 N 1360.92 -2.82852 -3.6681 0
M  V30 14018 C 1361.65 -3.59156 -4.46984 0
M  V30 14019 N 1361.15 -4.45188 -5.30829 0
M  V30 14020 N 1362.94 -3.47679 -4.41674 0
M  V30 14021 H 1355.09 -1.94548 -0.852329 0
M  V30 14022 H 1357.35 -0.841344 -0.436858 0
M  V30 14023 H 1357.06 -2.80425 -2.12261 0
M  V30 14024 H 1356.93 -1.61646 -3.40809 0
M  V30 14025 H 1359.32 -0.803825 -2.83941 0
M  V30 14026 H 1359.4 -2.02562 -1.56212 0
M  V30 14027 H 1359.05 -3.84867 -3.3142 0
M  V30 14028 H 1358.98 -2.59771 -4.58069 0
M  V30 14029 H 1361.47 -2.20457 -3.06932 0
M  V30 14030 H 1361.78 -5.00139 -5.89135 0
M  V30 14031 H 1360.13 -4.49259 -5.30275 0
M  V30 14032 H 1363.32 -2.79876 -3.75216 0
M  V30 14033 H 1363.49 -4.07396 -5.03917 0
M  V30 14034 N 1356.9 1.35099 -0.81154 0
M  V30 14035 C 1358.14 2.00449 -0.399935 0
M  V30 14036 C 1358.5 1.62971 1.0151 0
M  V30 14037 O 1359.7 2.21078 1.52898 0
M  V30 14038 C 1357.97 3.52608 -0.583277 0
M  V30 14039 S 1359.53 4.38012 -0.26283 0
M  V30 14040 H 1356.35 0.69464 -0.151644 0
M  V30 14041 H 1358.95 1.64599 -1.05487 0
M  V30 14042 H 1357.65 3.77372 -1.61303 0
M  V30 14043 H 1357.19 3.93304 0.0868032 0
M  V30 14044 H 1359.2 4.87451 0.927696 0
M  V30 14045 N 1358.37 0.56548 1.47106 0
M  V30 14046 C 1359.6 0.0476763 2.07345 0
M  V30 14047 C 1360.02 -1.24032 1.41413 0
M  V30 14048 O 1359.38 -1.74498 0.491941 0
M  V30 14049 C 1359.43 -0.122618 3.60391 0
M  V30 14050 O 1358.53 -1.18326 3.9506 0
M  V30 14051 H 1357.87 0.0550419 0.661715 0
M  V30 14052 H 1360.4 0.78352 1.89003 0
M  V30 14053 H 1360.41 -0.334227 4.06629 0
M  V30 14054 H 1359.09 0.81807 4.07775 0
M  V30 14055 H 1357.67 -0.951481 3.60557 0
M  V30 14056 N 1359.85 -1.54672 0.302354 0
M  V30 14057 C 1361.08 -2.04578 -0.309093 0
M  V30 14058 C 1361.5 -1.17957 -1.47416 0
M  V30 14059 O 1360.85 -0.2055 -1.81339 0
M  V30 14060 C 1360.9 -3.53334 -0.764023 0
M  V30 14061 O 1360.62 -4.36662 0.354674 0
M  V30 14062 C 1362.13 -4.19243 -1.44048 0
M  V30 14063 H 1359.35 -0.667651 -0.0669575 0
M  V30 14064 H 1361.89 -1.99658 0.442379 0
M  V30 14065 H 1360.04 -3.5861 -1.46552 0
M  V30 14066 H 1360.46 -5.245 0.000241188 0
M  V30 14067 H 1361.93 -5.24847 -1.70995 0
M  V30 14068 H 1362.41 -3.69061 -2.38098 0
M  V30 14069 H 1363.02 -4.18046 -0.782132 0
M  V30 14070 N 1361.33 -0.0301034 -1.57571 0
M  V30 14071 C 1362.58 0.647042 -1.91462 0
M  V30 14072 C 1362.9 1.72612 -0.907206 0
M  V30 14073 O 1362.17 1.95833 0.0511268 0
M  V30 14074 H 1360.75 0.241988 -0.706718 0
M  V30 14075 H 1363.41 -0.0781385 -1.94743 0
M  V30 14076 H 1362.51 1.09915 -2.92105 0
M  V30 14077 N 1362.81 1.55714 0.243056 0
M  V30 14078 C 1364.05 1.77989 0.971993 0
M  V30 14079 C 1364.39 0.596038 1.84827 0
M  V30 14080 O 1363.66 -0.40554 1.90225 0
M  V30 14081 C 1363.95 3.10178 1.82925 0
M  V30 14082 C 1363.8 4.38974 0.9809 0
M  V30 14083 C 1365.12 3.38628 2.81103 0
M  V30 14084 H 1362.24 0.64754 0.35194 0
M  V30 14085 H 1364.88 1.88449 0.242237 0
M  V30 14086 H 1363.03 3.01392 2.45143 0
M  V30 14087 H 1364.7 4.59756 0.377113 0
M  V30 14088 H 1362.94 4.3286 0.285414 0
M  V30 14089 H 1363.61 5.27858 1.61461 0
M  V30 14090 H 1366.09 3.47403 2.29021 0
M  V30 14091 H 1364.97 4.32331 3.38203 0
M  V30 14092 H 1365.23 2.5973 3.57761 0
M  V30 14093 N 1364.29 -0.50888 1.49158 0
M  V30 14094 C 1365.52 -1.28585 1.61708 0
M  V30 14095 C 1365.92 -1.87047 0.284629 0
M  V30 14096 O 1365.27 -1.68182 -0.738959 0
M  V30 14097 C 1365.33 -2.46043 2.62113 0
M  V30 14098 C 1364.99 -2.0851 4.0666 0
M  V30 14099 C 1365.99 -1.62943 4.93706 0
M  V30 14100 C 1363.68 -2.18386 4.52342 0
M  V30 14101 C 1365.67 -1.27747 6.24467 0
M  V30 14102 C 1363.36 -1.82801 5.83118 0
M  V30 14103 C 1364.35 -1.37555 6.69005 0
M  V30 14104 O 1364.04 -1.02447 7.97345 0
M  V30 14105 H 1363.77 -0.396504 0.547504 0
M  V30 14106 H 1366.33 -0.61834 1.95872 0
M  V30 14107 H 1364.56 -3.15844 2.23113 0
M  V30 14108 H 1366.25 -3.08081 2.64275 0
M  V30 14109 H 1367.01 -1.54766 4.59644 0
M  V30 14110 H 1362.89 -2.52556 3.85664 0
M  V30 14111 H 1366.44 -0.923589 6.91459 0
M  V30 14112 H 1362.33 -1.90626 6.16711 0
M  V30 14113 H 1363.1 -1.15663 8.10287 0
M  V30 14114 N 1365.76 -1.381 -0.759346 0
M  V30 14115 C 1366.99 -1.37014 -1.54631 0
M  V30 14116 C 1367.4 0.0433843 -1.8915 0
M  V30 14117 O 1366.75 1.01888 -1.52855 0
M  V30 14118 C 1366.81 -2.15575 -2.87693 0
M  V30 14119 C 1366.47 -3.64438 -2.75743 0
M  V30 14120 C 1367.47 -4.58055 -2.45929 0
M  V30 14121 C 1365.15 -4.0772 -2.93376 0
M  V30 14122 C 1367.15 -5.92935 -2.33894 0
M  V30 14123 C 1364.83 -5.42682 -2.80961 0
M  V30 14124 C 1365.83 -6.35103 -2.51262 0
M  V30 14125 O 1365.52 -7.67583 -2.38896 0
M  V30 14126 H 1365.25 -0.47062 -0.485276 0
M  V30 14127 H 1367.81 -1.82214 -0.948 0
M  V30 14128 H 1366.04 -1.65084 -3.49691 0
M  V30 14129 H 1367.73 -2.06968 -3.49169 0
M  V30 14130 H 1368.49 -4.25923 -2.3198 0
M  V30 14131 H 1364.37 -3.36135 -3.15491 0
M  V30 14132 H 1367.91 -6.65041 -2.10634 0
M  V30 14133 H 1363.81 -5.74413 -2.94482 0
M  V30 14134 H 1364.58 -7.78042 -2.54152 0
M  V30 14135 N 1367.24 0.986894 -1.22875 0
M  V30 14136 C 1368.48 1.74243 -1.06859 0
M  V30 14137 C 1368.85 1.88024 0.388736 0
M  V30 14138 O 1370.05 2.60318 0.669907 0
M  V30 14139 C 1368.32 3.10668 -1.76692 0
M  V30 14140 S 1369.88 4.01884 -1.76166 0
M  V30 14141 H 1366.7 0.59931 -0.382555 0
M  V30 14142 H 1369.3 1.17951 -1.55909 0
M  V30 14143 H 1368 2.98285 -2.81877 0
M  V30 14144 H 1367.53 3.7203 -1.27897 0
M  V30 14145 H 1369.55 4.89451 -0.815627 0
M  V30 14146 N 1368.72 1.0394 1.18466 0
M  V30 14147 C 1369.65 0.587413 2.21545 0
M  V30 14148 C 1370.67 -0.34227 1.59161 0
M  V30 14149 O 1371.85 -0.136988 1.77974 0
M  V30 14150 C 1368.95 -0.161999 3.38513 0
M  V30 14151 C 1368.13 0.775243 4.30475 0
M  V30 14152 C 1367.19 0.0693526 5.26154 0
M  V30 14153 O 1366.21 0.69937 5.64887 0
M  V30 14154 N 1367.41 -1.19773 5.68009 0
M  V30 14155 H 1370.18 1.47399 2.60948 0
M  V30 14156 H 1367.74 0.919734 1.33239 0
M  V30 14157 H 1369.73 -0.644041 3.99542 0
M  V30 14158 H 1368.3 -0.950099 2.97812 0
M  V30 14159 H 1367.52 1.43717 3.67068 0
M  V30 14160 H 1368.81 1.41187 4.88819 0
M  V30 14161 H 1368.21 -1.73013 5.38593 0
M  V30 14162 H 1366.77 -1.62407 6.31243 0
M  V30 14163 N 1370.2 -1.34667 0.818693 0
M  V30 14164 C 1371.42 -2.03173 0.416585 0
M  V30 14165 C 1371.85 -1.61261 -0.968321 0
M  V30 14166 O 1371.21 -0.79517 -1.62932 0
M  V30 14167 C 1371.25 -3.56803 0.521884 0
M  V30 14168 O 1370.36 -4.09827 -0.459953 0
M  V30 14169 H 1369.7 -0.6413 0.172136 0
M  V30 14170 H 1372.23 -1.72006 1.10794 0
M  V30 14171 H 1372.24 -4.06073 0.3961 0
M  V30 14172 H 1370.91 -3.86656 1.53198 0
M  V30 14173 H 1369.49 -3.71744 -0.293405 0
M  V30 14174 N 1371.68 -0.573274 -1.46804 0
M  V30 14175 C 1372.62 0.165358 -2.30207 0
M  V30 14176 C 1373.59 0.89312 -1.40045 0
M  V30 14177 O 1374.78 0.885653 -1.68999 0
M  V30 14178 C 1371.92 1.17915 -3.2433 0
M  V30 14179 C 1371.03 0.455805 -4.29589 0
M  V30 14180 C 1370.17 1.45629 -5.10848 0
M  V30 14181 C 1369.21 0.718822 -6.07865 0
M  V30 14182 N 1368.34 1.66691 -6.82025 0
M  V30 14183 H 1373.18 -0.551947 -2.92844 0
M  V30 14184 H 1370.72 -0.28401 -1.44332 0
M  V30 14185 H 1372.68 1.77969 -3.77337 0
M  V30 14186 H 1371.31 1.86429 -2.63523 0
M  V30 14187 H 1370.36 -0.259584 -3.79513 0
M  V30 14188 H 1371.67 -0.121161 -4.98653 0
M  V30 14189 H 1370.83 2.1299 -5.68084 0
M  V30 14190 H 1369.56 2.06718 -4.41723 0
M  V30 14191 H 1368.57 0.0313773 -5.49791 0
M  V30 14192 H 1369.79 0.113452 -6.79005 0
M  V30 14193 H 1367.74 2.26608 -6.15617 0
M  V30 14194 H 1367.66 1.14251 -7.47317 0
M  V30 14195 H 1368.93 2.33117 -7.43826 0
M  V30 14196 N 1373.15 1.5451 -0.310553 0
M  V30 14197 C 1374.4 1.99931 0.29532 0
M  V30 14198 C 1374.72 1.20042 1.53672 0
M  V30 14199 O 1373.99 0.298841 1.93607 0
M  V30 14200 H 1372.57 0.738539 0.112111 0
M  V30 14201 H 1375.24 1.9023 -0.424092 0
M  V30 14202 H 1374.33 3.07021 0.560749 0
M  V30 14203 N 1374.63 0.0384594 1.57553 0
M  V30 14204 C 1375.58 -0.940256 2.10779 0
M  V30 14205 C 1376.55 -1.31705 1.01208 0
M  V30 14206 O 1377.74 -1.40874 1.28683 0
M  V30 14207 C 1374.88 -2.21419 2.64703 0
M  V30 14208 C 1373.99 -1.89302 3.88315 0
M  V30 14209 C 1373.12 -3.1106 4.30599 0
M  V30 14210 C 1372.16 -2.74805 5.46945 0
M  V30 14211 N 1371.3 -3.89217 5.84341 0
M  V30 14212 H 1376.14 -0.479458 2.94118 0
M  V30 14213 H 1373.68 -0.22505 1.45368 0
M  V30 14214 H 1375.63 -2.95946 2.94061 0
M  V30 14215 H 1374.26 -2.65099 1.84181 0
M  V30 14216 H 1373.32 -1.04977 3.65628 0
M  V30 14217 H 1374.63 -1.58607 4.72912 0
M  V30 14218 H 1373.78 -3.93898 4.61442 0
M  V30 14219 H 1372.52 -3.44924 3.44788 0
M  V30 14220 H 1371.53 -1.9038 5.15786 0
M  V30 14221 H 1372.75 -2.42147 6.34462 0
M  V30 14222 H 1370.7 -4.22905 5.01485 0
M  V30 14223 H 1370.61 -3.62177 6.63599 0
M  V30 14224 H 1371.88 -4.72732 6.19794 0
M  V30 14225 N 1376.11 -1.55841 -0.234795 0
M  V30 14226 C 1377.06 -1.8772 -1.29403 0
M  V30 14227 C 1378.05 -0.739087 -1.42921 0
M  V30 14228 O 1379.24 -1.00125 -1.45959 0
M  V30 14229 C 1376.37 -2.18592 -2.64712 0
M  V30 14230 C 1375.45 -3.38761 -2.55151 0
M  V30 14231 N 1375.84 -4.57723 -2.15229 0
M  V30 14232 C 1374.14 -3.42112 -2.86138 0
M  V30 14233 C 1374.84 -5.39872 -2.16595 0
M  V30 14234 N 1373.82 -4.79242 -2.5657 0
M  V30 14235 H 1377.62 -2.77219 -0.976067 0
M  V30 14236 H 1375.13 -1.5623 -0.443396 0
M  V30 14237 H 1377.13 -2.39599 -3.41171 0
M  V30 14238 H 1375.79 -1.30398 -2.97366 0
M  V30 14239 H 1376.8 -4.83126 -1.86575 0
M  V30 14240 H 1373.48 -2.64224 -3.23252 0
M  V30 14241 H 1374.87 -6.45072 -1.87967 0
M  V30 14242 N 1377.59 0.500963 -1.49426 0
M  V30 14243 C 1378.82 1.27725 -1.62388 0
M  V30 14244 C 1379.23 1.86893 -0.294544 0
M  V30 14245 O 1378.57 1.68571 0.73003 0
M  V30 14246 C 1378.63 2.44649 -2.63414 0
M  V30 14247 C 1378.3 2.0635 -4.0776 0
M  V30 14248 C 1379.29 1.60323 -4.94563 0
M  V30 14249 C 1376.98 2.15984 -4.53493 0
M  V30 14250 C 1378.97 1.24433 -6.25136 0
M  V30 14251 C 1376.66 1.79706 -5.8408 0
M  V30 14252 C 1377.66 1.34005 -6.69725 0
M  V30 14253 O 1377.35 0.982171 -7.97878 0
M  V30 14254 H 1377.08 0.393595 -0.549599 0
M  V30 14255 H 1379.63 0.607944 -1.96197 0
M  V30 14256 H 1377.86 3.14656 -2.24785 0
M  V30 14257 H 1379.55 3.06675 -2.65905 0
M  V30 14258 H 1380.32 1.52326 -4.60458 0
M  V30 14259 H 1376.2 2.50507 -3.86998 0
M  V30 14260 H 1379.74 0.886906 -6.91939 0
M  V30 14261 H 1375.64 1.87352 -6.17713 0
M  V30 14262 H 1376.4 1.11364 -8.10889 0
M  V30 14263 N 1379.07 1.38501 0.752011 0
M  V30 14264 C 1380.48 1.31086 1.32941 0
M  V30 14265 C 1380.83 -0.0326248 1.96173 0
M  V30 14266 O 1379.95 -0.934692 1.95173 0
M  V30 14267 C 1380.55 2.37395 2.41721 0
M  V30 14268 C 1379.11 2.33553 2.95177 0
M  V30 14269 C 1378.26 2.20178 1.68573 0
M  V30 14270 H 1381.21 1.48836 0.550771 0
M  V30 14271 H 1381.23 2.03202 3.21697 0
M  V30 14272 H 1380.74 3.35164 1.9567 0
M  V30 14273 H 1378.84 1.39371 3.45553 0
M  V30 14274 H 1378.95 3.27753 3.49449 0
M  V30 14275 H 1377.32 1.67057 1.9226 0
M  V30 14276 H 1378.1 3.19891 1.24599 0
M  V30 14277 N 1380.55 -0.980364 1.23396 0
M  V30 14278 C 1381.79 -1.72421 1.06765 0
M  V30 14279 C 1382.12 -1.90151 -0.394515 0
M  V30 14280 O 1381.4 -1.4538 -1.29209 0
M  V30 14281 C 1381.68 -3.12246 1.79372 0
M  V30 14282 C 1381.54 -3.02087 3.33262 0
M  V30 14283 C 1382.85 -4.11667 1.55624 0
M  V30 14284 H 1379.97 -0.625822 0.389251 0
M  V30 14285 H 1382.62 -1.14132 1.51901 0
M  V30 14286 H 1380.77 -3.62008 1.41004 0
M  V30 14287 H 1382.44 -2.59848 3.81152 0
M  V30 14288 H 1380.68 -2.38592 3.62293 0
M  V30 14289 H 1381.35 -4.01087 3.79254 0
M  V30 14290 H 1383.83 -3.70712 1.88975 0
M  V30 14291 H 1382.7 -5.07593 2.08902 0
M  V30 14292 H 1382.96 -4.39358 0.491601 0
M  V30 14293 N 1382.02 -1.04567 -1.17913 0
M  V30 14294 C 1382.97 -0.634939 -2.23766 0
M  V30 14295 C 1383.97 0.340723 -1.65938 0
M  V30 14296 O 1385.17 0.207467 -1.788 0
M  V30 14297 H 1381.55 -0.187129 -0.728345 0
M  V30 14298 H 1383.52 -1.53798 -2.55712 0
M  V30 14299 C 1382.27 -0.0190662 -3.47695 0
M  V30 14300 H 1381.59 -0.760881 -3.92493 0
M  V30 14301 H 1383.03 0.231035 -4.2337 0
M  V30 14302 C 1381.49 1.23246 -3.13548 0
M  V30 14303 O 1382.02 2.32262 -3.27746 0
M  V30 14304 N 1380.22 1.12768 -2.67828 0
M  V30 14305 H 1379.77 0.240547 -2.56474 0
M  V30 14306 H 1379.73 1.96594 -2.45353 0
M  V30 14307 N 1383.5 1.34231 -0.825823 0
M  V30 14308 C 1384.75 1.98196 -0.415276 0
M  V30 14309 C 1385.08 1.65463 1.02236 0
M  V30 14310 O 1384.33 0.919868 1.72734 0
M  V30 14311 C 1384.63 3.52861 -0.56778 0
M  V30 14312 C 1384.3 4.05512 -1.97157 0
M  V30 14313 C 1382.96 4.19602 -2.35557 0
M  V30 14314 C 1385.31 4.33798 -2.88909 0
M  V30 14315 C 1382.64 4.59307 -3.6504 0
M  V30 14316 C 1384.99 4.74949 -4.17859 0
M  V30 14317 C 1383.65 4.87245 -4.56233 0
M  V30 14318 H 1382.92 0.725251 -0.15196 0
M  V30 14319 H 1385.57 1.60126 -1.05033 0
M  V30 14320 H 1383.88 3.9151 0.15065 0
M  V30 14321 H 1385.57 4.00336 -0.230608 0
M  V30 14322 H 1382.16 3.9501 -1.66328 0
M  V30 14323 H 1386.35 4.22448 -2.60483 0
M  V30 14324 H 1381.6 4.67017 -3.94594 0
M  V30 14325 H 1385.78 4.95795 -4.8904 0
M  V30 14326 H 1383.4 5.17768 -5.56615 0
M  V30 14327 N 1384.98 0.581051 1.46498 0
M  V30 14328 C 1385.89 -0.155669 2.34083 0
M  V30 14329 C 1386.91 -0.887728 1.49651 0
M  V30 14330 O 1388.08 -0.851284 1.82524 0
M  V30 14331 C 1385.15 -1.15752 3.26806 0
M  V30 14332 C 1384.21 -0.43031 4.27138 0
M  V30 14333 C 1383.44 -1.38443 5.15431 0
M  V30 14334 O 1383.66 -2.62084 5.06624 0
M  V30 14335 O 1382.6 -0.89592 5.95195 0
M  V30 14336 H 1386.42 0.56341 2.98428 0
M  V30 14337 H 1384.01 0.341466 1.45445 0
M  V30 14338 H 1385.89 -1.73523 3.84015 0
M  V30 14339 H 1384.57 -1.85809 2.65059 0
M  V30 14340 H 1383.47 0.1892 3.73621 0
M  V30 14341 H 1384.81 0.229263 4.91666 0
M  V30 14342 N 1386.46 -1.54343 0.318742 0
M  V30 14343 C 1387.71 -2.00084 -0.284713 0
M  V30 14344 C 1388.03 -1.20855 -1.53033 0
M  V30 14345 O 1387.3 -0.309104 -1.93446 0
M  V30 14346 H 1385.88 -0.739123 -0.108193 0
M  V30 14347 H 1388.54 -1.90002 0.434174 0
M  V30 14348 H 1387.63 -3.07314 -0.544459 0
M  V30 14349 N 1387.94 -0.0468143 -1.5753 0
M  V30 14350 C 1389.35 0.489509 -1.80169 0
M  V30 14351 C 1389.7 1.71184 -0.958669 0
M  V30 14352 O 1388.82 2.15699 -0.174025 0
M  V30 14353 C 1389.42 0.894838 -3.26769 0
M  V30 14354 C 1387.98 1.37617 -3.50341 0
M  V30 14355 C 1387.12 0.349275 -2.75092 0
M  V30 14356 H 1390.07 -0.272728 -1.56339 0
M  V30 14357 H 1390.1 1.75805 -3.3745 0
M  V30 14358 H 1389.61 0.00501096 -3.881 0
M  V30 14359 H 1387.71 2.28533 -2.94285 0
M  V30 14360 H 1387.82 1.37133 -4.59055 0
M  V30 14361 H 1386.19 0.821219 -2.41098 0
M  V30 14362 H 1386.97 -0.532391 -3.39147 0
M  V30 14363 N 1389.41 1.55964 0.226527 0
M  V30 14364 C 1390.66 1.78392 0.94977 0
M  V30 14365 C 1390.98 0.614444 1.85066 0
M  V30 14366 O 1390.25 -0.368894 1.92395 0
M  V30 14367 H 1388.83 0.657962 0.353688 0
M  V30 14368 H 1391.5 1.93422 0.239577 0
M  V30 14369 H 1390.59 2.70343 1.55952 0
M  V30 14370 N 1390.89 -0.493031 1.4969 0
M  V30 14371 C 1391.82 -1.60215 1.69863 0
M  V30 14372 C 1392.8 -1.61053 0.547362 0
M  V30 14373 O 1393.99 -1.77667 0.784093 0
M  V30 14374 C 1391.12 -2.98662 1.77252 0
M  V30 14375 C 1390.07 -3.1269 2.92248 0
M  V30 14376 C 1389.4 -4.52567 2.84758 0
M  V30 14377 C 1390.7 -2.91965 4.33074 0
M  V30 14378 H 1392.39 -1.43587 2.62723 0
M  V30 14379 H 1389.94 -0.689334 1.26429 0
M  V30 14380 H 1391.89 -3.7616 1.89951 0
M  V30 14381 H 1390.62 -3.16397 0.809976 0
M  V30 14382 H 1389.27 -2.37619 2.79164 0
M  V30 14383 H 1388.92 -4.6719 1.86394 0
M  V30 14384 H 1388.62 -4.62893 3.61944 0
M  V30 14385 H 1390.15 -5.32116 2.99475 0
M  V30 14386 H 1391.56 -3.59228 4.46798 0
M  V30 14387 H 1389.96 -3.13756 5.11544 0
M  V30 14388 H 1391.03 -1.88015 4.46966 0
M  V30 14389 N 1392.37 -1.38898 -0.744656 0
M  V30 14390 C 1393.62 -1.35795 -1.50623 0
M  V30 14391 C 1393.95 0.0491775 -1.94138 0
M  V30 14392 O 1393.22 1.01219 -1.66087 0
M  V30 14393 C 1393.51 -2.32168 -2.75263 0
M  V30 14394 C 1393.36 -3.81781 -2.3783 0
M  V30 14395 C 1394.68 -2.26526 -3.77325 0
M  V30 14396 H 1391.8 -0.494591 -0.546396 0
M  V30 14397 H 1394.44 -1.69816 -0.852211 0
M  V30 14398 H 1392.59 -2.03287 -3.31069 0
M  V30 14399 H 1394.26 -4.21373 -1.8773 0
M  V30 14400 H 1392.51 -3.99027 -1.70176 0
M  V30 14401 H 1393.18 -4.44687 -3.27044 0
M  V30 14402 H 1395.65 -2.52041 -3.31081 0
M  V30 14403 H 1394.53 -2.96053 -4.62216 0
M  V30 14404 H 1394.79 -1.26705 -4.23554 0
M  V30 14405 N 1393.85 0.973806 -1.23914 0
M  V30 14406 C 1394.76 2.10138 -1.04304 0
M  V30 14407 C 1395.77 1.73994 0.0143888 0
M  V30 14408 O 1396.95 2.00572 -0.182481 0
M  V30 14409 C 1394.02 3.40673 -0.643639 0
M  V30 14410 C 1393.08 3.90802 -1.77686 0
M  V30 14411 C 1392.31 5.15108 -1.39642 0
M  V30 14412 O 1392.53 5.69695 -0.283546 0
M  V30 14413 O 1391.47 5.59468 -2.21988 0
M  V30 14414 H 1395.29 2.29574 -1.9882 0
M  V30 14415 H 1392.88 1.08524 -1.02679 0
M  V30 14416 H 1394.76 4.19178 -0.432145 0
M  V30 14417 H 1393.43 3.22551 0.272458 0
M  V30 14418 H 1392.34 3.13385 -2.04305 0
M  V30 14419 H 1393.67 4.1339 -2.67151 0
M  V30 14420 N 1395.33 1.05191 1.17357 0
M  V30 14421 C 1396.57 0.763113 1.87895 0
M  V30 14422 C 1396.91 -0.708071 1.80831 0
M  V30 14423 O 1396.18 -1.51777 1.21631 0
M  V30 14424 C 1396.46 1.2442 3.37923 0
M  V30 14425 C 1396.32 2.77832 3.53737 0
M  V30 14426 C 1397.64 0.843209 4.31947 0
M  V30 14427 H 1394.75 0.27869 0.682276 0
M  V30 14428 H 1397.4 1.3059 1.38008 0
M  V30 14429 H 1395.55 0.782438 3.80539 0
M  V30 14430 H 1397.22 3.32131 3.20135 0
M  V30 14431 H 1395.46 3.17108 2.96015 0
M  V30 14432 H 1396.13 3.06555 4.59052 0
M  V30 14433 H 1398.61 1.24073 3.97171 0
M  V30 14434 H 1397.48 1.20743 5.35455 0
M  V30 14435 H 1397.75 -0.252802 4.41377 0
M  V30 14436 N 1396.8 -1.33791 0.83293 0
M  V30 14437 C 1397.74 -2.28148 0.219336 0
M  V30 14438 C 1398.75 -1.51477 -0.596529 0
M  V30 14439 O 1399.94 -1.73377 -0.424571 0
M  V30 14440 C 1397.04 -3.31373 -0.710305 0
M  V30 14441 C 1396.21 -4.37352 0.0649215 0
M  V30 14442 C 1395.27 -5.20279 -0.78716 0
M  V30 14443 O 1394.3 -5.68741 -0.228511 0
M  V30 14444 N 1395.5 -5.40973 -2.10544 0
M  V30 14445 H 1398.26 -2.81443 1.03004 0
M  V30 14446 H 1395.82 -1.46421 0.690831 0
M  V30 14447 H 1397.82 -3.83752 -1.28517 0
M  V30 14448 H 1396.39 -2.78398 -1.42173 0
M  V30 14449 H 1395.61 -3.85553 0.821144 0
M  V30 14450 H 1396.89 -5.05271 0.598199 0
M  V30 14451 H 1396.29 -5.03291 -2.58292 0
M  V30 14452 H 1394.85 -5.96432 -2.62893 0
M  V30 14453 N 1398.28 -0.588812 -1.46187 0
M  V30 14454 C 1399.19 0.143253 -2.34162 0
M  V30 14455 C 1400.21 0.879779 -1.5012 0
M  V30 14456 O 1401.38 0.841592 -1.82973 0
M  V30 14457 C 1398.45 1.14017 -3.27416 0
M  V30 14458 C 1397.51 0.407651 -4.2736 0
M  V30 14459 C 1396.74 1.35708 -5.16158 0
M  V30 14460 O 1396.97 2.59394 -5.08007 0
M  V30 14461 O 1395.9 0.864343 -5.95662 0
M  V30 14462 H 1399.73 -0.579228 -2.98125 0
M  V30 14463 H 1397.31 -0.349174 -1.45262 0
M  V30 14464 H 1399.19 1.71484 -3.8493 0
M  V30 14465 H 1397.87 1.84401 -2.66041 0
M  V30 14466 H 1396.78 -0.209011 -3.73516 0
M  V30 14467 H 1398.11 -0.255334 -4.91537 0
M  V30 14468 N 1399.76 1.54172 -0.326923 0
M  V30 14469 C 1400.99 2.05512 0.279231 0
M  V30 14470 C 1401.41 1.20131 1.44741 0
M  V30 14471 O 1400.77 0.211191 1.80066 0
M  V30 14472 C 1400.82 3.53971 0.688263 0
M  V30 14473 O 1399.92 3.71516 1.79025 0
M  V30 14474 H 1399.26 0.662131 0.0497826 0
M  V30 14475 H 1401.79 1.98979 -0.476309 0
M  V30 14476 H 1401.8 3.96302 0.970002 0
M  V30 14477 H 1400.48 4.15568 -0.166132 0
M  V30 14478 H 1399.05 3.4109 1.50706 0
M  V30 14479 N 1401.24 0.0551678 1.57503 0
M  V30 14480 C 1402.15 -0.932959 2.15251 0
M  V30 14481 C 1403.16 -1.33885 1.11134 0
M  V30 14482 O 1404.34 -1.41495 1.43321 0
M  V30 14483 C 1401.41 -2.18807 2.68932 0
M  V30 14484 C 1400.47 -1.84016 3.87862 0
M  V30 14485 C 1399.7 -3.03543 4.38973 0
M  V30 14486 O 1399.92 -4.17041 3.89144 0
M  V30 14487 O 1398.86 -2.84325 5.30512 0
M  V30 14488 H 1402.68 -0.471816 3.00013 0
M  V30 14489 H 1400.27 -0.16696 1.48464 0
M  V30 14490 H 1402.15 -2.92439 3.0341 0
M  V30 14491 H 1400.82 -2.64051 1.87239 0
M  V30 14492 H 1399.73 -1.07687 3.58266 0
M  V30 14493 H 1401.06 -1.43567 4.70796 0
M  V30 14494 N 1402.72 -1.56081 -0.218252 0
M  V30 14495 C 1403.95 -1.83069 -0.957574 0
M  V30 14496 C 1404.35 -0.6325 -1.78315 0
M  V30 14497 O 1403.7 0.408298 -1.79105 0
M  V30 14498 C 1403.76 -3.03835 -1.92157 0
M  V30 14499 C 1403.42 -4.38702 -1.2802 0
M  V30 14500 C 1404.42 -5.15585 -0.66846 0
M  V30 14501 C 1402.11 -4.85427 -1.29098 0
M  V30 14502 C 1404.1 -6.37355 -0.0760499 0
M  V30 14503 C 1401.79 -6.07138 -0.69473 0
M  V30 14504 C 1402.78 -6.82943 -0.0883201 0
M  V30 14505 O 1402.47 -8.02352 0.498648 0
M  V30 14506 H 1402.2 -0.612493 -0.286057 0
M  V30 14507 H 1404.76 -2.04021 -0.23759 0
M  V30 14508 H 1402.99 -2.78709 -2.68064 0
M  V30 14509 H 1404.68 -3.17666 -2.52672 0
M  V30 14510 H 1405.44 -4.80592 -0.652434 0
M  V30 14511 H 1401.32 -4.26395 -1.75238 0
M  V30 14512 H 1404.87 -6.96464 0.397893 0
M  V30 14513 H 1400.76 -6.41604 -0.70818 0
M  V30 14514 H 1401.53 -8.17555 0.393289 0
M  V30 14515 N 1404.2 0.485086 -1.49949 0
M  V30 14516 C 1405.43 1.25996 -1.63733 0
M  V30 14517 C 1405.83 1.8657 -0.31435 0
M  V30 14518 O 1405.18 1.69336 0.71211 0
M  V30 14519 C 1405.24 2.41842 -2.65994 0
M  V30 14520 C 1404.9 2.02014 -4.09926 0
M  V30 14521 C 1405.9 1.55068 -4.96236 0
M  V30 14522 C 1403.58 2.11162 -4.55759 0
M  V30 14523 C 1405.58 1.17796 -6.26421 0
M  V30 14524 C 1403.27 1.73501 -5.85953 0
M  V30 14525 C 1404.26 1.26894 -6.71109 0
M  V30 14526 O 1403.95 0.89749 -7.98874 0
M  V30 14527 H 1403.68 0.387743 -0.553743 0
M  V30 14528 H 1406.24 0.5871 -1.96831 0
M  V30 14529 H 1404.47 3.12254 -2.2811 0
M  V30 14530 H 1406.16 3.03837 -2.69143 0
M  V30 14531 H 1406.92 1.47434 -4.62048 0
M  V30 14532 H 1402.8 2.46389 -3.89633 0
M  V30 14533 H 1406.35 0.813467 -6.92841 0
M  V30 14534 H 1402.24 1.8079 -6.19665 0
M  V30 14535 H 1403.01 1.02757 -8.12024 0
M  V30 14536 N 1405.67 1.39291 0.737279 0
M  V30 14537 C 1407.08 1.32489 1.31543 0
M  V30 14538 C 1407.44 -0.0118162 1.96196 0
M  V30 14539 O 1406.56 -0.913938 1.96153 0
M  V30 14540 C 1407.16 2.39946 2.39189 0
M  V30 14541 C 1405.71 2.36671 2.92684 0
M  V30 14542 C 1404.86 2.21953 1.66229 0
M  V30 14543 H 1407.81 1.49412 0.534954 0
M  V30 14544 H 1407.83 2.06603 3.19524 0
M  V30 14545 H 1407.35 3.3722 1.92104 0
M  V30 14546 H 1405.45 1.43028 3.44055 0
M  V30 14547 H 1405.56 3.31441 3.45953 0
M  V30 14548 H 1403.92 1.69087 1.90478 0
M  V30 14549 H 1404.71 3.21194 1.21199 0
M  V30 14550 N 1407.15 -0.967221 1.24429 0
M  V30 14551 C 1408.1 -2.06187 1.03709 0
M  V30 14552 C 1409.07 -1.66025 -0.0497665 0
M  V30 14553 O 1410.25 -1.90511 0.104951 0
M  V30 14554 C 1407.39 -3.38952 0.648477 0
M  V30 14555 C 1406.51 -3.92306 1.80886 0
M  V30 14556 C 1405.64 -5.13342 1.36579 0
M  V30 14557 C 1404.68 -5.58893 2.49609 0
M  V30 14558 N 1403.82 -6.71148 2.06165 0
M  V30 14559 H 1408.66 -2.23244 1.97399 0
M  V30 14560 H 1406.19 -1.09415 0.983192 0
M  V30 14561 H 1408.15 -4.15237 0.40419 0
M  V30 14562 H 1406.78 -3.21819 -0.25142 0
M  V30 14563 H 1405.83 -3.12656 2.1668 0
M  V30 14564 H 1407.15 -4.22071 2.65815 0
M  V30 14565 H 1406.3 -5.97003 1.0804 0
M  V30 14566 H 1405.04 -4.85262 0.487051 0
M  V30 14567 H 1404.04 -4.73805 2.78906 0
M  V30 14568 H 1405.27 -5.88987 3.3804 0
M  V30 14569 H 1403.22 -6.44802 1.20691 0
M  V30 14570 H 1403.13 -7.00366 2.84647 0
M  V30 14571 H 1404.4 -7.5825 1.80769 0
M  V30 14572 N 1408.63 -1.05812 -1.16797 0
M  V30 14573 C 1410.05 -0.780649 -1.39205 0
M  V30 14574 C 1410.25 0.622191 -1.91653 0
M  V30 14575 O 1409.3 1.38357 -2.11219 0
M  V30 14576 C 1410.61 -1.84148 -2.37718 0
M  V30 14577 C 1412.16 -1.86442 -2.51413 0
M  V30 14578 C 1412.64 -2.91566 -3.53204 0
M  V30 14579 N 1414.13 -2.90568 -3.60727 0
M  V30 14580 C 1414.86 -3.68556 -4.39265 0
M  V30 14581 N 1414.36 -4.56348 -5.21266 0
M  V30 14582 N 1416.15 -3.56969 -4.342 0
M  V30 14583 H 1408.3 -1.96313 -0.810871 0
M  V30 14584 H 1410.57 -0.850421 -0.418913 0
M  V30 14585 H 1410.27 -2.84864 -2.06265 0
M  V30 14586 H 1410.15 -1.68838 -3.37303 0
M  V30 14587 H 1412.53 -0.863873 -2.82172 0
M  V30 14588 H 1412.61 -2.0583 -1.5188 0
M  V30 14589 H 1412.26 -3.91811 -3.23182 0
M  V30 14590 H 1412.19 -2.69429 -4.52455 0
M  V30 14591 H 1414.68 -2.26918 -3.02186 0
M  V30 14592 H 1414.99 -5.12523 -5.78394 0
M  V30 14593 H 1413.34 -4.60406 -5.20626 0
M  V30 14594 H 1416.53 -2.87772 -3.69195 0
M  V30 14595 H 1416.7 -4.17993 -4.95162 0
M  V30 14596 N 1410.11 1.33347 -0.840014 0
M  V30 14597 C 1411.34 2.01659 -0.449141 0
M  V30 14598 C 1411.75 1.63353 0.954597 0
M  V30 14599 O 1411.09 0.843303 1.632 0
M  V30 14600 C 1411.15 3.56124 -0.491497 0
M  V30 14601 C 1410.81 4.17812 -1.85155 0
M  V30 14602 C 1411.81 4.37101 -2.81494 0
M  V30 14603 C 1409.5 4.54211 -2.1447 0
M  V30 14604 C 1411.49 4.91938 -4.05309 0
M  V30 14605 C 1409.18 5.08756 -3.38542 0
M  V30 14606 C 1410.18 5.27566 -4.33778 0
M  V30 14607 O 1409.86 5.8095 -5.55655 0
M  V30 14608 H 1409.6 0.652553 -0.176494 0
M  V30 14609 H 1412.15 1.71228 -1.13447 0
M  V30 14610 H 1410.38 3.85887 0.250613 0
M  V30 14611 H 1412.07 4.05728 -0.118288 0
M  V30 14612 H 1412.83 4.09328 -2.60146 0
M  V30 14613 H 1408.71 4.38864 -1.41135 0
M  V30 14614 H 1412.26 5.06536 -4.79654 0
M  V30 14615 H 1408.15 5.3596 -3.59746 0
M  V30 14616 H 1408.92 5.99363 -5.5741 0
M  V30 14617 N 1411.59 0.596556 1.45873 0
M  V30 14618 C 1412.52 -0.166704 2.28593 0
M  V30 14619 C 1413.53 -0.84231 1.39316 0
M  V30 14620 O 1414.72 -0.709548 1.63792 0
M  V30 14621 C 1411.82 -1.25641 3.1475 0
M  V30 14622 C 1410.99 -0.67006 4.32237 0
M  V30 14623 C 1410.05 -1.64924 4.99686 0
M  V30 14624 O 1409.08 -1.17986 5.56838 0
M  V30 14625 N 1410.28 -2.98355 4.9796 0
M  V30 14626 H 1413.04 0.543045 2.94739 0
M  V30 14627 H 1410.61 0.435274 1.55939 0
M  V30 14628 H 1412.6 -1.91104 3.56737 0
M  V30 14629 H 1411.17 -1.86883 2.50586 0
M  V30 14630 H 1410.39 0.162375 3.93865 0
M  V30 14631 H 1411.68 -0.258345 5.08144 0
M  V30 14632 H 1411.07 -3.39101 4.52799 0
M  V30 14633 H 1409.63 -3.5927 5.43846 0
M  V30 14634 N 1413.06 -1.53996 0.335095 0
M  V30 14635 C 1414.29 -2.05657 -0.268328 0
M  V30 14636 C 1414.71 -1.20897 -1.44102 0
M  V30 14637 O 1414.07 -0.220737 -1.79951 0
M  V30 14638 C 1414.12 -3.54331 -0.669481 0
M  V30 14639 O 1413.22 -3.7246 -1.77052 0
M  V30 14640 H 1412.56 -0.662386 -0.0462705 0
M  V30 14641 H 1415.09 -1.98723 0.486854 0
M  V30 14642 H 1415.1 -3.9681 -0.948971 0
M  V30 14643 H 1413.78 -4.15474 0.188168 0
M  V30 14644 H 1412.36 -3.41884 -1.48895 0
M  V30 14645 N 1414.54 -0.0635198 -1.57472 0
M  V30 14646 C 1415.49 0.916528 -2.08767 0
M  V30 14647 C 1416.48 1.26405 -0.99552 0
M  V30 14648 O 1417.67 1.24441 -1.25871 0
M  V30 14649 C 1414.8 2.18704 -2.64619 0
M  V30 14650 C 1413.88 1.86637 -3.80825 0
M  V30 14651 N 1414.27 1.24982 -4.90115 0
M  V30 14652 C 1412.57 2.16435 -3.89964 0
M  V30 14653 C 1413.27 1.10821 -5.71046 0
M  V30 14654 N 1412.25 1.61519 -5.1905 0
M  V30 14655 H 1416.05 0.435376 -2.90657 0
M  V30 14656 H 1413.56 0.1406 -1.6179 0
M  V30 14657 H 1415.56 2.89825 -2.99678 0
M  V30 14658 H 1414.22 2.67415 -1.84172 0
M  V30 14659 H 1415.23 0.920491 -5.09654 0
M  V30 14660 H 1411.91 2.6758 -3.20479 0
M  V30 14661 H 1413.3 0.628547 -6.68954 0
M  V30 14662 N 1416.02 1.56195 0.209972 0
M  V30 14663 C 1417.27 1.80011 0.93402 0
M  V30 14664 C 1417.6 0.635109 1.83521 0
M  V30 14665 O 1416.87 -0.365099 1.91043 0
M  V30 14666 C 1417.16 3.13989 1.76304 0
M  V30 14667 C 1417.01 4.40956 0.887567 0
M  V30 14668 C 1418.33 3.44514 2.73857 0
M  V30 14669 H 1415.45 0.654859 0.338125 0
M  V30 14670 H 1418.09 1.88921 0.20221 0
M  V30 14671 H 1416.24 3.06524 2.38695 0
M  V30 14672 H 1417.91 4.60452 0.279507 0
M  V30 14673 H 1416.15 4.33368 0.193533 0
M  V30 14674 H 1416.83 5.31164 1.50228 0
M  V30 14675 H 1419.3 3.52182 2.216 0
M  V30 14676 H 1418.18 4.39407 3.28957 0
M  V30 14677 H 1418.44 2.6726 3.52171 0
M  V30 14678 N 1417.5 -0.477127 1.50204 0
M  V30 14679 C 1418.43 -1.58405 1.71552 0
M  V30 14680 C 1419.41 -1.60463 0.564413 0
M  V30 14681 O 1420.59 -1.76826 0.802893 0
M  V30 14682 C 1417.72 -2.96765 1.8041 0
M  V30 14683 C 1416.68 -3.09573 2.95548 0
M  V30 14684 C 1416 -4.49522 2.89542 0
M  V30 14685 C 1417.3 -2.87356 4.36147 0
M  V30 14686 H 1419 -1.40792 2.64231 0
M  V30 14687 H 1416.54 -0.675886 1.27153 0
M  V30 14688 H 1418.5 -3.74125 1.9393 0
M  V30 14689 H 1417.22 -3.1552 0.843489 0
M  V30 14690 H 1415.88 -2.34645 2.81669 0
M  V30 14691 H 1415.53 -4.65186 1.91339 0
M  V30 14692 H 1415.23 -4.59028 3.66834 0
M  V30 14693 H 1416.75 -5.28909 3.05102 0
M  V30 14694 H 1418.17 -3.54469 4.50583 0
M  V30 14695 H 1416.56 -3.08313 5.14843 0
M  V30 14696 H 1417.63 -1.83264 4.48935 0
M  V30 14697 N 1418.98 -1.3968 -0.729882 0
M  V30 14698 C 1419.91 -1.41549 -1.85704 0
M  V30 14699 C 1420.89 -0.278186 -1.6781 0
M  V30 14700 O 1422.07 -0.484749 -1.88053 0
M  V30 14701 C 1419.2 -1.26327 -3.2351 0
M  V30 14702 C 1418.16 -2.37511 -3.56051 0
M  V30 14703 C 1417.48 -2.07375 -4.92849 0
M  V30 14704 C 1418.78 -3.79833 -3.58502 0
M  V30 14705 H 1420.48 -2.35877 -1.84398 0
M  V30 14706 H 1418.02 -1.13536 -0.885747 0
M  V30 14707 H 1419.98 -1.26254 -4.02042 0
M  V30 14708 H 1418.7 -0.284697 -3.25357 0
M  V30 14709 H 1417.36 -2.36809 -2.79852 0
M  V30 14710 H 1417.01 -1.07943 -4.91281 0
M  V30 14711 H 1416.71 -2.81855 -5.15588 0
M  V30 14712 H 1418.23 -2.08961 -5.73731 0
M  V30 14713 H 1419.64 -3.82436 -4.27101 0
M  V30 14714 H 1418.04 -4.53715 -3.92763 0
M  V30 14715 H 1419.11 -4.10443 -2.58195 0
M  V30 14716 N 1420.45 0.960609 -1.2494 0
M  V30 14717 C 1421.42 2.03791 -1.04891 0
M  V30 14718 C 1422.42 1.608 -0.00375792 0
M  V30 14719 O 1423.61 1.72463 -0.24539 0
M  V30 14720 C 1420.74 3.35733 -0.591309 0
M  V30 14721 H 1421.93 2.2301 -2.00516 0
M  V30 14722 H 1419.49 1.13686 -1.07263 0
M  V30 14723 H 1420.22 3.22207 0.367816 0
M  V30 14724 H 1420.01 3.68283 -1.34574 0
M  V30 14725 H 1421.5 4.14921 -0.472283 0
M  V30 14726 N 1421.93 1.0643 1.16234 0
M  V30 14727 C 1422.9 0.680383 2.18869 0
M  V30 14728 C 1423.9 -0.274591 1.58438 0
M  V30 14729 O 1425.09 -0.0567907 1.74107 0
M  V30 14730 C 1422.22 0.00134091 3.409 0
M  V30 14731 H 1423.41 1.58894 2.54347 0
M  V30 14732 H 1420.96 0.859688 1.30534 0
M  V30 14733 H 1421.7 -0.919903 3.1098 0
M  V30 14734 H 1421.48 0.688057 3.86016 0
M  V30 14735 H 1422.97 -0.252938 4.16833 0
M  V30 14736 N 1423.41 -1.329 0.847073 0
M  V30 14737 C 1424.66 -1.9712 0.445872 0
M  V30 14738 C 1424.98 -1.67398 -1.00014 0
M  V30 14739 O 1424.25 -0.977204 -1.69787 0
M  V30 14740 H 1422.83 -0.729247 0.161887 0
M  V30 14741 H 1425.49 -1.62118 1.08184 0
M  V30 14742 H 1424.59 -3.06575 0.584676 0
M  V30 14743 N 1424.89 -0.604284 -1.45555 0
M  V30 14744 C 1426.14 -0.0981861 -2.02262 0
M  V30 14745 C 1426.46 1.27002 -1.47312 0
M  V30 14746 O 1425.72 1.85058 -0.636563 0
M  V30 14747 C 1426.02 -0.00538243 -3.574 0
M  V30 14748 C 1425.68 -1.30881 -4.31487 0
M  V30 14749 C 1424.35 -1.66586 -4.51445 0
M  V30 14750 C 1426.7 -2.17039 -4.7386 0
M  V30 14751 C 1424.03 -2.88207 -5.11032 0
M  V30 14752 C 1426.38 -3.37905 -5.34792 0
M  V30 14753 C 1425.04 -3.73866 -5.52974 0
M  V30 14754 H 1424.31 -0.0359289 -0.740128 0
M  V30 14755 H 1426.96 -0.785241 -1.7466 0
M  V30 14756 H 1425.26 0.764919 -3.84261 0
M  V30 14757 H 1426.96 0.402303 -3.98977 0
M  V30 14758 H 1423.55 -1.0209 -4.16264 0
M  V30 14759 H 1427.73 -1.90754 -4.58177 0
M  V30 14760 H 1422.99 -3.16179 -5.23298 0
M  V30 14761 H 1427.16 -4.0492 -5.6658 0
M  V30 14762 H 1424.79 -4.68194 -5.98914 0
M  V30 14763 N 1426.37 1.53816 -0.343257 0
M  V30 14764 C 1427.59 2.05796 0.257418 0
M  V30 14765 C 1428.02 1.2166 1.43459 0
M  V30 14766 O 1427.37 0.230278 1.79832 0
M  V30 14767 C 1427.42 3.54681 0.65068 0
M  V30 14768 O 1426.53 3.73394 1.75074 0
M  V30 14769 H 1425.87 0.662622 0.042757 0
M  V30 14770 H 1428.4 1.98462 -0.497386 0
M  V30 14771 H 1428.41 3.97308 0.927914 0
M  V30 14772 H 1427.08 4.15368 -0.210199 0
M  V30 14773 H 1425.66 3.42669 1.4708 0
M  V30 14774 N 1427.84 0.0718701 1.57436 0
M  V30 14775 C 1428.75 -0.910077 2.16229 0
M  V30 14776 C 1429.77 -1.32699 1.12548 0
M  V30 14777 O 1430.95 -1.39967 1.44814 0
M  V30 14778 C 1428.01 -2.15942 2.71238 0
M  V30 14779 C 1427.07 -1.79891 3.89792 0
M  V30 14780 C 1426.31 -2.9887 4.42168 0
M  V30 14781 O 1426.53 -4.1289 3.93545 0
M  V30 14782 O 1425.46 -2.78682 5.33498 0
M  V30 14783 H 1429.29 -0.439969 3.00496 0
M  V30 14784 H 1426.87 -0.151204 1.48633 0
M  V30 14785 H 1428.76 -2.89204 3.06494 0
M  V30 14786 H 1427.43 -2.62051 1.90029 0
M  V30 14787 H 1426.34 -1.03881 3.59388 0
M  V30 14788 H 1427.67 -1.38566 4.72293 0
M  V30 14789 N 1429.32 -1.56304 -0.201686 0
M  V30 14790 C 1430.73 -1.7022 -0.766953 0
M  V30 14791 C 1431.08 -0.677318 -1.84138 0
M  V30 14792 O 1430.21 0.167604 -2.1575 0
M  V30 14793 C 1430.8 -3.08615 -1.39795 0
M  V30 14794 C 1429.36 -3.24317 -1.91037 0
M  V30 14795 C 1428.51 -2.66167 -0.777853 0
M  V30 14796 H 1431.46 -1.58683 0.0232884 0
M  V30 14797 H 1431.48 -3.05578 -2.26721 0
M  V30 14798 H 1430.99 -3.83185 -0.615728 0
M  V30 14799 H 1429.1 -2.54652 -2.71999 0
M  V30 14800 H 1429.21 -4.31753 -2.07669 0
M  V30 14801 H 1427.57 -2.25169 -1.19042 0
M  V30 14802 H 1428.36 -3.43299 -0.00798179 0
M  V30 14803 N 1430.8 0.469154 -1.50455 0
M  V30 14804 C 1432.05 1.21868 -1.61222 0
M  V30 14805 C 1432.37 1.9243 -0.315535 0
M  V30 14806 O 1431.64 1.84192 0.667083 0
M  V30 14807 H 1430.22 0.452828 -0.594101 0
M  V30 14808 H 1432.88 0.540993 -1.87241 0
M  V30 14809 H 1431.98 1.96554 -2.42431 0
M  V30 14810 N 1432.28 1.40065 0.722464 0
M  V30 14811 C 1433.56 1.28473 1.47493 0
M  V30 14812 C 1433.94 -0.100058 2.10863 0
M  V30 14813 O 1433.28 -1.11232 1.99599 0
M  V30 14814 C 1433.49 2.41842 2.51621 0
M  V30 14815 C 1434.84 2.81753 3.17648 0
M  V30 14816 O 1435.87 2.41385 2.61939 0
M  V30 14817 O 1434.72 3.51473 4.18484 0
M  V30 14818 H 1431.82 0.504158 0.655556 0
M  V30 14819 H 1434.36 1.51969 0.755223 0
M  V30 14820 H 1433.14 3.34365 2.03263 0
M  V30 14821 H 1432.76 2.20079 3.31136 0
M  V30 14822 N 1433.76 -0.95397 1.25448 0
M  V30 14823 C 1435 -1.71348 1.11441 0
M  V30 14824 C 1435.36 -1.88988 -0.338748 0
M  V30 14825 O 1436.56 -2.62003 -0.600652 0
M  V30 14826 C 1434.83 -3.05874 1.84867 0
M  V30 14827 S 1436.39 -3.97072 1.86759 0
M  V30 14828 H 1433.21 -0.588957 0.39831 0
M  V30 14829 H 1435.81 -1.13776 1.58982 0
M  V30 14830 H 1434.52 -2.90706 2.89686 0
M  V30 14831 H 1434.05 -3.68508 1.37715 0
M  V30 14832 H 1436.06 -4.87116 0.945109 0
M  V30 14833 N 1435.24 -1.07045 -1.15668 0
M  V30 14834 C 1436.48 -0.790172 -1.86013 0
M  V30 14835 C 1436.8 0.685663 -1.82548 0
M  V30 14836 O 1436.07 1.49644 -1.26426 0
M  V30 14837 H 1434.65 -0.28931 -0.688701 0
M  V30 14838 H 1437.32 -1.35354 -1.40233 0
M  V30 14839 H 1436.41 -1.1219 -2.91239 0
M  V30 14840 N 1436.71 1.32449 -0.85411 0
M  V30 14841 C 1437.96 1.96881 -0.45632 0
M  V30 14842 C 1438.28 1.67926 0.991248 0
M  V30 14843 O 1437.55 0.986195 1.69266 0
M  V30 14844 H 1436.13 0.728378 -0.165752 0
M  V30 14845 H 1438.79 1.61542 -1.09042 0
M  V30 14846 H 1437.89 3.0626 -0.600927 0
M  V30 14847 N 1438.19 0.611994 1.45232 0
M  V30 14848 C 1439.44 0.106467 2.01419 0
M  V30 14849 C 1439.75 -1.2723 1.48566 0
M  V30 14850 O 1440.96 -1.8708 1.96757 0
M  V30 14851 C 1439.42 0.139639 3.59629 0
M  V30 14852 C 1439.02 1.51853 4.21479 0
M  V30 14853 C 1440.77 -0.310417 4.23364 0
M  V30 14854 C 1438.67 1.50785 5.71855 0
M  V30 14855 H 1437.6 0.0360345 0.753138 0
M  V30 14856 H 1440.26 0.767974 1.66657 0
M  V30 14857 H 1438.64 -0.588606 3.91601 0
M  V30 14858 H 1439.81 2.26884 4.01074 0
M  V30 14859 H 1438.13 1.91105 3.69956 0
M  V30 14860 H 1440.72 -0.337656 5.33633 0
M  V30 14861 H 1441.07 -1.33398 3.94348 0
M  V30 14862 H 1441.6 0.364704 3.96125 0
M  V30 14863 H 1438.34 2.50916 6.05575 0
M  V30 14864 H 1437.86 0.800195 5.94438 0
M  V30 14865 H 1439.54 1.23341 6.35135 0
M  V30 14866 N 1439.67 -1.53632 0.351409 0
M  V30 14867 C 1440.6 -2.28217 -0.49391 0
M  V30 14868 C 1441.58 -1.30085 -1.09599 0
M  V30 14869 O 1442.77 -1.58938 -1.1159 0
M  V30 14870 C 1439.9 -3.06085 -1.64102 0
M  V30 14871 C 1438.85 -4.11786 -1.16689 0
M  V30 14872 C 1438.18 -4.77654 -2.40314 0
M  V30 14873 C 1439.48 -5.21644 -0.261742 0
M  V30 14874 H 1441.17 -2.99125 0.1283 0
M  V30 14875 H 1438.72 -1.43861 0.0631462 0
M  V30 14876 H 1440.67 -3.57003 -2.2389 0
M  V30 14877 H 1439.39 -2.32842 -2.29025 0
M  V30 14878 H 1438.05 -3.61792 -0.591784 0
M  V30 14879 H 1437.7 -4.00997 -3.03661 0
M  V30 14880 H 1437.4 -5.49072 -2.09268 0
M  V30 14881 H 1438.92 -5.3136 -3.00813 0
M  V30 14882 H 1440.34 -5.6815 -0.766689 0
M  V30 14883 H 1438.73 -6.00085 -0.0428132 0
M  V30 14884 H 1439.8 -4.79821 0.699999 0
M  V30 14885 N 1441.15 -0.0802183 -1.57396 0
M  V30 14886 C 1442.56 0.276428 -1.57188 0
M  V30 14887 C 1442.76 1.69456 -1.09027 0
M  V30 14888 O 1441.82 2.40792 -0.75997 0
M  V30 14889 C 1443.13 0.0784079 -3.00598 0
M  V30 14890 C 1444.68 0.1473 -3.12653 0
M  V30 14891 C 1445.16 -0.0225423 -4.57994 0
M  V30 14892 N 1446.65 0.0327854 -4.63188 0
M  V30 14893 C 1447.38 -0.0740922 -5.73352 0
M  V30 14894 N 1446.88 -0.234966 -6.92401 0
M  V30 14895 N 1448.67 -0.0164241 -5.62098 0
M  V30 14896 H 1440.82 -1.00695 -1.87014 0
M  V30 14897 H 1443.08 -0.393402 -0.862519 0
M  V30 14898 H 1442.79 -0.900488 -3.39977 0
M  V30 14899 H 1442.66 0.82713 -3.6802 0
M  V30 14900 H 1445.05 1.11669 -2.73156 0
M  V30 14901 H 1445.13 -0.632666 -2.47853 0
M  V30 14902 H 1444.78 -0.988733 -4.98183 0
M  V30 14903 H 1444.71 0.776933 -5.20837 0
M  V30 14904 H 1447.2 0.15519 -3.77581 0
M  V30 14905 H 1447.51 -0.308435 -7.72184 0
M  V30 14906 H 1445.86 -0.270439 -6.94474 0
M  V30 14907 H 1449.05 0.108019 -4.67975 0
M  V30 14908 H 1449.22 -0.10317 -6.47918 0
M  V30 14909 N 1442.63 1.56409 0.193394 0
M  V30 14910 C 1443.87 1.82511 0.920268 0
M  V30 14911 C 1444.23 0.657957 1.80374 0
M  V30 14912 O 1445.43 0.798914 2.56653 0
M  V30 14913 C 1443.7 3.13644 1.71354 0
M  V30 14914 S 1445.26 3.61158 2.4922 0
M  V30 14915 H 1442.08 0.64052 0.308634 0
M  V30 14916 H 1444.68 1.94637 0.183542 0
M  V30 14917 H 1443.38 3.96604 1.05514 0
M  V30 14918 H 1442.92 3.04402 2.49205 0
M  V30 14919 H 1444.93 3.26729 3.73447 0
M  V30 14920 N 1444.1 -0.461169 1.50702 0
M  V30 14921 C 1445.01 -1.58355 1.73092 0
M  V30 14922 C 1446.03 -1.62795 0.61431 0
M  V30 14923 O 1447.21 -1.8048 0.893806 0
M  V30 14924 C 1444.27 -2.94509 1.82936 0
M  V30 14925 C 1443.33 -3.00378 3.06711 0
M  V30 14926 C 1442.56 -4.30037 3.16076 0
M  V30 14927 O 1442.79 -5.21097 2.31978 0
M  V30 14928 O 1441.72 -4.41702 4.08881 0
M  V30 14929 H 1445.55 -1.42384 2.68255 0
M  V30 14930 H 1443.13 -0.641709 1.34916 0
M  V30 14931 H 1445.01 -3.75357 1.91534 0
M  V30 14932 H 1443.69 -3.10658 0.909581 0
M  V30 14933 H 1442.6 -2.18571 3.03608 0
M  V30 14934 H 1443.93 -2.89167 3.983 0
M  V30 14935 N 1445.58 -1.40446 -0.715026 0
M  V30 14936 C 1446.53 -1.37235 -1.82073 0
M  V30 14937 C 1447.52 -0.249808 -1.58949 0
M  V30 14938 O 1448.71 -0.488958 -1.70112 0
M  V30 14939 C 1445.84 -1.23786 -3.20206 0
M  V30 14940 C 1444.92 -2.40824 -3.49091 0
M  V30 14941 N 1445.31 -3.66305 -3.4879 0
M  V30 14942 C 1443.61 -2.34215 -3.79551 0
M  V30 14943 C 1444.31 -4.43817 -3.76034 0
M  V30 14944 N 1443.29 -3.73664 -3.94811 0
M  V30 14945 H 1447.09 -2.32195 -1.80174 0
M  V30 14946 H 1444.6 -1.34226 -0.914175 0
M  V30 14947 H 1446.6 -1.19568 -3.99386 0
M  V30 14948 H 1445.26 -0.297938 -3.2333 0
M  V30 14949 H 1446.27 -3.99458 -3.29626 0
M  V30 14950 H 1442.95 -1.48592 -3.90162 0
M  V30 14951 H 1444.34 -5.52674 -3.82101 0
M  V30 14952 N 1447.06 0.947303 -1.25952 0
M  V30 14953 C 1448.31 1.68945 -1.10915 0
M  V30 14954 C 1448.63 1.91848 0.349216 0
M  V30 14955 O 1447.9 1.5108 1.24706 0
M  V30 14956 H 1446.48 0.626086 -0.407462 0
M  V30 14957 H 1449.14 1.13854 -1.58187 0
M  V30 14958 H 1448.24 2.6657 -1.62317 0
M  V30 14959 N 1448.54 1.07657 1.15099 0
M  V30 14960 C 1449.78 0.802796 1.86234 0
M  V30 14961 C 1450.12 -0.669555 1.82293 0
M  V30 14962 O 1449.39 -1.49162 1.24823 0
M  V30 14963 C 1449.68 1.3156 3.35208 0
M  V30 14964 C 1449.53 2.85272 3.47764 0
M  V30 14965 C 1450.85 0.934641 4.30061 0
M  V30 14966 H 1447.97 0.293099 0.676212 0
M  V30 14967 H 1450.61 1.33488 1.35207 0
M  V30 14968 H 1448.76 0.86298 3.78794 0
M  V30 14969 H 1450.43 3.38847 3.13018 0
M  V30 14970 H 1448.67 3.23316 2.89222 0
M  V30 14971 H 1449.34 3.16223 4.52446 0
M  V30 14972 H 1451.82 1.3247 3.9445 0
M  V30 14973 H 1450.7 1.32074 5.32774 0
M  V30 14974 H 1450.96 -0.159122 4.41814 0
M  V30 14975 N 1450.02 -1.31994 0.861122 0
M  V30 14976 C 1451.27 -1.96294 0.463868 0
M  V30 14977 C 1451.58 -1.68869 -0.98704 0
M  V30 14978 O 1452.78 -2.26959 -1.49003 0
M  V30 14979 C 1451.24 -3.51377 0.77858 0
M  V30 14980 C 1450.85 -3.87653 2.24565 0
M  V30 14981 C 1452.59 -4.22115 0.449365 0
M  V30 14982 C 1450.5 -5.35809 2.50324 0
M  V30 14983 H 1449.43 -0.734647 0.169733 0
M  V30 14984 H 1452.08 -1.50294 1.0528 0
M  V30 14985 H 1450.46 -3.95821 0.119005 0
M  V30 14986 H 1451.64 -3.54197 2.94755 0
M  V30 14987 H 1449.95 -3.29957 2.54003 0
M  V30 14988 H 1452.55 -5.31103 0.61916 0
M  V30 14989 H 1452.89 -4.11814 -0.609528 0
M  V30 14990 H 1453.42 -3.83276 1.06511 0
M  V30 14991 H 1450.16 -5.51138 3.54863 0
M  V30 14992 H 1449.68 -5.70648 1.84719 0
M  V30 14993 H 1451.36 -6.02968 2.34602 0
M  V30 14994 N 1451.49 -0.619688 -1.44906 0
M  V30 14995 C 1452.74 -0.119397 -2.01747 0
M  V30 14996 C 1453.06 1.25904 -1.48907 0
M  V30 14997 O 1452.33 1.83417 -0.688104 0
M  V30 14998 H 1450.91 -0.0411482 -0.745866 0
M  V30 14999 H 1453.58 -0.803813 -1.77552 0
M  V30 15000 H 1452.67 -0.078368 -3.12002 0
M  V30 15001 N 1452.97 1.53444 -0.359552 0
M  V30 15002 C 1454.22 2.00348 0.233109 0
M  V30 15003 C 1454.53 1.25104 1.50361 0
M  V30 15004 O 1455.74 1.62566 2.1745 0
M  V30 15005 C 1454.2 3.56871 0.465951 0
M  V30 15006 C 1453.8 4.40987 -0.789571 0
M  V30 15007 C 1455.55 4.12148 1.0166 0
M  V30 15008 C 1453.46 5.8905 -0.526646 0
M  V30 15009 H 1452.39 0.748502 0.0908851 0
M  V30 15010 H 1455.04 1.77182 -0.47736 0
M  V30 15011 H 1453.42 3.76167 1.23753 0
M  V30 15012 H 1454.59 4.33465 -1.56348 0
M  V30 15013 H 1452.91 3.96784 -1.263 0
M  V30 15014 H 1455.5 5.20395 1.22853 0
M  V30 15015 H 1455.85 3.66364 1.97694 0
M  V30 15016 H 1456.38 3.96626 0.305334 0
M  V30 15017 H 1453.12 6.39099 -1.45715 0
M  V30 15018 H 1452.64 5.99436 0.208875 0
M  V30 15019 H 1454.32 6.46826 -0.149889 0
M  V30 15020 N 1454.45 0.0885642 1.57351 0
M  V30 15021 C 1455.7 -0.57753 1.94403 0
M  V30 15022 C 1456.03 -1.68238 0.970029 0
M  V30 15023 O 1455.3 -1.945 0.00198684 0
M  V30 15024 C 1455.59 -1.13882 3.41618 0
M  V30 15025 C 1455.44 -0.0394686 4.49783 0
M  V30 15026 C 1456.76 -2.03922 3.90005 0
M  V30 15027 H 1453.88 -0.208468 0.706902 0
M  V30 15028 H 1456.52 0.157945 1.89342 0
M  V30 15029 H 1454.67 -1.76561 3.46061 0
M  V30 15030 H 1456.34 0.594458 4.57454 0
M  V30 15031 H 1454.59 0.627775 4.29234 0
M  V30 15032 H 1455.26 -0.472897 5.49971 0
M  V30 15033 H 1457.73 -1.51156 3.87674 0
M  V30 15034 H 1456.61 -2.40123 4.93591 0
M  V30 15035 H 1456.87 -2.95407 3.28918 0
M  V30 15036 N 1455.93 -1.56509 -0.185096 0
M  V30 15037 C 1457.16 -1.85327 -0.91986 0
M  V30 15038 C 1457.57 -0.672294 -1.76425 0
M  V30 15039 O 1456.93 0.358854 -1.78937 0
M  V30 15040 C 1456.98 -3.13047 -1.80787 0
M  V30 15041 O 1456.7 -4.26591 -0.997569 0
M  V30 15042 C 1458.2 -3.55114 -2.65347 0
M  V30 15043 H 1455.42 -0.615196 -0.267909 0
M  V30 15044 H 1457.97 -2.03622 -0.189338 0
M  V30 15045 H 1456.12 -2.96619 -2.4919 0
M  V30 15046 H 1456.53 -4.99384 -1.60362 0
M  V30 15047 H 1458.01 -4.47419 -3.23295 0
M  V30 15048 H 1458.49 -2.78576 -3.39547 0
M  V30 15049 H 1459.09 -3.74105 -2.023 0
M  V30 15050 N 1457.41 0.45317 -1.50944 0
M  V30 15051 C 1458.34 1.56825 -1.65775 0
M  V30 15052 C 1459.32 1.54542 -0.505515 0
M  V30 15053 O 1460.5 1.73902 -0.727336 0
M  V30 15054 C 1457.63 2.95411 -1.65681 0
M  V30 15055 C 1456.67 3.1578 -2.8668 0
M  V30 15056 S 1457.51 2.93763 -4.47731 0
M  V30 15057 C 1458.66 4.34659 -4.50358 0
M  V30 15058 H 1458.9 1.44008 -2.60094 0
M  V30 15059 H 1456.43 0.64177 -1.4043 0
M  V30 15060 H 1458.39 3.75301 -1.66311 0
M  V30 15061 H 1457.05 3.05603 -0.725659 0
M  V30 15062 H 1456.24 4.17066 -2.8297 0
M  V30 15063 H 1455.84 2.4369 -2.8371 0
M  V30 15064 H 1458.14 5.27599 -4.25024 0
M  V30 15065 H 1459.08 4.43408 -5.52082 0
M  V30 15066 H 1459.49 4.17575 -3.79857 0
M  V30 15067 N 1458.88 1.40823 0.707568 0
M  V30 15068 C 1460.13 1.39259 1.46463 0
M  V30 15069 C 1460.45 -0.00157854 1.95 0
M  V30 15070 O 1459.72 -0.957723 1.70893 0
M  V30 15071 H 1458.3 0.512558 0.543409 0
M  V30 15072 H 1460.97 1.75952 0.838269 0
M  V30 15073 H 1460.06 2.07243 2.3336 0
M  V30 15074 N 1460.36 -0.94061 1.26453 0
M  V30 15075 C 1461.61 -1.68354 1.11809 0
M  V30 15076 C 1461.93 -1.9203 -0.339037 0
M  V30 15077 O 1461.2 -1.51739 -1.23903 0
M  V30 15078 H 1459.78 -0.623916 0.410777 0
M  V30 15079 H 1462.44 -1.13014 1.58789 0
M  V30 15080 H 1461.54 -2.65706 1.63728 0
M  V30 15081 N 1461.84 -1.08266 -1.14527 0
M  V30 15082 C 1462.75 -0.723043 -2.2318 0
M  V30 15083 C 1463.77 0.269819 -1.71895 0
M  V30 15084 O 1464.94 0.114126 -2.01076 0
M  V30 15085 C 1462.01 -0.136229 -3.46432 0
M  V30 15086 C 1461.07 -1.18352 -4.12664 0
M  V30 15087 C 1460.3 -0.624612 -5.30032 0
M  V30 15088 O 1460.52 0.556377 -5.6768 0
M  V30 15089 O 1459.46 -1.37397 -5.86008 0
M  V30 15090 H 1463.28 -1.6294 -2.56289 0
M  V30 15091 H 1460.87 -0.856235 -1.22429 0
M  V30 15092 H 1462.75 0.18829 -4.20979 0
M  V30 15093 H 1461.43 0.74331 -3.1505 0
M  V30 15094 H 1460.33 -1.56054 -3.39997 0
M  V30 15095 H 1461.67 -2.03528 -4.48148 0
M  V30 15096 N 1463.32 1.31536 -0.86811 0
M  V30 15097 C 1464.57 1.96386 -0.477176 0
M  V30 15098 C 1464.89 1.68968 0.973381 0
M  V30 15099 O 1464.16 1.00409 1.68211 0
M  V30 15100 H 1462.74 0.726579 -0.173468 0
M  V30 15101 H 1465.4 1.60377 -1.10749 0
M  V30 15102 H 1464.5 3.05606 -0.633376 0
M  V30 15103 N 1464.8 0.627364 1.44575 0
M  V30 15104 C 1466.04 0.130545 2.02379 0
M  V30 15105 C 1466.38 -1.24301 1.49208 0
M  V30 15106 O 1465.65 -1.82425 0.674626 0
M  V30 15107 C 1465.93 0.11311 3.59922 0
M  V30 15108 C 1465.79 1.51874 4.23385 0
M  V30 15109 C 1467.11 -0.564341 4.36467 0
M  V30 15110 H 1464.23 0.0489125 0.735375 0
M  V30 15111 H 1466.87 0.803118 1.72192 0
M  V30 15112 H 1465.02 -0.459621 3.85772 0
M  V30 15113 H 1466.69 2.14007 4.08655 0
M  V30 15114 H 1464.93 2.07371 3.81024 0
M  V30 15115 H 1465.6 1.4586 5.3238 0
M  V30 15116 H 1468.08 -0.0773244 4.16028 0
M  V30 15117 H 1466.96 -0.545715 5.46181 0
M  V30 15118 H 1467.22 -1.63403 4.10794 0
M  V30 15119 N 1466.28 -1.53251 0.367684 0
M  V30 15120 C 1467.52 -2.01585 -0.221679 0
M  V30 15121 C 1467.85 -1.25444 -1.48248 0
M  V30 15122 O 1467.13 -0.348726 -1.91348 0
M  V30 15123 C 1467.41 -3.56449 -0.511507 0
M  V30 15124 C 1467.27 -4.4328 0.763075 0
M  V30 15125 C 1468.58 -4.20113 -1.31121 0
M  V30 15126 H 1465.7 -0.732743 -0.0790954 0
M  V30 15127 H 1468.35 -1.83493 0.492991 0
M  V30 15128 H 1466.5 -3.71996 -1.12033 0
M  V30 15129 H 1468.17 -4.39526 1.40052 0
M  V30 15130 H 1466.41 -4.11164 1.38299 0
M  V30 15131 H 1467.08 -5.4959 0.515215 0
M  V30 15132 H 1469.56 -4.08412 -0.796169 0
M  V30 15133 H 1468.43 -5.28494 -1.48274 0
M  V30 15134 H 1468.69 -3.76316 -2.32032 0
M  V30 15135 N 1467.75 -0.0969077 -1.57302 0
M  V30 15136 C 1469 0.565254 -1.94034 0
M  V30 15137 C 1469.32 1.68609 -0.9796 0
M  V30 15138 O 1468.59 1.95874 -0.0319788 0
M  V30 15139 H 1467.17 0.211796 -0.716346 0
M  V30 15140 H 1469.83 -0.160665 -1.94237 0
M  V30 15141 H 1468.93 0.974268 -2.96504 0
M  V30 15142 N 1469.23 1.56605 0.176793 0
M  V30 15143 C 1470.48 1.81682 0.894302 0
M  V30 15144 C 1470.81 0.67311 1.82481 0
M  V30 15145 O 1470.06 -0.339995 1.92724 0
M  V30 15146 C 1470.36 3.12888 1.7273 0
M  V30 15147 C 1470.03 4.40861 0.946186 0
M  V30 15148 C 1468.69 4.75622 0.730586 0
M  V30 15149 C 1471.04 5.19679 0.397889 0
M  V30 15150 C 1468.37 5.86683 -0.0444995 0
M  V30 15151 C 1470.72 6.31551 -0.36408 0
M  V30 15152 C 1469.38 6.64883 -0.59053 0
M  V30 15153 H 1468.65 0.664823 0.327248 0
M  V30 15154 H 1471.3 1.90834 0.159555 0
M  V30 15155 H 1469.61 2.99055 2.53128 0
M  V30 15156 H 1471.3 3.295 2.2854 0
M  V30 15157 H 1467.89 4.13592 1.12426 0
M  V30 15158 H 1472.08 4.93223 0.55181 0
M  V30 15159 H 1467.33 6.10968 -0.229739 0
M  V30 15160 H 1471.51 6.91833 -0.796223 0
M  V30 15161 H 1469.13 7.50781 -1.19301 0
M  V30 15162 N 1470.71 -0.445159 1.51182 0
M  V30 15163 C 1471.67 -1.52224 1.71349 0
M  V30 15164 C 1472.67 -1.49834 0.583632 0
M  V30 15165 O 1473.86 -1.51995 0.85107 0
M  V30 15166 C 1470.99 -2.91789 1.76273 0
M  V30 15167 H 1472.19 -1.35649 2.67468 0
M  V30 15168 H 1469.74 -0.673312 1.41054 0
M  V30 15169 H 1470.48 -3.13777 0.819405 0
M  V30 15170 H 1470.26 -2.94928 2.58379 0
M  V30 15171 H 1471.75 -3.69938 1.93741 0
M  V30 15172 N 1472.19 -1.41197 -0.700089 0
M  V30 15173 C 1473.46 -1.30803 -1.4543 0
M  V30 15174 C 1473.84 0.0664987 -2.10995 0
M  V30 15175 O 1473.19 1.08043 -2.01343 0
M  V30 15176 C 1473.4 -2.45815 -2.47742 0
M  V30 15177 C 1474.75 -2.86771 -3.13126 0
M  V30 15178 O 1475.77 -2.45521 -2.58065 0
M  V30 15179 O 1474.63 -3.58086 -4.1284 0
M  V30 15180 H 1471.73 -0.514523 -0.647453 0
M  V30 15181 H 1474.27 -1.53151 -0.73095 0
M  V30 15182 H 1473.05 -3.37557 -1.97917 0
M  V30 15183 H 1472.67 -2.25319 -3.27593 0
M  V30 15184 N 1473.67 0.933891 -1.2695 0
M  V30 15185 C 1474.91 1.6834 -1.13091 0
M  V30 15186 C 1475.24 1.91484 0.32367 0
M  V30 15187 O 1474.52 1.50075 1.23724 0
M  V30 15188 C 1474.8 3.05374 -1.90838 0
M  V30 15189 C 1474.66 2.8951 -3.44244 0
M  V30 15190 C 1475.97 4.05607 -1.70795 0
M  V30 15191 H 1473.09 0.610944 -0.41221 0
M  V30 15192 H 1475.74 1.08416 -1.56032 0
M  V30 15193 H 1473.89 3.56526 -1.54343 0
M  V30 15194 H 1475.56 2.45523 -3.90533 0
M  V30 15195 H 1473.8 2.24981 -3.70899 0
M  V30 15196 H 1474.47 3.86734 -3.93879 0
M  V30 15197 H 1476.95 3.63443 -2.02604 0
M  V30 15198 H 1475.82 4.9949 -2.27597 0
M  V30 15199 H 1476.08 4.37231 -0.654327 0
M  V30 15200 N 1475.14 1.08871 1.13951 0
M  V30 15201 C 1476.56 0.817282 1.37086 0
M  V30 15202 C 1476.76 -0.571159 1.93236 0
M  V30 15203 O 1475.82 -1.32708 2.14813 0
M  V30 15204 C 1477.13 1.90386 2.32752 0
M  V30 15205 C 1478.68 1.93043 2.46381 0
M  V30 15206 C 1479.15 3.00828 3.4535 0
M  V30 15207 N 1480.64 3.0003 3.52897 0
M  V30 15208 C 1481.38 3.80073 4.29339 0
M  V30 15209 N 1480.87 4.70008 5.08984 0
M  V30 15210 N 1482.67 3.68355 4.24583 0
M  V30 15211 H 1474.82 1.98393 0.758537 0
M  V30 15212 H 1477.08 0.861229 0.396219 0
M  V30 15213 H 1476.79 2.90233 1.9864 0
M  V30 15214 H 1476.66 1.77722 3.32708 0
M  V30 15215 H 1479.05 0.938382 2.79783 0
M  V30 15216 H 1479.13 2.09785 1.4637 0
M  V30 15217 H 1478.77 4.00242 3.1268 0
M  V30 15218 H 1478.7 2.8133 4.45153 0
M  V30 15219 H 1481.19 2.3485 2.96064 0
M  V30 15220 H 1481.51 5.27678 5.64602 0
M  V30 15221 H 1479.85 4.74047 5.08236 0
M  V30 15222 H 1483.04 2.9746 3.61435 0
M  V30 15223 H 1483.22 4.30974 4.83906 0
M  V30 15224 N 1476.62 -1.31073 0.875073 0
M  V30 15225 C 1477.9 -1.91276 0.409015 0
M  V30 15226 C 1478.28 -1.79599 -1.10939 0
M  V30 15227 O 1477.63 -1.2069 -1.94026 0
M  V30 15228 C 1477.84 -3.373 0.896074 0
M  V30 15229 C 1479.18 -4.14397 0.925205 0
M  V30 15230 O 1480.21 -3.46104 0.842069 0
M  V30 15231 O 1479.07 -5.36389 1.0464 0
M  V30 15232 H 1476.16 -0.817755 0.12331 0
M  V30 15233 H 1478.71 -1.39708 0.963322 0
M  V30 15234 H 1477.48 -3.39837 1.93975 0
M  V30 15235 H 1477.1 -3.96307 0.320367 0
M  V30 15236 N 1478.1 -0.635022 -1.4424 0
M  V30 15237 C 1479.03 0.0543561 -2.33437 0
M  V30 15238 C 1480.01 0.830807 -1.48431 0
M  V30 15239 O 1481.2 0.795913 -1.77141 0
M  V30 15240 C 1478.33 1.03391 -3.31553 0
M  V30 15241 C 1477.28 0.368824 -4.26408 0
M  V30 15242 C 1476.61 1.45855 -5.14422 0
M  V30 15243 C 1477.91 -0.727381 -5.1721 0
M  V30 15244 H 1479.6 -0.690489 -2.91329 0
M  V30 15245 H 1477.15 -0.3335 -1.40085 0
M  V30 15246 H 1479.1 1.52495 -3.9284 0
M  V30 15247 H 1477.82 1.80969 -2.71878 0
M  V30 15248 H 1476.48 -0.101605 -3.66459 0
M  V30 15249 H 1476.13 2.22531 -4.51098 0
M  V30 15250 H 1475.83 1.0189 -5.78699 0
M  V30 15251 H 1477.35 1.95132 -5.78581 0
M  V30 15252 H 1478.77 -0.319272 -5.7241 0
M  V30 15253 H 1477.17 -1.09041 -5.9011 0
M  V30 15254 H 1478.24 -1.59292 -4.57989 0
M  V30 15255 N 1479.58 1.53054 -0.375806 0
M  V30 15256 C 1480.51 2.28973 0.45754 0
M  V30 15257 C 1481.49 1.31812 1.07516 0
M  V30 15258 O 1482.67 1.60693 1.09048 0
M  V30 15259 C 1479.8 3.08657 1.59212 0
M  V30 15260 C 1478.76 4.1359 1.10123 0
M  V30 15261 C 1478.08 4.81417 2.32684 0
M  V30 15262 C 1479.38 5.21994 0.17872 0
M  V30 15263 H 1481.08 2.98883 -0.175872 0
M  V30 15264 H 1478.62 1.43743 -0.0860253 0
M  V30 15265 H 1480.58 3.6052 2.18182 0
M  V30 15266 H 1479.3 2.36456 2.25291 0
M  V30 15267 H 1477.96 3.62688 0.534151 0
M  V30 15268 H 1477.61 4.05778 2.97243 0
M  V30 15269 H 1477.31 5.52332 2.00506 0
M  V30 15270 H 1478.83 5.36079 2.92322 0
M  V30 15271 H 1480.25 5.69298 0.676204 0
M  V30 15272 H 1478.64 6.00077 -0.0526605 0
M  V30 15273 H 1479.71 4.78646 -0.776246 0
M  V30 15274 N 1481.06 0.105248 1.57248 0
M  V30 15275 C 1482.3 -0.550698 1.95803 0
M  V30 15276 C 1482.66 -1.65159 0.986933 0
M  V30 15277 O 1481.95 -1.91594 0.0146152 0
M  V30 15278 C 1482.14 -1.14178 3.38671 0
M  V30 15279 C 1481.97 -0.0996826 4.4959 0
M  V30 15280 C 1480.74 0.327365 5.04238 0
M  V30 15281 C 1482.94 0.676048 5.09837 0
M  V30 15282 N 1480.92 1.35667 5.98722 0
M  V30 15283 C 1482.29 1.55691 6.00134 0
M  V30 15284 C 1484.35 0.728451 4.92542 0
M  V30 15285 C 1483.05 2.48559 6.7499 0
M  V30 15286 C 1485.08 1.64478 5.68068 0
M  V30 15287 C 1484.44 2.51324 6.58039 0
M  V30 15288 H 1480.54 -0.171547 0.762952 0
M  V30 15289 H 1483.12 0.190175 1.93769 0
M  V30 15290 H 1481.29 -1.85243 3.41379 0
M  V30 15291 H 1483.03 -1.76092 3.64381 0
M  V30 15292 H 1479.78 -0.0623632 4.73559 0
M  V30 15293 H 1480.21 1.86983 6.50666 0
M  V30 15294 H 1484.85 0.0711612 4.2274 0
M  V30 15295 H 1482.57 3.15308 7.44047 0
M  V30 15296 H 1486.15 1.69059 5.56696 0
M  V30 15297 H 1485.03 3.21077 7.15457 0
M  V30 15298 N 1482.53 -1.56697 -0.168486 0
M  V30 15299 C 1483.46 -1.99659 -1.21073 0
M  V30 15300 C 1484.45 -0.872625 -1.46011 0
M  V30 15301 O 1485.63 -1.13891 -1.57297 0
M  V30 15302 C 1482.76 -2.35889 -2.54899 0
M  V30 15303 C 1481.71 -3.51272 -2.44524 0
M  V30 15304 C 1481.04 -3.73253 -3.82866 0
M  V30 15305 C 1482.34 -4.84631 -1.94756 0
M  V30 15306 H 1484.03 -2.86974 -0.853593 0
M  V30 15307 H 1481.58 -1.38065 -0.409165 0
M  V30 15308 H 1483.53 -2.64542 -3.28017 0
M  V30 15309 H 1482.26 -1.45486 -2.92406 0
M  V30 15310 H 1480.92 -3.22751 -1.7386 0
M  V30 15311 H 1480.56 -2.80136 -4.17772 0
M  V30 15312 H 1480.26 -4.5089 -3.76792 0
M  V30 15313 H 1481.79 -4.04309 -4.57566 0
M  V30 15314 H 1483.2 -5.12142 -2.5765 0
M  V30 15315 H 1481.6 -5.65925 -1.99623 0
M  V30 15316 H 1482.67 -4.76436 -0.902021 0
M  V30 15317 N 1484.01 0.437135 -1.51416 0
M  V30 15318 C 1484.92 1.55581 -1.75589 0
M  V30 15319 C 1485.94 1.61797 -0.640132 0
M  V30 15320 O 1487.11 1.79035 -0.922406 0
M  V30 15321 C 1484.18 2.91561 -1.87598 0
M  V30 15322 C 1483.24 2.9546 -3.11451 0
M  V30 15323 C 1482.47 4.24954 -3.22878 0
M  V30 15324 O 1482.7 5.17341 -2.40238 0
M  V30 15325 O 1481.63 4.35141 -4.15856 0
M  V30 15326 H 1485.46 1.38098 -2.70486 0
M  V30 15327 H 1483.04 0.620163 -1.3592 0
M  V30 15328 H 1484.92 3.72262 -1.97481 0
M  V30 15329 H 1483.6 3.09171 -0.958889 0
M  V30 15330 H 1482.51 2.13713 -3.07046 0
M  V30 15331 H 1483.84 2.82794 -4.0285 0
M  V30 15332 N 1485.49 1.41566 0.692592 0
M  V30 15333 C 1486.77 1.31572 1.44735 0
M  V30 15334 C 1487.15 -0.0553081 2.11028 0
M  V30 15335 O 1486.5 -1.06974 2.01913 0
M  V30 15336 C 1486.71 2.47125 2.46435 0
M  V30 15337 C 1488.05 2.88427 3.11601 0
M  V30 15338 O 1489.08 2.46886 2.5676 0
M  V30 15339 O 1487.94 3.6027 4.10935 0
M  V30 15340 H 1485.03 0.517949 0.644715 0
M  V30 15341 H 1487.58 1.53536 0.722818 0
M  V30 15342 H 1486.35 3.38601 1.96124 0
M  V30 15343 H 1485.97 2.27054 3.26393 0
M  V30 15344 N 1486.97 -0.927146 1.27443 0
M  V30 15345 C 1488.25 -1.65322 1.04538 0
M  V30 15346 C 1488.63 -2.06886 -0.419694 0
M  V30 15347 O 1487.97 -1.80352 -1.40304 0
M  V30 15348 C 1488.18 -2.85486 2.00746 0
M  V30 15349 C 1489.53 -3.56816 2.30147 0
M  V30 15350 O 1490.56 -2.95613 1.98724 0
M  V30 15351 O 1489.41 -4.67085 2.83714 0
M  V30 15352 H 1486.51 -0.724627 0.398554 0
M  V30 15353 H 1489.05 -0.977633 1.3871 0
M  V30 15354 H 1487.83 -2.51766 2.99549 0
M  V30 15355 H 1487.45 -3.60763 1.67139 0
M  V30 15356 N 1488.45 -1.09474 -1.13372 0
M  V30 15357 C 1489.41 -0.738173 -2.16988 0
M  V30 15358 C 1490.41 0.232488 -1.5911 0
M  V30 15359 O 1491.6 0.0106093 -1.74197 0
M  V30 15360 C 1488.73 -0.091724 -3.40777 0
M  V30 15361 H 1489.92 -1.65582 -2.50045 0
M  V30 15362 H 1487.48 -0.893994 -1.28209 0
M  V30 15363 H 1488.21 0.837129 -3.13309 0
M  V30 15364 H 1488 -0.790161 -3.84056 0
M  V30 15365 H 1489.49 0.142334 -4.17357 0
M  V30 15366 N 1489.92 1.30607 -0.882012 0
M  V30 15367 C 1490.86 2.26334 -0.291222 0
M  V30 15368 C 1491.84 1.51653 0.586522 0
M  V30 15369 O 1493.02 1.80681 0.537275 0
M  V30 15370 C 1490.15 3.33584 0.586482 0
M  V30 15371 C 1489.19 4.25924 -0.221535 0
M  V30 15372 S 1490.03 5.10791 -1.6079 0
M  V30 15373 C 1491.18 6.2155 -0.736638 0
M  V30 15374 H 1491.41 2.76096 -1.10265 0
M  V30 15375 H 1488.95 1.38558 -0.681255 0
M  V30 15376 H 1490.91 3.95842 1.08715 0
M  V30 15377 H 1489.57 2.82552 1.37198 0
M  V30 15378 H 1488.76 5.02004 0.448139 0
M  V30 15379 H 1488.36 3.68225 -0.654722 0
M  V30 15380 H 1490.65 6.77483 0.0476549 0
M  V30 15381 H 1491.6 6.92696 -1.46894 0
M  V30 15382 H 1492 5.63708 -0.298853 0
M  V30 15383 N 1491.4 0.642663 1.43901 0
M  V30 15384 C 1492.31 -0.0562462 2.34533 0
M  V30 15385 C 1493.33 -0.823457 1.53281 0
M  V30 15386 O 1494.5 -0.773103 1.85971 0
M  V30 15387 C 1491.57 -1.01787 3.31422 0
M  V30 15388 C 1490.63 -0.248759 4.28579 0
M  V30 15389 C 1489.86 -1.16458 5.20839 0
M  V30 15390 O 1490.09 -2.40361 5.17284 0
M  V30 15391 O 1489.02 -0.642671 5.98459 0
M  V30 15392 H 1492.85 0.689476 2.9577 0
M  V30 15393 H 1490.43 0.402847 1.43866 0
M  V30 15394 H 1492.31 -1.5708 3.91029 0
M  V30 15395 H 1490.99 -1.744 2.72702 0
M  V30 15396 H 1489.9 0.347495 3.72483 0
M  V30 15397 H 1491.23 0.437589 4.90251 0
M  V30 15398 N 1492.88 -1.52852 0.383918 0
M  V30 15399 C 1493.81 -2.23927 -0.488816 0
M  V30 15400 C 1494.83 -1.2598 -1.03115 0
M  V30 15401 O 1496.02 -1.5209 -0.934398 0
M  V30 15402 C 1493.12 -2.9378 -1.68957 0
M  V30 15403 C 1492.29 -4.18388 -1.27555 0
M  V30 15404 C 1491.35 -4.71287 -2.3404 0
M  V30 15405 O 1490.37 -5.34511 -1.9567 0
M  V30 15406 N 1491.58 -4.50679 -3.65881 0
M  V30 15407 H 1494.34 -2.99459 0.120084 0
M  V30 15408 H 1491.9 -1.60532 0.210004 0
M  V30 15409 H 1493.89 -3.26071 -2.39707 0
M  V30 15410 H 1492.46 -2.21588 -2.20493 0
M  V30 15411 H 1491.68 -3.92194 -0.397157 0
M  V30 15412 H 1492.97 -4.99361 -0.975506 0
M  V30 15413 H 1492.37 -4.00201 -3.9982 0
M  V30 15414 H 1490.93 -4.87473 -4.32681 0
M  V30 15415 N 1494.36 -0.113586 -1.5719 0
M  V30 15416 C 1495.61 0.544642 -1.94623 0
M  V30 15417 C 1495.93 1.6756 -0.997428 0
M  V30 15418 O 1495.2 1.95829 -0.0527521 0
M  V30 15419 H 1493.78 0.204186 -0.718552 0
M  V30 15420 H 1496.44 -0.181258 -1.94055 0
M  V30 15421 H 1495.54 0.942765 -2.9752 0
M  V30 15422 N 1495.84 1.56784 0.160173 0
M  V30 15423 C 1497.08 1.82891 0.876278 0
M  V30 15424 C 1497.42 0.693173 1.81408 0
M  V30 15425 O 1496.69 -0.304136 1.92107 0
M  V30 15426 C 1496.97 3.19439 1.66226 0
M  V30 15427 C 1496.83 4.43557 0.746831 0
M  V30 15428 C 1498.15 3.53053 2.62758 0
M  V30 15429 H 1495.27 0.665285 0.31712 0
M  V30 15430 H 1497.91 1.89469 0.142004 0
M  V30 15431 H 1496.06 3.13962 2.28823 0
M  V30 15432 H 1497.73 4.61109 0.132876 0
M  V30 15433 H 1495.97 4.33764 0.0555625 0
M  V30 15434 H 1496.64 5.35675 1.33253 0
M  V30 15435 H 1499.12 3.59054 2.10284 0
M  V30 15436 H 1498 4.4965 3.14811 0
M  V30 15437 H 1498.26 2.78329 3.4349 0
M  V30 15438 N 1497.32 -0.429099 1.51646 0
M  V30 15439 C 1498.26 -1.52143 1.73554 0
M  V30 15440 C 1499.23 -1.55741 0.577416 0
M  V30 15441 O 1500.42 -1.72623 0.812768 0
M  V30 15442 C 1497.56 -2.89785 1.874 0
M  V30 15443 C 1496.67 -2.95652 3.14982 0
M  V30 15444 C 1495.81 -4.24468 3.19375 0
M  V30 15445 C 1494.84 -4.24234 4.41239 0
M  V30 15446 N 1493.98 -5.44587 4.43135 0
M  V30 15447 H 1498.82 -1.32764 2.66791 0
M  V30 15448 H 1496.36 -0.6448 1.32215 0
M  V30 15449 H 1498.32 -3.6966 1.9341 0
M  V30 15450 H 1496.95 -3.07703 0.975638 0
M  V30 15451 H 1496 -2.0839 3.18242 0
M  V30 15452 H 1497.31 -2.91342 4.04872 0
M  V30 15453 H 1496.46 -5.12722 3.24347 0
M  V30 15454 H 1495.2 -4.31446 2.27389 0
M  V30 15455 H 1494.21 -3.34371 4.36435 0
M  V30 15456 H 1495.43 -4.18913 5.34499 0
M  V30 15457 H 1493.38 -5.52271 3.54023 0
M  V30 15458 H 1493.3 -5.42191 5.26845 0
M  V30 15459 H 1494.56 -6.34851 4.5231 0
M  V30 15460 N 1498.79 -1.41931 -0.685074 0
M  V30 15461 C 1500.07 -1.32338 -1.44035 0
M  V30 15462 C 1500.45 0.0441161 -2.11054 0
M  V30 15463 O 1499.8 1.05901 -2.02478 0
M  V30 15464 C 1500.01 -2.48429 -2.45121 0
M  V30 15465 C 1501.36 -2.90076 -3.10067 0
M  V30 15466 O 1502.38 -2.48245 -2.55447 0
M  V30 15467 O 1501.24 -3.62445 -4.09019 0
M  V30 15468 H 1498.33 -0.521361 -0.641959 0
M  V30 15469 H 1500.88 -1.53918 -0.714666 0
M  V30 15470 H 1499.65 -3.39637 -1.94326 0
M  V30 15471 H 1499.27 -2.28781 -3.25184 0
M  V30 15472 N 1500.27 0.920374 -1.27933 0
M  V30 15473 C 1501.5 1.70028 -1.17363 0
M  V30 15474 C 1501.91 1.87246 0.271214 0
M  V30 15475 O 1501.25 1.39449 1.19581 0
M  V30 15476 C 1501.31 3.11595 -1.79301 0
M  V30 15477 C 1500.98 3.17687 -3.28518 0
M  V30 15478 C 1501.98 2.99383 -4.25048 0
M  V30 15479 C 1499.66 3.40412 -3.69357 0
M  V30 15480 C 1501.65 3.03704 -5.60395 0
M  V30 15481 C 1499.34 3.44367 -5.04832 0
M  V30 15482 C 1500.34 3.26032 -6.0016 0
M  V30 15483 O 1500.03 3.29735 -7.33164 0
M  V30 15484 H 1499.76 0.538497 -0.408652 0
M  V30 15485 H 1502.31 1.16086 -1.6945 0
M  V30 15486 H 1500.54 3.6705 -1.217 0
M  V30 15487 H 1502.23 3.71584 -1.63341 0
M  V30 15488 H 1503 2.8166 -3.94833 0
M  V30 15489 H 1498.88 3.53731 -2.95627 0
M  V30 15490 H 1502.42 2.89312 -6.34779 0
M  V30 15491 H 1498.32 3.61616 -5.347 0
M  V30 15492 H 1499.09 3.46141 -7.41707 0
M  V30 15493 N 1501.75 1.10074 1.1279 0
M  V30 15494 C 1503 0.842118 1.84489 0
M  V30 15495 C 1503.33 -0.630737 1.83672 0
M  V30 15496 O 1502.6 -1.46481 1.27959 0
M  V30 15497 C 1502.89 1.3864 3.32342 0
M  V30 15498 C 1502.74 2.92585 3.41635 0
M  V30 15499 C 1504.06 1.02565 4.27982 0
M  V30 15500 H 1501.18 0.307376 0.669842 0
M  V30 15501 H 1503.82 1.36326 1.32345 0
M  V30 15502 H 1501.97 0.943134 3.76878 0
M  V30 15503 H 1503.64 3.4541 3.0576 0
M  V30 15504 H 1501.88 3.29378 2.82299 0
M  V30 15505 H 1502.56 3.25749 4.45636 0
M  V30 15506 H 1505.03 1.40807 3.91552 0
M  V30 15507 H 1503.91 1.43345 5.29852 0
M  V30 15508 H 1504.17 -0.0653712 4.42052 0
M  V30 15509 N 1503.23 -1.30138 0.888926 0
M  V30 15510 C 1504.14 -2.31778 0.3628 0
M  V30 15511 C 1505.15 -1.65507 -0.53698 0
M  V30 15512 O 1506.33 -1.96775 -0.429152 0
M  V30 15513 C 1503.39 -3.44259 -0.410673 0
M  V30 15514 C 1502.46 -4.26147 0.519334 0
M  V30 15515 C 1501.69 -5.33257 -0.21732 0
M  V30 15516 O 1501.91 -5.5185 -1.44284 0
M  V30 15517 O 1500.85 -6.00329 0.43461 0
M  V30 15518 H 1504.67 -2.78739 1.20575 0
M  V30 15519 H 1502.26 -1.34379 0.65289 0
M  V30 15520 H 1504.14 -4.1277 -0.848467 0
M  V30 15521 H 1502.81 -2.99426 -1.22986 0
M  V30 15522 H 1501.72 -3.60319 1.00602 0
M  V30 15523 H 1503.05 -4.74595 1.30464 0
M  V30 15524 N 1504.71 -0.650285 -1.43559 0
M  V30 15525 C 1505.64 0.0817484 -2.29054 0
M  V30 15526 C 1506.65 0.790023 -1.42346 0
M  V30 15527 O 1507.84 0.648269 -1.66312 0
M  V30 15528 C 1504.94 1.13873 -3.19196 0
M  V30 15529 C 1504.11 0.509177 -4.34426 0
M  V30 15530 C 1503.17 1.46265 -5.05463 0
M  V30 15531 O 1502.2 0.972378 -5.60833 0
M  V30 15532 N 1503.4 2.79668 -5.08691 0
M  V30 15533 H 1506.16 -0.652062 -2.92521 0
M  V30 15534 H 1503.73 -0.49285 -1.54216 0
M  V30 15535 H 1505.72 1.77732 -3.63584 0
M  V30 15536 H 1504.29 1.77454 -2.5735 0
M  V30 15537 H 1503.51 -0.308444 -3.92991 0
M  V30 15538 H 1504.8 0.0695732 -5.08752 0
M  V30 15539 H 1504.19 3.22062 -4.65072 0
M  V30 15540 H 1502.75 3.38838 -5.56805 0
M  V30 15541 N 1506.18 1.52647 -0.392018 0
M  V30 15542 C 1507.11 2.29446 0.433228 0
M  V30 15543 C 1508.09 1.32945 1.06111 0
M  V30 15544 O 1509.28 1.61841 1.07337 0
M  V30 15545 C 1506.41 3.10328 1.55929 0
M  V30 15546 C 1505.36 4.14735 1.05731 0
M  V30 15547 C 1504.69 4.83858 2.27565 0
M  V30 15548 C 1505.99 5.22154 0.123346 0
M  V30 15549 H 1507.68 2.9868 -0.207563 0
M  V30 15550 H 1505.23 1.43643 -0.101266 0
M  V30 15551 H 1507.18 3.62814 2.14346 0
M  V30 15552 H 1505.91 2.38832 2.22771 0
M  V30 15553 H 1504.57 3.63234 0.495653 0
M  V30 15554 H 1504.21 4.08907 2.92923 0
M  V30 15555 H 1503.91 5.54428 1.94637 0
M  V30 15556 H 1505.44 5.39149 2.86619 0
M  V30 15557 H 1506.85 5.69983 0.615784 0
M  V30 15558 H 1505.25 5.99987 -0.116304 0
M  V30 15559 H 1506.32 4.77796 -0.826969 0
M  V30 15560 N 1507.66 0.121921 1.57128 0
M  V30 15561 C 1508.91 -0.534313 1.94909 0
M  V30 15562 C 1509.23 -1.67029 1.0063 0
M  V30 15563 O 1508.5 -1.95798 0.0631366 0
M  V30 15564 H 1507.08 -0.200372 0.719625 0
M  V30 15565 H 1509.74 0.191546 1.93956 0
M  V30 15566 H 1508.84 -0.926974 2.98016 0
M  V30 15567 N 1509.14 -1.56867 -0.151857 0
M  V30 15568 C 1510.09 -1.98842 -1.20685 0
M  V30 15569 C 1511.08 -0.88007 -1.44745 0
M  V30 15570 O 1512.29 -1.06524 -1.45095 0
M  V30 15571 H 1508.66 -0.632904 -0.406123 0
M  V30 15572 H 1510.63 -2.86737 -0.826095 0
M  V30 15573 C 1509.38 -2.38095 -2.53389 0
M  V30 15574 H 1508.71 -3.2293 -2.35703 0
M  V30 15575 H 1510.15 -2.71292 -3.25847 0
M  V30 15576 C 1508.61 -1.23175 -3.13575 0
M  V30 15577 O 1509.14 -0.529864 -3.9819 0
M  V30 15578 N 1507.34 -0.997255 -2.72953 0
M  V30 15579 H 1506.89 -1.56979 -2.04243 0
M  V30 15580 H 1506.85 -0.23022 -3.13556 0
M  V30 15581 N 1510.62 0.421051 -1.51871 0
M  V30 15582 C 1511.58 1.49478 -1.73749 0
M  V30 15583 C 1512.58 1.48887 -0.607395 0
M  V30 15584 O 1513.77 1.50622 -0.875143 0
M  V30 15585 C 1510.9 2.88947 -1.80893 0
M  V30 15586 H 1512.1 1.31377 -2.69593 0
M  V30 15587 H 1509.65 0.650786 -1.42107 0
M  V30 15588 H 1510.38 3.12434 -0.86922 0
M  V30 15589 H 1510.17 2.90781 -2.63038 0
M  V30 15590 H 1511.66 3.66809 -1.99602 0
M  V30 15591 N 1512.1 1.42293 0.677538 0
M  V30 15592 C 1513.34 1.42616 1.4376 0
M  V30 15593 C 1513.67 0.0416268 1.94455 0
M  V30 15594 O 1512.93 -0.949544 1.7112 0
M  V30 15595 C 1513.23 2.3951 2.65273 0
M  V30 15596 C 1512.89 3.85952 2.33135 0
M  V30 15597 C 1511.55 4.25842 2.24081 0
M  V30 15598 C 1513.91 4.78337 2.06987 0
M  V30 15599 C 1511.23 5.561 1.87001 0
M  V30 15600 C 1513.59 6.08934 1.71411 0
M  V30 15601 C 1512.25 6.47826 1.60865 0
M  V30 15602 H 1511.52 0.521869 0.526055 0
M  V30 15603 H 1514.17 1.75214 0.772797 0
M  V30 15604 H 1512.47 2.00229 3.36773 0
M  V30 15605 H 1514.17 2.37025 3.2345 0
M  V30 15606 H 1510.76 3.54369 2.41083 0
M  V30 15607 H 1514.94 4.48308 2.12916 0
M  V30 15608 H 1510.2 5.85097 1.77403 0
M  V30 15609 H 1514.37 6.80009 1.50203 0
M  V30 15610 H 1512 7.48669 1.31902 0
M  V30 15611 N 1513.57 -0.913576 1.28419 0
M  V30 15612 C 1514.82 -1.65944 1.15355 0
M  V30 15613 C 1515.14 -1.92706 -0.298228 0
M  V30 15614 O 1514.41 -1.54333 -1.20657 0
M  V30 15615 H 1512.99 -0.615063 0.423919 0
M  V30 15616 H 1515.66 -1.0962 1.6115 0
M  V30 15617 H 1514.75 -2.62173 1.69327 0
M  V30 15618 N 1515.05 -1.1067 -1.12204 0
M  V30 15619 C 1516.28 -0.873095 -1.88127 0
M  V30 15620 C 1516.7 0.571099 -1.79221 0
M  V30 15621 O 1516.06 1.40251 -1.14888 0
M  V30 15622 C 1516.11 -1.32922 -3.35208 0
M  V30 15623 O 1515.21 -0.495807 -4.09409 0
M  V30 15624 H 1514.55 -0.315138 -0.584452 0
M  V30 15625 H 1517.08 -1.47413 -1.41882 0
M  V30 15626 H 1517.09 -1.32023 -3.86049 0
M  V30 15627 H 1515.77 -2.38091 -3.41007 0
M  V30 15628 H 1514.35 -0.570216 -3.68515 0
M  V30 15629 N 1516.53 1.29665 -0.895815 0
M  V30 15630 C 1517.78 1.9533 -0.518725 0
M  V30 15631 C 1518.1 1.70995 0.937322 0
M  V30 15632 O 1517.37 1.03955 1.66043 0
M  V30 15633 H 1515.95 0.722736 -0.188841 0
M  V30 15634 H 1518.61 1.57991 -1.14126 0
M  V30 15635 H 1517.71 3.04193 -0.698057 0
M  V30 15636 N 1518.01 0.657889 1.43212 0
M  V30 15637 C 1519.26 0.173187 2.01758 0
M  V30 15638 C 1519.58 -1.21447 1.51924 0
M  V30 15639 O 1518.84 -1.82568 0.704807 0
M  V30 15640 C 1519.14 0.138025 3.57133 0
M  V30 15641 C 1518.8 1.46806 4.26332 0
M  V30 15642 C 1517.47 1.83227 4.44951 0
M  V30 15643 C 1519.82 2.34476 4.65478 0
M  V30 15644 C 1517.15 3.06975 4.99983 0
M  V30 15645 C 1519.5 3.57521 5.21883 0
M  V30 15646 C 1518.16 3.94132 5.38717 0
M  V30 15647 H 1517.43 0.0633735 0.738285 0
M  V30 15648 H 1520.08 0.849524 1.71626 0
M  V30 15649 H 1518.38 -0.621776 3.86835 0
M  V30 15650 H 1520.08 -0.253948 4.00195 0
M  V30 15651 H 1516.67 1.17469 4.12188 0
M  V30 15652 H 1520.85 2.07628 4.50782 0
M  V30 15653 H 1516.11 3.35383 5.11202 0
M  V30 15654 H 1520.28 4.25669 5.51161 0
M  V30 15655 H 1517.91 4.901 5.81125 0
M  V30 15656 N 1519.49 -1.52437 0.400108 0
M  V30 15657 C 1520.71 -2.0613 -0.178364 0
M  V30 15658 C 1521.13 -1.27094 -1.39616 0
M  V30 15659 O 1520.49 -0.320409 -1.79665 0
M  V30 15660 C 1520.54 -3.57478 -0.53777 0
M  V30 15661 O 1520.26 -4.33522 0.631657 0
M  V30 15662 C 1521.76 -4.27556 -1.17094 0
M  V30 15663 H 1518.98 -0.670558 -0.0243619 0
M  V30 15664 H 1521.52 -1.9644 0.568459 0
M  V30 15665 H 1519.68 -3.67205 -1.23449 0
M  V30 15666 H 1520.09 -5.23437 0.333803 0
M  V30 15667 H 1521.57 -5.3466 -1.3727 0
M  V30 15668 H 1522.04 -3.83456 -2.14145 0
M  V30 15669 H 1522.65 -4.22174 -0.514687 0
M  V30 15670 N 1520.96 -0.130252 -1.57061 0
M  V30 15671 C 1521.91 0.832998 -2.17173 0
M  V30 15672 C 1522.91 1.26735 -1.12403 0
M  V30 15673 O 1524.11 1.23778 -1.30686 0
M  V30 15674 H 1520.49 0.286777 -0.695171 0
M  V30 15675 H 1522.46 0.301639 -2.96872 0
M  V30 15676 C 1521.21 2.06879 -2.79457 0
M  V30 15677 H 1520.53 1.74352 -3.5978 0
M  V30 15678 H 1521.97 2.72258 -3.25041 0
M  V30 15679 C 1520.43 2.86591 -1.77108 0
M  V30 15680 O 1520.96 3.82363 -1.2313 0
M  V30 15681 N 1519.17 2.508 -1.46792 0
M  V30 15682 H 1518.71 1.72984 -1.90878 0
M  V30 15683 H 1518.67 3.04428 -0.785566 0
M  V30 15684 N 1522.44 1.56945 0.143535 0
M  V30 15685 C 1523.38 1.95134 1.2023 0
M  V30 15686 C 1524.39 0.847593 1.38995 0
M  V30 15687 O 1525.58 1.12599 1.38505 0
M  V30 15688 C 1522.68 2.21316 2.56656 0
M  V30 15689 C 1521.85 3.52604 2.58822 0
M  V30 15690 C 1520.91 3.67285 3.76813 0
M  V30 15691 O 1519.94 4.39644 3.61527 0
M  V30 15692 N 1521.14 3.04208 4.94406 0
M  V30 15693 H 1523.9 2.86561 0.87766 0
M  V30 15694 H 1521.46 1.58437 0.333065 0
M  V30 15695 H 1523.46 2.28375 3.34106 0
M  V30 15696 H 1522.03 1.36137 2.81399 0
M  V30 15697 H 1521.25 3.56954 1.67264 0
M  V30 15698 H 1522.53 4.38944 2.57304 0
M  V30 15699 H 1521.93 2.45344 5.09728 0
M  V30 15700 H 1520.49 3.16824 5.69619 0
M  V30 15701 N 1523.92 -0.412991 1.52093 0
M  V30 15702 C 1525.17 -1.15737 1.65191 0
M  V30 15703 C 1525.48 -1.91753 0.38601 0
M  V30 15704 O 1526.69 -2.68586 0.396731 0
M  V30 15705 C 1525.15 -2.10619 2.91835 0
M  V30 15706 C 1524.75 -1.40137 4.25518 0
M  V30 15707 C 1526.5 -2.85339 3.14296 0
M  V30 15708 C 1524.4 -2.33645 5.4329 0
M  V30 15709 H 1523.33 -0.435732 0.615348 0
M  V30 15710 H 1525.99 -0.422172 1.78578 0
M  V30 15711 H 1524.37 -2.87675 2.72138 0
M  V30 15712 H 1525.54 -0.684719 4.55684 0
M  V30 15713 H 1523.86 -0.774734 4.09129 0
M  V30 15714 H 1526.45 -3.55437 3.99461 0
M  V30 15715 H 1526.8 -3.48071 2.28369 0
M  V30 15716 H 1527.33 -2.15384 3.34447 0
M  V30 15717 H 1524.07 -1.75566 6.31551 0
M  V30 15718 H 1523.59 -3.03294 5.17467 0
M  V30 15719 H 1525.27 -2.94255 5.76215 0
M  V30 15720 N 1525.4 -1.4265 -0.669982 0
M  V30 15721 C 1526.64 -1.44866 -1.44199 0
M  V30 15722 C 1527 -0.0647049 -1.91891 0
M  V30 15723 O 1528.2 0.0384187 -2.68773 0
M  V30 15724 C 1526.48 -2.44846 -2.60356 0
M  V30 15725 S 1528.03 -2.65803 -3.49134 0
M  V30 15726 H 1524.85 -0.512859 -0.49244 0
M  V30 15727 H 1527.45 -1.7929 -0.779442 0
M  V30 15728 H 1526.16 -3.44161 -2.23565 0
M  V30 15729 H 1525.69 -2.11863 -3.31478 0
M  V30 15730 H 1527.7 -1.94466 -4.56506 0
M  V30 15731 N 1526.88 0.906753 -1.28902 0
M  V30 15732 C 1527.79 2.04313 -1.15296 0
M  V30 15733 C 1528.8 1.73826 -0.0778619 0
M  V30 15734 O 1529.98 1.99322 -0.288543 0
M  V30 15735 C 1527.04 3.36782 -0.823317 0
M  V30 15736 C 1526.11 3.80834 -1.98152 0
M  V30 15737 C 1525.34 5.06981 -1.66751 0
M  V30 15738 O 1525.56 5.67391 -0.58513 0
M  V30 15739 O 1524.5 5.46915 -2.51332 0
M  V30 15740 H 1528.32 2.18713 -2.10709 0
M  V30 15741 H 1525.91 1.02928 -1.08287 0
M  V30 15742 H 1527.79 4.16298 -0.653735 0
M  V30 15743 H 1526.46 3.23542 0.101097 0
M  V30 15744 H 1525.37 3.02115 -2.2063 0
M  V30 15745 H 1526.7 3.98648 -2.88688 0
M  V30 15746 N 1528.36 1.11264 1.11616 0
M  V30 15747 C 1529.29 0.727118 2.17361 0
M  V30 15748 C 1530.3 -0.240356 1.61016 0
M  V30 15749 O 1531.49 -0.0235265 1.78484 0
M  V30 15750 C 1528.59 0.05361 3.38858 0
M  V30 15751 C 1527.76 1.04744 4.24673 0
M  V30 15752 C 1526.82 0.403827 5.24648 0
M  V30 15753 O 1525.85 1.0572 5.59296 0
M  V30 15754 N 1527.05 -0.834071 5.74477 0
M  V30 15755 H 1529.81 1.63696 2.51045 0
M  V30 15756 H 1527.38 1.00261 1.2712 0
M  V30 15757 H 1529.37 -0.388643 4.0283 0
M  V30 15758 H 1527.94 -0.758778 3.03251 0
M  V30 15759 H 1527.16 1.6677 3.57185 0
M  V30 15760 H 1528.45 1.71988 4.7885 0
M  V30 15761 H 1527.84 -1.3841 5.48506 0
M  V30 15762 H 1526.4 -1.21933 6.40293 0
M  V30 15763 N 1529.83 -1.29188 0.902679 0
M  V30 15764 C 1531.08 -1.95727 0.530909 0
M  V30 15765 C 1531.41 -1.70971 -0.921014 0
M  V30 15766 O 1530.69 -1.02436 -1.65339 0
M  V30 15767 C 1530.97 -3.50463 0.827523 0
M  V30 15768 C 1530.82 -3.84665 2.33137 0
M  V30 15769 C 1532.14 -4.38964 0.316053 0
M  V30 15770 H 1529.26 -0.71091 0.194361 0
M  V30 15771 H 1531.9 -1.52752 1.1299 0
M  V30 15772 H 1530.05 -3.87199 0.317732 0
M  V30 15773 H 1531.73 -3.57859 2.91093 0
M  V30 15774 H 1529.97 -3.32102 2.79088 0
M  V30 15775 H 1530.64 -4.92676 2.48947 0
M  V30 15776 H 1533.12 -4.09237 0.75262 0
M  V30 15777 H 1531.99 -5.4611 0.552769 0
M  V30 15778 H 1532.25 -4.35105 -0.783329 0
M  V30 15779 N 1531.31 -0.665475 -1.42861 0
M  V30 15780 C 1532.26 0.030395 -2.3258 0
M  V30 15781 C 1533.25 0.800329 -1.49302 0
M  V30 15782 O 1534.46 0.709346 -1.65434 0
M  V30 15783 H 1530.83 0.0286201 -0.751455 0
M  V30 15784 H 1532.81 -0.743838 -2.8898 0
M  V30 15785 C 1531.55 0.974474 -3.33765 0
M  V30 15786 H 1530.88 0.391447 -3.97879 0
M  V30 15787 H 1532.32 1.43023 -3.99149 0
M  V30 15788 C 1530.78 2.0764 -2.65306 0
M  V30 15789 O 1531.31 3.16172 -2.47787 0
M  V30 15790 N 1529.51 1.84544 -2.24481 0
M  V30 15791 H 1529.06 0.962826 -2.3893 0
M  V30 15792 H 1529.02 2.58464 -1.79007 0
M  V30 15793 N 1532.79 1.52222 -0.408187 0
M  V30 15794 C 1533.72 2.29892 0.408868 0
M  V30 15795 C 1534.7 1.34063 1.04695 0
M  V30 15796 O 1535.89 1.6297 1.05615 0
M  V30 15797 C 1533.02 3.11964 1.52629 0
M  V30 15798 C 1531.97 4.15833 1.01326 0
M  V30 15799 C 1531.3 4.86244 2.2242 0
M  V30 15800 C 1532.6 5.22256 0.0679573 0
M  V30 15801 H 1534.29 2.98443 -0.23923 0
M  V30 15802 H 1531.84 1.43528 -0.116496 0
M  V30 15803 H 1533.79 3.65067 2.10486 0
M  V30 15804 H 1532.51 2.41181 2.20225 0
M  V30 15805 H 1531.17 3.63739 0.4571 0
M  V30 15806 H 1530.82 4.11991 2.88569 0
M  V30 15807 H 1530.52 5.56461 1.88746 0
M  V30 15808 H 1532.04 5.42159 2.80885 0
M  V30 15809 H 1533.46 5.70604 0.555295 0
M  V30 15810 H 1531.85 5.9983 -0.179934 0
M  V30 15811 H 1532.92 4.76892 -0.877599 0
M  V30 15812 N 1534.27 0.138579 1.5699 0
M  V30 15813 C 1535.2 -0.800568 2.19347 0
M  V30 15814 C 1536.18 -1.26318 1.13921 0
M  V30 15815 O 1537.36 -1.32226 1.42232 0
M  V30 15816 C 1534.49 -2.04317 2.80842 0
M  V30 15817 C 1533.45 -1.71764 3.92022 0
M  V30 15818 C 1532.77 -3.03217 4.40413 0
M  V30 15819 C 1534.07 -0.970789 5.13199 0
M  V30 15820 H 1535.77 -0.280888 2.98079 0
M  V30 15821 H 1533.31 -0.133663 1.43378 0
M  V30 15822 H 1535.27 -2.70491 3.2313 0
M  V30 15823 H 1533.99 -2.58643 1.99428 0
M  V30 15824 H 1532.65 -1.07972 3.50339 0
M  V30 15825 H 1532.3 -3.55517 3.55832 0
M  V30 15826 H 1532 -2.82203 5.15398 0
M  V30 15827 H 1533.52 -3.70477 4.85365 0
M  V30 15828 H 1534.94 -1.53445 5.52384 0
M  V30 15829 H 1533.33 -0.860895 5.93893 0
M  V30 15830 H 1534.4 0.0390088 4.84884 0
M  V30 15831 N 1535.75 -1.57019 -0.13521 0
M  V30 15832 C 1536.69 -1.99148 -1.16657 0
M  V30 15833 C 1537.66 -0.860947 -1.42045 0
M  V30 15834 O 1538.85 -1.12393 -1.54183 0
M  V30 15835 C 1535.99 -2.3872 -2.49212 0
M  V30 15836 C 1535.1 -3.65117 -2.30898 0
M  V30 15837 C 1534.24 -3.9374 -3.5657 0
M  V30 15838 C 1533.27 -5.1337 -3.33343 0
M  V30 15839 N 1532.41 -5.37945 -4.51176 0
M  V30 15840 H 1537.25 -2.87052 -0.800312 0
M  V30 15841 H 1534.79 -1.42007 -0.383705 0
M  V30 15842 H 1536.75 -2.59695 -3.26518 0
M  V30 15843 H 1535.38 -1.53879 -2.83762 0
M  V30 15844 H 1534.43 -3.5185 -1.44588 0
M  V30 15845 H 1535.74 -4.52578 -2.09701 0
M  V30 15846 H 1534.89 -4.15277 -4.423 0
M  V30 15847 H 1533.63 -3.04723 -3.80782 0
M  V30 15848 H 1532.64 -4.91694 -2.46002 0
M  V30 15849 H 1533.86 -6.0395 -3.10517 0
M  V30 15850 H 1531.81 -4.51884 -4.75539 0
M  V30 15851 H 1531.73 -6.19698 -4.33025 0
M  V30 15852 H 1532.99 -5.63989 -5.38086 0
M  V30 15853 N 1537.22 0.404919 -1.52309 0
M  V30 15854 C 1538.13 1.51822 -1.7885 0
M  V30 15855 C 1539.15 1.60403 -0.674307 0
M  V30 15856 O 1540.33 1.77038 -0.960175 0
M  V30 15857 C 1537.39 2.87516 -1.9374 0
M  V30 15858 C 1536.45 2.88787 -3.17648 0
M  V30 15859 C 1535.69 4.18009 -3.31819 0
M  V30 15860 O 1535.91 5.12129 -2.51158 0
M  V30 15861 O 1534.84 4.26222 -4.24992 0
M  V30 15862 H 1538.67 1.32329 -2.73354 0
M  V30 15863 H 1536.25 0.591193 -1.37205 0
M  V30 15864 H 1538.14 3.6799 -2.05333 0
M  V30 15865 H 1536.81 3.07068 -1.02425 0
M  V30 15866 H 1535.72 2.07152 -3.11511 0
M  V30 15867 H 1537.05 2.74185 -4.08758 0
M  V30 15868 N 1538.7 1.43003 0.662408 0
M  V30 15869 C 1539.93 1.47766 1.45533 0
M  V30 15870 C 1540.35 0.0940298 1.87865 0
M  V30 15871 O 1539.71 -0.910252 1.56793 0
M  V30 15872 C 1539.76 2.42084 2.6726 0
M  V30 15873 O 1538.86 1.90076 3.65985 0
M  V30 15874 H 1538.2 0.500167 0.436725 0
M  V30 15875 H 1540.73 1.87823 0.811399 0
M  V30 15876 H 1540.74 2.5908 3.15185 0
M  V30 15877 H 1539.42 3.42601 2.3579 0
M  V30 15878 H 1538 1.82695 3.2508 0
M  V30 15879 N 1540.18 -0.899904 1.29381 0
M  V30 15880 C 1541.11 -2.02045 1.17047 0
M  V30 15881 C 1542.09 -1.69977 0.0647354 0
M  V30 15882 O 1543.28 -1.92659 0.244173 0
M  V30 15883 C 1540.41 -3.36839 0.845991 0
M  V30 15884 C 1539.36 -3.83117 1.90802 0
M  V30 15885 C 1538.69 -5.15032 1.43686 0
M  V30 15886 C 1539.99 -4.03464 3.31684 0
M  V30 15887 H 1541.68 -2.12623 2.10789 0
M  V30 15888 H 1539.23 -1.02162 1.01484 0
M  V30 15889 H 1541.18 -4.14737 0.746413 0
M  V30 15890 H 1539.9 -3.26352 -0.127125 0
M  V30 15891 H 1538.56 -3.07435 1.99698 0
M  V30 15892 H 1538.21 -5.00961 0.452422 0
M  V30 15893 H 1537.91 -5.46967 2.14711 0
M  V30 15894 H 1539.43 -5.95472 1.35078 0
M  V30 15895 H 1540.85 -4.71845 3.25631 0
M  V30 15896 H 1539.25 -4.46752 4.00665 0
M  V30 15897 H 1540.32 -3.07807 3.74677 0
M  V30 15898 N 1541.66 -1.11854 -1.11024 0
M  V30 15899 C 1542.9 -0.871362 -1.83126 0
M  V30 15900 C 1543.24 0.601437 -1.84652 0
M  V30 15901 O 1542.51 1.44427 -1.30273 0
M  V30 15902 C 1542.8 -1.4391 -3.30094 0
M  V30 15903 C 1542.65 -2.97983 -3.36937 0
M  V30 15904 C 1543.97 -1.09361 -4.26296 0
M  V30 15905 H 1541.09 -0.317994 -0.664867 0
M  V30 15906 H 1543.73 -1.38414 -1.3016 0
M  V30 15907 H 1541.88 -1.00297 -3.7533 0
M  V30 15908 H 1543.55 -3.50231 -3.00227 0
M  V30 15909 H 1541.79 -3.33827 -2.77023 0
M  V30 15910 H 1542.46 -3.32797 -4.40398 0
M  V30 15911 H 1544.94 -1.47018 -3.89262 0
M  V30 15912 H 1543.82 -1.51756 -5.27505 0
M  V30 15913 H 1544.08 -0.0049637 -4.421 0
M  V30 15914 N 1543.14 1.28707 -0.909517 0
M  V30 15915 C 1544.38 1.94768 -0.539413 0
M  V30 15916 C 1544.71 1.7198 0.919133 0
M  V30 15917 O 1543.98 1.0571 1.64931 0
M  V30 15918 H 1542.56 0.720693 -0.196496 0
M  V30 15919 H 1545.22 1.56772 -1.15795 0
M  V30 15920 H 1544.31 3.03436 -0.730281 0
M  V30 15921 N 1544.61 0.673042 1.42506 0
M  V30 15922 C 1545.55 -0.0452975 2.29155 0
M  V30 15923 C 1546.56 -0.767277 1.43585 0
M  V30 15924 O 1547.75 -0.621728 1.67322 0
M  V30 15925 C 1544.85 -1.0878 3.20967 0
M  V30 15926 C 1544.02 -0.439999 4.35181 0
M  V30 15927 C 1543.08 -1.38205 5.07726 0
M  V30 15928 O 1542.11 -0.883031 5.62309 0
M  V30 15929 N 1543.31 -2.7154 5.13075 0
M  V30 15930 H 1546.07 0.698517 2.91446 0
M  V30 15931 H 1543.63 0.517322 1.53412 0
M  V30 15932 H 1545.63 -1.71925 3.66366 0
M  V30 15933 H 1544.2 -1.73337 2.6014 0
M  V30 15934 H 1543.42 0.370926 3.92451 0
M  V30 15935 H 1544.7 0.0113738 5.08799 0
M  V30 15936 H 1544.1 -3.14623 4.70137 0
M  V30 15937 H 1542.66 -3.29937 5.62126 0
M  V30 15938 N 1546.09 -1.52004 0.416254 0
M  V30 15939 C 1547.37 -1.94403 -0.216103 0
M  V30 15940 C 1547.75 -1.35362 -1.61989 0
M  V30 15941 O 1547.1 -0.532242 -2.22215 0
M  V30 15942 C 1547.31 -3.48336 -0.215225 0
M  V30 15943 C 1548.66 -4.22406 -0.431109 0
M  V30 15944 O 1549.68 -3.54982 -0.294271 0
M  V30 15945 O 1548.54 -5.4198 -0.70145 0
M  V30 15946 H 1545.63 -0.814838 -0.141306 0
M  V30 15947 H 1548.18 -1.62983 0.472712 0
M  V30 15948 H 1546.95 -3.83709 0.767004 0
M  V30 15949 H 1546.57 -3.86137 -0.947841 0
M  V30 15950 N 1547.57 -0.146903 -1.56914 0
M  V30 15951 C 1548.8 0.514426 -2.00919 0
M  V30 15952 C 1549.22 1.57632 -1.02634 0
M  V30 15953 O 1548.58 1.813 -0.00207478 0
M  V30 15954 C 1548.63 1.09197 -3.43669 0
M  V30 15955 O 1547.73 2.20684 -3.48385 0
M  V30 15956 H 1547.07 0.125827 -0.651969 0
M  V30 15957 H 1549.6 -0.243607 -2.03145 0
M  V30 15958 H 1549.61 1.42066 -3.82467 0
M  V30 15959 H 1548.29 0.314336 -4.1471 0
M  V30 15960 H 1546.86 1.89045 -3.21429 0
M  V30 15961 N 1549.05 1.57088 0.126881 0
M  V30 15962 C 1550.3 1.83624 0.834582 0
M  V30 15963 C 1550.61 0.731331 1.81414 0
M  V30 15964 O 1551.82 0.88286 2.56745 0
M  V30 15965 C 1550.27 3.25529 1.5349 0
M  V30 15966 C 1549.88 4.44008 0.59673 0
M  V30 15967 C 1551.62 3.6132 2.22819 0
M  V30 15968 C 1549.53 5.76939 1.29982 0
M  V30 15969 H 1548.46 0.684858 0.315414 0
M  V30 15970 H 1551.11 1.83292 0.087305 0
M  V30 15971 H 1549.49 3.20306 2.32852 0
M  V30 15972 H 1550.67 4.60511 -0.163109 0
M  V30 15973 H 1548.98 4.16399 0.0108081 0
M  V30 15974 H 1551.58 4.57902 2.76098 0
M  V30 15975 H 1551.92 2.88363 3.00254 0
M  V30 15976 H 1552.46 3.68291 1.50354 0
M  V30 15977 H 1549.2 6.53044 0.566925 0
M  V30 15978 H 1548.72 5.64336 2.03187 0
M  V30 15979 H 1550.39 6.20427 1.8352 0
M  V30 15980 N 1550.53 -0.396836 1.52522 0
M  V30 15981 C 1551.46 -1.49088 1.79708 0
M  V30 15982 C 1552.44 -1.57246 0.648678 0
M  V30 15983 O 1553.62 -1.72321 0.895495 0
M  V30 15984 C 1550.75 -2.86785 1.95887 0
M  V30 15985 C 1549.71 -2.93472 3.11542 0
M  V30 15986 C 1549.03 -4.33542 3.12963 0
M  V30 15987 C 1550.33 -2.63832 4.50766 0
M  V30 15988 H 1552.03 -1.26588 2.71322 0
M  V30 15989 H 1549.57 -0.607535 1.30557 0
M  V30 15990 H 1551.53 -3.63319 2.13489 0
M  V30 15991 H 1550.25 -3.10605 1.00955 0
M  V30 15992 H 1548.91 -2.19384 2.93711 0
M  V30 15993 H 1548.56 -4.5439 2.15729 0
M  V30 15994 H 1548.26 -4.38938 3.9065 0
M  V30 15995 H 1549.78 -5.11993 3.32709 0
M  V30 15996 H 1551.19 -3.30086 4.68739 0
M  V30 15997 H 1549.59 -2.80589 5.30462 0
M  V30 15998 H 1550.66 -1.59209 4.58018 0
M  V30 15999 N 1552.01 -1.43353 -0.654814 0
M  V30 16000 C 1552.92 -1.50831 -1.79687 0
M  V30 16001 C 1553.93 -0.395518 -1.69445 0
M  V30 16002 O 1555.11 -0.649408 -1.90643 0
M  V30 16003 C 1552.17 -1.42735 -3.15955 0
M  V30 16004 C 1551.23 -2.64671 -3.38005 0
M  V30 16005 C 1550.47 -2.56952 -4.67773 0
M  V30 16006 O 1550.69 -1.61638 -5.47019 0
M  V30 16007 O 1549.62 -3.47425 -4.91507 0
M  V30 16008 H 1553.45 -2.47266 -1.76333 0
M  V30 16009 H 1551.03 -1.25336 -0.813095 0
M  V30 16010 H 1552.92 -1.40656 -3.97233 0
M  V30 16011 H 1551.59 -0.494334 -3.19903 0
M  V30 16012 H 1550.5 -2.72323 -2.56498 0
M  V30 16013 H 1551.83 -3.5694 -3.38903 0
M  V30 16014 N 1553.48 0.89303 -1.29857 0
M  V30 16015 C 1554.43 1.9979 -1.15554 0
M  V30 16016 C 1555.4 1.66033 -0.0471157 0
M  V30 16017 O 1556.59 1.89575 -0.215846 0
M  V30 16018 C 1553.73 3.34595 -0.844993 0
M  V30 16019 C 1552.84 3.81093 -2.03451 0
M  V30 16020 C 1551.97 5.04506 -1.66275 0
M  V30 16021 C 1551.01 5.4339 -2.8177 0
M  V30 16022 N 1550.15 6.57987 -2.44945 0
M  V30 16023 H 1554.99 2.11355 -2.10079 0
M  V30 16024 H 1552.53 1.03497 -1.04531 0
M  V30 16025 H 1554.48 4.12175 -0.645598 0
M  V30 16026 H 1553.11 3.22738 0.0633626 0
M  V30 16027 H 1552.17 2.99491 -2.34541 0
M  V30 16028 H 1553.48 4.05855 -2.8997 0
M  V30 16029 H 1552.63 5.89688 -1.42664 0
M  V30 16030 H 1551.37 4.81597 -0.769144 0
M  V30 16031 H 1550.38 4.56738 -3.06056 0
M  V30 16032 H 1551.6 5.68276 -3.71805 0
M  V30 16033 H 1549.55 6.36669 -1.58079 0
M  V30 16034 H 1549.46 6.82579 -3.24996 0
M  V30 16035 H 1550.73 7.46421 -2.24669 0
M  V30 16036 N 1554.96 1.12442 1.10429 0
M  V30 16037 C 1556.19 0.902914 1.86714 0
M  V30 16038 C 1556.61 -0.542514 1.80107 0
M  V30 16039 O 1555.97 -1.38406 1.17105 0
M  V30 16040 C 1556.02 1.38238 3.33051 0
M  V30 16041 O 1555.12 0.560877 4.08568 0
M  V30 16042 H 1554.46 0.324397 0.579364 0
M  V30 16043 H 1556.99 1.49652 1.39519 0
M  V30 16044 H 1557 1.38148 3.839 0
M  V30 16045 H 1555.68 2.43486 3.37176 0
M  V30 16046 H 1554.25 0.628771 3.67561 0
M  V30 16047 N 1556.44 -1.28223 0.91633 0
M  V30 16048 C 1557.37 -2.29623 0.423735 0
M  V30 16049 C 1558.35 -1.62274 -0.510016 0
M  V30 16050 O 1559.54 -1.89666 -0.4172 0
M  V30 16051 C 1556.67 -3.45684 -0.334686 0
M  V30 16052 C 1555.62 -4.24949 0.510169 0
M  V30 16053 C 1554.95 -5.33371 -0.376745 0
M  V30 16054 C 1556.25 -4.91438 1.76877 0
M  V30 16055 H 1557.94 -2.71076 1.27115 0
M  V30 16056 H 1555.49 -1.30316 0.612678 0
M  V30 16057 H 1557.44 -4.1571 -0.690154 0
M  V30 16058 H 1556.16 -3.03118 -1.21603 0
M  V30 16059 H 1554.82 -3.56653 0.848191 0
M  V30 16060 H 1554.47 -4.87048 -1.25671 0
M  V30 16061 H 1554.17 -5.87309 0.18496 0
M  V30 16062 H 1555.69 -6.06244 -0.728039 0
M  V30 16063 H 1557.11 -5.53812 1.48205 0
M  V30 16064 H 1555.5 -5.55384 2.27308 0
M  V30 16065 H 1556.57 -4.15783 2.49505 0
M  V30 16066 N 1557.92 -0.68059 -1.42147 0
M  V30 16067 C 1558.86 -0.00585926 -2.30799 0
M  V30 16068 C 1559.83 0.786778 -1.46284 0
M  V30 16069 O 1561.02 0.757853 -1.75103 0
M  V30 16070 C 1558.16 0.935319 -3.32183 0
M  V30 16071 C 1557.27 0.13589 -4.31786 0
M  V30 16072 C 1556.41 1.07335 -5.20243 0
M  V30 16073 C 1555.45 0.265943 -6.11522 0
M  V30 16074 N 1554.58 1.15641 -6.92511 0
M  V30 16075 H 1559.42 -0.767651 -2.87943 0
M  V30 16076 H 1556.96 -0.39029 -1.41828 0
M  V30 16077 H 1558.92 1.49489 -3.89498 0
M  V30 16078 H 1557.55 1.66368 -2.76626 0
M  V30 16079 H 1556.6 -0.540383 -3.76542 0
M  V30 16080 H 1557.91 -0.490716 -4.9638 0
M  V30 16081 H 1557.07 1.70265 -5.82319 0
M  V30 16082 H 1555.81 1.73383 -4.55839 0
M  V30 16083 H 1554.81 -0.376531 -5.48509 0
M  V30 16084 H 1556.04 -0.39053 -6.77976 0
M  V30 16085 H 1553.98 1.80319 -6.30731 0
M  V30 16086 H 1553.9 0.585022 -7.53733 0
M  V30 16087 H 1555.17 1.773 -7.59069 0
M  V30 16088 N 1559.4 1.51781 -0.424309 0
M  V30 16089 C 1560.36 2.25996 0.381903 0
M  V30 16090 C 1561.36 1.28938 0.960813 0
M  V30 16091 O 1562.55 1.52757 0.837306 0
M  V30 16092 C 1559.68 3.04181 1.53904 0
M  V30 16093 H 1560.87 2.98697 -0.268336 0
M  V30 16094 H 1558.43 1.55293 -0.177167 0
M  V30 16095 H 1559.16 2.35866 2.22571 0
M  V30 16096 H 1558.95 3.75457 1.13025 0
M  V30 16097 H 1560.44 3.60434 2.10896 0
M  V30 16098 N 1560.87 0.155222 1.56834 0
M  V30 16099 C 1561.8 -0.777258 2.20184 0
M  V30 16100 C 1562.78 -1.25102 1.15254 0
M  V30 16101 O 1563.97 -1.3071 1.43627 0
M  V30 16102 C 1561.1 -2.01326 2.82993 0
M  V30 16103 C 1560.05 -1.67596 3.93822 0
M  V30 16104 C 1559.38 -2.98529 4.43604 0
M  V30 16105 C 1560.68 -0.916302 5.142 0
M  V30 16106 H 1562.37 -0.249257 2.98361 0
M  V30 16107 H 1559.92 -0.118448 1.43512 0
M  V30 16108 H 1561.87 -2.67048 3.2598 0
M  V30 16109 H 1560.6 -2.56513 2.0216 0
M  V30 16110 H 1559.26 -1.0425 3.51465 0
M  V30 16111 H 1558.9 -3.51723 3.59583 0
M  V30 16112 H 1558.6 -2.76721 5.18362 0
M  V30 16113 H 1560.13 -3.65308 4.89267 0
M  V30 16114 H 1561.54 -1.47577 5.5398 0
M  V30 16115 H 1559.94 -0.797856 5.94772 0
M  V30 16116 H 1561.01 0.0904351 4.84816 0
M  V30 16117 N 1562.35 -1.57153 -0.118549 0
M  V30 16118 C 1563.6 -1.8515 -0.82748 0
M  V30 16119 C 1563.93 -0.741026 -1.79506 0
M  V30 16120 O 1563.21 0.253095 -1.92846 0
M  V30 16121 C 1563.49 -3.23734 -1.57698 0
M  V30 16122 C 1563.34 -4.45381 -0.628967 0
M  V30 16123 C 1564.66 -3.59895 -2.53305 0
M  V30 16124 H 1561.78 -0.673459 -0.29937 0
M  V30 16125 H 1564.42 -1.89778 -0.0917198 0
M  V30 16126 H 1562.57 -3.19919 -2.20418 0
M  V30 16127 H 1564.24 -4.61299 -0.0105746 0
M  V30 16128 H 1562.49 -4.33759 0.059462 0
M  V30 16129 H 1563.16 -5.3902 -1.19004 0
M  V30 16130 H 1565.63 -3.64503 -2.0069 0
M  V30 16131 H 1564.51 -4.57839 -3.02778 0
M  V30 16132 H 1564.77 -2.87338 -3.3599 0
M  V30 16133 N 1563.83 0.388742 -1.5273 0
M  V30 16134 C 1564.78 1.47488 -1.77527 0
M  V30 16135 C 1565.75 1.54155 -0.618505 0
M  V30 16136 O 1566.93 1.70407 -0.858251 0
M  V30 16137 C 1564.07 2.84714 -1.95018 0
M  V30 16138 C 1563.18 2.87197 -3.2271 0
M  V30 16139 C 1562.32 4.15851 -3.30517 0
M  V30 16140 C 1561.36 4.12386 -4.52332 0
M  V30 16141 N 1560.5 5.32647 -4.57418 0
M  V30 16142 H 1565.34 1.25644 -2.70218 0
M  V30 16143 H 1562.87 0.609519 -1.33878 0
M  V30 16144 H 1564.83 3.64402 -2.03143 0
M  V30 16145 H 1563.46 3.05008 -1.05688 0
M  V30 16146 H 1562.51 1.99879 -3.23655 0
M  V30 16147 H 1563.82 2.80505 -4.12454 0
M  V30 16148 H 1562.98 5.03943 -3.37827 0
M  V30 16149 H 1561.72 4.25265 -2.38748 0
M  V30 16150 H 1560.72 3.22683 -4.45147 0
M  V30 16151 H 1561.95 4.04594 -5.45418 0
M  V30 16152 H 1559.89 5.42691 -3.68541 0
M  V30 16153 H 1559.81 5.28032 -5.41035 0
M  V30 16154 H 1561.08 6.22636 -4.68983 0
M  V30 16155 N 1565.31 1.43698 0.647203 0
M  V30 16156 C 1566.56 1.44918 1.40292 0
M  V30 16157 C 1566.87 0.0794243 1.95439 0
M  V30 16158 O 1568.08 -0.0309052 2.71482 0
M  V30 16159 C 1566.53 2.55052 2.53923 0
M  V30 16160 C 1566.14 3.98161 2.05357 0
M  V30 16161 C 1567.88 2.65473 3.31246 0
M  V30 16162 C 1565.79 4.99749 3.16235 0
M  V30 16163 H 1564.72 0.539106 0.527144 0
M  V30 16164 H 1567.37 1.69708 0.697951 0
M  V30 16165 H 1565.75 2.23473 3.26919 0
M  V30 16166 H 1566.93 4.3923 1.39333 0
M  V30 16167 H 1565.24 3.91839 1.40896 0
M  V30 16168 H 1567.84 3.38546 4.13873 0
M  V30 16169 H 1568.18 1.70745 3.79673 0
M  V30 16170 H 1568.72 2.96383 2.65334 0
M  V30 16171 H 1565.45 5.96051 2.7277 0
M  V30 16172 H 1564.97 4.63288 3.80952 0
M  V30 16173 H 1566.65 5.22725 3.81271 0
M  V30 16174 N 1566.79 -0.886131 1.30328 0
M  V30 16175 C 1568.04 -1.63255 1.18451 0
M  V30 16176 C 1568.35 -1.93864 -0.260016 0
M  V30 16177 O 1569.55 -2.66851 -0.500288 0
M  V30 16178 C 1568.01 -2.94232 2.07257 0
M  V30 16179 C 1567.62 -2.71168 3.56612 0
M  V30 16180 C 1569.36 -3.72193 2.04139 0
M  V30 16181 C 1567.27 -3.97954 4.37478 0
M  V30 16182 H 1566.2 -0.612491 0.439739 0
M  V30 16183 H 1568.85 -0.981129 1.55068 0
M  V30 16184 H 1567.23 -3.60661 1.63522 0
M  V30 16185 H 1568.41 -2.13247 4.08488 0
M  V30 16186 H 1566.72 -2.06584 3.61541 0
M  V30 16187 H 1569.32 -4.66219 2.61809 0
M  V30 16188 H 1569.66 -4.03495 1.02459 0
M  V30 16189 H 1570.19 -3.12624 2.45989 0
M  V30 16190 H 1566.93 -3.71811 5.39849 0
M  V30 16191 H 1566.45 -4.55384 3.90366 0
M  V30 16192 H 1568.13 -4.65984 4.48852 0
M  V30 16193 N 1568.26 -1.13026 -1.09832 0
M  V30 16194 C 1569.49 -0.912803 -1.86233 0
M  V30 16195 C 1569.91 0.532955 -1.80392 0
M  V30 16196 O 1569.27 1.37783 -1.17837 0
M  V30 16197 C 1569.32 -1.40002 -3.32313 0
M  V30 16198 O 1568.42 -0.582537 -4.08265 0
M  V30 16199 H 1567.77 -0.327464 -0.577636 0
M  V30 16200 H 1570.3 -1.5039 -1.38723 0
M  V30 16201 H 1570.31 -1.40182 -3.83162 0
M  V30 16202 H 1568.98 -2.4527 -3.3588 0
M  V30 16203 H 1567.56 -0.648255 -3.67222 0
M  V30 16204 N 1569.74 1.27735 -0.923117 0
M  V30 16205 C 1570.71 2.25256 -0.423375 0
M  V30 16206 C 1571.71 1.54213 0.455517 0
M  V30 16207 O 1572.9 1.7229 0.257245 0
M  V30 16208 C 1570.03 3.3864 0.391897 0
M  V30 16209 H 1571.22 2.70978 -1.28495 0
M  V30 16210 H 1568.77 1.39579 -0.703378 0
M  V30 16211 H 1569.51 2.98293 1.27248 0
M  V30 16212 H 1569.29 3.91376 -0.238194 0
M  V30 16213 H 1570.78 4.11133 0.732069 0
M  V30 16214 N 1571.22 0.688118 1.41784 0
M  V30 16215 C 1572.15 0.0323199 2.33478 0
M  V30 16216 C 1573.13 -0.775145 1.51412 0
M  V30 16217 O 1574.32 -0.72962 1.79973 0
M  V30 16218 C 1571.45 -0.910141 3.35162 0
M  V30 16219 C 1570.4 -0.210312 4.27483 0
M  V30 16220 C 1569.73 -1.26662 5.19481 0
M  V30 16221 C 1571.03 0.918839 5.14154 0
M  V30 16222 H 1572.72 0.798138 2.88566 0
M  V30 16223 H 1570.27 0.385262 1.38751 0
M  V30 16224 H 1572.22 -1.3781 3.98229 0
M  V30 16225 H 1570.94 -1.70754 2.78408 0
M  V30 16226 H 1569.6 0.237544 3.6583 0
M  V30 16227 H 1569.25 -2.05635 4.59046 0
M  V30 16228 H 1568.95 -0.803416 5.82082 0
M  V30 16229 H 1570.47 -1.73524 5.85424 0
M  V30 16230 H 1571.89 0.531499 5.70831 0
M  V30 16231 H 1570.29 1.30867 5.85657 0
M  V30 16232 H 1571.36 1.7618 4.51762 0
M  V30 16233 N 1572.7 -1.51554 0.432352 0
M  V30 16234 C 1573.94 -2.02344 -0.13598 0
M  V30 16235 C 1574.28 -1.31619 -1.42794 0
M  V30 16236 O 1573.55 -0.42957 -1.89697 0
M  V30 16237 C 1573.84 -3.58297 -0.359865 0
M  V30 16238 C 1573.69 -4.39645 0.950399 0
M  V30 16239 C 1575.01 -4.25297 -1.13184 0
M  V30 16240 H 1572.13 -0.735439 -0.0479461 0
M  V30 16241 H 1574.77 -1.81237 0.570373 0
M  V30 16242 H 1572.92 -3.76413 -0.961547 0
M  V30 16243 H 1574.59 -4.3319 1.58568 0
M  V30 16244 H 1572.83 -4.04928 1.55614 0
M  V30 16245 H 1573.5 -5.46911 0.747852 0
M  V30 16246 H 1575.98 -4.11421 -0.622231 0
M  V30 16247 H 1574.86 -5.34307 -1.25726 0
M  V30 16248 H 1575.12 -3.85818 -2.15862 0
M  V30 16249 N 1574.18 -0.163538 -1.56749 0
M  V30 16250 C 1575.43 0.483453 -1.9582 0
M  V30 16251 C 1575.74 1.64913 -1.05181 0
M  V30 16252 O 1576.94 2.36184 -1.33901 0
M  V30 16253 C 1575.4 0.911471 -3.48167 0
M  V30 16254 C 1575.01 -0.228178 -4.47419 0
M  V30 16255 C 1576.75 1.52732 -3.96072 0
M  V30 16256 C 1574.66 0.219036 -5.90994 0
M  V30 16257 H 1573.59 0.184383 -0.731108 0
M  V30 16258 H 1576.24 -0.250527 -1.81782 0
M  V30 16259 H 1574.62 1.7012 -3.57596 0
M  V30 16260 H 1575.8 -1.0054 -4.49698 0
M  V30 16261 H 1574.11 -0.753485 -4.09526 0
M  V30 16262 H 1576.71 1.87383 -5.00791 0
M  V30 16263 H 1577.05 2.42239 -3.38565 0
M  V30 16264 H 1577.58 0.802176 -3.89628 0
M  V30 16265 H 1574.32 -0.641066 -6.52358 0
M  V30 16266 H 1573.84 0.96178 -5.92039 0
M  V30 16267 H 1575.52 0.665524 -6.43568 0
M  V30 16268 N 1575.65 1.57214 0.110213 0
M  V30 16269 C 1576.9 1.85586 0.817649 0
M  V30 16270 C 1577.23 0.750536 1.79111 0
M  V30 16271 O 1576.51 -0.242864 1.92978 0
M  V30 16272 C 1576.79 3.24565 1.55979 0
M  V30 16273 C 1576.64 4.45708 0.605339 0
M  V30 16274 C 1577.96 3.61233 2.51393 0
M  V30 16275 H 1575.08 0.675037 0.295794 0
M  V30 16276 H 1577.72 1.89824 0.0816541 0
M  V30 16277 H 1575.87 3.21083 2.18718 0
M  V30 16278 H 1577.55 4.61298 -0.0138894 0
M  V30 16279 H 1575.79 4.33722 -0.0824644 0
M  V30 16280 H 1576.46 5.39643 1.16143 0
M  V30 16281 H 1578.94 3.65563 1.98754 0
M  V30 16282 H 1577.81 4.59438 3.00346 0
M  V30 16283 H 1578.07 2.89116 3.34461 0
M  V30 16284 N 1577.13 -0.380637 1.52934 0
M  V30 16285 C 1578.38 -1.1265 1.68635 0
M  V30 16286 C 1578.71 -1.89397 0.429227 0
M  V30 16287 O 1577.99 -1.85863 -0.573182 0
M  V30 16288 C 1578.27 -2.09797 2.92673 0
M  V30 16289 C 1578.12 -1.36758 4.28506 0
M  V30 16290 C 1579.44 -3.10117 3.12274 0
M  V30 16291 H 1576.56 -0.408158 0.613658 0
M  V30 16292 H 1579.2 -0.408947 1.85547 0
M  V30 16293 H 1577.35 -2.70987 2.78385 0
M  V30 16294 H 1579.02 -0.784679 4.54577 0
M  V30 16295 H 1577.27 -0.669413 4.28604 0
M  V30 16296 H 1577.94 -2.07786 5.11399 0
M  V30 16297 H 1580.41 -2.59022 3.25648 0
M  V30 16298 H 1579.29 -3.75328 4.00525 0
M  V30 16299 H 1579.55 -3.79451 2.26868 0
M  V30 16300 N 1578.61 -1.44039 -0.639573 0
M  V30 16301 C 1580.03 -1.2774 -0.956802 0
M  V30 16302 C 1580.23 -0.207018 -2.00434 0
M  V30 16303 O 1579.28 0.409954 -2.4915 0
M  V30 16304 C 1580.6 -2.64624 -1.42809 0
M  V30 16305 C 1582.14 -2.72266 -1.54402 0
M  V30 16306 C 1582.62 -4.09601 -2.04918 0
M  V30 16307 N 1584.11 -4.11735 -2.122 0
M  V30 16308 C 1584.84 -5.14842 -2.52439 0
M  V30 16309 N 1584.34 -6.28316 -2.91875 0
M  V30 16310 N 1586.13 -5.02196 -2.52499 0
M  V30 16311 H 1578.28 -2.12333 0.0533569 0
M  V30 16312 H 1580.55 -0.947208 -0.0387401 0
M  V30 16313 H 1580.25 -3.43983 -0.732728 0
M  V30 16314 H 1580.13 -2.90944 -2.40066 0
M  V30 16315 H 1582.51 -1.93232 -2.23037 0
M  V30 16316 H 1582.6 -2.49697 -0.555426 0
M  V30 16317 H 1582.24 -4.89108 -1.3688 0
M  V30 16318 H 1582.17 -4.29542 -3.04633 0
M  V30 16319 H 1584.66 -3.29833 -1.84441 0
M  V30 16320 H 1584.97 -7.0281 -3.21368 0
M  V30 16321 H 1583.32 -6.31767 -2.89647 0
M  V30 16322 H 1586.51 -4.12606 -2.21075 0
M  V30 16323 H 1586.68 -5.82677 -2.83535 0
M  V30 16324 N 1580.09 0.879207 -1.30796 0
M  V30 16325 C 1581.04 2.00692 -1.17582 0
M  V30 16326 C 1582.03 1.6918 -0.0863163 0
M  V30 16327 O 1583.24 1.78289 -0.24757 0
M  V30 16328 H 1579.61 0.65814 -0.363808 0
M  V30 16329 H 1581.58 2.0897 -2.13012 0
M  V30 16330 C 1580.33 3.36105 -0.890429 0
M  V30 16331 H 1579.65 3.60868 -1.72088 0
M  V30 16332 H 1581.09 4.15634 -0.838103 0
M  V30 16333 C 1579.55 3.34436 0.406734 0
M  V30 16334 O 1580.08 3.7552 1.42645 0
M  V30 16335 N 1578.29 2.87549 0.419963 0
M  V30 16336 H 1577.84 2.54311 -0.410343 0
M  V30 16337 H 1577.79 2.86815 1.28781 0
M  V30 16338 N 1581.57 1.13606 1.09231 0
M  V30 16339 C 1582.52 0.784018 2.14096 0
M  V30 16340 C 1583.5 -0.22288 1.59349 0
M  V30 16341 O 1584.69 -0.0264914 1.7698 0
M  V30 16342 C 1581.82 0.253922 3.4236 0
M  V30 16343 C 1580.91 1.28985 4.0401 0
M  V30 16344 N 1581.3 2.49138 4.40186 0
M  V30 16345 C 1579.6 1.1381 4.31235 0
M  V30 16346 C 1580.3 3.15388 4.8878 0
M  V30 16347 N 1579.27 2.42806 4.8636 0
M  V30 16348 H 1583.08 1.69816 2.39874 0
M  V30 16349 H 1580.59 1.01867 1.26478 0
M  V30 16350 H 1582.59 -0.0165402 4.16897 0
M  V30 16351 H 1581.25 -0.65452 3.18035 0
M  V30 16352 H 1582.26 2.8643 4.31484 0
M  V30 16353 H 1578.94 0.287982 4.16506 0
M  V30 16354 H 1580.33 4.17784 5.26219 0
M  V30 16355 N 1583.05 -1.27244 0.929878 0
M  V30 16356 C 1584.32 -1.89369 0.489774 0
M  V30 16357 C 1584.7 -1.84142 -1.03222 0
M  V30 16358 O 1584.05 -1.2881 -1.88733 0
M  V30 16359 C 1584.26 -3.33196 1.03833 0
M  V30 16360 C 1585.61 -4.101 1.10013 0
M  V30 16361 O 1586.63 -3.42221 0.988106 0
M  V30 16362 O 1585.49 -5.31468 1.27296 0
M  V30 16363 H 1582.59 -0.811789 0.157882 0
M  V30 16364 H 1585.13 -1.35496 1.02171 0
M  V30 16365 H 1583.9 -3.31304 2.08214 0
M  V30 16366 H 1583.53 -3.94592 0.488167 0
M  V30 16367 N 1584.52 -0.695628 -1.41417 0
M  V30 16368 C 1585.8 -0.154646 -1.94988 0
M  V30 16369 C 1586.18 1.33534 -1.63499 0
M  V30 16370 O 1585.53 2.08178 -0.942031 0
M  V30 16371 C 1585.74 -0.446004 -3.46138 0
M  V30 16372 C 1587.09 -0.37378 -4.22952 0
M  V30 16373 O 1588.11 -0.380921 -3.54157 0
M  V30 16374 O 1586.97 -0.33395 -5.45479 0
M  V30 16375 H 1584.06 -0.0150053 -0.826864 0
M  V30 16376 H 1586.61 -0.771792 -1.51134 0
M  V30 16377 H 1585.38 -1.47734 -3.6234 0
M  V30 16378 H 1585 0.202111 -3.97086 0
M  V30 16379 N 1586 1.51322 -0.440383 0
M  V30 16380 C 1586.93 2.30708 0.360013 0
M  V30 16381 C 1587.91 1.36254 1.01828 0
M  V30 16382 O 1589.1 1.65174 1.02134 0
M  V30 16383 C 1586.23 3.15132 1.45977 0
M  V30 16384 C 1585.18 4.17889 0.924825 0
M  V30 16385 C 1584.51 4.90853 2.12056 0
M  V30 16386 C 1585.81 5.22282 -0.0428362 0
M  V30 16387 H 1587.5 2.97868 -0.30248 0
M  V30 16388 H 1585.05 1.43249 -0.146914 0
M  V30 16389 H 1587 3.69449 2.02695 0
M  V30 16390 H 1585.72 2.45798 2.1506 0
M  V30 16391 H 1584.38 3.64627 0.379842 0
M  V30 16392 H 1584.03 4.1802 2.79765 0
M  V30 16393 H 1583.73 5.60339 1.769 0
M  V30 16394 H 1585.26 5.47995 2.69322 0
M  V30 16395 H 1586.67 5.71654 0.434137 0
M  V30 16396 H 1585.07 5.99314 -0.307126 0
M  V30 16397 H 1586.14 4.74923 -0.978557 0
M  V30 16398 N 1587.48 0.171848 1.5666 0
M  V30 16399 C 1588.73 -0.473061 1.96074 0
M  V30 16400 C 1589.04 -1.64353 1.06054 0
M  V30 16401 O 1590.25 -2.35471 1.35151 0
M  V30 16402 C 1588.7 -0.892995 3.48645 0
M  V30 16403 C 1588.31 0.251902 4.47291 0
M  V30 16404 C 1590.06 -1.50629 3.96877 0
M  V30 16405 C 1587.96 -0.187691 5.91102 0
M  V30 16406 H 1586.89 -0.180503 0.732075 0
M  V30 16407 H 1589.54 0.260164 1.81646 0
M  V30 16408 H 1587.93 -1.68221 3.58494 0
M  V30 16409 H 1589.1 1.02923 4.49159 0
M  V30 16410 H 1587.41 0.775193 4.09121 0
M  V30 16411 H 1590.01 -1.84724 5.01778 0
M  V30 16412 H 1590.35 -2.4044 3.39844 0
M  V30 16413 H 1590.89 -0.781502 3.90048 0
M  V30 16414 H 1587.63 0.675653 6.52009 0
M  V30 16415 H 1587.15 -0.93037 5.9254 0
M  V30 16416 H 1588.83 -0.631385 6.43912 0
M  V30 16417 N 1588.96 -1.5727 -0.101874 0
M  V30 16418 C 1590.19 -1.89943 -0.820329 0
M  V30 16419 C 1590.6 -0.764867 -1.72613 0
M  V30 16420 O 1589.96 0.263499 -1.80588 0
M  V30 16421 C 1590.01 -3.2219 -1.63939 0
M  V30 16422 O 1589.73 -4.31279 -0.770039 0
M  V30 16423 C 1591.23 -3.6868 -2.46151 0
M  V30 16424 H 1588.45 -0.628532 -0.234922 0
M  V30 16425 H 1590.99 -2.04339 -0.0811362 0
M  V30 16426 H 1589.15 -3.09411 -2.33117 0
M  V30 16427 H 1589.56 -5.07182 -1.33665 0
M  V30 16428 H 1591.04 -4.63928 -2.99124 0
M  V30 16429 H 1591.51 -2.96183 -3.24303 0
M  V30 16430 H 1592.12 -3.84303 -1.82185 0
M  V30 16431 N 1590.44 0.372521 -1.53134 0
M  V30 16432 C 1591.68 1.11754 -1.6923 0
M  V30 16433 C 1592.01 1.89167 -0.439265 0
M  V30 16434 O 1591.29 1.86164 0.563317 0
M  V30 16435 C 1591.57 2.08242 -2.93781 0
M  V30 16436 C 1591.43 1.34484 -4.29225 0
M  V30 16437 C 1592.74 3.08457 -3.13914 0
M  V30 16438 H 1589.86 0.404898 -0.615814 0
M  V30 16439 H 1592.51 0.399101 -1.85761 0
M  V30 16440 H 1590.66 2.69507 -2.79818 0
M  V30 16441 H 1592.33 0.76056 -4.54987 0
M  V30 16442 H 1590.57 0.646673 -4.28953 0
M  V30 16443 H 1591.24 2.05071 -5.12494 0
M  V30 16444 H 1593.72 2.57292 -3.27017 0
M  V30 16445 H 1592.59 3.73198 -4.0251 0
M  V30 16446 H 1592.85 3.78243 -2.28878 0
M  V30 16447 N 1591.91 1.44376 0.631925 0
M  V30 16448 C 1593.14 1.50598 1.41873 0
M  V30 16449 C 1593.56 0.130589 1.88348 0
M  V30 16450 O 1592.91 -0.86336 1.60787 0
M  V30 16451 C 1592.96 2.47 2.63957 0
M  V30 16452 O 1592.69 3.79192 2.1942 0
M  V30 16453 C 1594.19 2.62678 3.57092 0
M  V30 16454 H 1591.41 0.510792 0.435124 0
M  V30 16455 H 1593.95 1.89332 0.772893 0
M  V30 16456 H 1592.11 2.11404 3.24634 0
M  V30 16457 H 1592.52 4.31231 2.98563 0
M  V30 16458 H 1593.99 3.34161 4.39364 0
M  V30 16459 H 1594.47 1.67881 4.05848 0
M  V30 16460 H 1595.08 2.99172 3.02285 0
M  V30 16461 N 1593.39 -0.872258 1.31261 0
M  V30 16462 C 1594.35 -1.96081 1.1868 0
M  V30 16463 C 1595.35 -1.60392 0.11452 0
M  V30 16464 O 1596.54 -1.70363 0.363613 0
M  V30 16465 C 1593.68 -3.30862 0.821183 0
M  V30 16466 H 1594.87 -2.08667 2.15402 0
M  V30 16467 H 1592.42 -1.06026 1.14839 0
M  V30 16468 H 1593.16 -3.23976 -0.14498 0
M  V30 16469 H 1592.94 -3.58137 1.59625 0
M  V30 16470 H 1594.43 -4.10682 0.756991 0
M  V30 16471 N 1594.87 -1.14184 -1.08627 0
M  V30 16472 C 1596.1 -0.932104 -1.84714 0
M  V30 16473 C 1596.51 0.519335 -1.81517 0
M  V30 16474 O 1595.87 1.35978 -1.21722 0
M  V30 16475 C 1595.92 -1.42217 -3.3235 0
M  V30 16476 O 1595.64 -2.81674 -3.35547 0
M  V30 16477 C 1597.14 -1.25205 -4.25251 0
M  V30 16478 H 1594.36 -0.331854 -0.583193 0
M  V30 16479 H 1596.91 -1.51641 -1.37205 0
M  V30 16480 H 1595.06 -0.880679 -3.77257 0
M  V30 16481 H 1595.48 -3.03615 -4.2769 0
M  V30 16482 H 1596.95 -1.64358 -5.26963 0
M  V30 16483 H 1597.43 -0.194659 -4.38768 0
M  V30 16484 H 1598.03 -1.78198 -3.86168 0
M  V30 16485 N 1596.35 1.26749 -0.936613 0
M  V30 16486 C 1597.28 2.2892 -0.460213 0
M  V30 16487 C 1598.26 1.63065 0.484135 0
M  V30 16488 O 1599.44 1.90305 0.386973 0
M  V30 16489 C 1596.57 3.46172 0.279648 0
M  V30 16490 C 1595.53 4.24083 -0.57771 0
M  V30 16491 C 1594.85 5.33903 0.291843 0
M  V30 16492 C 1596.15 4.88562 -1.84673 0
M  V30 16493 H 1597.85 2.69019 -1.31412 0
M  V30 16494 H 1595.39 1.29325 -0.633333 0
M  V30 16495 H 1597.35 4.16755 0.623931 0
M  V30 16496 H 1596.07 3.05014 1.16765 0
M  V30 16497 H 1594.73 3.55258 -0.904824 0
M  V30 16498 H 1594.38 4.88986 1.17906 0
M  V30 16499 H 1594.08 5.8694 -0.278372 0
M  V30 16500 H 1595.6 6.07326 0.631498 0
M  V30 16501 H 1597.02 5.51384 -1.56997 0
M  V30 16502 H 1595.41 5.51697 -2.36115 0
M  V30 16503 H 1596.48 4.11761 -2.56088 0
M  V30 16504 N 1597.83 0.703118 1.41046 0
M  V30 16505 C 1598.79 0.0514476 2.29142 0
M  V30 16506 C 1599.79 -0.700223 1.44753 0
M  V30 16507 O 1600.98 -0.533985 1.65814 0
M  V30 16508 C 1598.11 -0.93735 3.2776 0
M  V30 16509 H 1599.3 0.827201 2.88266 0
M  V30 16510 H 1596.86 0.467045 1.49159 0
M  V30 16511 H 1597.59 -1.7406 2.7363 0
M  V30 16512 H 1597.38 -0.4014 3.9004 0
M  V30 16513 H 1598.87 -1.39088 3.93757 0
M  V30 16514 N 1599.3 -1.51086 0.448402 0
M  V30 16515 C 1600.23 -2.30896 -0.347773 0
M  V30 16516 C 1601.22 -1.36792 -1.01104 0
M  V30 16517 O 1602.4 -1.65713 -1.01257 0
M  V30 16518 C 1599.53 -3.15901 -1.44304 0
M  V30 16519 C 1598.48 -4.18373 -0.90265 0
M  V30 16520 C 1597.81 -4.9197 -2.0945 0
M  V30 16521 C 1599.11 -5.22252 0.0705335 0
M  V30 16522 H 1600.8 -2.97704 0.318273 0
M  V30 16523 H 1598.35 -1.43169 0.154509 0
M  V30 16524 H 1600.3 -3.70519 -2.00733 0
M  V30 16525 H 1599.03 -2.46935 -2.13753 0
M  V30 16526 H 1597.69 -3.64823 -0.3605 0
M  V30 16527 H 1597.33 -4.19497 -2.77545 0
M  V30 16528 H 1597.03 -5.6127 -1.73926 0
M  V30 16529 H 1598.56 -5.49415 -2.66412 0
M  V30 16530 H 1599.97 -5.71876 -0.403814 0
M  V30 16531 H 1598.37 -5.99142 0.338905 0
M  V30 16532 H 1599.44 -4.74398 1.00373 0
M  V30 16533 N 1600.78 -0.180154 -1.56567 0
M  V30 16534 C 1602.03 0.462656 -1.96322 0
M  V30 16535 C 1602.34 1.63788 -1.06925 0
M  V30 16536 O 1603.55 2.34751 -1.36398 0
M  V30 16537 C 1602.01 0.874492 -3.49114 0
M  V30 16538 C 1601.61 -0.27562 -4.47151 0
M  V30 16539 C 1603.36 1.48522 -3.9767 0
M  V30 16540 C 1601.27 0.156341 -5.91193 0
M  V30 16541 H 1600.2 0.176619 -0.733022 0
M  V30 16542 H 1602.85 -0.269793 -1.81506 0
M  V30 16543 H 1601.23 1.66318 -3.59381 0
M  V30 16544 H 1602.4 -1.05304 -4.48606 0
M  V30 16545 H 1600.72 -0.796878 -4.08704 0
M  V30 16546 H 1603.31 1.8206 -5.02751 0
M  V30 16547 H 1603.66 2.38634 -3.41115 0
M  V30 16548 H 1604.19 0.760806 -3.90457 0
M  V30 16549 H 1600.93 -0.710221 -6.51641 0
M  V30 16550 H 1600.45 0.898933 -5.93025 0
M  V30 16551 H 1602.13 0.597228 -6.44238 0
M  V30 16552 N 1602.26 1.57322 0.0935319 0
M  V30 16553 C 1603.51 1.858 0.795165 0
M  V30 16554 C 1603.83 0.769078 1.79193 0
M  V30 16555 O 1603.1 -0.204511 1.9483 0
M  V30 16556 H 1601.68 0.68557 0.296653 0
M  V30 16557 H 1604.34 1.94756 0.0747892 0
M  V30 16558 H 1603.44 2.82588 1.32479 0
M  V30 16559 N 1603.74 -0.364395 1.53329 0
M  V30 16560 C 1604.98 -1.11559 1.71272 0
M  V30 16561 C 1605.34 -1.86521 0.455401 0
M  V30 16562 O 1606.54 -2.63888 0.511533 0
M  V30 16563 C 1604.81 -2.04838 2.92875 0
M  V30 16564 S 1606.37 -2.87462 3.31529 0
M  V30 16565 H 1603.19 -0.377267 0.602653 0
M  V30 16566 H 1605.79 -0.396684 1.91433 0
M  V30 16567 H 1604.5 -1.48532 3.82579 0
M  V30 16568 H 1604.03 -2.81199 2.75119 0
M  V30 16569 H 1606.04 -4.07144 2.83634 0
M  V30 16570 N 1605.22 -1.44709 -0.62426 0
M  V30 16571 C 1606.44 -1.51348 -1.41072 0
M  V30 16572 C 1606.86 -0.140576 -1.88276 0
M  V30 16573 O 1606.22 0.854821 -1.61242 0
M  V30 16574 C 1606.27 -2.48396 -2.62643 0
M  V30 16575 O 1605.99 -3.8035 -2.17406 0
M  V30 16576 C 1607.49 -2.64568 -3.55694 0
M  V30 16577 H 1604.71 -0.513092 -0.432409 0
M  V30 16578 H 1607.25 -1.89739 -0.762841 0
M  V30 16579 H 1605.41 -2.13122 -3.23508 0
M  V30 16580 H 1605.82 -4.32809 -2.96272 0
M  V30 16581 H 1607.3 -3.36486 -4.37585 0
M  V30 16582 H 1607.77 -1.70031 -4.04952 0
M  V30 16583 H 1608.38 -3.00771 -3.00694 0
M  V30 16584 N 1606.69 0.865285 -1.31722 0
M  V30 16585 C 1607.92 1.65661 -1.24785 0
M  V30 16586 C 1608.34 1.87208 0.182952 0
M  V30 16587 O 1607.7 1.41721 1.1307 0
M  V30 16588 C 1607.75 2.99921 -2.00199 0
M  V30 16589 O 1606.85 3.89936 -1.34253 0
M  V30 16590 H 1606.2 0.505459 -0.430589 0
M  V30 16591 H 1608.73 1.0785 -1.73867 0
M  V30 16592 H 1608.74 3.49823 -2.09971 0
M  V30 16593 H 1607.41 2.83559 -3.04249 0
M  V30 16594 H 1605.99 3.4839 -1.32961 0
M  V30 16595 N 1608.17 1.14759 1.0802 0
M  V30 16596 C 1609.4 0.942316 1.84757 0
M  V30 16597 C 1609.82 -0.504188 1.81217 0
M  V30 16598 O 1609.18 -1.35891 1.20014 0
M  V30 16599 C 1609.23 1.45271 3.30043 0
M  V30 16600 O 1608.33 0.647414 4.07287 0
M  V30 16601 H 1607.67 0.336613 0.572353 0
M  V30 16602 H 1610.2 1.52578 1.36313 0
M  V30 16603 H 1610.21 1.4626 3.80883 0
M  V30 16604 H 1608.89 2.50583 3.31935 0
M  V30 16605 H 1607.47 0.706595 3.66144 0
M  V30 16606 N 1609.65 -1.26251 0.943322 0
M  V30 16607 C 1611.06 -1.75591 0.634391 0
M  V30 16608 C 1611.41 -1.76812 -0.850406 0
M  V30 16609 O 1610.54 -1.38162 -1.66554 0
M  V30 16610 C 1611.13 -3.18871 1.14484 0
M  V30 16611 C 1609.69 -3.65817 0.886285 0
M  V30 16612 C 1608.84 -2.4523 1.2945 0
M  V30 16613 H 1611.79 -1.12297 1.12139 0
M  V30 16614 H 1611.81 -3.77205 0.499654 0
M  V30 16615 H 1611.32 -3.17951 2.22551 0
M  V30 16616 H 1609.42 -3.72165 -0.179913 0
M  V30 16617 H 1609.54 -4.54523 1.5148 0
M  V30 16618 H 1607.9 -2.44519 0.712919 0
M  V30 16619 H 1608.68 -2.47009 2.38415 0
M  V30 16620 N 1611.13 -0.710588 -1.40671 0
M  V30 16621 C 1612.38 -0.257123 -2.01768 0
M  V30 16622 C 1612.73 1.13545 -1.55323 0
M  V30 16623 O 1612.02 1.75831 -0.761183 0
M  V30 16624 C 1612.22 -0.270478 -3.56375 0
M  V30 16625 C 1612.05 -1.66282 -4.17828 0
M  V30 16626 C 1610.82 -2.26928 -4.51478 0
M  V30 16627 C 1613.01 -2.61216 -4.43025 0
M  V30 16628 N 1611 -3.58569 -4.98298 0
M  V30 16629 C 1612.37 -3.77557 -4.91783 0
M  V30 16630 C 1614.42 -2.59291 -4.25056 0
M  V30 16631 C 1613.13 -4.92274 -5.24461 0
M  V30 16632 C 1615.15 -3.73132 -4.58831 0
M  V30 16633 C 1614.51 -4.88205 -5.07775 0
M  V30 16634 H 1610.61 -0.13981 -0.7694 0
M  V30 16635 H 1613.2 -0.931308 -1.70982 0
M  V30 16636 H 1611.37 0.373251 -3.86602 0
M  V30 16637 H 1613.1 0.199227 -4.04209 0
M  V30 16638 H 1609.85 -1.79072 -4.38441 0
M  V30 16639 H 1610.28 -4.26088 -5.26097 0
M  V30 16640 H 1614.92 -1.71533 -3.86441 0
M  V30 16641 H 1612.64 -5.80681 -5.61992 0
M  V30 16642 H 1616.22 -3.72912 -4.46573 0
M  V30 16643 H 1615.1 -5.74835 -5.33418 0
M  V30 16644 N 1612.61 1.50847 -0.456408 0
M  V30 16645 C 1614.02 1.59222 -0.109731 0
M  V30 16646 C 1614.22 1.46582 1.3826 0
M  V30 16647 O 1613.28 1.31678 2.15446 0
M  V30 16648 C 1614.59 2.9366 -0.646846 0
M  V30 16649 C 1616.14 3.07019 -0.60897 0
M  V30 16650 C 1616.62 4.44009 -1.12338 0
M  V30 16651 N 1618.11 4.50381 -1.08217 0
M  V30 16652 C 1618.84 5.54741 -1.45086 0
M  V30 16653 N 1618.34 6.66427 -1.89333 0
M  V30 16654 N 1620.13 5.45204 -1.36782 0
M  V30 16655 H 1612.28 1.57307 -1.42717 0
M  V30 16656 H 1614.54 0.742587 -0.589295 0
M  V30 16657 H 1614.25 3.0834 -1.69172 0
M  V30 16658 H 1614.12 3.7711 -0.0822535 0
M  V30 16659 H 1616.51 2.91995 0.426958 0
M  V30 16660 H 1616.59 2.25362 -1.21019 0
M  V30 16661 H 1616.24 4.59781 -2.15787 0
M  V30 16662 H 1616.17 5.24235 -0.498512 0
M  V30 16663 H 1618.66 3.70231 -0.757467 0
M  V30 16664 H 1618.97 7.42101 -2.15652 0
M  V30 16665 H 1617.32 6.67585 -1.93275 0
M  V30 16666 H 1620.51 4.56837 -1.02066 0
M  V30 16667 H 1620.68 6.26419 -1.65842 0
M  V30 16668 N 1614.09 0.188454 1.56469 0
M  V30 16669 C 1615.33 -0.446133 1.98447 0
M  V30 16670 C 1615.69 -1.59695 1.07309 0
M  V30 16671 O 1614.98 -1.91248 0.116155 0
M  V30 16672 C 1615.17 -0.960652 3.44247 0
M  V30 16673 C 1615 0.138775 4.49486 0
M  V30 16674 C 1613.77 0.594191 5.01794 0
M  V30 16675 C 1615.97 0.945352 5.05537 0
M  V30 16676 N 1613.95 1.67213 5.90689 0
M  V30 16677 C 1615.32 1.87284 5.91037 0
M  V30 16678 C 1617.38 0.988513 4.87989 0
M  V30 16679 C 1616.08 2.83989 6.60865 0
M  V30 16680 C 1618.11 1.94358 5.58551 0
M  V30 16681 C 1617.47 2.85852 6.43792 0
M  V30 16682 H 1613.57 -0.130863 0.770973 0
M  V30 16683 H 1616.15 0.29262 1.92489 0
M  V30 16684 H 1614.32 -1.66887 3.50718 0
M  V30 16685 H 1616.06 -1.56529 3.73203 0
M  V30 16686 H 1612.81 0.188748 4.73224 0
M  V30 16687 H 1613.23 2.21211 6.3984 0
M  V30 16688 H 1617.88 0.295146 4.21769 0
M  V30 16689 H 1615.59 3.54305 7.26288 0
M  V30 16690 H 1619.18 1.9833 5.46952 0
M  V30 16691 H 1618.06 3.5855 6.97432 0
M  V30 16692 N 1615.56 -1.5737 -0.0851874 0
M  V30 16693 C 1616.49 -2.05796 -1.10319 0
M  V30 16694 C 1617.47 -0.948796 -1.4118 0
M  V30 16695 O 1618.66 -1.22069 -1.51039 0
M  V30 16696 C 1615.79 -2.49069 -2.42037 0
M  V30 16697 C 1614.74 -3.6374 -2.25561 0
M  V30 16698 C 1614.07 -3.93023 -3.62543 0
M  V30 16699 C 1615.37 -4.94274 -1.68793 0
M  V30 16700 H 1617.06 -2.91095 -0.700274 0
M  V30 16701 H 1614.61 -1.40039 -0.335405 0
M  V30 16702 H 1616.56 -2.81558 -3.13534 0
M  V30 16703 H 1615.29 -1.60781 -2.84283 0
M  V30 16704 H 1613.95 -3.31513 -1.56507 0
M  V30 16705 H 1613.59 -3.01887 -4.02335 0
M  V30 16706 H 1613.29 -4.70229 -3.52362 0
M  V30 16707 H 1614.82 -4.27995 -4.35491 0
M  V30 16708 H 1616.23 -5.25079 -2.30141 0
M  V30 16709 H 1614.63 -5.75711 -1.69344 0
M  V30 16710 H 1615.7 -4.80548 -0.648204 0
M  V30 16711 N 1617.04 0.356258 -1.53521 0
M  V30 16712 C 1617.99 1.43689 -1.80616 0
M  V30 16713 C 1618.96 1.52808 -0.651064 0
M  V30 16714 O 1620.14 1.68549 -0.894203 0
M  V30 16715 C 1617.28 2.80513 -2.01013 0
M  V30 16716 C 1616.4 2.80287 -3.2873 0
M  V30 16717 C 1615.53 4.08747 -3.39263 0
M  V30 16718 C 1614.57 4.02699 -4.60977 0
M  V30 16719 N 1613.71 5.22825 -4.68614 0
M  V30 16720 H 1618.55 1.19884 -2.72822 0
M  V30 16721 H 1616.08 0.580984 -1.35141 0
M  V30 16722 H 1618.04 3.60011 -2.10827 0
M  V30 16723 H 1616.67 3.02698 -1.12134 0
M  V30 16724 H 1615.72 1.92968 -3.27822 0
M  V30 16725 H 1617.04 2.71693 -4.18311 0
M  V30 16726 H 1616.19 4.96663 -3.4844 0
M  V30 16727 H 1614.93 4.20106 -2.47715 0
M  V30 16728 H 1613.93 3.13168 -4.51892 0
M  V30 16729 H 1615.16 3.92934 -5.53877 0
M  V30 16730 H 1613.11 5.34752 -3.79969 0
M  V30 16731 H 1613.02 5.16437 -5.52113 0
M  V30 16732 H 1614.29 6.12548 -4.82085 0
M  V30 16733 N 1618.52 1.45038 0.616577 0
M  V30 16734 C 1619.45 1.49023 1.7414 0
M  V30 16735 C 1620.46 0.381965 1.58256 0
M  V30 16736 O 1621.65 0.648527 1.66302 0
M  V30 16737 C 1618.75 1.32233 3.12038 0
M  V30 16738 C 1617.93 2.5657 3.54246 0
M  V30 16739 C 1616.99 2.34468 4.71075 0
M  V30 16740 O 1616.01 3.08035 4.78647 0
M  V30 16741 N 1617.21 1.38454 5.63747 0
M  V30 16742 H 1619.98 2.45997 1.71189 0
M  V30 16743 H 1617.54 1.40663 0.80159 0
M  V30 16744 H 1619.53 1.15271 3.87936 0
M  V30 16745 H 1618.1 0.435685 3.09549 0
M  V30 16746 H 1617.32 2.88709 2.68404 0
M  V30 16747 H 1618.61 3.39239 3.79203 0
M  V30 16748 H 1618.01 0.777236 5.60335 0
M  V30 16749 H 1616.56 1.27467 6.39215 0
M  V30 16750 N 1620 -0.858287 1.32179 0
M  V30 16751 C 1620.94 -1.96656 1.20811 0
M  V30 16752 C 1621.91 -1.6585 0.0911199 0
M  V30 16753 O 1623.1 -1.88936 0.266033 0
M  V30 16754 C 1620.24 -3.32237 0.933408 0
M  V30 16755 C 1619.35 -3.75564 2.13484 0
M  V30 16756 C 1618.49 -4.9992 1.79593 0
M  V30 16757 C 1617.53 -5.35728 2.96077 0
M  V30 16758 N 1616.66 -6.51261 2.62304 0
M  V30 16759 H 1621.5 -2.05711 2.15609 0
M  V30 16760 H 1619.04 -1.00689 1.07239 0
M  V30 16761 H 1621 -4.10318 0.754651 0
M  V30 16762 H 1619.63 -3.22792 0.0222279 0
M  V30 16763 H 1618.68 -2.93167 2.42399 0
M  V30 16764 H 1619.99 -3.98025 3.00629 0
M  V30 16765 H 1619.15 -5.85698 1.58248 0
M  V30 16766 H 1617.89 -4.79388 0.896561 0
M  V30 16767 H 1616.89 -4.48463 3.18058 0
M  V30 16768 H 1618.12 -5.58219 3.86741 0
M  V30 16769 H 1616.06 -6.32254 1.74904 0
M  V30 16770 H 1615.98 -6.73722 3.42979 0
M  V30 16771 H 1617.25 -7.40202 2.4438 0
M  V30 16772 N 1621.48 -1.1533 -1.07409 0
M  V30 16773 C 1622.72 -0.929181 -1.80261 0
M  V30 16774 C 1623.05 0.542387 -1.86472 0
M  V30 16775 O 1622.33 1.40209 -1.34802 0
M  V30 16776 C 1622.61 -1.54339 -3.25348 0
M  V30 16777 C 1622.47 -3.08551 -3.27286 0
M  V30 16778 C 1623.78 -1.22868 -4.22601 0
M  V30 16779 H 1620.9 -0.338985 -0.654414 0
M  V30 16780 H 1623.55 -1.42485 -1.2569 0
M  V30 16781 H 1621.7 -1.12187 -3.71949 0
M  V30 16782 H 1623.37 -3.59605 -2.88932 0
M  V30 16783 H 1621.61 -3.42471 -2.66263 0
M  V30 16784 H 1622.28 -3.4664 -4.29587 0
M  V30 16785 H 1624.76 -1.59328 -3.84388 0
M  V30 16786 H 1623.63 -1.68462 -5.2241 0
M  V30 16787 H 1623.89 -0.145612 -4.4186 0
M  V30 16788 N 1622.95 1.25748 -0.950004 0
M  V30 16789 C 1624.18 1.97952 -0.618848 0
M  V30 16790 C 1624.6 1.70184 0.801194 0
M  V30 16791 O 1623.96 0.955032 1.54107 0
M  V30 16792 C 1624.01 3.49744 -0.878151 0
M  V30 16793 O 1623.11 4.12375 0.0453685 0
M  V30 16794 H 1622.45 0.620731 -0.235773 0
M  V30 16795 H 1624.98 1.59988 -1.27534 0
M  V30 16796 H 1624.99 4.00029 -0.802567 0
M  V30 16797 H 1623.67 3.69285 -1.91315 0
M  V30 16798 H 1622.25 3.7281 -0.0820265 0
M  V30 16799 N 1624.43 0.718038 1.40292 0
M  V30 16800 C 1625.36 0.0276294 2.29183 0
M  V30 16801 C 1626.38 -0.721208 1.45954 0
M  V30 16802 O 1627.57 -0.568181 1.69216 0
M  V30 16803 C 1624.67 -0.985139 3.24266 0
M  V30 16804 C 1623.84 -0.301327 4.36361 0
M  V30 16805 C 1622.9 -1.21982 5.11866 0
M  V30 16806 O 1621.92 -0.70369 5.64833 0
M  V30 16807 N 1623.13 -2.55079 5.21455 0
M  V30 16808 H 1625.89 0.790884 2.89076 0
M  V30 16809 H 1623.45 0.565867 1.51689 0
M  V30 16810 H 1625.44 -1.60183 3.7165 0
M  V30 16811 H 1624.01 -1.64973 2.65523 0
M  V30 16812 H 1623.23 0.495594 3.91072 0
M  V30 16813 H 1624.52 0.173238 5.08505 0
M  V30 16814 H 1623.92 -2.99506 4.79909 0
M  V30 16815 H 1622.48 -3.11886 5.72338 0
M  V30 16816 N 1625.91 -1.50602 0.464402 0
M  V30 16817 C 1627.14 -2.06401 -0.0906449 0
M  V30 16818 C 1627.55 -1.32913 -1.3465 0
M  V30 16819 O 1626.89 -0.389959 -1.79513 0
M  V30 16820 C 1626.95 -3.56655 -0.451375 0
M  V30 16821 C 1626.62 -4.51584 0.701504 0
M  V30 16822 C 1627.61 -4.95259 1.5816 0
M  V30 16823 C 1625.3 -4.94354 0.88993 0
M  V30 16824 C 1627.29 -5.80404 2.63458 0
M  V30 16825 C 1624.98 -5.79283 1.94615 0
M  V30 16826 C 1625.98 -6.22208 2.81684 0
M  V30 16827 O 1625.67 -7.05446 3.85489 0
M  V30 16828 H 1625.4 -0.676 0.000751268 0
M  V30 16829 H 1627.95 -1.94836 0.650235 0
M  V30 16830 H 1626.18 -3.66098 -1.24535 0
M  V30 16831 H 1627.87 -3.94848 -0.940722 0
M  V30 16832 H 1628.64 -4.6289 1.44768 0
M  V30 16833 H 1624.52 -4.60467 0.221708 0
M  V30 16834 H 1628.06 -6.13829 3.3145 0
M  V30 16835 H 1623.96 -6.11064 2.08016 0
M  V30 16836 H 1624.73 -7.23682 3.82396 0
M  V30 16837 N 1627.39 -0.19675 -1.56367 0
M  V30 16838 C 1628.62 0.446491 -2.01718 0
M  V30 16839 C 1629.03 1.55621 -1.07604 0
M  V30 16840 O 1628.37 1.83553 -0.0733943 0
M  V30 16841 C 1628.43 1.06182 -3.43461 0
M  V30 16842 C 1628.1 0.0906278 -4.5691 0
M  V30 16843 C 1629.09 -0.700599 -5.15158 0
M  V30 16844 C 1626.78 -0.0209341 -5.02296 0
M  V30 16845 C 1628.77 -1.59034 -6.17241 0
M  V30 16846 C 1626.46 -0.91423 -6.04223 0
M  V30 16847 C 1627.46 -1.6975 -6.61569 0
M  V30 16848 O 1627.14 -2.57582 -7.61516 0
M  V30 16849 H 1626.88 0.116254 -0.665929 0
M  V30 16850 H 1629.43 -0.303224 -2.03149 0
M  V30 16851 H 1627.66 1.86015 -3.39021 0
M  V30 16852 H 1629.35 1.60988 -3.72609 0
M  V30 16853 H 1630.12 -0.624723 -4.8096 0
M  V30 16854 H 1625.99 0.578557 -4.57355 0
M  V30 16855 H 1629.54 -2.20215 -6.6193 0
M  V30 16856 H 1625.44 -0.991215 -6.37844 0
M  V30 16857 H 1626.2 -2.5138 -7.78942 0
M  V30 16858 N 1628.87 1.57413 0.0768405 0
M  V30 16859 C 1630.11 1.86633 0.775414 0
M  V30 16860 C 1630.44 0.788041 1.78367 0
M  V30 16861 O 1629.71 -0.183835 1.95036 0
M  V30 16862 H 1628.29 0.688678 0.289365 0
M  V30 16863 H 1630.95 1.94825 0.0541285 0
M  V30 16864 H 1630.04 2.83977 1.29474 0
M  V30 16865 N 1630.34 -0.348112 1.53707 0
M  V30 16866 C 1631.59 -1.08626 1.69951 0
M  V30 16867 C 1631.91 -1.89944 0.466992 0
M  V30 16868 O 1633.11 -2.66661 0.51029 0
M  V30 16869 C 1631.57 -1.98052 3.00505 0
M  V30 16870 C 1631.18 -1.21963 4.31079 0
M  V30 16871 C 1632.92 -2.71752 3.26115 0
M  V30 16872 C 1630.83 -2.10392 5.52711 0
M  V30 16873 H 1629.76 -0.409241 0.633275 0
M  V30 16874 H 1632.41 -0.346051 1.80207 0
M  V30 16875 H 1630.79 -2.75874 2.84094 0
M  V30 16876 H 1631.96 -0.490831 4.58178 0
M  V30 16877 H 1630.28 -0.600511 4.12047 0
M  V30 16878 H 1632.88 -3.38174 4.14177 0
M  V30 16879 H 1633.22 -3.38072 2.42926 0
M  V30 16880 H 1633.75 -2.01005 3.43281 0
M  V30 16881 H 1630.49 -1.48622 6.38429 0
M  V30 16882 H 1630.01 -2.81074 5.29866 0
M  V30 16883 H 1631.69 -2.69551 5.88176 0
M  V30 16884 N 1631.82 -1.45363 -0.608876 0
M  V30 16885 C 1633.23 -1.43794 -1.19081 0
M  V30 16886 C 1633.58 -0.164874 -1.95506 0
M  V30 16887 O 1632.71 0.733623 -2.03585 0
M  V30 16888 C 1633.3 -2.60506 -2.16615 0
M  V30 16889 C 1631.86 -2.62061 -2.70187 0
M  V30 16890 C 1631.01 -2.36018 -1.4557 0
M  V30 16891 H 1633.96 -1.53622 -0.39826 0
M  V30 16892 H 1633.98 -2.34531 -2.99625 0
M  V30 16893 H 1633.49 -3.53147 -1.60963 0
M  V30 16894 H 1631.6 -1.73423 -3.2978 0
M  V30 16895 H 1631.71 -3.61242 -3.14708 0
M  V30 16896 H 1630.07 -1.8555 -1.74481 0
M  V30 16897 H 1630.86 -3.30802 -0.917884 0
M  V30 16898 N 1633.3 0.851265 -1.32632 0
M  V30 16899 C 1634.23 1.96408 -1.16187 0
M  V30 16900 C 1635.21 1.62488 -0.0604559 0
M  V30 16901 O 1636.4 1.87207 -0.220397 0
M  V30 16902 C 1633.52 3.29611 -0.779378 0
M  V30 16903 C 1632.57 3.82509 -1.88652 0
M  V30 16904 S 1633.4 4.05687 -3.4954 0
M  V30 16905 C 1634.56 5.4186 -3.1327 0
M  V30 16906 H 1634.79 2.10056 -2.10389 0
M  V30 16907 H 1632.32 1.00363 -1.17332 0
M  V30 16908 H 1634.28 4.06587 -0.565463 0
M  V30 16909 H 1632.94 3.1377 0.143841 0
M  V30 16910 H 1632.14 4.78858 -1.57196 0
M  V30 16911 H 1631.74 3.12388 -2.05645 0
M  V30 16912 H 1634.03 6.24233 -2.63325 0
M  V30 16913 H 1634.97 5.7828 -4.08654 0
M  V30 16914 H 1635.38 5.06025 -2.50199 0
M  V30 16915 N 1634.78 1.15898 1.06796 0
M  V30 16916 C 1635.74 0.863427 2.12315 0
M  V30 16917 C 1636.74 -0.139326 1.60195 0
M  V30 16918 O 1637.93 0.0909705 1.73962 0
M  V30 16919 C 1635.06 0.290251 3.39662 0
M  V30 16920 H 1636.26 1.79879 2.39966 0
M  V30 16921 H 1633.81 0.967223 1.22778 0
M  V30 16922 H 1634.54 -0.653037 3.17657 0
M  V30 16923 H 1634.33 1.01273 3.78796 0
M  V30 16924 H 1635.82 0.10124 4.17477 0
M  V30 16925 N 1636.26 -1.25243 0.956659 0
M  V30 16926 C 1637.17 -2.29529 0.48515 0
M  V30 16927 C 1638.18 -1.68121 -0.448494 0
M  V30 16928 O 1639.36 -1.98773 -0.324243 0
M  V30 16929 C 1636.42 -3.45952 -0.227611 0
M  V30 16930 C 1635.48 -4.22795 0.744495 0
M  V30 16931 C 1634.72 -5.3366 0.0656539 0
M  V30 16932 O 1634.94 -5.58722 -1.14829 0
M  V30 16933 O 1633.87 -5.97181 0.75222 0
M  V30 16934 H 1637.7 -2.71955 1.35181 0
M  V30 16935 H 1635.29 -1.30729 0.723203 0
M  V30 16936 H 1637.17 -4.16687 -0.628474 0
M  V30 16937 H 1635.84 -3.05524 -1.06942 0
M  V30 16938 H 1634.75 -3.5448 1.1956 0
M  V30 16939 H 1636.08 -4.67012 1.55438 0
M  V30 16940 N 1637.73 -0.725468 -1.3991 0
M  V30 16941 C 1639.15 -0.400048 -1.54505 0
M  V30 16942 C 1639.35 1.09014 -1.69464 0
M  V30 16943 O 1638.41 1.87624 -1.68977 0
M  V30 16944 C 1639.72 -1.17474 -2.76804 0
M  V30 16945 C 1641.27 -1.16202 -2.9063 0
M  V30 16946 C 1641.74 -1.91908 -4.15855 0
M  V30 16947 N 1643.23 -1.89026 -4.22875 0
M  V30 16948 C 1643.97 -2.4442 -5.18697 0
M  V30 16949 N 1643.46 -3.0841 -6.20367 0
M  V30 16950 N 1645.26 -2.34506 -5.10846 0
M  V30 16951 H 1637.41 -1.6916 -1.28447 0
M  V30 16952 H 1639.67 -0.715556 -0.621839 0
M  V30 16953 H 1639.38 -2.22881 -2.72061 0
M  V30 16954 H 1639.25 -0.772871 -3.69197 0
M  V30 16955 H 1641.64 -0.116116 -2.94871 0
M  V30 16956 H 1641.72 -1.60319 -1.99327 0
M  V30 16957 H 1641.36 -2.96494 -4.12375 0
M  V30 16958 H 1641.29 -1.45204 -5.06185 0
M  V30 16959 H 1643.78 -1.42399 -3.50044 0
M  V30 16960 H 1644.1 -3.48169 -6.89926 0
M  V30 16961 H 1642.44 -3.12497 -6.20782 0
M  V30 16962 H 1645.63 -1.84164 -4.3035 0
M  V30 16963 H 1645.81 -2.77976 -5.85349 0
M  V30 16964 N 1639.21 1.50354 -0.472382 0
M  V30 16965 C 1640.14 2.26396 0.357429 0
M  V30 16966 C 1641.16 1.31778 0.955949 0
M  V30 16967 O 1642.35 1.57279 0.844136 0
M  V30 16968 C 1639.45 3.03131 1.51542 0
M  V30 16969 C 1638.62 4.25113 1.02945 0
M  V30 16970 C 1637.68 4.84131 2.06164 0
M  V30 16971 O 1636.7 5.4501 1.64174 0
M  V30 16972 N 1637.91 4.71244 3.38983 0
M  V30 16973 H 1640.67 2.9825 -0.294473 0
M  V30 16974 H 1638.23 1.59035 -0.303242 0
M  V30 16975 H 1640.22 3.39492 2.20289 0
M  V30 16976 H 1638.79 2.34067 2.07199 0
M  V30 16977 H 1638.01 3.93843 0.167821 0
M  V30 16978 H 1639.3 5.04199 0.682705 0
M  V30 16979 H 1638.7 4.22831 3.75807 0
M  V30 16980 H 1637.26 5.11871 4.03524 0
M  V30 16981 N 1640.69 0.205039 1.56261 0
M  V30 16982 C 1641.64 -0.728433 2.209 0
M  V30 16983 C 1642.63 -1.21228 1.18322 0
M  V30 16984 O 1643.84 -1.17402 1.36443 0
M  V30 16985 H 1640.21 -0.253283 0.708062 0
M  V30 16986 H 1642.19 -0.159654 2.97973 0
M  V30 16987 C 1640.93 -1.93311 2.89009 0
M  V30 16988 H 1640.26 -1.56988 3.67688 0
M  V30 16989 H 1641.7 -2.5644 3.3766 0
M  V30 16990 C 1640.16 -2.77814 1.9058 0
M  V30 16991 O 1640.69 -3.76053 1.41233 0
M  V30 16992 N 1638.89 -2.4351 1.58591 0
M  V30 16993 H 1638.44 -1.6368 1.98914 0
M  V30 16994 H 1638.4 -3.00333 0.929918 0
M  V30 16995 N 1642.17 -1.57451 -0.0684915 0
M  V30 16996 C 1643.12 -2.04959 -1.09975 0
M  V30 16997 C 1644.11 -0.955558 -1.39877 0
M  V30 16998 O 1645.32 -1.14066 -1.39245 0
M  V30 16999 H 1641.69 -0.653542 -0.372003 0
M  V30 17000 H 1643.66 -2.90713 -0.67294 0
M  V30 17001 C 1642.41 -2.51192 -2.40412 0
M  V30 17002 H 1641.74 -3.3497 -2.18254 0
M  V30 17003 H 1643.18 -2.88183 -3.11008 0
M  V30 17004 C 1641.63 -1.39624 -3.06605 0
M  V30 17005 O 1642.16 -0.740191 -3.94822 0
M  V30 17006 N 1640.37 -1.14054 -2.67283 0
M  V30 17007 H 1639.92 -1.67585 -1.95635 0
M  V30 17008 H 1639.88 -0.396106 -3.11895 0
M  V30 17009 N 1643.65 0.339955 -1.5389 0
M  V30 17010 C 1644.9 1.07766 -1.7097 0
M  V30 17011 C 1645.22 1.89064 -0.477486 0
M  V30 17012 O 1644.49 1.89183 0.508579 0
M  V30 17013 H 1643.07 0.400849 -0.630341 0
M  V30 17014 H 1645.73 0.380359 -1.91153 0
M  V30 17015 H 1644.82 1.75301 -2.58217 0
M  V30 17016 N 1645.13 1.45684 0.601159 0
M  V30 17017 C 1646.37 1.51248 1.35999 0
M  V30 17018 C 1646.73 0.154593 1.91778 0
M  V30 17019 O 1646.02 -0.834366 1.72479 0
M  V30 17020 C 1646.21 2.53235 2.52204 0
M  V30 17021 C 1646.04 3.98807 2.07806 0
M  V30 17022 C 1644.81 4.66708 1.93678 0
M  V30 17023 C 1647.01 4.87153 1.64883 0
M  V30 17024 N 1644.99 5.96975 1.43157 0
M  V30 17025 C 1646.36 6.07098 1.25823 0
M  V30 17026 C 1648.42 4.7396 1.52533 0
M  V30 17027 C 1647.12 7.15311 0.756454 0
M  V30 17028 C 1649.15 5.82227 1.0376 0
M  V30 17029 C 1648.51 7.01332 0.656674 0
M  V30 17030 H 1644.61 0.608376 0.491327 0
M  V30 17031 H 1647.19 1.82194 0.686534 0
M  V30 17032 H 1645.36 2.24229 3.17137 0
M  V30 17033 H 1647.1 2.48907 3.19104 0
M  V30 17034 H 1643.85 4.21955 2.15061 0
M  V30 17035 H 1644.27 6.6626 1.20111 0
M  V30 17036 H 1648.92 3.82284 1.80607 0
M  V30 17037 H 1646.63 8.06771 0.463273 0
M  V30 17038 H 1650.22 5.74054 0.946207 0
M  V30 17039 H 1649.1 7.83682 0.285073 0
M  V30 17040 N 1646.6 -0.84422 1.33082 0
M  V30 17041 C 1647.53 -1.96899 1.25511 0
M  V30 17042 C 1648.51 -1.69549 0.13677 0
M  V30 17043 O 1649.7 -1.9145 0.325667 0
M  V30 17044 C 1646.83 -3.32947 0.988094 0
M  V30 17045 C 1645.78 -3.7468 2.06879 0
M  V30 17046 C 1645.11 -5.08475 1.65401 0
M  V30 17047 C 1646.41 -3.89033 3.48498 0
M  V30 17048 H 1648.1 -2.03491 2.19617 0
M  V30 17049 H 1645.65 -0.977659 1.05725 0
M  V30 17050 H 1647.6 -4.11198 0.921645 0
M  V30 17051 H 1646.33 -3.26598 0.0114067 0
M  V30 17052 H 1644.99 -2.98689 2.12557 0
M  V30 17053 H 1644.63 -4.98592 0.66449 0
M  V30 17054 H 1644.33 -5.37368 2.37717 0
M  V30 17055 H 1645.86 -5.89207 1.60212 0
M  V30 17056 H 1647.27 -4.57609 3.4535 0
M  V30 17057 H 1645.67 -4.29357 4.19253 0
M  V30 17058 H 1646.74 -2.91639 3.87395 0
M  V30 17059 N 1648.08 -1.16463 -1.0618 0
M  V30 17060 C 1649.03 -0.87224 -2.13683 0
M  V30 17061 C 1650 0.179784 -1.65124 0
M  V30 17062 O 1651.18 0.0447406 -1.90748 0
M  V30 17063 C 1648.32 -0.380728 -3.42993 0
M  V30 17064 C 1647.44 -1.49571 -4.05281 0
M  V30 17065 C 1646.57 -0.959099 -5.2247 0
M  V30 17066 C 1645.61 -2.05021 -5.76743 0
M  V30 17067 N 1644.75 -1.5291 -6.85247 0
M  V30 17068 H 1649.59 -1.79288 -2.38033 0
M  V30 17069 H 1647.12 -0.894379 -1.16787 0
M  V30 17070 H 1649.08 -0.0773816 -4.17128 0
M  V30 17071 H 1647.71 0.502966 -3.18857 0
M  V30 17072 H 1646.76 -1.915 -3.28682 0
M  V30 17073 H 1648.08 -2.31904 -4.41613 0
M  V30 17074 H 1647.23 -0.609003 -6.03636 0
M  V30 17075 H 1645.97 -0.105086 -4.87587 0
M  V30 17076 H 1644.97 -2.40899 -4.94214 0
M  V30 17077 H 1646.2 -2.90821 -6.13678 0
M  V30 17078 H 1644.15 -0.697639 -6.5228 0
M  V30 17079 H 1644.06 -2.28859 -7.20527 0
M  V30 17080 H 1645.33 -1.20762 -7.70089 0
M  V30 17081 N 1649.56 1.24734 -0.963288 0
M  V30 17082 C 1650.51 2.25555 -0.48926 0
M  V30 17083 C 1651.48 1.59521 0.462848 0
M  V30 17084 O 1652.66 1.87095 0.374188 0
M  V30 17085 C 1649.8 3.44407 0.218629 0
M  V30 17086 C 1648.91 4.25051 -0.77173 0
M  V30 17087 C 1648.05 5.31185 -0.0403986 0
M  V30 17088 C 1647.09 6.03523 -1.02112 0
M  V30 17089 N 1646.23 7.0137 -0.320083 0
M  V30 17090 H 1651.07 2.6547 -1.35386 0
M  V30 17091 H 1648.6 1.30504 -0.678762 0
M  V30 17092 H 1650.56 4.12173 0.645701 0
M  V30 17093 H 1649.19 3.05341 1.04722 0
M  V30 17094 H 1648.24 3.56865 -1.31726 0
M  V30 17095 H 1649.55 4.75084 -1.51976 0
M  V30 17096 H 1648.71 6.05067 0.444886 0
M  V30 17097 H 1647.45 4.82048 0.740356 0
M  V30 17098 H 1646.45 5.28448 -1.51732 0
M  V30 17099 H 1647.68 6.54749 -1.80224 0
M  V30 17100 H 1645.62 6.54511 0.441775 0
M  V30 17101 H 1645.54 7.49263 -1.00705 0
M  V30 17102 H 1646.81 7.79368 0.143379 0
M  V30 17103 N 1651.04 0.732878 1.39523 0
M  V30 17104 C 1652.28 0.279891 2.00556 0
M  V30 17105 C 1652.61 -1.13223 1.58148 0
M  V30 17106 O 1651.87 -1.78575 0.800591 0
M  V30 17107 C 1652.17 0.32714 3.559 0
M  V30 17108 C 1651.83 1.69198 4.17951 0
M  V30 17109 C 1650.49 2.06555 4.34613 0
M  V30 17110 C 1652.85 2.58821 4.52395 0
M  V30 17111 C 1650.17 3.33047 4.83008 0
M  V30 17112 C 1652.53 3.84682 5.02197 0
M  V30 17113 C 1651.19 4.22134 5.17068 0
M  V30 17114 H 1650.46 0.102419 0.733888 0
M  V30 17115 H 1653.11 0.939304 1.66881 0
M  V30 17116 H 1651.41 -0.415849 3.89587 0
M  V30 17117 H 1653.11 -0.0414564 4.00979 0
M  V30 17118 H 1649.7 1.39153 4.05382 0
M  V30 17119 H 1653.88 2.31231 4.39142 0
M  V30 17120 H 1649.14 3.6201 4.92706 0
M  V30 17121 H 1653.31 4.54286 5.27823 0
M  V30 17122 H 1650.94 5.20215 5.54329 0
M  V30 17123 N 1652.52 -1.50101 0.480349 0
M  V30 17124 C 1653.74 -2.06785 -0.068848 0
M  V30 17125 C 1654.16 -1.34316 -1.32683 0
M  V30 17126 O 1653.52 -0.415196 -1.77714 0
M  V30 17127 C 1653.57 -3.59826 -0.347522 0
M  V30 17128 O 1653.29 -4.29565 0.860569 0
M  V30 17129 C 1654.79 -4.33161 -0.94266 0
M  V30 17130 H 1652.01 -0.670906 0.0112172 0
M  V30 17131 H 1654.55 -1.93151 0.671788 0
M  V30 17132 H 1652.71 -3.73232 -1.0381 0
M  V30 17133 H 1653.12 -5.20931 0.610796 0
M  V30 17134 H 1654.6 -5.41184 -1.08736 0
M  V30 17135 H 1655.07 -3.94268 -1.93518 0
M  V30 17136 H 1655.68 -4.24309 -0.290178 0
M  V30 17137 N 1653.99 -0.213323 -1.5615 0
M  V30 17138 C 1654.9 0.711703 -2.23544 0
M  V30 17139 C 1655.92 1.22027 -1.24038 0
M  V30 17140 O 1657.1 1.26361 -1.56828 0
M  V30 17141 C 1654.16 1.90645 -2.89578 0
M  V30 17142 C 1653.22 1.44066 -4.04405 0
M  V30 17143 C 1652.45 2.57846 -4.6728 0
M  V30 17144 O 1652.68 3.75781 -4.29121 0
M  V30 17145 O 1651.61 2.29518 -5.56422 0
M  V30 17146 H 1655.44 0.167635 -3.03237 0
M  V30 17147 H 1653.02 0.016771 -1.49391 0
M  V30 17148 H 1654.9 2.60435 -3.31288 0
M  V30 17149 H 1653.58 2.43877 -2.12851 0
M  V30 17150 H 1652.49 0.711024 -3.67281 0
M  V30 17151 H 1653.82 0.954809 -4.8285 0
M  V30 17152 N 1655.47 1.57485 0.0601405 0
M  V30 17153 C 1656.41 1.99806 1.10239 0
M  V30 17154 C 1657.38 0.876931 1.36926 0
M  V30 17155 O 1658.57 1.14022 1.50104 0
M  V30 17156 C 1655.69 2.34471 2.4442 0
M  V30 17157 C 1654.74 3.56712 2.33793 0
M  V30 17158 S 1655.57 5.07095 1.7209 0
M  V30 17159 C 1656.73 5.44972 3.07825 0
M  V30 17160 H 1656.96 2.87897 0.74178 0
M  V30 17161 H 1654.5 1.52037 0.269081 0
M  V30 17162 H 1656.45 2.55116 3.21599 0
M  V30 17163 H 1655.11 1.46888 2.77638 0
M  V30 17164 H 1654.31 3.78521 3.32773 0
M  V30 17165 H 1653.91 3.35757 1.64752 0
M  V30 17166 H 1656.2 5.43756 4.04148 0
M  V30 17167 H 1657.14 6.4564 2.90783 0
M  V30 17168 H 1657.55 4.7244 3.08967 0
M  V30 17169 N 1656.95 -0.331789 1.54068 0
M  V30 17170 C 1658.18 -1.09044 1.75832 0
M  V30 17171 C 1658.59 -1.81976 0.503012 0
M  V30 17172 O 1657.95 -1.74758 -0.525913 0
M  V30 17173 C 1658 -2.09489 2.94613 0
M  V30 17174 O 1657.72 -1.39521 4.1529 0
M  V30 17175 C 1659.22 -2.97637 3.28522 0
M  V30 17176 H 1656.44 -0.324701 0.587205 0
M  V30 17177 H 1658.99 -0.380417 2.00931 0
M  V30 17178 H 1657.14 -2.76038 2.71812 0
M  V30 17179 H 1657.56 -2.06717 4.82046 0
M  V30 17180 H 1659.03 -3.64027 4.14956 0
M  V30 17181 H 1659.51 -3.64292 2.45332 0
M  V30 17182 H 1660.11 -2.3666 3.53372 0
M  V30 17183 N 1658.43 -1.46001 -0.593424 0
M  V30 17184 C 1659.38 -1.56106 -1.72434 0
M  V30 17185 C 1660.37 -0.430155 -1.63848 0
M  V30 17186 O 1661.58 -0.606618 -1.6947 0
M  V30 17187 H 1657.95 -0.490601 -0.569925 0
M  V30 17188 H 1659.92 -2.51214 -1.6104 0
M  V30 17189 C 1658.67 -1.55836 -3.10822 0
M  V30 17190 H 1657.99 -2.42189 -3.18095 0
M  V30 17191 H 1659.43 -1.66962 -3.89743 0
M  V30 17192 C 1657.89 -0.285146 -3.35691 0
M  V30 17193 O 1658.42 0.629115 -3.96743 0
M  V30 17194 N 1656.63 -0.176401 -2.90064 0
M  V30 17195 H 1656.18 -0.921281 -2.40562 0
M  V30 17196 H 1656.13 0.674636 -3.07077 0
M  V30 17197 N 1659.91 0.83715 -1.33527 0
M  V30 17198 C 1661.13 1.62976 -1.28271 0
M  V30 17199 C 1661.56 1.87554 0.143201 0
M  V30 17200 O 1660.91 1.44088 1.10038 0
M  V30 17201 C 1660.96 2.95607 -2.06516 0
M  V30 17202 O 1660.07 3.87 -1.42494 0
M  V30 17203 H 1659.41 0.496212 -0.441214 0
M  V30 17204 H 1661.94 1.04137 -1.76115 0
M  V30 17205 H 1661.95 3.4529 -2.17344 0
M  V30 17206 H 1660.62 2.77041 -3.10195 0
M  V30 17207 H 1659.2 3.45492 -1.40321 0
M  V30 17208 N 1661.38 1.17024 1.05561 0
M  V30 17209 C 1662.62 0.967099 1.80074 0
M  V30 17210 C 1662.99 -0.495724 1.8549 0
M  V30 17211 O 1664.19 -0.817816 2.56057 0
M  V30 17212 C 1662.46 1.5862 3.20273 0
M  V30 17213 S 1664.02 1.52873 4.11309 0
M  V30 17214 H 1660.84 0.347623 0.620225 0
M  V30 17215 H 1663.44 1.48902 1.26682 0
M  V30 17216 H 1662.14 2.64341 3.1393 0
M  V30 17217 H 1661.67 1.06392 3.7874 0
M  V30 17218 H 1663.69 0.534126 4.93317 0
M  V30 17219 N 1662.86 -1.24221 0.969889 0
M  V30 17220 C 1663.81 -2.25292 0.501215 0
M  V30 17221 C 1664.78 -1.59764 -0.454382 0
M  V30 17222 O 1665.96 -1.87291 -0.364261 0
M  V30 17223 C 1663.1 -3.44518 -0.200361 0
M  V30 17224 C 1662.22 -4.24636 0.79426 0
M  V30 17225 C 1661.35 -5.31156 0.068568 0
M  V30 17226 C 1660.39 -6.02973 1.05311 0
M  V30 17227 N 1659.53 -7.0119 0.357274 0
M  V30 17228 H 1664.37 -2.64749 1.36792 0
M  V30 17229 H 1661.91 -1.30142 0.685673 0
M  V30 17230 H 1663.86 -4.1251 -0.623833 0
M  V30 17231 H 1662.49 -3.05892 -1.03101 0
M  V30 17232 H 1661.55 -3.56161 1.33616 0
M  V30 17233 H 1662.86 -4.74271 1.54493 0
M  V30 17234 H 1662.01 -6.05294 -0.412792 0
M  V30 17235 H 1660.75 -4.82434 -0.714781 0
M  V30 17236 H 1659.76 -5.27636 1.54532 0
M  V30 17237 H 1660.98 -6.53784 1.83694 0
M  V30 17238 H 1658.93 -6.54736 -0.407059 0
M  V30 17239 H 1658.84 -7.48718 1.04677 0
M  V30 17240 H 1660.11 -7.79433 -0.102045 0
M  V30 17241 N 1664.34 -0.740267 -1.39132 0
M  V30 17242 C 1665.59 -0.289949 -2.00009 0
M  V30 17243 C 1665.91 1.12831 -1.59042 0
M  V30 17244 O 1665.18 1.76926 -0.841076 0
M  V30 17245 H 1663.76 -0.104213 -0.739695 0
M  V30 17246 H 1666.42 -0.951398 -1.70101 0
M  V30 17247 H 1665.52 -0.342509 -3.10215 0
M  V30 17248 N 1665.82 1.49844 -0.488302 0
M  V30 17249 C 1666.75 2.25604 0.343226 0
M  V30 17250 C 1667.73 1.29642 0.981415 0
M  V30 17251 O 1668.91 1.58904 1.014 0
M  V30 17252 C 1666.04 3.04541 1.48231 0
M  V30 17253 C 1665.09 4.15561 0.959774 0
M  V30 17254 S 1665.92 5.35319 -0.139328 0
M  V30 17255 C 1667.08 6.17808 1.00322 0
M  V30 17256 H 1667.31 2.95784 -0.299825 0
M  V30 17257 H 1664.84 1.5196 -0.273415 0
M  V30 17258 H 1666.8 3.50608 2.13505 0
M  V30 17259 H 1665.46 2.33854 2.09693 0
M  V30 17260 H 1664.65 4.7026 1.81304 0
M  V30 17261 H 1664.26 3.72019 0.384461 0
M  V30 17262 H 1666.55 6.49984 1.91121 0
M  V30 17263 H 1667.49 7.06367 0.495116 0
M  V30 17264 H 1667.9 5.50148 1.26482 0
M  V30 17265 N 1667.3 0.221601 1.56034 0
M  V30 17266 C 1668.21 -0.699837 2.23918 0
M  V30 17267 C 1669.22 -1.21367 1.24683 0
M  V30 17268 O 1670.4 -1.25527 1.57495 0
M  V30 17269 C 1667.46 -1.89107 2.90585 0
M  V30 17270 C 1666.52 -1.4192 4.05163 0
M  V30 17271 C 1665.76 -2.55365 4.68641 0
M  V30 17272 O 1665.98 -3.735 4.31108 0
M  V30 17273 O 1664.91 -2.26564 5.57631 0
M  V30 17274 H 1668.74 -0.151552 3.03322 0
M  V30 17275 H 1666.33 -0.0088482 1.49397 0
M  V30 17276 H 1668.21 -2.58674 3.32664 0
M  V30 17277 H 1666.88 -2.42745 2.14141 0
M  V30 17278 H 1665.79 -0.691536 3.67653 0
M  V30 17279 H 1667.12 -0.929189 4.8335 0
M  V30 17280 N 1668.77 -1.57515 -0.0517878 0
M  V30 17281 C 1670.02 -1.8935 -0.742852 0
M  V30 17282 C 1670.38 -0.817645 -1.74162 0
M  V30 17283 O 1669.67 0.176157 -1.90788 0
M  V30 17284 C 1669.86 -3.25625 -1.4732 0
M  V30 17285 C 1669.69 -4.46365 -0.546677 0
M  V30 17286 C 1668.46 -5.04993 -0.176143 0
M  V30 17287 C 1670.66 -5.14034 0.165236 0
M  V30 17288 N 1668.64 -6.09252 0.75401 0
M  V30 17289 C 1670.01 -6.1265 0.95185 0
M  V30 17290 C 1672.07 -4.97347 0.234592 0
M  V30 17291 C 1670.77 -6.96378 1.80141 0
M  V30 17292 C 1672.8 -5.81618 1.07119 0
M  V30 17293 C 1672.16 -6.79786 1.8458 0
M  V30 17294 H 1668.26 -0.742089 -0.246634 0
M  V30 17295 H 1670.84 -1.947 -0.00363349 0
M  V30 17296 H 1669.01 -3.21246 -2.18301 0
M  V30 17297 H 1670.74 -3.45045 -2.11485 0
M  V30 17298 H 1667.5 -4.70587 -0.5334 0
M  V30 17299 H 1667.92 -6.66046 1.21292 0
M  V30 17300 H 1672.57 -4.21349 -0.349957 0
M  V30 17301 H 1670.28 -7.71736 2.39685 0
M  V30 17302 H 1673.87 -5.70758 1.1281 0
M  V30 17303 H 1672.75 -7.43862 2.48271 0
M  V30 17304 N 1670.25 0.323614 -1.54242 0
M  V30 17305 C 1671.5 1.05909 -1.71657 0
M  V30 17306 C 1671.82 1.89177 -0.497151 0
M  V30 17307 O 1673.02 2.65816 -0.552649 0
M  V30 17308 C 1671.48 1.93246 -3.03618 0
M  V30 17309 C 1671.09 1.1509 -4.32965 0
M  V30 17310 C 1672.83 2.6653 -3.30397 0
M  V30 17311 C 1670.74 2.01573 -5.55988 0
M  V30 17312 H 1669.67 0.399114 -0.639706 0
M  V30 17313 H 1672.32 0.317338 -1.80735 0
M  V30 17314 H 1670.7 2.71319 -2.88447 0
M  V30 17315 H 1671.87 0.417877 -4.58901 0
M  V30 17316 H 1670.19 0.534882 -4.1295 0
M  V30 17317 H 1672.79 3.31542 -4.19504 0
M  V30 17318 H 1673.13 3.34164 -2.48274 0
M  V30 17319 H 1673.66 1.95518 -3.46435 0
M  V30 17320 H 1670.4 1.38446 -6.40713 0
M  V30 17321 H 1669.92 2.72609 -5.3427 0
M  V30 17322 H 1671.6 2.60159 -5.9239 0
M  V30 17323 N 1671.73 1.46313 0.585673 0
M  V30 17324 C 1672.96 1.55273 1.37496 0
M  V30 17325 C 1673.38 0.193481 1.87102 0
M  V30 17326 O 1672.74 -0.825859 1.61398 0
M  V30 17327 C 1672.79 2.5591 2.54052 0
M  V30 17328 O 1671.89 2.09208 3.55395 0
M  V30 17329 H 1671.23 0.522614 0.409598 0
M  V30 17330 H 1673.76 1.9186 0.710697 0
M  V30 17331 H 1673.77 2.75424 3.01008 0
M  V30 17332 H 1672.45 3.54619 2.17298 0
M  V30 17333 H 1671.02 1.9967 3.14939 0
M  V30 17334 N 1673.21 -0.830057 1.33969 0
M  V30 17335 C 1674.46 -1.58084 1.25269 0
M  V30 17336 C 1674.77 -1.94792 -0.177557 0
M  V30 17337 O 1675.98 -2.68733 -0.386657 0
M  V30 17338 C 1674.43 -2.85177 2.1955 0
M  V30 17339 C 1674.04 -2.55798 3.67792 0
M  V30 17340 C 1675.79 -3.632 2.19741 0
M  V30 17341 C 1673.69 -3.79041 4.53963 0
M  V30 17342 H 1672.62 -0.593289 0.465321 0
M  V30 17343 H 1675.27 -0.914476 1.5909 0
M  V30 17344 H 1673.66 -3.53401 1.78672 0
M  V30 17345 H 1674.83 -1.9573 4.17165 0
M  V30 17346 H 1673.14 -1.91064 3.69978 0
M  V30 17347 H 1675.74 -4.54695 2.81347 0
M  V30 17348 H 1676.08 -3.98786 1.1948 0
M  V30 17349 H 1676.62 -3.0191 2.59028 0
M  V30 17350 H 1673.36 -3.4858 5.55133 0
M  V30 17351 H 1672.88 -4.38417 4.09329 0
M  V30 17352 H 1674.56 -4.46527 4.68212 0
M  V30 17353 N 1674.69 -1.17582 -1.04939 0
M  V30 17354 C 1675.63 -0.894855 -2.12746 0
M  V30 17355 C 1676.6 0.162261 -1.65306 0
M  V30 17356 O 1677.79 0.0245068 -1.90784 0
M  V30 17357 C 1674.93 -0.417085 -3.4257 0
M  V30 17358 C 1674.04 -1.53861 -4.03672 0
M  V30 17359 C 1673.18 -1.01446 -5.21423 0
M  V30 17360 C 1672.22 -2.11127 -5.74536 0
M  V30 17361 N 1671.35 -1.60169 -6.83586 0
M  V30 17362 H 1676.19 -1.81802 -2.36118 0
M  V30 17363 H 1673.73 -0.906716 -1.15832 0
M  V30 17364 H 1675.69 -0.121619 -4.17023 0
M  V30 17365 H 1674.32 0.469119 -3.19373 0
M  V30 17366 H 1673.37 -1.94975 -3.26633 0
M  V30 17367 H 1674.68 -2.36575 -4.39128 0
M  V30 17368 H 1673.84 -0.672992 -6.02956 0
M  V30 17369 H 1672.58 -0.156795 -4.87448 0
M  V30 17370 H 1671.58 -2.46128 -4.91631 0
M  V30 17371 H 1672.81 -2.97313 -6.10559 0
M  V30 17372 H 1670.75 -0.766783 -6.51503 0
M  V30 17373 H 1670.67 -2.36488 -7.18059 0
M  V30 17374 H 1671.94 -1.28923 -7.68765 0
M  V30 17375 N 1676.17 1.23705 -0.976463 0
M  V30 17376 C 1677.41 1.9132 -0.638714 0
M  V30 17377 C 1677.73 1.7707 0.830993 0
M  V30 17378 O 1678.93 2.39453 1.27964 0
M  V30 17379 C 1677.39 3.42941 -1.09178 0
M  V30 17380 C 1677 3.6586 -2.58555 0
M  V30 17381 C 1678.74 4.16355 -0.827585 0
M  V30 17382 C 1676.65 5.11096 -2.97549 0
M  V30 17383 H 1675.58 0.716382 -0.235187 0
M  V30 17384 H 1678.23 1.40205 -1.18384 0
M  V30 17385 H 1676.61 3.93142 -0.474893 0
M  V30 17386 H 1677.79 3.26221 -3.25448 0
M  V30 17387 H 1676.1 3.05748 -2.82678 0
M  V30 17388 H 1678.7 5.23372 -1.09482 0
M  V30 17389 H 1679.04 4.15629 0.236282 0
M  V30 17390 H 1679.57 3.7213 -1.40586 0
M  V30 17391 H 1676.31 5.1695 -4.03042 0
M  V30 17392 H 1675.83 5.51699 -2.35346 0
M  V30 17393 H 1677.51 5.79397 -2.87937 0
M  V30 17394 N 1677.64 0.747635 1.38738 0
M  V30 17395 C 1678.58 0.0762364 2.29073 0
M  V30 17396 C 1679.59 -0.690087 1.4745 0
M  V30 17397 O 1680.78 -0.53216 1.70383 0
M  V30 17398 C 1677.88 -0.916136 3.26282 0
M  V30 17399 C 1677.05 -0.2087 4.36902 0
M  V30 17400 C 1676.11 -1.11097 5.14338 0
M  V30 17401 O 1675.14 -0.583722 5.66199 0
M  V30 17402 N 1676.34 -2.43961 5.26748 0
M  V30 17403 H 1679.1 0.852024 2.87334 0
M  V30 17404 H 1676.66 0.597915 1.50455 0
M  V30 17405 H 1678.66 -1.52263 3.74964 0
M  V30 17406 H 1677.23 -1.59304 2.68963 0
M  V30 17407 H 1676.45 0.578435 3.89933 0
M  V30 17408 H 1677.73 0.281061 5.08023 0
M  V30 17409 H 1677.13 -2.89259 4.86154 0
M  V30 17410 H 1675.69 -2.99676 5.78824 0
M  V30 17411 N 1679.12 -1.49583 0.496242 0
M  V30 17412 C 1680.07 -2.29037 -0.284716 0
M  V30 17413 C 1681.04 -1.35217 -0.964661 0
M  V30 17414 O 1682.22 -1.64171 -0.972244 0
M  V30 17415 C 1679.36 -3.17767 -1.34603 0
M  V30 17416 C 1678.48 -4.26641 -0.67834 0
M  V30 17417 C 1677.61 -5.02594 -1.71969 0
M  V30 17418 C 1676.65 -6.0331 -1.03361 0
M  V30 17419 N 1675.79 -6.72446 -2.01894 0
M  V30 17420 H 1680.63 -2.95316 0.399084 0
M  V30 17421 H 1678.16 -1.45613 0.208653 0
M  V30 17422 H 1680.12 -3.67583 -1.97329 0
M  V30 17423 H 1678.75 -2.53483 -1.99866 0
M  V30 17424 H 1677.8 -3.80349 0.0620953 0
M  V30 17425 H 1679.12 -4.98609 -0.138028 0
M  V30 17426 H 1678.27 -5.56254 -2.42212 0
M  V30 17427 H 1677.01 -4.30388 -2.29385 0
M  V30 17428 H 1676.01 -5.48886 -0.316925 0
M  V30 17429 H 1677.24 -6.77499 -0.466009 0
M  V30 17430 H 1675.19 -6.03015 -2.58281 0
M  V30 17431 H 1675.1 -7.40373 -1.52916 0
M  V30 17432 H 1676.37 -7.30712 -2.7144 0
M  V30 17433 N 1680.6 -0.229873 -1.55915 0
M  V30 17434 C 1681.85 0.399565 -1.98519 0
M  V30 17435 C 1682.17 1.59179 -1.1177 0
M  V30 17436 O 1681.43 1.95007 -0.16454 0
M  V30 17437 C 1681.73 0.869043 -3.46673 0
M  V30 17438 C 1681.39 -0.21356 -4.50394 0
M  V30 17439 C 1680.06 -0.510939 -4.7848 0
M  V30 17440 C 1682.41 -0.945307 -5.12556 0
M  V30 17441 C 1679.74 -1.54444 -5.66007 0
M  V30 17442 C 1682.09 -1.9682 -6.01203 0
M  V30 17443 C 1680.75 -2.27241 -6.27629 0
M  V30 17444 H 1680.02 0.146211 -0.726432 0
M  V30 17445 H 1682.67 -0.334135 -1.88562 0
M  V30 17446 H 1680.97 1.68165 -3.53875 0
M  V30 17447 H 1682.67 1.36605 -3.77015 0
M  V30 17448 H 1679.26 0.0283699 -4.28591 0
M  V30 17449 H 1683.45 -0.728806 -4.9092 0
M  V30 17450 H 1678.7 -1.78566 -5.84743 0
M  V30 17451 H 1682.88 -2.54023 -6.48418 0
M  V30 17452 H 1680.5 -3.07465 -6.95248 0
M  V30 17453 N 1682.08 1.5754 0.0434337 0
M  V30 17454 C 1683.33 1.87789 0.736074 0
M  V30 17455 C 1683.64 0.826466 1.77282 0
M  V30 17456 O 1684.85 1.01771 2.51704 0
M  V30 17457 C 1683.3 3.33207 1.36018 0
M  V30 17458 C 1682.91 4.46547 0.360532 0
M  V30 17459 C 1684.65 3.72623 2.03353 0
M  V30 17460 C 1682.56 5.83018 0.992167 0
M  V30 17461 H 1681.49 0.700614 0.278667 0
M  V30 17462 H 1684.14 1.83497 -0.00997697 0
M  V30 17463 H 1682.52 3.32199 2.15546 0
M  V30 17464 H 1683.7 4.58999 -0.406987 0
M  V30 17465 H 1682.01 4.1587 -0.209931 0
M  V30 17466 H 1684.61 4.71893 2.51437 0
M  V30 17467 H 1684.95 3.03874 2.84546 0
M  V30 17468 H 1685.49 3.75744 1.3062 0
M  V30 17469 H 1682.22 6.55131 0.219964 0
M  V30 17470 H 1681.74 5.74313 1.72987 0
M  V30 17471 H 1683.42 6.29283 1.50374 0
M  V30 17472 N 1683.56 -0.31543 1.54411 0
M  V30 17473 C 1684.47 -1.41136 1.87397 0
M  V30 17474 C 1685.48 -1.56199 0.76668 0
M  V30 17475 O 1686.66 -1.71139 1.06176 0
M  V30 17476 C 1683.72 -2.75731 2.10174 0
M  V30 17477 C 1682.78 -2.69776 3.33945 0
M  V30 17478 C 1682.02 -3.97952 3.55626 0
M  V30 17479 O 1682.24 -4.96614 2.80589 0
M  V30 17480 O 1681.17 -4.00719 4.49119 0
M  V30 17481 H 1685 -1.16167 2.80605 0
M  V30 17482 H 1682.58 -0.510193 1.40419 0
M  V30 17483 H 1684.47 -3.55392 2.26439 0
M  V30 17484 H 1683.14 -3.00574 1.20154 0
M  V30 17485 H 1682.05 -1.88638 3.23058 0
M  V30 17486 H 1683.38 -2.49887 4.24049 0
M  V30 17487 N 1685.03 -1.46622 -0.577906 0
M  V30 17488 C 1686.28 -1.53392 -1.33575 0
M  V30 17489 C 1686.64 -0.185083 -1.91508 0
M  V30 17490 O 1685.93 0.806821 -1.73784 0
M  V30 17491 C 1686.12 -2.57215 -2.48144 0
M  V30 17492 C 1685.95 -4.02062 -2.01435 0
M  V30 17493 C 1684.72 -4.69731 -1.86229 0
M  V30 17494 C 1686.92 -4.89714 -1.57112 0
M  V30 17495 N 1684.9 -5.99177 -1.33642 0
M  V30 17496 C 1686.27 -6.09023 -1.16149 0
M  V30 17497 C 1688.33 -4.76327 -1.44974 0
M  V30 17498 C 1687.03 -7.16424 -0.642558 0
M  V30 17499 C 1689.06 -5.83804 -0.944837 0
M  V30 17500 C 1688.42 -7.02288 -0.545014 0
M  V30 17501 H 1684.52 -0.616116 -0.481586 0
M  V30 17502 H 1687.1 -1.83264 -0.657462 0
M  V30 17503 H 1685.27 -2.29246 -3.1353 0
M  V30 17504 H 1687 -2.53952 -3.15104 0
M  V30 17505 H 1683.76 -4.25323 -2.08321 0
M  V30 17506 H 1684.18 -6.68087 -1.09496 0
M  V30 17507 H 1688.83 -3.85109 -1.74503 0
M  V30 17508 H 1686.54 -8.07406 -0.334864 0
M  V30 17509 H 1690.13 -5.75487 -0.854761 0
M  V30 17510 H 1689.01 -7.84036 -0.16036 0
M  V30 17511 N 1686.51 0.822941 -1.34408 0
M  V30 17512 C 1687.44 1.94878 -1.28627 0
M  V30 17513 C 1688.42 1.6931 -0.163727 0
M  V30 17514 O 1689.61 1.90908 -0.356083 0
M  V30 17515 C 1686.74 3.31333 -1.04094 0
M  V30 17516 C 1685.69 3.71341 -2.12814 0
M  V30 17517 C 1685.02 5.05779 -1.73469 0
M  V30 17518 C 1686.32 3.83439 -3.54643 0
M  V30 17519 H 1688.01 1.99972 -2.22827 0
M  V30 17520 H 1685.56 0.960715 -1.07267 0
M  V30 17521 H 1687.51 4.0968 -0.986947 0
M  V30 17522 H 1686.24 3.26539 -0.0633642 0
M  V30 17523 H 1684.89 2.95269 -2.17282 0
M  V30 17524 H 1684.54 4.97471 -0.743727 0
M  V30 17525 H 1684.24 5.33518 -2.46236 0
M  V30 17526 H 1685.77 5.86583 -1.69566 0
M  V30 17527 H 1687.18 4.52057 -3.52587 0
M  V30 17528 H 1685.58 4.22632 -4.2603 0
M  V30 17529 H 1686.65 2.85439 -3.91986 0
M  V30 17530 N 1687.99 1.18137 1.04314 0
M  V30 17531 C 1688.94 0.906125 2.12269 0
M  V30 17532 C 1689.91 -0.153492 1.65389 0
M  V30 17533 O 1691.09 -0.0143887 1.90795 0
M  V30 17534 C 1688.23 0.435247 3.42344 0
M  V30 17535 C 1687.35 1.56 4.0285 0
M  V30 17536 C 1686.48 1.0421 5.20878 0
M  V30 17537 C 1685.52 2.14171 5.73409 0
M  V30 17538 N 1684.66 1.63792 6.82727 0
M  V30 17539 H 1689.5 1.83052 2.35151 0
M  V30 17540 H 1687.03 0.912846 1.1535 0
M  V30 17541 H 1688.99 0.143733 4.16952 0
M  V30 17542 H 1687.62 -0.452175 3.19617 0
M  V30 17543 H 1686.67 1.96705 3.25594 0
M  V30 17544 H 1687.99 2.389 4.37868 0
M  V30 17545 H 1687.14 0.704959 6.0259 0
M  V30 17546 H 1685.88 0.182643 4.87358 0
M  V30 17547 H 1684.88 2.48732 4.90319 0
M  V30 17548 H 1686.11 3.00547 6.08973 0
M  V30 17549 H 1684.05 0.801323 6.51087 0
M  V30 17550 H 1683.97 2.40293 7.16795 0
M  V30 17551 H 1685.24 1.32998 7.6807 0
M  V30 17552 N 1689.47 -1.23186 0.98301 0
M  V30 17553 C 1690.71 -1.91955 0.65431 0
M  V30 17554 C 1691.05 -1.76482 -0.810419 0
M  V30 17555 O 1690.32 -1.12744 -1.5849 0
M  V30 17556 C 1690.61 -3.4449 1.04873 0
M  V30 17557 C 1690.46 -3.6906 2.57128 0
M  V30 17558 C 1691.78 -4.36065 0.594578 0
M  V30 17559 H 1688.9 -0.69711 0.239179 0
M  V30 17560 H 1691.54 -1.45257 1.22476 0
M  V30 17561 H 1689.69 -3.84394 0.563333 0
M  V30 17562 H 1691.36 -3.38622 3.13262 0
M  V30 17563 H 1689.6 -3.13681 2.99644 0
M  V30 17564 H 1690.27 -4.75846 2.79776 0
M  V30 17565 H 1692.75 -4.03622 1.01136 0
M  V30 17566 H 1691.63 -5.41489 0.898955 0
M  V30 17567 H 1691.89 -4.39206 -0.505033 0
M  V30 17568 N 1690.95 -0.754982 -1.38339 0
M  V30 17569 C 1691.89 -0.128193 -2.30444 0
M  V30 17570 C 1692.86 0.70813 -1.50249 0
M  V30 17571 O 1694.05 0.663969 -1.78875 0
M  V30 17572 C 1691.19 0.757921 -3.36674 0
M  V30 17573 C 1690.3 -0.093181 -4.31899 0
M  V30 17574 C 1689.44 0.796067 -5.25201 0
M  V30 17575 C 1688.48 -0.0585854 -6.12072 0
M  V30 17576 N 1687.61 0.7877 -6.97667 0
M  V30 17577 H 1692.45 -0.919204 -2.83469 0
M  V30 17578 H 1689.99 -0.464921 -1.3956 0
M  V30 17579 H 1691.95 1.28632 -3.96875 0
M  V30 17580 H 1690.58 1.5147 -2.85055 0
M  V30 17581 H 1689.63 -0.73922 -3.73148 0
M  V30 17582 H 1690.94 -0.753146 -4.93081 0
M  V30 17583 H 1690.1 1.39158 -5.90525 0
M  V30 17584 H 1688.83 1.48976 -4.64389 0
M  V30 17585 H 1687.84 -0.666754 -5.45742 0
M  V30 17586 H 1689.06 -0.749361 -6.74953 0
M  V30 17587 H 1687.01 1.46632 -6.39402 0
M  V30 17588 H 1686.93 0.184662 -7.55774 0
M  V30 17589 H 1688.2 1.36814 -7.674 0
M  V30 17590 N 1692.42 1.49318 -0.504168 0
M  V30 17591 C 1693.67 2.01658 0.0410881 0
M  V30 17592 C 1693.99 1.38866 1.37752 0
M  V30 17593 O 1695.19 1.82552 2.00965 0
M  V30 17594 C 1693.65 3.59687 0.123682 0
M  V30 17595 C 1693.26 4.31454 -1.2063 0
M  V30 17596 C 1695 4.19961 0.619134 0
M  V30 17597 C 1692.91 5.81349 -1.0857 0
M  V30 17598 H 1691.84 0.753757 0.0191287 0
M  V30 17599 H 1694.49 1.71826 -0.644066 0
M  V30 17600 H 1692.87 3.86249 0.873355 0
M  V30 17601 H 1694.04 4.1659 -1.96951 0
M  V30 17602 H 1692.36 3.82939 -1.63544 0
M  V30 17603 H 1694.96 5.29736 0.726925 0
M  V30 17604 H 1695.3 3.83539 1.61874 0
M  V30 17605 H 1695.83 3.97731 -0.0740966 0
M  V30 17606 H 1692.57 6.22301 -2.05967 0
M  V30 17607 H 1692.09 5.98698 -0.363422 0
M  V30 17608 H 1693.77 6.42453 -0.765722 0
M  V30 17609 N 1693.9 0.238138 1.5579 0
M  V30 17610 C 1694.83 -0.659451 2.23994 0
M  V30 17611 C 1695.81 -1.18817 1.21723 0
M  V30 17612 O 1697 -1.22913 1.50353 0
M  V30 17613 C 1694.13 -1.86043 2.93267 0
M  V30 17614 C 1693.08 -1.46485 4.02152 0
M  V30 17615 C 1692.41 -2.74595 4.58805 0
M  V30 17616 C 1693.71 -0.642448 5.18334 0
M  V30 17617 H 1695.4 -0.0907522 2.99262 0
M  V30 17618 H 1692.95 -0.042209 1.43938 0
M  V30 17619 H 1694.9 -2.49393 3.39678 0
M  V30 17620 H 1693.63 -2.45436 2.15473 0
M  V30 17621 H 1692.28 -0.854729 3.56497 0
M  V30 17622 H 1691.93 -3.32168 3.77721 0
M  V30 17623 H 1691.63 -2.48854 5.32302 0
M  V30 17624 H 1693.16 -3.38859 5.07944 0
M  V30 17625 H 1694.57 -1.18005 5.61024 0
M  V30 17626 H 1692.97 -0.481458 5.98166 0
M  V30 17627 H 1694.04 0.347298 4.83655 0
M  V30 17628 N 1695.38 -1.57561 -0.0350783 0
M  V30 17629 C 1696.79 -1.77383 -0.582437 0
M  V30 17630 C 1697.14 -0.868453 -1.75933 0
M  V30 17631 O 1696.27 -0.061745 -2.16312 0
M  V30 17632 C 1696.86 -3.2168 -1.06337 0
M  V30 17633 C 1695.42 -3.42719 -1.55629 0
M  V30 17634 C 1694.57 -2.72906 -0.4917 0
M  V30 17635 H 1697.52 -1.57545 0.19115 0
M  V30 17636 H 1697.54 -3.27863 -1.93097 0
M  V30 17637 H 1697.05 -3.8755 -0.206603 0
M  V30 17638 H 1695.15 -2.82016 -2.43511 0
M  V30 17639 H 1695.27 -4.51312 -1.60794 0
M  V30 17640 H 1693.63 -2.36506 -0.945349 0
M  V30 17641 H 1694.41 -3.41454 0.355502 0
M  V30 17642 N 1696.86 0.307236 -1.54576 0
M  V30 17643 C 1697.77 1.4014 -1.88143 0
M  V30 17644 C 1698.78 1.5579 -0.774952 0
M  V30 17645 O 1699.96 1.70574 -1.07082 0
M  V30 17646 C 1697.03 2.74613 -2.11633 0
M  V30 17647 C 1696.09 2.68001 -3.35371 0
M  V30 17648 C 1695.32 3.96061 -3.57731 0
M  V30 17649 O 1695.54 4.95119 -2.83219 0
M  V30 17650 O 1694.48 3.98331 -4.51238 0
M  V30 17651 H 1698.3 1.14677 -2.81217 0
M  V30 17652 H 1695.89 0.502739 -1.40687 0
M  V30 17653 H 1697.77 3.54186 -2.2832 0
M  V30 17654 H 1696.44 2.99933 -1.21746 0
M  V30 17655 H 1695.35 1.86922 -3.24054 0
M  V30 17656 H 1696.68 2.47635 -4.25368 0
M  V30 17657 N 1698.34 1.46926 0.570122 0
M  V30 17658 C 1699.58 1.53113 1.32982 0
M  V30 17659 C 1699.92 0.187401 1.93294 0
M  V30 17660 O 1699.19 -0.802585 1.77169 0
M  V30 17661 C 1699.47 2.63936 2.44969 0
M  V30 17662 C 1699.33 4.07882 1.8961 0
M  V30 17663 C 1700.65 2.70753 3.46959 0
M  V30 17664 H 1697.76 0.557398 0.482158 0
M  V30 17665 H 1700.41 1.78923 0.639259 0
M  V30 17666 H 1698.56 2.42059 3.03874 0
M  V30 17667 H 1700.23 4.41084 1.35066 0
M  V30 17668 H 1698.47 4.16768 1.20361 0
M  V30 17669 H 1699.14 4.81175 2.70508 0
M  V30 17670 H 1701.62 2.90452 2.97954 0
M  V30 17671 H 1700.49 3.50093 4.2276 0
M  V30 17672 H 1700.76 1.77299 4.04991 0
M  V30 17673 N 1699.82 -0.815801 1.34842 0
M  V30 17674 C 1701.23 -1.10999 1.1468 0
M  V30 17675 C 1701.43 -2.01445 -0.0469339 0
M  V30 17676 O 1700.49 -2.42007 -0.720322 0
M  V30 17677 C 1701.8 -1.74984 2.44543 0
M  V30 17678 C 1703.35 -1.87447 2.50665 0
M  V30 17679 C 1703.82 -2.54848 3.80548 0
M  V30 17680 N 1705.31 -2.62341 3.81748 0
M  V30 17681 C 1706.05 -3.15239 4.7897 0
M  V30 17682 N 1705.55 -3.68646 5.86577 0
M  V30 17683 N 1707.34 -3.13706 4.66417 0
M  V30 17684 H 1699.49 -0.214351 2.11316 0
M  V30 17685 H 1701.75 -0.157666 0.934797 0
M  V30 17686 H 1701.46 -1.1599 3.32023 0
M  V30 17687 H 1701.33 -2.7478 2.5841 0
M  V30 17688 H 1703.72 -2.45587 1.63619 0
M  V30 17689 H 1703.8 -0.865325 2.40719 0
M  V30 17690 H 1703.44 -1.9736 4.67987 0
M  V30 17691 H 1703.37 -3.5628 3.87778 0
M  V30 17692 H 1705.87 -2.24493 3.03992 0
M  V30 17693 H 1706.18 -4.07281 6.56766 0
M  V30 17694 H 1704.52 -3.6687 5.90281 0
M  V30 17695 H 1707.71 -2.71255 3.81495 0
M  V30 17696 H 1707.89 -3.54626 5.4235 0
M  V30 17697 N 1701.29 -1.18689 -1.03686 0
M  V30 17698 C 1702.2 -0.932473 -2.15272 0
M  V30 17699 C 1703.22 0.104751 -1.73684 0
M  V30 17700 O 1704.4 -0.0780471 -2.01249 0
M  V30 17701 C 1701.46 -0.465807 -3.43557 0
M  V30 17702 C 1700.52 -1.57146 -3.99504 0
M  V30 17703 C 1699.75 -1.12696 -5.21666 0
M  V30 17704 O 1699.98 0.0127657 -5.70399 0
M  V30 17705 O 1698.91 -1.92627 -5.70244 0
M  V30 17706 H 1702.74 -1.86626 -2.39592 0
M  V30 17707 H 1700.32 -0.969029 -1.13711 0
M  V30 17708 H 1702.2 -0.213819 -4.20857 0
M  V30 17709 H 1700.88 0.43964 -3.20701 0
M  V30 17710 H 1699.79 -1.8775 -3.23575 0
M  V30 17711 H 1701.12 -2.45317 -4.26709 0
M  V30 17712 N 1702.77 1.22662 -0.989529 0
M  V30 17713 C 1703.72 2.24466 -0.536994 0
M  V30 17714 C 1704.69 1.60467 0.428907 0
M  V30 17715 O 1705.87 1.87846 0.334418 0
M  V30 17716 C 1703.01 3.44793 0.145526 0
M  V30 17717 C 1702.13 4.23318 -0.861716 0
M  V30 17718 C 1701.26 5.30979 -0.153062 0
M  V30 17719 C 1700.3 6.01221 -1.1489 0
M  V30 17720 N 1699.44 7.00533 -0.468782 0
M  V30 17721 H 1704.28 2.62539 -1.40987 0
M  V30 17722 H 1701.81 1.29035 -0.706291 0
M  V30 17723 H 1703.77 4.1345 0.558128 0
M  V30 17724 H 1702.4 3.07494 0.982213 0
M  V30 17725 H 1701.45 3.5399 -1.39266 0
M  V30 17726 H 1702.77 4.71753 -1.62019 0
M  V30 17727 H 1701.92 6.05874 0.316443 0
M  V30 17728 H 1700.66 4.8351 0.63794 0
M  V30 17729 H 1699.66 5.25111 -1.62907 0
M  V30 17730 H 1700.89 6.50779 -1.94072 0
M  V30 17731 H 1698.84 6.55301 0.302844 0
M  V30 17732 H 1698.75 7.46958 -1.16576 0
M  V30 17733 H 1700.02 7.79497 -0.0219686 0
M  V30 17734 N 1704.25 0.762308 1.37937 0
M  V30 17735 C 1705.2 0.115944 2.27705 0
M  V30 17736 C 1706.18 -0.684063 1.45634 0
M  V30 17737 O 1707.38 -0.548586 1.68284 0
M  V30 17738 C 1704.5 -0.76969 3.3456 0
M  V30 17739 C 1703.59 0.0376368 4.24083 0
M  V30 17740 N 1703.98 1.07849 4.94168 0
M  V30 17741 C 1702.28 -0.187824 4.45604 0
M  V30 17742 C 1702.98 1.56769 5.60177 0
M  V30 17743 N 1701.96 0.881477 5.36406 0
M  V30 17744 H 1705.76 0.912994 2.79359 0
M  V30 17745 H 1703.27 0.599168 1.50943 0
M  V30 17746 H 1705.27 -1.24844 3.97768 0
M  V30 17747 H 1703.93 -1.56559 2.84463 0
M  V30 17748 H 1704.94 1.46046 4.96881 0
M  V30 17749 H 1701.62 -0.95638 4.06398 0
M  V30 17750 H 1703.01 2.43517 6.26218 0
M  V30 17751 N 1705.73 -1.49049 0.51208 0
M  V30 17752 C 1706.64 -2.33102 -0.264695 0
M  V30 17753 C 1707.65 -1.45347 -0.956571 0
M  V30 17754 O 1708.83 -1.78355 -0.935501 0
M  V30 17755 C 1705.89 -3.21051 -1.30871 0
M  V30 17756 C 1704.96 -4.24666 -0.629094 0
M  V30 17757 C 1704.19 -5.08412 -1.62337 0
M  V30 17758 O 1704.41 -4.93847 -2.85432 0
M  V30 17759 O 1703.35 -5.90368 -1.17259 0
M  V30 17760 H 1707.17 -3.00732 0.423585 0
M  V30 17761 H 1704.76 -1.4688 0.273246 0
M  V30 17762 H 1706.64 -3.75503 -1.91248 0
M  V30 17763 H 1705.31 -2.56103 -1.97972 0
M  V30 17764 H 1704.22 -3.74097 0.0147056 0
M  V30 17765 H 1705.55 -4.922 -0.000339859 0
M  V30 17766 N 1707.21 -0.246397 -1.55662 0
M  V30 17767 C 1708.45 0.378487 -1.98931 0
M  V30 17768 C 1708.78 1.57984 -1.13452 0
M  V30 17769 O 1708.04 1.94822 -0.185214 0
M  V30 17770 C 1708.33 0.832225 -3.47576 0
M  V30 17771 C 1708 -0.261318 -4.50142 0
M  V30 17772 C 1706.66 -0.56166 -4.77911 0
M  V30 17773 C 1709.01 -0.999618 -5.11524 0
M  V30 17774 C 1706.34 -1.60438 -5.64337 0
M  V30 17775 C 1708.69 -2.03186 -5.99081 0
M  V30 17776 C 1707.36 -2.33885 -6.25183 0
M  V30 17777 H 1706.63 0.138498 -0.727942 0
M  V30 17778 H 1709.28 -0.354116 -1.88197 0
M  V30 17779 H 1707.58 1.64402 -3.55639 0
M  V30 17780 H 1709.28 1.32598 -3.78442 0
M  V30 17781 H 1705.87 -0.0170894 -4.28597 0
M  V30 17782 H 1710.05 -0.780833 -4.90119 0
M  V30 17783 H 1705.31 -1.84758 -5.82816 0
M  V30 17784 H 1709.48 -2.60886 -6.45687 0
M  V30 17785 H 1707.11 -3.14822 -6.91947 0
M  V30 17786 N 1708.68 1.57577 0.026722 0
M  V30 17787 C 1709.61 2.09748 1.02605 0
M  V30 17788 C 1710.59 1.00054 1.37562 0
M  V30 17789 O 1711.78 1.2759 1.46405 0
M  V30 17790 C 1708.91 2.57881 2.32626 0
M  V30 17791 C 1707.86 3.7186 2.11905 0
M  V30 17792 C 1707.19 4.06208 3.47706 0
M  V30 17793 C 1708.49 5.00198 1.50332 0
M  V30 17794 H 1710.18 2.93494 0.591753 0
M  V30 17795 H 1707.73 1.41188 0.283199 0
M  V30 17796 H 1709.68 2.93 3.02868 0
M  V30 17797 H 1708.41 1.71222 2.7812 0
M  V30 17798 H 1707.07 3.37094 1.44096 0
M  V30 17799 H 1706.71 3.16611 3.90853 0
M  V30 17800 H 1706.41 4.82982 3.34667 0
M  V30 17801 H 1707.94 4.43863 4.19306 0
M  V30 17802 H 1709.35 5.33259 2.10494 0
M  V30 17803 H 1707.75 5.81599 1.4786 0
M  V30 17804 H 1708.82 4.82623 0.469405 0
M  V30 17805 N 1710.16 -0.299034 1.54737 0
M  V30 17806 C 1711.11 -1.38889 1.86581 0
M  V30 17807 C 1712.1 -1.52396 0.739723 0
M  V30 17808 O 1713.31 -1.5449 0.92374 0
M  V30 17809 H 1709.68 -0.463969 0.591808 0
M  V30 17810 H 1711.66 -1.09268 2.77674 0
M  V30 17811 C 1710.4 -2.74702 2.13152 0
M  V30 17812 H 1709.73 -2.65092 2.99277 0
M  V30 17813 H 1711.17 -3.49967 2.39372 0
M  V30 17814 C 1709.63 -3.23789 0.930706 0
M  V30 17815 O 1710.16 -4.01412 0.152193 0
M  V30 17816 N 1708.36 -2.81137 0.735545 0
M  V30 17817 H 1707.91 -2.1813 1.37029 0
M  V30 17818 H 1707.87 -3.1433 -0.0663452 0
M  V30 17819 N 1711.64 -1.47227 -0.562322 0
M  V30 17820 C 1713.06 -1.32632 -0.887745 0
M  V30 17821 C 1713.26 -0.312972 -1.99055 0
M  V30 17822 O 1712.31 0.277309 -2.50973 0
M  V30 17823 C 1713.62 -2.71822 -1.28581 0
M  V30 17824 C 1715.17 -2.80068 -1.39753 0
M  V30 17825 C 1715.65 -4.19887 -1.82917 0
M  V30 17826 N 1717.14 -4.22404 -1.90077 0
M  V30 17827 C 1717.87 -5.27499 -2.24793 0
M  V30 17828 N 1717.37 -6.42904 -2.58159 0
M  V30 17829 N 1719.16 -5.14874 -2.25523 0
M  V30 17830 H 1711.31 -2.11752 0.165835 0
M  V30 17831 H 1713.58 -0.94793 0.0115238 0
M  V30 17832 H 1713.28 -3.47383 -0.549361 0
M  V30 17833 H 1713.16 -3.0326 -2.24306 0
M  V30 17834 H 1715.54 -2.04783 -2.1248 0
M  V30 17835 H 1715.62 -2.5229 -0.422286 0
M  V30 17836 H 1715.27 -4.95676 -1.10761 0
M  V30 17837 H 1715.2 -4.45086 -2.81436 0
M  V30 17838 H 1717.69 -3.39146 -1.66698 0
M  V30 17839 H 1718 -7.18857 -2.83662 0
M  V30 17840 H 1716.35 -6.46232 -2.55751 0
M  V30 17841 H 1719.54 -4.23745 -1.98892 0
M  V30 17842 H 1719.71 -5.96887 -2.5225 0
M  V30 17843 N 1713.12 0.808639 -1.35273 0
M  V30 17844 C 1714.05 1.93502 -1.30687 0
M  V30 17845 C 1715.03 1.69127 -0.181675 0
M  V30 17846 O 1716.21 1.90519 -0.376312 0
M  V30 17847 C 1713.34 3.30211 -1.07602 0
M  V30 17848 C 1712.3 3.69063 -2.16741 0
M  V30 17849 C 1711.62 5.03911 -1.78824 0
M  V30 17850 C 1712.92 3.79656 -3.5869 0
M  V30 17851 H 1714.62 1.97597 -2.24935 0
M  V30 17852 H 1712.16 0.949284 -1.0828 0
M  V30 17853 H 1714.12 4.0861 -1.03034 0
M  V30 17854 H 1712.84 3.26453 -0.0979944 0
M  V30 17855 H 1711.5 2.92948 -2.20402 0
M  V30 17856 H 1711.15 4.96655 -0.796449 0
M  V30 17857 H 1710.85 5.30877 -2.51881 0
M  V30 17858 H 1712.37 5.84752 -1.75777 0
M  V30 17859 H 1713.79 4.48292 -3.57362 0
M  V30 17860 H 1712.18 4.1809 -4.30489 0
M  V30 17861 H 1713.25 2.81265 -3.94991 0
M  V30 17862 N 1714.6 1.19237 1.03055 0
M  V30 17863 C 1715.54 0.928588 2.11296 0
M  V30 17864 C 1716.51 -0.135941 1.65543 0
M  V30 17865 O 1717.7 0.00584847 1.90799 0
M  V30 17866 C 1714.84 0.471532 3.41863 0
M  V30 17867 C 1713.95 1.60264 4.01173 0
M  V30 17868 C 1713.09 1.09729 5.19743 0
M  V30 17869 C 1712.13 2.2024 5.71105 0
M  V30 17870 N 1711.26 1.71024 6.80952 0
M  V30 17871 H 1716.1 1.85536 2.33196 0
M  V30 17872 H 1713.64 0.925029 1.14375 0
M  V30 17873 H 1715.6 0.187949 4.16776 0
M  V30 17874 H 1714.23 -0.41825 3.20079 0
M  V30 17875 H 1713.28 2.00147 3.23489 0
M  V30 17876 H 1714.59 2.43531 4.35309 0
M  V30 17877 H 1713.75 0.768832 6.01809 0
M  V30 17878 H 1712.48 0.234324 4.87137 0
M  V30 17879 H 1711.49 2.53918 4.87653 0
M  V30 17880 H 1712.71 3.06989 6.05751 0
M  V30 17881 H 1710.66 0.870334 6.50201 0
M  V30 17882 H 1710.58 2.47882 7.14206 0
M  V30 17883 H 1711.85 1.41137 7.66616 0
M  V30 17884 N 1716.07 -1.22136 0.99602 0
M  V30 17885 C 1717.01 -2.23518 0.507162 0
M  V30 17886 C 1718.02 -1.57824 -0.399426 0
M  V30 17887 O 1719.21 -1.77364 -0.20106 0
M  V30 17888 C 1716.31 -3.37709 -0.283931 0
M  V30 17889 C 1715.48 -4.3299 0.619549 0
M  V30 17890 C 1714.54 -5.26062 -0.120376 0
M  V30 17891 O 1713.57 -5.67041 0.495269 0
M  V30 17892 N 1714.77 -5.63322 -1.40172 0
M  V30 17893 H 1717.53 -2.66092 1.37896 0
M  V30 17894 H 1715.09 -1.36468 0.871102 0
M  V30 17895 H 1717.09 -3.96961 -0.787661 0
M  V30 17896 H 1715.66 -2.94193 -1.05685 0
M  V30 17897 H 1714.88 -3.72011 1.3039 0
M  V30 17898 H 1716.16 -4.93591 1.23473 0
M  V30 17899 H 1715.56 -5.32006 -1.92318 0
M  V30 17900 H 1714.12 -6.24977 -1.85058 0
M  V30 17901 N 1717.55 -0.769612 -1.37531 0
M  V30 17902 C 1718.48 -0.168389 -2.32892 0
M  V30 17903 C 1719.46 0.685549 -1.55673 0
M  V30 17904 O 1720.65 0.62345 -1.8392 0
M  V30 17905 C 1717.78 0.713183 -3.39898 0
M  V30 17906 C 1716.73 -0.0392808 -4.27982 0
M  V30 17907 C 1716.06 0.961596 -5.25982 0
M  V30 17908 C 1717.36 -1.21704 -5.07923 0
M  V30 17909 H 1719.05 -0.965022 -2.83421 0
M  V30 17910 H 1716.6 -0.465502 -1.36268 0
M  V30 17911 H 1718.55 1.14358 -4.05586 0
M  V30 17912 H 1717.28 1.54231 -2.87889 0
M  V30 17913 H 1715.93 -0.450429 -3.63822 0
M  V30 17914 H 1715.58 1.78522 -4.70254 0
M  V30 17915 H 1715.28 0.462679 -5.85776 0
M  V30 17916 H 1716.81 1.39097 -5.94545 0
M  V30 17917 H 1718.22 -0.863405 -5.66761 0
M  V30 17918 H 1716.62 -1.6479 -5.77031 0
M  V30 17919 H 1717.69 -2.02219 -4.40722 0
M  V30 17920 N 1719.03 1.48775 -0.519977 0
M  V30 17921 C 1720.44 1.86541 -0.0769625 0
M  V30 17922 C 1720.79 1.43053 1.34277 0
M  V30 17923 O 1719.92 0.816781 2.00394 0
M  V30 17924 C 1720.51 3.38539 -0.132891 0
M  V30 17925 C 1719.07 3.75536 0.254875 0
M  V30 17926 C 1718.22 2.72808 -0.497088 0
M  V30 17927 H 1721.17 1.40822 -0.731765 0
M  V30 17928 H 1721.19 3.7477 0.657856 0
M  V30 17929 H 1720.7 3.70161 -1.1663 0
M  V30 17930 H 1718.8 3.49527 1.29081 0
M  V30 17931 H 1718.92 4.79037 -0.0777747 0
M  V30 17932 H 1717.28 2.5464 0.0554331 0
M  V30 17933 H 1718.06 3.07274 -1.53094 0
M  V30 17934 N 1720.51 0.254649 1.55529 0
M  V30 17935 C 1721.44 -0.635656 2.24681 0
M  V30 17936 C 1722.42 -1.17519 1.22977 0
M  V30 17937 O 1723.6 -1.21311 1.51649 0
M  V30 17938 C 1720.73 -1.82922 2.95224 0
M  V30 17939 C 1719.69 -1.42212 4.03683 0
M  V30 17940 C 1719.01 -2.69713 4.61691 0
M  V30 17941 C 1720.31 -0.587436 5.18986 0
M  V30 17942 H 1722.01 -0.0590063 2.99342 0
M  V30 17943 H 1719.55 -0.02694 1.43975 0
M  V30 17944 H 1721.51 -2.45777 3.42304 0
M  V30 17945 H 1720.23 -2.43137 2.18064 0
M  V30 17946 H 1718.89 -0.81687 3.57383 0
M  V30 17947 H 1718.54 -3.28143 3.81223 0
M  V30 17948 H 1718.24 -2.43194 5.34911 0
M  V30 17949 H 1719.76 -3.33453 5.11509 0
M  V30 17950 H 1721.18 -1.12048 5.62244 0
M  V30 17951 H 1719.57 -0.417988 5.98643 0
M  V30 17952 H 1720.64 0.398577 4.83259 0
M  V30 17953 N 1721.99 -1.57589 -0.0183649 0
M  V30 17954 C 1722.92 -2.1029 -1.01492 0
M  V30 17955 C 1723.9 -1.00782 -1.37029 0
M  V30 17956 O 1725.08 -1.28365 -1.45726 0
M  V30 17957 C 1722.21 -2.59111 -2.31255 0
M  V30 17958 C 1721.17 -3.72979 -2.0993 0
M  V30 17959 C 1720.49 -4.08046 -3.45547 0
M  V30 17960 C 1721.79 -5.00988 -1.47677 0
M  V30 17961 H 1723.49 -2.93804 -0.57618 0
M  V30 17962 H 1721.03 -1.41336 -0.275708 0
M  V30 17963 H 1722.99 -2.94602 -3.0131 0
M  V30 17964 H 1721.71 -1.72694 -2.77208 0
M  V30 17965 H 1720.37 -3.37853 -1.42306 0
M  V30 17966 H 1720.02 -3.1868 -3.89169 0
M  V30 17967 H 1719.72 -4.8475 -3.32101 0
M  V30 17968 H 1721.24 -4.46081 -4.16947 0
M  V30 17969 H 1722.65 -5.34368 -2.07663 0
M  V30 17970 H 1721.05 -5.82375 -1.44774 0
M  V30 17971 H 1722.12 -4.82865 -0.443804 0
M  V30 17972 N 1723.46 0.290824 -1.54893 0
M  V30 17973 C 1724.37 1.38137 -1.89619 0
M  V30 17974 C 1725.39 1.54959 -0.791432 0
M  V30 17975 O 1726.57 1.69428 -1.08885 0
M  V30 17976 C 1723.63 2.72353 -2.14534 0
M  V30 17977 C 1722.69 2.64429 -3.38195 0
M  V30 17978 C 1721.93 3.92244 -3.61912 0
M  V30 17979 O 1722.15 4.92088 -2.88454 0
M  V30 17980 O 1721.08 3.93523 -4.55438 0
M  V30 17981 H 1724.91 1.11688 -2.82417 0
M  V30 17982 H 1722.49 0.487789 -1.41213 0
M  V30 17983 H 1724.38 3.51745 -2.32064 0
M  V30 17984 H 1723.05 2.98624 -1.24921 0
M  V30 17985 H 1721.96 1.83474 -3.26018 0
M  V30 17986 H 1723.29 2.43109 -4.2797 0
M  V30 17987 N 1724.94 1.47523 0.554506 0
M  V30 17988 C 1726.17 1.58154 1.34172 0
M  V30 17989 C 1726.59 0.233124 1.8665 0
M  V30 17990 O 1725.95 -0.791439 1.63113 0
M  V30 17991 C 1726 2.61242 2.48566 0
M  V30 17992 O 1725.1 2.167 3.50877 0
M  V30 17993 H 1724.44 0.531184 0.398421 0
M  V30 17994 H 1726.97 1.93324 0.669841 0
M  V30 17995 H 1726.98 2.81746 2.95098 0
M  V30 17996 H 1725.66 3.59148 2.09727 0
M  V30 17997 H 1724.24 2.06305 3.10632 0
M  V30 17998 N 1726.42 -0.801453 1.357 0
M  V30 17999 C 1727.35 -1.92179 1.24899 0
M  V30 18000 C 1728.37 -1.61898 0.171131 0
M  V30 18001 O 1729.55 -1.73371 0.42484 0
M  V30 18002 C 1726.65 -3.26684 0.901706 0
M  V30 18003 C 1725.83 -3.84833 2.07899 0
M  V30 18004 C 1724.89 -4.97754 1.70667 0
M  V30 18005 O 1723.91 -5.14909 2.42605 0
M  V30 18006 N 1725.11 -5.77035 0.633294 0
M  V30 18007 H 1727.88 -2.0197 2.21423 0
M  V30 18008 H 1725.44 -0.979132 1.28936 0
M  V30 18009 H 1727.43 -3.99703 0.63402 0
M  V30 18010 H 1726 -3.12589 0.0259836 0
M  V30 18011 H 1725.22 -3.03947 2.51018 0
M  V30 18012 H 1726.51 -4.20415 2.86581 0
M  V30 18013 H 1725.91 -5.65689 0.0357078 0
M  V30 18014 H 1724.47 -6.5041 0.425402 0
M  V30 18015 N 1727.9 -1.19782 -1.02421 0
M  V30 18016 C 1729.15 -0.997598 -1.75302 0
M  V30 18017 C 1729.46 0.471843 -1.89824 0
M  V30 18018 O 1730.67 0.790999 -2.59722 0
M  V30 18019 C 1729.12 -1.73608 -3.15259 0
M  V30 18020 C 1728.73 -3.24594 -3.08776 0
M  V30 18021 C 1730.47 -1.61927 -3.92403 0
M  V30 18022 C 1728.38 -3.91012 -4.43693 0
M  V30 18023 H 1727.31 -0.369643 -0.657176 0
M  V30 18024 H 1729.96 -1.43325 -1.14587 0
M  V30 18025 H 1728.34 -1.22826 -3.7647 0
M  V30 18026 H 1729.52 -3.82531 -2.56918 0
M  V30 18027 H 1727.83 -3.36603 -2.45127 0
M  V30 18028 H 1730.43 -2.08896 -4.92206 0
M  V30 18029 H 1730.77 -0.574192 -4.12321 0
M  V30 18030 H 1731.31 -2.10081 -3.37803 0
M  V30 18031 H 1728.05 -4.95639 -4.28979 0
M  V30 18032 H 1727.57 -3.37864 -4.95588 0
M  V30 18033 H 1729.24 -3.94828 -5.12562 0
M  V30 18034 N 1729.38 1.21606 -1.00248 0
M  V30 18035 C 1730.34 2.22107 -0.565772 0
M  V30 18036 C 1731.34 1.56798 0.356521 0
M  V30 18037 O 1732.53 1.73577 0.147154 0
M  V30 18038 C 1729.66 3.40447 0.175742 0
M  V30 18039 H 1730.86 2.62258 -1.45468 0
M  V30 18040 H 1728.41 1.34823 -0.790721 0
M  V30 18041 H 1729.14 3.05781 1.0802 0
M  V30 18042 H 1728.93 3.89069 -0.486612 0
M  V30 18043 H 1730.42 4.14957 0.469122 0
M  V30 18044 N 1730.86 0.776895 1.37121 0
M  V30 18045 C 1732.08 0.355097 2.0383 0
M  V30 18046 C 1732.5 -1.02441 1.58591 0
M  V30 18047 O 1731.86 -1.65482 0.769533 0
M  V30 18048 C 1731.91 0.394984 3.59336 0
M  V30 18049 O 1731.63 1.72008 4.0292 0
M  V30 18050 C 1733.13 -0.0377636 4.43284 0
M  V30 18051 H 1730.35 0.148056 0.654462 0
M  V30 18052 H 1732.89 1.05225 1.75351 0
M  V30 18053 H 1731.05 -0.253638 3.86569 0
M  V30 18054 H 1731.46 1.66225 4.97463 0
M  V30 18055 H 1732.94 0.0412956 5.51985 0
M  V30 18056 H 1733.41 -1.08881 4.2549 0
M  V30 18057 H 1734.02 0.582867 4.21287 0
M  V30 18058 N 1732.33 -1.48497 0.527859 0
M  V30 18059 C 1733.58 -2.01698 -0.00900086 0
M  V30 18060 C 1733.9 -1.4104 -1.35525 0
M  V30 18061 O 1735.1 -1.85726 -1.98035 0
M  V30 18062 C 1733.56 -3.59839 -0.0664428 0
M  V30 18063 C 1733.17 -4.2948 1.27479 0
M  V30 18064 C 1734.91 -4.20893 -0.552244 0
M  V30 18065 C 1732.82 -5.79548 1.17805 0
M  V30 18066 H 1731.75 -0.753966 -0.00713463 0
M  V30 18067 H 1734.4 -1.70779 0.67132 0
M  V30 18068 H 1732.78 -3.8759 -0.811795 0
M  V30 18069 H 1733.95 -4.13403 2.03554 0
M  V30 18070 H 1732.27 -3.80289 1.69616 0
M  V30 18071 H 1734.87 -5.30825 -0.642556 0
M  V30 18072 H 1735.21 -3.86066 -1.55752 0
M  V30 18073 H 1735.74 -3.97563 0.137363 0
M  V30 18074 H 1732.48 -6.18945 2.15841 0
M  V30 18075 H 1732 -5.98044 0.458624 0
M  V30 18076 H 1733.68 -6.41153 0.867834 0
M  V30 18077 N 1733.81 -0.262893 -1.55392 0
M  V30 18078 C 1734.72 0.640223 -2.25695 0
M  V30 18079 C 1735.74 1.18019 -1.27857 0
M  V30 18080 O 1736.91 1.21308 -1.60768 0
M  V30 18081 C 1733.98 1.81336 -2.95497 0
M  V30 18082 C 1733.04 1.31128 -4.08784 0
M  V30 18083 C 1732.27 2.4285 -4.75247 0
M  V30 18084 O 1732.5 3.61939 -4.40859 0
M  V30 18085 O 1731.43 2.11699 -5.63442 0
M  V30 18086 H 1735.26 0.0710781 -3.03617 0
M  V30 18087 H 1732.84 -0.030765 -1.49368 0
M  V30 18088 H 1734.72 2.49764 -3.39406 0
M  V30 18089 H 1733.4 2.36982 -2.20502 0
M  V30 18090 H 1732.3 0.593816 -3.69357 0
M  V30 18091 H 1733.64 0.800711 -4.85643 0
M  V30 18092 N 1735.29 1.57597 0.0100073 0
M  V30 18093 C 1736.22 2.04622 1.0326 0
M  V30 18094 C 1737.23 0.962343 1.31312 0
M  V30 18095 O 1738.42 1.23933 1.28464 0
M  V30 18096 C 1735.52 2.42271 2.36976 0
M  V30 18097 C 1734.7 3.73271 2.28008 0
M  V30 18098 C 1733.76 3.97899 3.4433 0
M  V30 18099 O 1732.78 4.68702 3.22966 0
M  V30 18100 N 1733.98 3.45015 4.66846 0
M  V30 18101 H 1736.75 2.92968 0.63164 0
M  V30 18102 H 1734.31 1.6069 0.197591 0
M  V30 18103 H 1736.3 2.55869 3.13549 0
M  V30 18104 H 1734.87 1.59496 2.68849 0
M  V30 18105 H 1734.09 3.69846 1.3641 0
M  V30 18106 H 1735.38 4.59172 2.19178 0
M  V30 18107 H 1734.78 2.87661 4.87101 0
M  V30 18108 H 1733.33 3.6396 5.40718 0
M  V30 18109 N 1736.77 -0.282606 1.55045 0
M  V30 18110 C 1737.99 -1.03825 1.79542 0
M  V30 18111 C 1738.42 -1.79503 0.562165 0
M  V30 18112 O 1737.78 -1.7461 -0.487946 0
M  V30 18113 C 1737.82 -1.98007 3.01373 0
M  V30 18114 O 1736.93 -3.06621 2.75785 0
M  V30 18115 H 1736.27 -0.297333 0.593708 0
M  V30 18116 H 1738.8 -0.314434 2.02169 0
M  V30 18117 H 1738.81 -2.40138 3.29845 0
M  V30 18118 H 1737.48 -1.42335 3.90786 0
M  V30 18119 H 1736.06 -2.68874 2.58382 0
M  V30 18120 N 1738.25 -1.47815 -0.546675 0
M  V30 18121 C 1739.21 -1.6063 -1.63495 0
M  V30 18122 C 1740.21 -0.480661 -1.53448 0
M  V30 18123 O 1741.4 -0.746017 -1.57417 0
M  V30 18124 C 1738.53 -1.56076 -3.03073 0
M  V30 18125 H 1739.72 -2.57652 -1.53478 0
M  V30 18126 H 1737.28 -1.36162 -0.767433 0
M  V30 18127 H 1738.01 -0.604694 -3.18613 0
M  V30 18128 H 1737.8 -2.3778 -3.11774 0
M  V30 18129 H 1739.29 -1.68204 -3.82227 0
M  V30 18130 N 1739.72 0.794246 -1.36123 0
M  V30 18131 C 1741.13 1.36909 -1.26936 0
M  V30 18132 C 1741.49 1.9598 0.0929337 0
M  V30 18133 O 1740.61 1.92206 0.994266 0
M  V30 18134 C 1741.21 2.48906 -2.2985 0
M  V30 18135 C 1739.76 3.0222 -2.24366 0
M  V30 18136 C 1738.91 1.75264 -2.1489 0
M  V30 18137 H 1741.86 0.596278 -1.47072 0
M  V30 18138 H 1741.88 3.27794 -1.93213 0
M  V30 18139 H 1741.4 2.05884 -3.28988 0
M  V30 18140 H 1739.5 3.49675 -1.28679 0
M  V30 18141 H 1739.61 3.59363 -3.16852 0
M  V30 18142 H 1737.97 1.97306 -1.61066 0
M  V30 18143 H 1738.76 1.34377 -3.15908 0
M  V30 18144 N 1741.2 1.20323 1.01785 0
M  V30 18145 C 1742.43 1.03893 1.79502 0
M  V30 18146 C 1742.85 -0.407421 1.83635 0
M  V30 18147 O 1742.21 -1.29338 1.27049 0
M  V30 18148 C 1742.26 1.62562 3.21879 0
M  V30 18149 O 1741.36 0.862398 4.03282 0
M  V30 18150 H 1740.7 0.366479 0.553705 0
M  V30 18151 H 1743.23 1.59589 1.28034 0
M  V30 18152 H 1743.24 1.66244 3.72595 0
M  V30 18153 H 1741.92 2.67826 3.18186 0
M  V30 18154 H 1740.49 0.899687 3.61884 0
M  V30 18155 N 1742.68 -1.21073 1.00892 0
M  V30 18156 C 1743.61 -2.22968 0.530841 0
M  V30 18157 C 1744.62 -1.58239 -0.382664 0
M  V30 18158 O 1745.81 -1.77567 -0.182237 0
M  V30 18159 C 1742.91 -3.37991 -0.248096 0
M  V30 18160 C 1742.09 -4.32309 0.665439 0
M  V30 18161 C 1741.15 -5.2616 -0.0645731 0
M  V30 18162 O 1740.17 -5.66484 0.555383 0
M  V30 18163 N 1741.37 -5.64777 -1.3419 0
M  V30 18164 H 1744.14 -2.64614 1.4071 0
M  V30 18165 H 1741.7 -1.35536 0.885528 0
M  V30 18166 H 1743.69 -3.97774 -0.745513 0
M  V30 18167 H 1742.26 -2.95297 -1.02558 0
M  V30 18168 H 1741.48 -3.70607 1.34329 0
M  V30 18169 H 1742.77 -4.92254 1.28701 0
M  V30 18170 H 1742.17 -5.34016 -1.86664 0
M  V30 18171 H 1740.72 -6.26905 -1.78419 0
M  V30 18172 N 1744.16 -0.784156 -1.36707 0
M  V30 18173 C 1745.38 -0.364744 -2.04168 0
M  V30 18174 C 1745.81 1.00905 -1.58745 0
M  V30 18175 O 1745.17 1.64903 -0.753447 0
M  V30 18176 C 1745.21 -0.43091 -3.58016 0
M  V30 18177 O 1744.32 0.564103 -4.08524 0
M  V30 18178 H 1743.66 -0.15576 -0.645473 0
M  V30 18179 H 1746.19 -1.0638 -1.74769 0
M  V30 18180 H 1746.2 -0.292629 -4.06949 0
M  V30 18181 H 1744.87 -1.43308 -3.9043 0
M  V30 18182 H 1743.45 0.387917 -3.70877 0
M  V30 18183 N 1745.64 1.48215 -0.535727 0
M  V30 18184 C 1746.91 1.95505 0.0609376 0
M  V30 18185 C 1747.29 1.47806 1.5072 0
M  V30 18186 O 1746.64 0.707142 2.17283 0
M  V30 18187 C 1746.85 3.48944 -0.0622609 0
M  V30 18188 C 1748.2 4.24496 0.0940805 0
M  V30 18189 O 1749.22 3.56198 0.0112532 0
M  V30 18190 O 1748.08 5.4584 0.268547 0
M  V30 18191 H 1745.18 0.82349 0.0761079 0
M  V30 18192 H 1747.72 1.58711 -0.600732 0
M  V30 18193 H 1746.49 3.76401 -1.06949 0
M  V30 18194 H 1746.12 3.92448 0.637999 0
M  V30 18195 N 1747.11 0.27113 1.5525 0
M  V30 18196 C 1748.05 -0.651235 2.19753 0
M  V30 18197 C 1749.06 -1.12051 1.18104 0
M  V30 18198 O 1750.25 -1.0431 1.44851 0
M  V30 18199 C 1747.35 -1.89985 2.8064 0
M  V30 18200 C 1746.52 -1.57805 4.07942 0
M  V30 18201 C 1745.58 -2.67872 4.52914 0
M  V30 18202 O 1744.61 -2.34228 5.18774 0
M  V30 18203 N 1745.81 -3.97854 4.22721 0
M  V30 18204 H 1748.57 -0.0991913 2.99536 0
M  V30 18205 H 1746.13 0.0920667 1.61638 0
M  V30 18206 H 1748.13 -2.62907 3.07672 0
M  V30 18207 H 1746.7 -2.36105 2.04874 0
M  V30 18208 H 1745.92 -0.682852 3.88241 0
M  V30 18209 H 1747.2 -1.33801 4.90892 0
M  V30 18210 H 1746.6 -4.28011 3.69897 0
M  V30 18211 H 1745.16 -4.67165 4.54533 0
M  V30 18212 N 1748.59 -1.576 -0.00164943 0
M  V30 18213 C 1749.5 -2.11748 -1.00995 0
M  V30 18214 C 1750.52 -1.06235 -1.37805 0
M  V30 18215 O 1751.69 -1.38127 -1.4657 0
M  V30 18216 C 1748.76 -2.60869 -2.2836 0
M  V30 18217 C 1747.82 -3.80976 -1.97879 0
M  V30 18218 C 1747.05 -4.27745 -3.19171 0
M  V30 18219 O 1747.28 -3.73856 -4.30799 0
M  V30 18220 O 1746.21 -5.19917 -3.03265 0
M  V30 18221 H 1750.04 -2.98117 -0.579667 0
M  V30 18222 H 1747.62 -1.47766 -0.220375 0
M  V30 18223 H 1749.5 -2.9267 -3.03187 0
M  V30 18224 H 1748.18 -1.77598 -2.7063 0
M  V30 18225 H 1747.09 -3.54151 -1.20533 0
M  V30 18226 H 1748.42 -4.65315 -1.60447 0
M  V30 18227 N 1750.07 0.274379 -1.55193 0
M  V30 18228 C 1751 1.36139 -1.84388 0
M  V30 18229 C 1752.02 1.45601 -0.728294 0
M  V30 18230 O 1753.2 1.47443 -1.00613 0
M  V30 18231 C 1750.3 2.74278 -1.9906 0
M  V30 18232 C 1749.48 2.87424 -3.29706 0
M  V30 18233 C 1748.54 4.06229 -3.34461 0
M  V30 18234 O 1747.56 3.97053 -4.07845 0
M  V30 18235 N 1748.76 5.18131 -2.61764 0
M  V30 18236 H 1751.53 1.1144 -2.78211 0
M  V30 18237 H 1749.09 0.464493 -1.55094 0
M  V30 18238 H 1751.08 3.52047 -1.99613 0
M  V30 18239 H 1749.65 2.91805 -1.1211 0
M  V30 18240 H 1748.87 1.96551 -3.41704 0
M  V30 18241 H 1750.16 2.93137 -4.15871 0
M  V30 18242 H 1749.56 5.28473 -2.01824 0
M  V30 18243 H 1748.12 5.94135 -2.68042 0
M  V30 18244 N 1751.55 1.48103 0.538828 0
M  V30 18245 C 1752.48 1.64856 1.65363 0
M  V30 18246 C 1753.46 0.497579 1.6266 0
M  V30 18247 O 1754.64 0.729088 1.79994 0
M  V30 18248 C 1751.77 1.67984 3.03971 0
M  V30 18249 C 1750.73 2.82494 3.21529 0
M  V30 18250 C 1750.05 2.70706 4.6111 0
M  V30 18251 C 1751.35 4.23892 3.05145 0
M  V30 18252 H 1753.05 2.58183 1.51598 0
M  V30 18253 H 1750.59 1.24249 0.727886 0
M  V30 18254 H 1752.55 1.78294 3.81824 0
M  V30 18255 H 1751.27 0.712299 3.18738 0
M  V30 18256 H 1749.93 2.71725 2.46091 0
M  V30 18257 H 1749.58 1.7194 4.727 0
M  V30 18258 H 1749.28 3.47539 4.73804 0
M  V30 18259 H 1750.8 2.82971 5.41073 0
M  V30 18260 H 1752.22 4.3554 3.72797 0
M  V30 18261 H 1750.61 5.01654 3.29338 0
M  V30 18262 H 1751.68 4.40973 2.01671 0
M  V30 18263 N 1753.03 -0.787016 1.36542 0
M  V30 18264 C 1754.27 -1.54499 1.30906 0
M  V30 18265 C 1754.6 -1.94183 -0.110963 0
M  V30 18266 O 1753.86 -1.63149 -1.08079 0
M  V30 18267 C 1754.16 -2.83235 2.17974 0
M  V30 18268 C 1753.82 -2.62677 3.66485 0
M  V30 18269 C 1752.48 -2.56779 4.06962 0
M  V30 18270 C 1754.84 -2.43853 4.60636 0
M  V30 18271 C 1752.16 -2.30026 5.39727 0
M  V30 18272 C 1754.52 -2.18626 5.93621 0
M  V30 18273 C 1753.18 -2.11162 6.33219 0
M  V30 18274 H 1752.45 -0.565352 0.479017 0
M  V30 18275 H 1755.1 -0.907794 1.68616 0
M  V30 18276 H 1753.4 -3.51435 1.73208 0
M  V30 18277 H 1755.1 -3.41038 2.10936 0
M  V30 18278 H 1751.69 -2.68125 3.34376 0
M  V30 18279 H 1755.87 -2.4741 4.30235 0
M  V30 18280 H 1751.13 -2.22731 5.69386 0
M  V30 18281 H 1755.3 -2.03056 6.66139 0
M  V30 18282 H 1752.93 -1.90195 7.36023 0
M  V30 18283 N 1754.5 -1.20861 -1.01145 0
M  V30 18284 C 1755.73 -1.04843 -1.78949 0
M  V30 18285 C 1756.15 0.397676 -1.83848 0
M  V30 18286 O 1755.51 1.28663 -1.27733 0
M  V30 18287 C 1755.56 -1.64267 -3.21012 0
M  V30 18288 O 1754.66 -0.883773 -4.02819 0
M  V30 18289 H 1754.01 -0.36941 -0.551754 0
M  V30 18290 H 1756.54 -1.60266 -1.27185 0
M  V30 18291 H 1756.55 -1.68218 -3.71708 0
M  V30 18292 H 1755.22 -2.69509 -3.16761 0
M  V30 18293 H 1753.8 -0.918866 -3.61402 0
M  V30 18294 N 1755.98 1.20536 -1.01532 0
M  V30 18295 C 1756.93 2.2531 -0.577786 0
M  V30 18296 C 1757.92 1.65017 0.382843 0
M  V30 18297 O 1759.13 1.78214 0.252904 0
M  V30 18298 H 1755.51 0.732872 -0.168532 0
M  V30 18299 H 1757.48 2.59544 -1.4724 0
M  V30 18300 C 1756.23 3.47631 0.0694263 0
M  V30 18301 H 1755.55 3.94302 -0.660748 0
M  V30 18302 H 1756.99 4.22645 0.338706 0
M  V30 18303 C 1755.45 3.1031 1.31185 0
M  V30 18304 O 1755.98 3.21729 2.40527 0
M  V30 18305 N 1754.18 2.64871 1.19547 0
M  V30 18306 H 1753.73 2.55779 0.305741 0
M  V30 18307 H 1753.69 2.4027 2.02775 0
M  V30 18308 N 1757.46 0.791395 1.36289 0
M  V30 18309 C 1758.71 0.365242 1.99484 0
M  V30 18310 C 1759.04 -1.06087 1.62663 0
M  V30 18311 O 1758.31 -1.73332 0.882396 0
M  V30 18312 C 1758.6 0.531317 3.56159 0
M  V30 18313 C 1758.45 2.00126 4.02827 0
M  V30 18314 C 1759.77 -0.0524248 4.40069 0
M  V30 18315 H 1756.89 0.134183 0.724682 0
M  V30 18316 H 1759.53 0.998102 1.61672 0
M  V30 18317 H 1757.68 -0.0074293 3.88499 0
M  V30 18318 H 1759.35 2.60122 3.80965 0
M  V30 18319 H 1757.6 2.50316 3.54294 0
M  V30 18320 H 1758.27 2.06842 5.11782 0
M  V30 18321 H 1760.74 0.407489 4.141 0
M  V30 18322 H 1759.62 0.0937898 5.4882 0
M  V30 18323 H 1759.88 -1.14472 4.27023 0
M  V30 18324 N 1758.94 -1.47929 0.54358 0
M  V30 18325 C 1759.87 -2.27843 -0.249005 0
M  V30 18326 C 1760.88 -1.36189 -0.891987 0
M  V30 18327 O 1762.07 -1.61127 -0.768135 0
M  V30 18328 C 1759.17 -3.10016 -1.36906 0
M  V30 18329 C 1758.35 -4.29541 -0.82545 0
M  V30 18330 C 1757.41 -4.93416 -1.82831 0
M  V30 18331 O 1756.43 -5.52222 -1.37984 0
M  V30 18332 N 1757.63 -4.86881 -3.16113 0
M  V30 18333 H 1760.4 -2.96505 0.436436 0
M  V30 18334 H 1757.96 -1.57407 0.378774 0
M  V30 18335 H 1759.95 -3.49616 -2.0384 0
M  V30 18336 H 1758.52 -2.43686 -1.95796 0
M  V30 18337 H 1757.74 -3.94195 0.0202776 0
M  V30 18338 H 1759.03 -5.06882 -0.441368 0
M  V30 18339 H 1758.43 -4.4028 -3.55205 0
M  V30 18340 H 1756.98 -5.30541 -3.78642 0
M  V30 18341 N 1760.42 -0.27936 -1.55104 0
M  V30 18342 C 1761.65 0.338937 -2.03801 0
M  V30 18343 C 1762.06 1.49699 -1.15702 0
M  V30 18344 O 1761.4 1.82906 -0.170589 0
M  V30 18345 C 1761.46 0.878265 -3.48607 0
M  V30 18346 C 1761.12 -0.151698 -4.56748 0
M  V30 18347 C 1762.12 -0.972688 -5.1072 0
M  V30 18348 C 1759.81 -0.287161 -5.01478 0
M  V30 18349 C 1761.8 -1.91529 -6.07944 0
M  V30 18350 C 1759.49 -1.23323 -5.98527 0
M  V30 18351 C 1760.49 -2.04579 -6.51641 0
M  V30 18352 O 1760.17 -2.97586 -7.46792 0
M  V30 18353 H 1759.91 0.080791 -0.671155 0
M  V30 18354 H 1762.46 -0.410483 -2.01257 0
M  V30 18355 H 1760.69 1.67783 -3.48405 0
M  V30 18356 H 1762.38 1.41011 -3.80619 0
M  V30 18357 H 1763.14 -0.878791 -4.76972 0
M  V30 18358 H 1759.02 0.33531 -4.59779 0
M  V30 18359 H 1762.57 -2.54993 -6.49326 0
M  V30 18360 H 1758.46 -1.32793 -6.31693 0
M  V30 18361 H 1759.23 -2.92316 -7.64522 0
M  V30 18362 N 1761.9 1.57599 -0.0067085 0
M  V30 18363 C 1763.14 1.90858 0.67673 0
M  V30 18364 C 1763.47 0.880956 1.73405 0
M  V30 18365 O 1762.73 -0.113339 1.95372 0
M  V30 18366 C 1763.02 3.30868 1.35133 0
M  V30 18367 C 1762.69 4.48878 0.426559 0
M  V30 18368 C 1761.35 4.80893 0.17196 0
M  V30 18369 C 1763.7 5.20778 -0.209761 0
M  V30 18370 C 1761.03 5.82177 -0.727139 0
M  V30 18371 C 1763.38 6.2302 -1.09678 0
M  V30 18372 C 1762.05 6.53488 -1.36049 0
M  V30 18373 H 1761.32 0.698397 0.247633 0
M  V30 18374 H 1763.97 1.91394 -0.0636748 0
M  V30 18375 H 1762.27 3.26487 2.16594 0
M  V30 18376 H 1763.97 3.53864 1.8863 0
M  V30 18377 H 1760.56 4.23867 0.635166 0
M  V30 18378 H 1764.74 4.96293 -0.0260888 0
M  V30 18379 H 1760 6.0414 -0.939389 0
M  V30 18380 H 1764.17 6.77861 -1.59616 0
M  V30 18381 H 1761.8 7.31789 -2.05886 0
M  V30 18382 N 1763.37 -0.266145 1.55336 0
M  V30 18383 C 1764.34 -1.31242 1.87904 0
M  V30 18384 C 1765.34 -1.42022 0.754083 0
M  V30 18385 O 1766.53 -1.41054 1.02222 0
M  V30 18386 C 1763.66 -2.69285 2.09041 0
M  V30 18387 H 1764.85 -1.03592 2.81441 0
M  V30 18388 H 1762.4 -0.504537 1.47933 0
M  V30 18389 H 1763.14 -3.02106 1.17909 0
M  V30 18390 H 1762.92 -2.62846 2.90954 0
M  V30 18391 H 1764.41 -3.4487 2.35488 0
M  V30 18392 N 1764.85 -1.48386 -0.530967 0
M  V30 18393 C 1765.8 -1.59236 -1.6318 0
M  V30 18394 C 1766.79 -0.449549 -1.54492 0
M  V30 18395 O 1767.98 -0.700935 -1.6253 0
M  V30 18396 C 1765.11 -1.6343 -3.01903 0
M  V30 18397 C 1764.19 -2.83188 -3.15699 0
M  V30 18398 N 1764.58 -4.07616 -2.99471 0
M  V30 18399 C 1762.88 -2.80499 -3.46751 0
M  V30 18400 C 1763.58 -4.87959 -3.16657 0
M  V30 18401 N 1762.56 -4.20757 -3.44186 0
M  V30 18402 H 1766.36 -2.53187 -1.49243 0
M  V30 18403 H 1763.87 -1.44744 -0.7364 0
M  V30 18404 H 1765.87 -1.69297 -3.80978 0
M  V30 18405 H 1764.53 -0.705948 -3.16933 0
M  V30 18406 H 1765.54 -4.38068 -2.76255 0
M  V30 18407 H 1762.22 -1.96916 -3.68145 0
M  V30 18408 H 1763.61 -5.96705 -3.08857 0
M  V30 18409 N 1766.33 0.779763 -1.36958 0
M  V30 18410 C 1767.56 1.56648 -1.34704 0
M  V30 18411 C 1767.97 1.89065 0.071459 0
M  V30 18412 O 1767.31 1.51325 1.04146 0
M  V30 18413 C 1767.37 2.90862 -2.11281 0
M  V30 18414 C 1767.04 2.81123 -3.60304 0
M  V30 18415 C 1768.03 2.52702 -4.54354 0
M  V30 18416 C 1765.72 2.99397 -4.0332 0
M  V30 18417 C 1767.71 2.42671 -5.89398 0
M  V30 18418 C 1765.4 2.88987 -5.38451 0
M  V30 18419 C 1766.4 2.60663 -6.31303 0
M  V30 18420 O 1766.09 2.50264 -7.63952 0
M  V30 18421 H 1765.82 0.492209 -0.463364 0
M  V30 18422 H 1768.37 0.974946 -1.80787 0
M  V30 18423 H 1766.6 3.52104 -1.59875 0
M  V30 18424 H 1768.29 3.52203 -2.01762 0
M  V30 18425 H 1769.06 2.38277 -4.22432 0
M  V30 18426 H 1764.94 3.20446 -3.31414 0
M  V30 18427 H 1768.48 2.20484 -6.6184 0
M  V30 18428 H 1764.38 3.02977 -5.69978 0
M  V30 18429 H 1765.14 2.65674 -7.74183 0
M  V30 18430 N 1767.81 1.21396 1.00503 0
M  V30 18431 C 1769.05 1.0426 1.7581 0
M  V30 18432 C 1769.41 -0.416605 1.87426 0
M  V30 18433 O 1770.61 -0.708477 2.59295 0
M  V30 18434 C 1768.88 1.72061 3.13257 0
M  V30 18435 S 1770.44 1.70181 4.04455 0
M  V30 18436 H 1767.26 0.373616 0.604923 0
M  V30 18437 H 1769.86 1.54141 1.20253 0
M  V30 18438 H 1768.57 2.77418 3.02436 0
M  V30 18439 H 1768.1 1.2236 3.73887 0
M  V30 18440 H 1770.11 0.742877 4.90608 0
M  V30 18441 N 1769.29 -1.19996 1.0217 0
M  V30 18442 C 1770.7 -1.4154 0.737473 0
M  V30 18443 C 1770.9 -1.89649 -0.680832 0
M  V30 18444 O 1769.96 -2.06865 -1.44787 0
M  V30 18445 C 1771.27 -2.43269 1.76751 0
M  V30 18446 C 1772.82 -2.57027 1.78623 0
M  V30 18447 C 1773.29 -3.62003 2.80567 0
M  V30 18448 N 1774.78 -3.69492 2.79339 0
M  V30 18449 C 1775.52 -4.50391 3.54874 0
M  V30 18450 N 1775.02 -5.35053 4.40103 0
M  V30 18451 N 1776.81 -4.44972 3.43448 0
M  V30 18452 H 1768.96 -0.870855 1.93726 0
M  V30 18453 H 1771.22 -0.444866 0.837137 0
M  V30 18454 H 1770.93 -2.14927 2.78387 0
M  V30 18455 H 1770.8 -3.42336 1.58386 0
M  V30 18456 H 1773.19 -2.84695 0.776695 0
M  V30 18457 H 1773.27 -1.58138 2.01062 0
M  V30 18458 H 1772.91 -3.35078 3.81687 0
M  V30 18459 H 1772.84 -4.60526 2.55388 0
M  V30 18460 H 1775.34 -3.09021 2.17518 0
M  V30 18461 H 1775.65 -5.93881 4.94495 0
M  V30 18462 H 1773.99 -5.34538 4.44178 0
M  V30 18463 H 1777.18 -3.77869 2.76283 0
M  V30 18464 H 1777.36 -5.07782 4.02569 0
M  V30 18465 N 1770.76 -0.798611 -1.35867 0
M  V30 18466 C 1771.71 -0.201442 -2.29919 0
M  V30 18467 C 1772.68 0.659971 -1.52426 0
M  V30 18468 O 1773.87 0.606726 -1.80896 0
M  V30 18469 C 1771.01 0.650427 -3.38915 0
M  V30 18470 C 1770.12 -0.230539 -4.31384 0
M  V30 18471 C 1769.25 0.628575 -5.27468 0
M  V30 18472 C 1768.29 -0.253282 -6.11576 0
M  V30 18473 N 1767.43 0.565343 -6.9982 0
M  V30 18474 H 1772.27 -1.00892 -2.80401 0
M  V30 18475 H 1769.81 -0.509085 -1.3801 0
M  V30 18476 H 1771.76 1.15941 -4.00766 0
M  V30 18477 H 1770.39 1.42325 -2.8973 0
M  V30 18478 H 1769.45 -0.85756 -3.70608 0
M  V30 18479 H 1770.76 -0.909635 -4.90436 0
M  V30 18480 H 1769.91 1.203 -5.94653 0
M  V30 18481 H 1768.65 1.34127 -4.68894 0
M  V30 18482 H 1767.66 -0.84004 -5.43345 0
M  V30 18483 H 1768.88 -0.963713 -6.72227 0
M  V30 18484 H 1766.83 1.26216 -6.43743 0
M  V30 18485 H 1766.74 -0.0558752 -7.55979 0
M  V30 18486 H 1768.01 1.1233 -7.71364 0
M  V30 18487 N 1772.24 1.47639 -0.551417 0
M  V30 18488 C 1773.47 2.06578 -0.0298471 0
M  V30 18489 C 1773.88 1.40538 1.26672 0
M  V30 18490 O 1773.22 0.493957 1.76934 0
M  V30 18491 C 1773.28 3.5868 0.242667 0
M  V30 18492 C 1772.95 4.46726 -0.963597 0
M  V30 18493 C 1773.95 4.85195 -1.86766 0
M  V30 18494 C 1771.63 4.88324 -1.17664 0
M  V30 18495 C 1773.62 5.64056 -2.96849 0
M  V30 18496 C 1771.31 5.66951 -2.28058 0
M  V30 18497 C 1772.31 6.04727 -3.17482 0
M  V30 18498 O 1772 6.81771 -4.25963 0
M  V30 18499 H 1771.73 0.674806 -0.0401627 0
M  V30 18500 H 1774.28 1.90714 -0.762724 0
M  V30 18501 H 1772.51 3.72736 1.02978 0
M  V30 18502 H 1774.2 3.99661 0.708914 0
M  V30 18503 H 1774.97 4.53662 -1.7151 0
M  V30 18504 H 1770.85 4.58391 -0.489796 0
M  V30 18505 H 1774.39 5.93461 -3.66675 0
M  V30 18506 H 1770.29 5.97897 -2.43289 0
M  V30 18507 H 1771.06 7.00156 -4.23938 0
M  V30 18508 N 1773.72 0.287581 1.54954 0
M  V30 18509 C 1774.68 -0.581465 2.21702 0
M  V30 18510 C 1775.68 -1.07172 1.19878 0
M  V30 18511 O 1776.87 -0.969899 1.44702 0
M  V30 18512 C 1774.01 -1.80358 2.89282 0
M  V30 18513 H 1775.2 0.00151035 2.999 0
M  V30 18514 H 1772.75 0.0382953 1.56253 0
M  V30 18515 H 1773.49 -2.42674 2.15128 0
M  V30 18516 H 1773.27 -1.45983 3.63911 0
M  V30 18517 H 1774.76 -2.42129 3.4024 0
M  V30 18518 N 1775.2 -1.57593 0.0150662 0
M  V30 18519 C 1776.61 -1.79146 -0.525709 0
M  V30 18520 C 1776.96 -0.923985 -1.73081 0
M  V30 18521 O 1776.09 -0.130532 -2.16006 0
M  V30 18522 C 1776.68 -3.249 -0.960492 0
M  V30 18523 C 1775.24 -3.47497 -1.44647 0
M  V30 18524 C 1774.39 -2.74332 -0.404628 0
M  V30 18525 H 1777.34 -1.56857 0.241175 0
M  V30 18526 H 1777.36 -3.3384 -1.82568 0
M  V30 18527 H 1776.87 -3.88011 -0.0832025 0
M  V30 18528 H 1774.97 -2.8962 -2.34416 0
M  V30 18529 H 1775.08 -4.56199 -1.46354 0
M  V30 18530 H 1773.45 -2.39394 -0.869627 0
M  V30 18531 H 1774.23 -3.40151 0.463953 0
M  V30 18532 N 1776.68 0.257904 -1.55475 0
M  V30 18533 C 1777.61 1.32303 -1.92401 0
M  V30 18534 C 1778.59 1.50767 -0.787617 0
M  V30 18535 O 1779.77 1.63559 -1.047 0
M  V30 18536 C 1776.9 2.67984 -2.20912 0
M  V30 18537 C 1775.86 2.64231 -3.36699 0
M  V30 18538 C 1775.18 4.03604 -3.50725 0
M  V30 18539 C 1776.48 2.22177 -4.72689 0
M  V30 18540 H 1778.18 1.01646 -2.81618 0
M  V30 18541 H 1775.72 0.487523 -1.35496 0
M  V30 18542 H 1777.68 3.42622 -2.45332 0
M  V30 18543 H 1776.4 3.00254 -1.2851 0
M  V30 18544 H 1775.06 1.92049 -3.1227 0
M  V30 18545 H 1774.71 4.33122 -2.55763 0
M  V30 18546 H 1774.41 4.01983 -4.28583 0
M  V30 18547 H 1775.93 4.79959 -3.77455 0
M  V30 18548 H 1777.34 2.86543 -4.96554 0
M  V30 18549 H 1775.74 2.3169 -5.5357 0
M  V30 18550 H 1776.81 1.17326 -4.70492 0
M  V30 18551 N 1778.15 1.48666 0.52309 0
M  V30 18552 C 1779.38 1.60474 1.30122 0
M  V30 18553 C 1779.79 0.266767 1.8731 0
M  V30 18554 O 1779.14 -0.754974 1.67469 0
M  V30 18555 C 1779.2 2.59753 2.48533 0
M  V30 18556 C 1778.86 4.04652 2.12381 0
M  V30 18557 C 1779.86 4.92129 1.67647 0
M  V30 18558 C 1777.54 4.50237 2.22692 0
M  V30 18559 C 1779.54 6.2322 1.337 0
M  V30 18560 C 1777.22 5.81348 1.88357 0
M  V30 18561 C 1778.22 6.67662 1.43932 0
M  V30 18562 O 1777.91 7.96332 1.10051 0
M  V30 18563 H 1777.64 0.543696 0.40171 0
M  V30 18564 H 1780.2 1.95273 0.637002 0
M  V30 18565 H 1778.43 2.20089 3.17958 0
M  V30 18566 H 1780.12 2.61323 3.10588 0
M  V30 18567 H 1780.88 4.58146 1.59145 0
M  V30 18568 H 1776.76 3.83236 2.56225 0
M  V30 18569 H 1780.3 6.90546 0.989527 0
M  V30 18570 H 1776.2 6.14864 1.96502 0
M  V30 18571 H 1776.97 8.09146 1.23389 0
M  V30 18572 N 1779.63 -0.772489 1.37369 0
M  V30 18573 C 1780.6 -1.86737 1.32898 0
M  V30 18574 C 1781.6 -1.591 0.23318 0
M  V30 18575 O 1782.79 -1.67196 0.488983 0
M  V30 18576 C 1779.92 -3.23859 1.06435 0
M  V30 18577 H 1781.11 -1.92114 2.30287 0
M  V30 18578 H 1778.66 -0.972158 1.22388 0
M  V30 18579 H 1779.4 -3.24159 0.0957365 0
M  V30 18580 H 1779.18 -3.4531 1.85751 0
M  V30 18581 H 1780.67 -4.03935 1.05954 0
M  V30 18582 N 1781.11 -1.21927 -0.998575 0
M  V30 18583 C 1782.34 -1.06735 -1.77827 0
M  V30 18584 C 1782.76 0.378154 -1.8426 0
M  V30 18585 O 1782.12 1.27301 -1.2909 0
M  V30 18586 C 1782.17 -1.67662 -3.19252 0
M  V30 18587 O 1781.27 -0.926448 -4.01859 0
M  V30 18588 H 1780.61 -0.375241 -0.547805 0
M  V30 18589 H 1783.14 -1.61605 -1.25478 0
M  V30 18590 H 1783.15 -1.72151 -3.69903 0
M  V30 18591 H 1781.83 -2.72854 -3.13885 0
M  V30 18592 H 1780.4 -0.957145 -3.60407 0
M  V30 18593 N 1782.59 1.19452 -1.02805 0
M  V30 18594 C 1783.5 2.2631 -0.618147 0
M  V30 18595 C 1784.51 1.70449 0.349712 0
M  V30 18596 O 1785.69 2.00325 0.207801 0
M  V30 18597 C 1782.76 3.46691 0.0255242 0
M  V30 18598 C 1781.82 4.17735 -0.98973 0
M  V30 18599 C 1781.05 5.32369 -0.376681 0
M  V30 18600 O 1781.27 5.64467 0.820584 0
M  V30 18601 O 1780.21 5.9178 -1.09911 0
M  V30 18602 H 1784.03 2.63611 -1.50807 0
M  V30 18603 H 1781.62 1.2629 -0.798192 0
M  V30 18604 H 1783.5 4.19643 0.384464 0
M  V30 18605 H 1782.17 3.1124 0.889467 0
M  V30 18606 H 1781.08 3.46906 -1.40024 0
M  V30 18607 H 1782.41 4.57155 -1.82402 0
M  V30 18608 N 1784.07 0.805805 1.35442 0
M  V30 18609 C 1785.03 0.221278 2.28129 0
M  V30 18610 C 1786.03 -0.590919 1.49549 0
M  V30 18611 O 1787.22 -0.409518 1.69318 0
M  V30 18612 C 1784.35 -0.691643 3.3381 0
M  V30 18613 H 1785.54 1.03875 2.81336 0
M  V30 18614 H 1783.1 0.5764 1.45284 0
M  V30 18615 H 1783.83 -1.53283 2.85788 0
M  V30 18616 H 1783.62 -0.110972 3.91943 0
M  V30 18617 H 1785.11 -1.09497 4.02989 0
M  V30 18618 N 1785.54 -1.47344 0.559239 0
M  V30 18619 C 1786.49 -2.30039 -0.187317 0
M  V30 18620 C 1787.46 -1.39186 -0.906443 0
M  V30 18621 O 1788.65 -1.68147 -0.901739 0
M  V30 18622 C 1785.79 -3.2319 -1.21004 0
M  V30 18623 C 1784.9 -4.29134 -0.496776 0
M  V30 18624 C 1784.03 -5.09435 -1.50497 0
M  V30 18625 C 1783.07 -6.07151 -0.776794 0
M  V30 18626 N 1782.21 -6.80404 -1.73192 0
M  V30 18627 H 1787.05 -2.93357 0.523978 0
M  V30 18628 H 1784.59 -1.44597 0.270225 0
M  V30 18629 H 1786.55 -3.75621 -1.81561 0
M  V30 18630 H 1785.18 -2.61732 -1.88935 0
M  V30 18631 H 1784.23 -3.79744 0.223359 0
M  V30 18632 H 1785.54 -4.98746 0.0735731 0
M  V30 18633 H 1784.69 -5.66026 -2.18402 0
M  V30 18634 H 1783.43 -4.3973 -2.10924 0
M  V30 18635 H 1782.44 -5.49736 -0.0838382 0
M  V30 18636 H 1783.66 -6.78866 -0.178239 0
M  V30 18637 H 1781.61 -6.13427 -2.32472 0
M  V30 18638 H 1781.53 -7.46193 -1.21377 0
M  V30 18639 H 1782.79 -7.41567 -2.40204 0
M  V30 18640 N 1787.02 -0.295795 -1.54799 0
M  V30 18641 C 1788.44 0.0577516 -1.59495 0
M  V30 18642 C 1788.64 1.52862 -1.31284 0
M  V30 18643 O 1787.69 2.28061 -1.08372 0
M  V30 18644 C 1789.01 -0.335503 -2.98822 0
M  V30 18645 C 1790.56 -0.283835 -3.1171 0
M  V30 18646 C 1791.03 -0.651835 -4.53338 0
M  V30 18647 N 1792.52 -0.604171 -4.59243 0
M  V30 18648 C 1793.26 -0.861453 -5.66892 0
M  V30 18649 N 1792.75 -1.18443 -6.826 0
M  V30 18650 N 1794.55 -0.788863 -5.56537 0
M  V30 18651 H 1786.7 -1.25444 -1.71399 0
M  V30 18652 H 1788.96 -0.50822 -0.80026 0
M  V30 18653 H 1788.67 -1.35923 -3.24373 0
M  V30 18654 H 1788.54 0.313443 -3.75895 0
M  V30 18655 H 1790.93 0.730641 -2.85912 0
M  V30 18656 H 1791.01 -0.967331 -2.36804 0
M  V30 18657 H 1790.65 -1.66409 -4.79865 0
M  V30 18658 H 1790.58 0.053676 -5.26573 0
M  V30 18659 H 1793.07 -0.365262 -3.76131 0
M  V30 18660 H 1793.39 -1.36686 -7.60616 0
M  V30 18661 H 1791.73 -1.22242 -6.84165 0
M  V30 18662 H 1794.92 -0.536231 -4.65018 0
M  V30 18663 H 1795.09 -0.992744 -6.4035 0
M  V30 18664 N 1788.5 1.57583 -0.0234236 0
M  V30 18665 C 1789.75 1.91848 0.657422 0
M  V30 18666 C 1790.08 0.899633 1.72105 0
M  V30 18667 O 1789.36 -0.0784409 1.94342 0
M  V30 18668 C 1789.64 3.36617 1.2791 0
M  V30 18669 C 1789.49 4.49235 0.225421 0
M  V30 18670 C 1790.81 3.81239 2.19874 0
M  V30 18671 H 1787.93 0.697677 0.23752 0
M  V30 18672 H 1790.57 1.89834 -0.0795169 0
M  V30 18673 H 1788.72 3.38465 1.90719 0
M  V30 18674 H 1790.39 4.59521 -0.404792 0
M  V30 18675 H 1788.64 4.31462 -0.449749 0
M  V30 18676 H 1789.31 5.47545 0.699906 0
M  V30 18677 H 1791.78 3.81092 1.67058 0
M  V30 18678 H 1790.66 4.8324 2.60328 0
M  V30 18679 H 1790.92 3.16421 3.08755 0
M  V30 18680 N 1789.98 -0.249655 1.5561 0
M  V30 18681 C 1791.23 -0.97808 1.77313 0
M  V30 18682 C 1791.55 -1.85423 0.587253 0
M  V30 18683 O 1790.81 -1.90928 -0.429527 0
M  V30 18684 C 1791.11 -1.87138 3.0449 0
M  V30 18685 C 1790.77 -1.15081 4.35967 0
M  V30 18686 C 1789.44 -0.95166 4.71696 0
M  V30 18687 C 1791.79 -0.639877 5.17257 0
M  V30 18688 C 1789.12 -0.229227 5.86252 0
M  V30 18689 C 1791.47 0.0690756 6.32562 0
M  V30 18690 C 1790.13 0.279731 6.66914 0
M  V30 18691 H 1789.4 -0.357905 0.648834 0
M  V30 18692 H 1792.05 -0.248402 1.89882 0
M  V30 18693 H 1790.35 -2.66802 2.86921 0
M  V30 18694 H 1792.05 -2.43662 3.18481 0
M  V30 18695 H 1788.64 -1.31597 4.07897 0
M  V30 18696 H 1792.83 -0.78129 4.90112 0
M  V30 18697 H 1788.08 -0.0555172 6.11375 0
M  V30 18698 H 1792.26 0.472628 6.94794 0
M  V30 18699 H 1789.88 0.841482 7.55528 0
M  V30 18700 N 1791.46 -1.48941 -0.515198 0
M  V30 18701 C 1792.68 -1.61656 -1.29931 0
M  V30 18702 C 1793.11 -0.282529 -1.85966 0
M  V30 18703 O 1792.47 0.747914 -1.65154 0
M  V30 18704 C 1792.51 -2.6774 -2.41553 0
M  V30 18705 O 1791.62 -2.25926 -3.45009 0
M  V30 18706 H 1790.96 -0.541561 -0.384197 0
M  V30 18707 H 1793.49 -1.95032 -0.618349 0
M  V30 18708 H 1793.5 -2.89471 -2.87525 0
M  V30 18709 H 1792.17 -3.64582 -2.00131 0
M  V30 18710 H 1790.75 -2.14469 -3.05053 0
M  V30 18711 N 1792.94 0.765193 -1.37777 0
M  V30 18712 C 1793.87 1.89247 -1.36777 0
M  V30 18713 C 1794.85 1.68463 -0.235389 0
M  V30 18714 O 1796.03 1.89225 -0.436733 0
M  V30 18715 C 1793.16 3.2662 -1.18053 0
M  V30 18716 C 1792.12 3.61981 -2.28372 0
M  V30 18717 C 1791.44 4.97967 -1.94765 0
M  V30 18718 C 1792.74 3.68053 -3.70587 0
M  V30 18719 H 1794.44 1.90341 -2.31108 0
M  V30 18720 H 1791.98 0.914355 -1.11245 0
M  V30 18721 H 1793.93 4.05125 -1.15982 0
M  V30 18722 H 1792.66 3.25976 -0.201803 0
M  V30 18723 H 1791.32 2.85788 -2.2961 0
M  V30 18724 H 1790.97 4.93869 -0.954052 0
M  V30 18725 H 1790.67 5.22594 -2.68642 0
M  V30 18726 H 1792.19 5.78864 -1.94292 0
M  V30 18727 H 1793.6 4.36696 -3.71443 0
M  V30 18728 H 1792 4.04183 -4.43572 0
M  V30 18729 H 1793.07 2.68556 -4.03739 0
M  V30 18730 N 1794.41 1.22455 0.992094 0
M  V30 18731 C 1795.32 1.01173 2.11663 0
M  V30 18732 C 1796.34 -0.0402168 1.73954 0
M  V30 18733 O 1797.52 0.152685 2.0082 0
M  V30 18734 C 1794.58 0.592995 3.41591 0
M  V30 18735 C 1793.64 1.71865 3.93397 0
M  V30 18736 C 1792.87 1.3198 5.17124 0
M  V30 18737 O 1793.1 0.198943 5.70053 0
M  V30 18738 O 1792.03 2.13658 5.62702 0
M  V30 18739 H 1795.86 1.9539 2.32501 0
M  V30 18740 H 1793.44 1.01056 1.10036 0
M  V30 18741 H 1795.32 0.36987 4.19774 0
M  V30 18742 H 1794 -0.320311 3.22111 0
M  V30 18743 H 1792.91 1.9963 3.16384 0
M  V30 18744 H 1794.24 2.60985 4.1731 0
M  V30 18745 N 1795.89 -1.18905 1.03437 0
M  V30 18746 C 1796.84 -2.22318 0.619933 0
M  V30 18747 C 1797.81 -1.61948 -0.369056 0
M  V30 18748 O 1798.99 -1.88958 -0.26447 0
M  V30 18749 C 1796.13 -3.45096 -0.0174579 0
M  V30 18750 C 1795.25 -4.19829 1.01823 0
M  V30 18751 C 1794.38 -5.30046 0.350026 0
M  V30 18752 C 1793.42 -5.96543 1.37125 0
M  V30 18753 N 1792.56 -6.98311 0.728458 0
M  V30 18754 H 1797.4 -2.57125 1.50634 0
M  V30 18755 H 1794.93 -1.26324 0.753695 0
M  V30 18756 H 1796.89 -4.15236 -0.404294 0
M  V30 18757 H 1795.52 -3.10927 -0.867412 0
M  V30 18758 H 1794.57 -3.48578 1.52308 0
M  V30 18759 H 1795.89 -4.65415 1.79416 0
M  V30 18760 H 1795.04 -6.06631 -0.0913585 0
M  V30 18761 H 1793.78 -4.85544 -0.458049 0
M  V30 18762 H 1792.78 -5.18703 1.82284 0
M  V30 18763 H 1794.01 -6.43127 2.18091 0
M  V30 18764 H 1791.96 -6.55973 -0.0594251 0
M  V30 18765 H 1791.87 -7.42117 1.44218 0
M  V30 18766 H 1793.14 -7.78878 0.311259 0
M  V30 18767 N 1797.37 -0.812977 -1.35013 0
M  V30 18768 C 1798.32 -0.225816 -2.29693 0
M  V30 18769 C 1799.29 0.643767 -1.53117 0
M  V30 18770 O 1800.47 0.587505 -1.8153 0
M  V30 18771 C 1797.61 0.614444 -3.39586 0
M  V30 18772 C 1796.72 -0.276281 -4.31116 0
M  V30 18773 C 1795.86 0.572595 -5.28105 0
M  V30 18774 C 1794.9 -0.318133 -6.11273 0
M  V30 18775 N 1794.04 0.491086 -7.0038 0
M  V30 18776 H 1798.88 -1.03861 -2.79315 0
M  V30 18777 H 1796.41 -0.523695 -1.37462 0
M  V30 18778 H 1798.37 1.11683 -4.01973 0
M  V30 18779 H 1797 1.39244 -2.91223 0
M  V30 18780 H 1796.05 -0.89682 -3.69677 0
M  V30 18781 H 1797.36 -0.961601 -4.89443 0
M  V30 18782 H 1796.52 1.13986 -5.95896 0
M  V30 18783 H 1795.26 1.29146 -4.7029 0
M  V30 18784 H 1794.26 -0.897622 -5.42423 0
M  V30 18785 H 1795.49 -1.03496 -6.71167 0
M  V30 18786 H 1793.43 1.19381 -6.45046 0
M  V30 18787 H 1793.35 -0.136054 -7.55878 0
M  V30 18788 H 1794.62 1.04143 -7.72512 0
M  V30 18789 N 1798.85 1.47045 -0.567045 0
M  V30 18790 C 1799.78 2.27106 0.223156 0
M  V30 18791 C 1800.76 1.34662 0.911315 0
M  V30 18792 O 1801.94 1.64055 0.92834 0
M  V30 18793 C 1799.07 3.1197 1.31879 0
M  V30 18794 C 1798.12 4.20064 0.738145 0
M  V30 18795 S 1798.95 5.33828 -0.422892 0
M  V30 18796 C 1800.1 6.22257 0.674324 0
M  V30 18797 H 1800.34 2.93779 -0.456193 0
M  V30 18798 H 1797.87 1.50297 -0.353581 0
M  V30 18799 H 1799.83 3.61432 1.9462 0
M  V30 18800 H 1798.49 2.44641 1.97002 0
M  V30 18801 H 1797.68 4.7921 1.56122 0
M  V30 18802 H 1797.28 3.73534 0.186721 0
M  V30 18803 H 1799.58 6.59201 1.56398 0
M  V30 18804 H 1800.52 7.07998 0.11999 0
M  V30 18805 H 1800.93 5.56079 0.971422 0
M  V30 18806 N 1800.33 0.304 1.5464 0
M  V30 18807 C 1801.55 -0.309709 2.05075 0
M  V30 18808 C 1801.98 -1.46509 1.1797 0
M  V30 18809 O 1801.33 -1.80359 0.184437 0
M  V30 18810 C 1801.38 -0.740734 3.5291 0
M  V30 18811 O 1800.49 -1.8452 3.68817 0
M  V30 18812 H 1799.83 -0.0596065 0.661319 0
M  V30 18813 H 1802.36 0.446718 1.99664 0
M  V30 18814 H 1802.37 -1.02873 3.94818 0
M  V30 18815 H 1801.04 0.104422 4.15769 0
M  V30 18816 H 1799.62 -1.55753 3.38815 0
M  V30 18817 N 1801.8 -1.57568 0.0317802 0
M  V30 18818 C 1802.75 -2.11538 -0.967175 0
M  V30 18819 C 1803.75 -1.04258 -1.33516 0
M  V30 18820 O 1804.95 -1.2269 -1.31709 0
M  V30 18821 H 1801.33 -0.675877 -0.329687 0
M  V30 18822 H 1803.3 -2.94404 -0.486695 0
M  V30 18823 C 1802.05 -2.65973 -2.2395 0
M  V30 18824 H 1801.37 -3.48172 -1.96509 0
M  V30 18825 H 1802.81 -3.07379 -2.92052 0
M  V30 18826 C 1801.27 -1.5884 -2.97105 0
M  V30 18827 O 1801.8 -0.989784 -3.89315 0
M  V30 18828 N 1800 -1.30821 -2.59488 0
M  V30 18829 H 1799.55 -1.79687 -1.84581 0
M  V30 18830 H 1799.51 -0.593658 -3.08744 0
M  V30 18831 N 1803.28 0.241399 -1.5574 0
M  V30 18832 C 1804.51 0.984645 -1.81627 0
M  V30 18833 C 1804.92 1.79234 -0.605959 0
M  V30 18834 O 1804.26 1.78479 0.434841 0
M  V30 18835 C 1804.33 1.96647 -3.00949 0
M  V30 18836 C 1803.99 1.34519 -4.36754 0
M  V30 18837 C 1804.99 0.744925 -5.14536 0
M  V30 18838 C 1802.67 1.3629 -4.83457 0
M  V30 18839 C 1804.67 0.170657 -6.37171 0
M  V30 18840 C 1802.35 0.784784 -6.0604 0
M  V30 18841 C 1803.35 0.189694 -6.82737 0
M  V30 18842 O 1803.04 -0.379483 -8.03004 0
M  V30 18843 H 1802.77 0.295118 -0.608179 0
M  V30 18844 H 1805.32 0.267851 -2.03646 0
M  V30 18845 H 1803.55 2.72172 -2.74699 0
M  V30 18846 H 1805.24 2.5736 -3.1388 0
M  V30 18847 H 1806.01 0.723706 -4.7957 0
M  V30 18848 H 1801.89 1.81548 -4.23747 0
M  V30 18849 H 1805.43 -0.294459 -6.96978 0
M  V30 18850 H 1801.33 0.803348 -6.40482 0
M  V30 18851 H 1802.1 -0.271879 -8.18048 0
M  V30 18852 N 1804.76 1.49212 0.507292 0
M  V30 18853 C 1806.01 1.5763 1.2584 0
M  V30 18854 C 1806.32 0.265343 1.93792 0
M  V30 18855 O 1807.53 0.227996 2.70541 0
M  V30 18856 C 1805.98 2.78093 2.28457 0
M  V30 18857 C 1805.59 4.15922 1.66472 0
M  V30 18858 C 1807.34 2.95837 3.04435 0
M  V30 18859 C 1805.24 5.27616 2.67162 0
M  V30 18860 H 1804.17 0.586896 0.47336 0
M  V30 18861 H 1806.82 1.75588 0.533018 0
M  V30 18862 H 1805.21 2.53616 3.0413 0
M  V30 18863 H 1806.38 4.50511 0.968337 0
M  V30 18864 H 1804.7 4.03484 1.02906 0
M  V30 18865 H 1807.29 3.76452 3.79721 0
M  V30 18866 H 1807.64 2.06156 3.61671 0
M  V30 18867 H 1808.17 3.20323 2.35877 0
M  V30 18868 H 1804.91 6.19336 2.14716 0
M  V30 18869 H 1804.43 4.97488 3.3506 0
M  V30 18870 H 1806.11 5.56686 3.29712 0
M  V30 18871 N 1806.24 -0.757876 1.38181 0
M  V30 18872 C 1807.17 -1.88108 1.3095 0
M  V30 18873 C 1808.18 -1.61272 0.222551 0
M  V30 18874 O 1809.37 -1.71931 0.479782 0
M  V30 18875 C 1806.47 -3.2365 1.00518 0
M  V30 18876 C 1805.65 -3.78024 2.20037 0
M  V30 18877 C 1804.7 -4.92073 1.86416 0
M  V30 18878 O 1803.73 -5.0693 2.58864 0
M  V30 18879 N 1804.93 -5.74728 0.816553 0
M  V30 18880 H 1807.7 -1.94823 2.27737 0
M  V30 18881 H 1805.26 -0.937616 1.31986 0
M  V30 18882 H 1807.25 -3.97483 0.760861 0
M  V30 18883 H 1805.82 -3.12348 0.125418 0
M  V30 18884 H 1805.04 -2.95807 2.60561 0
M  V30 18885 H 1806.33 -4.11085 2.99811 0
M  V30 18886 H 1805.73 -5.65289 0.215659 0
M  V30 18887 H 1804.28 -6.48728 0.63211 0
M  V30 18888 N 1807.72 -1.22979 -0.985586 0
M  V30 18889 C 1808.96 -1.05877 -1.72616 0
M  V30 18890 C 1809.29 0.405097 -1.90235 0
M  V30 18891 O 1808.55 1.31642 -1.44807 0
M  V30 18892 C 1808.85 -1.72346 -3.131 0
M  V30 18893 C 1808.51 -3.22256 -3.15376 0
M  V30 18894 C 1807.17 -3.63159 -3.15704 0
M  V30 18895 C 1809.53 -4.18174 -3.11094 0
M  V30 18896 C 1806.85 -4.98448 -3.09461 0
M  V30 18897 C 1809.21 -5.53449 -3.06393 0
M  V30 18898 C 1807.87 -5.93722 -3.05041 0
M  V30 18899 H 1807.14 -0.38743 -0.631648 0
M  V30 18900 H 1809.79 -1.52842 -1.15375 0
M  V30 18901 H 1808.09 -1.17725 -3.73695 0
M  V30 18902 H 1809.79 -1.56595 -3.6916 0
M  V30 18903 H 1806.38 -2.89692 -3.15875 0
M  V30 18904 H 1810.56 -3.87586 -3.09985 0
M  V30 18905 H 1805.82 -5.28873 -3.06763 0
M  V30 18906 H 1809.99 -6.27492 -3.02037 0
M  V30 18907 H 1807.62 -6.98519 -2.99958 0
M  V30 18908 N 1809.19 1.18355 -1.04066 0
M  V30 18909 C 1810.14 2.21987 -0.631714 0
M  V30 18910 C 1811.11 1.62142 0.360462 0
M  V30 18911 O 1812.3 1.89096 0.254445 0
M  V30 18912 C 1809.44 3.451 -0.000843566 0
M  V30 18913 C 1808.55 4.19283 -1.04048 0
M  V30 18914 C 1807.68 5.29852 -0.37813 0
M  V30 18915 C 1806.72 5.95807 -1.40287 0
M  V30 18916 N 1805.86 6.97915 -0.765481 0
M  V30 18917 H 1810.7 2.56323 -1.51995 0
M  V30 18918 H 1808.24 1.25923 -0.760384 0
M  V30 18919 H 1810.2 4.15445 0.382267 0
M  V30 18920 H 1808.83 3.11383 0.850911 0
M  V30 18921 H 1807.88 3.47765 -1.54154 0
M  V30 18922 H 1809.19 4.64457 -1.81882 0
M  V30 18923 H 1808.34 6.06671 0.059186 0
M  V30 18924 H 1807.08 4.8578 0.432293 0
M  V30 18925 H 1806.09 5.17729 -1.85032 0
M  V30 18926 H 1807.31 6.41962 -2.21499 0
M  V30 18927 H 1805.26 6.55995 0.0246364 0
M  V30 18928 H 1805.18 7.41341 -1.48152 0
M  V30 18929 H 1806.44 7.78702 -0.35256 0
M  V30 18930 N 1810.67 0.820125 1.3458 0
M  V30 18931 C 1811.9 0.418747 2.03129 0
M  V30 18932 C 1812.32 -0.966605 1.61364 0
M  V30 18933 O 1811.68 -1.62847 0.796903 0
M  V30 18934 C 1811.73 0.525681 3.56748 0
M  V30 18935 O 1810.83 -0.455592 4.09876 0
M  V30 18936 H 1810.17 0.172819 0.641116 0
M  V30 18937 H 1812.7 1.10977 1.71888 0
M  V30 18938 H 1812.71 0.400422 4.0603 0
M  V30 18939 H 1811.39 1.53609 3.86493 0
M  V30 18940 H 1809.97 -0.289449 3.71775 0
M  V30 18941 N 1812.15 -1.46743 0.574835 0
M  V30 18942 C 1813.1 -2.30224 -0.162908 0
M  V30 18943 C 1814.07 -1.4014 -0.891629 0
M  V30 18944 O 1815.25 -1.69094 -0.883854 0
M  V30 18945 C 1812.39 -3.24456 -1.1757 0
M  V30 18946 C 1811.51 -4.29637 -0.451233 0
M  V30 18947 C 1810.64 -5.11003 -1.45085 0
M  V30 18948 C 1809.68 -6.07941 -0.712353 0
M  V30 18949 N 1808.82 -6.82202 -1.65965 0
M  V30 18950 H 1813.66 -2.92785 0.555063 0
M  V30 18951 H 1811.19 -1.44302 0.285546 0
M  V30 18952 H 1813.15 -3.77526 -1.77567 0
M  V30 18953 H 1811.78 -2.63721 -1.86148 0
M  V30 18954 H 1810.83 -3.79485 0.263623 0
M  V30 18955 H 1812.15 -4.9864 0.126468 0
M  V30 18956 H 1811.3 -5.68311 -2.12386 0
M  V30 18957 H 1810.04 -4.41942 -2.06248 0
M  V30 18958 H 1809.04 -5.49794 -0.0255266 0
M  V30 18959 H 1810.27 -6.79017 -0.106227 0
M  V30 18960 H 1808.21 -6.15858 -2.25953 0
M  V30 18961 H 1808.13 -7.47438 -1.13456 0
M  V30 18962 H 1809.4 -7.44073 -2.32325 0
M  V30 18963 N 1813.63 -0.312197 -1.54477 0
M  V30 18964 C 1814.87 0.294506 -2.02267 0
M  V30 18965 C 1815.23 1.5023 -1.19562 0
M  V30 18966 O 1816.43 2.18111 -1.57102 0
M  V30 18967 C 1814.7 0.631364 -3.51779 0
M  V30 18968 S 1816.26 1.21934 -4.21518 0
M  V30 18969 H 1813.08 0.0897629 -0.705311 0
M  V30 18970 H 1815.68 -0.442675 -1.90422 0
M  V30 18971 H 1814.39 -0.255978 -4.09601 0
M  V30 18972 H 1813.92 1.39904 -3.67682 0
M  V30 18973 H 1815.93 2.50669 -4.28229 0
M  V30 18974 N 1815.11 1.57549 -0.040136 0
M  V30 18975 C 1816.52 1.56434 0.316341 0
M  V30 18976 C 1816.72 1.04679 1.72176 0
M  V30 18977 O 1815.78 0.698444 2.42648 0
M  V30 18978 C 1817.09 3.00301 0.154883 0
M  V30 18979 C 1818.64 3.12177 0.226821 0
M  V30 18980 C 1819.11 4.57903 0.0940219 0
M  V30 18981 N 1820.61 4.62955 0.150654 0
M  V30 18982 C 1821.34 5.73355 0.0718466 0
M  V30 18983 N 1820.84 6.92775 -0.0586777 0
M  V30 18984 N 1822.63 5.61957 0.126632 0
M  V30 18985 H 1814.78 1.89516 -0.959032 0
M  V30 18986 H 1817.04 0.872251 -0.371324 0
M  V30 18987 H 1816.75 3.42158 -0.813674 0
M  V30 18988 H 1816.62 3.65795 0.920521 0
M  V30 18989 H 1819.01 2.70225 1.18584 0
M  V30 18990 H 1819.09 2.49383 -0.569384 0
M  V30 18991 H 1818.74 5.00538 -0.861629 0
M  V30 18992 H 1818.67 5.18691 0.909231 0
M  V30 18993 H 1821.16 3.77064 0.251232 0
M  V30 18994 H 1821.47 7.72719 -0.111818 0
M  V30 18995 H 1819.81 6.94937 -0.0936119 0
M  V30 18996 H 1823.01 4.67549 0.227081 0
M  V30 18997 H 1823.18 6.47971 0.0617551 0
M  V30 18998 N 1816.58 -0.233136 1.55866 0
M  V30 18999 C 1817.83 -0.957205 1.7754 0
M  V30 19000 C 1818.15 -1.85956 0.606601 0
M  V30 19001 O 1819.35 -2.62142 0.706687 0
M  V30 19002 C 1817.81 -1.75215 3.14369 0
M  V30 19003 C 1817.42 -0.896509 4.38938 0
M  V30 19004 C 1819.16 -2.46813 3.45374 0
M  V30 19005 C 1817.07 -1.68814 5.66794 0
M  V30 19006 H 1816 -0.361139 0.661887 0
M  V30 19007 H 1818.65 -0.211424 1.82278 0
M  V30 19008 H 1817.03 -2.54041 3.03775 0
M  V30 19009 H 1818.2 -0.149614 4.60557 0
M  V30 19010 H 1816.52 -0.293211 4.15366 0
M  V30 19011 H 1819.12 -3.0652 4.38121 0
M  V30 19012 H 1819.46 -3.19121 2.67334 0
M  V30 19013 H 1819.99 -1.74987 3.57245 0
M  V30 19014 H 1816.73 -1.00855 6.47695 0
M  V30 19015 H 1816.25 -2.40995 5.49255 0
M  V30 19016 H 1817.93 -2.25178 6.06551 0
M  V30 19017 N 1818.06 -1.49479 -0.499372 0
M  V30 19018 C 1818.97 -1.69006 -1.62709 0
M  V30 19019 C 1819.99 -0.572681 -1.64306 0
M  V30 19020 O 1821.17 -0.847586 -1.82696 0
M  V30 19021 C 1818.23 -1.75382 -2.99069 0
M  V30 19022 C 1817.29 -2.98968 -3.08086 0
M  V30 19023 C 1816.52 -3.0503 -4.37941 0
M  V30 19024 O 1816.75 -2.18641 -5.26832 0
M  V30 19025 O 1815.68 -3.97507 -4.51964 0
M  V30 19026 H 1819.51 -2.64544 -1.49164 0
M  V30 19027 H 1817.09 -1.3324 -0.675836 0
M  V30 19028 H 1818.97 -1.81919 -3.8011 0
M  V30 19029 H 1817.65 -0.830226 -3.12872 0
M  V30 19030 H 1816.56 -2.97947 -2.26227 0
M  V30 19031 H 1817.89 -3.90812 -2.9921 0
M  V30 19032 N 1819.54 0.750537 -1.38581 0
M  V30 19033 C 1820.95 1.32802 -1.31227 0
M  V30 19034 C 1821.3 1.96176 0.0305372 0
M  V30 19035 O 1820.43 1.95272 0.932614 0
M  V30 19036 C 1821.02 2.41468 -2.37652 0
M  V30 19037 C 1819.58 2.94929 -2.33867 0
M  V30 19038 C 1818.73 1.68339 -2.20357 0
M  V30 19039 H 1821.68 0.549187 -1.48895 0
M  V30 19040 H 1821.7 3.21481 -2.03544 0
M  V30 19041 H 1821.21 1.95313 -3.35372 0
M  V30 19042 H 1819.31 3.45404 -1.39738 0
M  V30 19043 H 1819.43 3.491 -3.28125 0
M  V30 19044 H 1817.79 1.92082 -1.67262 0
M  V30 19045 H 1818.57 1.24258 -3.20023 0
M  V30 19046 N 1821.02 1.235 0.979051 0
M  V30 19047 C 1822.27 1.06949 1.72307 0
M  V30 19048 C 1822.6 -0.392491 1.90192 0
M  V30 19049 O 1821.87 -1.29054 1.45518 0
M  V30 19050 C 1822.16 1.79705 3.12055 0
M  V30 19051 C 1822.01 3.33583 3.01732 0
M  V30 19052 C 1823.33 1.56062 4.11501 0
M  V30 19053 H 1820.45 0.389917 0.625407 0
M  V30 19054 H 1823.09 1.52022 1.1397 0
M  V30 19055 H 1821.24 1.4139 3.61858 0
M  V30 19056 H 1822.91 3.81428 2.59443 0
M  V30 19057 H 1821.15 3.62547 2.38206 0
M  V30 19058 H 1821.83 3.79681 4.00683 0
M  V30 19059 H 1824.3 1.8937 3.70511 0
M  V30 19060 H 1823.18 2.09442 5.07371 0
M  V30 19061 H 1823.44 0.496276 4.39306 0
M  V30 19062 N 1822.5 -1.17802 1.04693 0
M  V30 19063 C 1823.74 -1.89625 0.762995 0
M  V30 19064 C 1824.1 -1.78906 -0.696901 0
M  V30 19065 O 1825.3 -2.45498 -1.09472 0
M  V30 19066 C 1823.57 -3.35787 1.224 0
M  V30 19067 S 1825.13 -4.25638 1.06667 0
M  V30 19068 H 1821.95 -0.654723 0.277235 0
M  V30 19069 H 1824.55 -1.42304 1.34052 0
M  V30 19070 H 1823.26 -3.41121 2.28176 0
M  V30 19071 H 1822.79 -3.8815 0.640532 0
M  V30 19072 H 1824.8 -4.96199 -0.0121683 0
M  V30 19073 N 1823.98 -0.827251 -1.34143 0
M  V30 19074 C 1824.91 -0.267015 -2.31968 0
M  V30 19075 C 1825.89 0.618906 -1.58441 0
M  V30 19076 O 1827.07 0.544882 -1.86399 0
M  V30 19077 C 1824.2 0.568379 -3.42617 0
M  V30 19078 C 1823.16 -0.220767 -4.2743 0
M  V30 19079 C 1822.48 0.737643 -5.29587 0
M  V30 19080 C 1823.78 -1.43137 -5.02304 0
M  V30 19081 H 1825.48 -1.08436 -2.79073 0
M  V30 19082 H 1823.02 -0.522879 -1.34171 0
M  V30 19083 H 1824.97 0.970525 -4.10072 0
M  V30 19084 H 1823.7 1.41882 -2.94172 0
M  V30 19085 H 1822.36 -0.604333 -3.61585 0
M  V30 19086 H 1822.01 1.58416 -4.77403 0
M  V30 19087 H 1821.71 0.213815 -5.87211 0
M  V30 19088 H 1823.23 1.13755 -5.9991 0
M  V30 19089 H 1824.64 -1.10301 -5.62589 0
M  V30 19090 H 1823.04 -1.89115 -5.69522 0
M  V30 19091 H 1824.11 -2.2073 -4.31748 0
M  V30 19092 N 1825.45 1.46436 -0.582609 0
M  V30 19093 C 1826.38 2.33089 0.138477 0
M  V30 19094 C 1827.36 1.45339 0.883777 0
M  V30 19095 O 1828.55 1.74156 0.859257 0
M  V30 19096 C 1825.68 3.27611 1.15276 0
M  V30 19097 C 1824.63 4.24801 0.522308 0
M  V30 19098 C 1823.96 5.0883 1.64306 0
M  V30 19099 C 1825.26 5.19496 -0.540449 0
M  V30 19100 H 1826.95 2.93629 -0.585013 0
M  V30 19101 H 1824.5 1.41196 -0.282781 0
M  V30 19102 H 1826.45 3.87087 1.66558 0
M  V30 19103 H 1825.18 2.65177 1.90653 0
M  V30 19104 H 1823.84 3.66587 0.0305728 0
M  V30 19105 H 1823.48 4.42782 2.38649 0
M  V30 19106 H 1823.18 5.74649 1.22686 0
M  V30 19107 H 1824.71 5.7117 2.15864 0
M  V30 19108 H 1826.12 5.73189 -0.112706 0
M  V30 19109 H 1824.52 5.93658 -0.876957 0
M  V30 19110 H 1825.59 4.63434 -1.42677 0
M  V30 19111 N 1826.93 0.320385 1.54309 0
M  V30 19112 C 1827.86 -0.539789 2.27175 0
M  V30 19113 C 1828.84 -1.12198 1.2785 0
M  V30 19114 O 1830.03 -1.1477 1.56657 0
M  V30 19115 C 1827.16 -1.70236 3.02716 0
M  V30 19116 C 1826.11 -1.24962 4.09351 0
M  V30 19117 C 1825.44 -2.49888 4.72715 0
M  V30 19118 C 1826.74 -0.366788 5.21011 0
M  V30 19119 H 1828.43 0.0680079 2.99323 0
M  V30 19120 H 1825.98 0.0341488 1.4396 0
M  V30 19121 H 1827.93 -2.31037 3.5242 0
M  V30 19122 H 1826.65 -2.33669 2.2818 0
M  V30 19123 H 1825.31 -0.664556 3.60526 0
M  V30 19124 H 1824.96 -3.11679 3.94798 0
M  V30 19125 H 1824.66 -2.20288 5.44745 0
M  V30 19126 H 1826.19 -3.11458 5.25192 0
M  V30 19127 H 1827.6 -0.881001 5.6649 0
M  V30 19128 H 1826 -0.163707 5.99877 0
M  V30 19129 H 1827.07 0.603185 4.81134 0
M  V30 19130 N 1828.41 -1.57525 0.0484906 0
M  V30 19131 C 1829.36 -2.07883 -0.936407 0
M  V30 19132 C 1830.34 -0.983413 -1.27349 0
M  V30 19133 O 1831.54 -1.24678 -1.25636 0
M  V30 19134 C 1828.66 -2.6252 -2.2122 0
M  V30 19135 C 1827.75 -3.79027 -1.90262 0
M  V30 19136 N 1828.14 -4.889 -1.29653 0
M  V30 19137 C 1826.44 -3.87881 -2.20147 0
M  V30 19138 C 1827.14 -5.69963 -1.16265 0
M  V30 19139 N 1826.12 -5.17485 -1.66465 0
M  V30 19140 H 1829.92 -2.90229 -0.463091 0
M  V30 19141 H 1827.43 -1.61649 -0.156032 0
M  V30 19142 H 1829.43 -2.96899 -2.92671 0
M  V30 19143 H 1828.09 -1.81612 -2.6916 0
M  V30 19144 H 1829.1 -5.08753 -0.969081 0
M  V30 19145 H 1825.78 -3.17911 -2.70626 0
M  V30 19146 H 1827.17 -6.68323 -0.692351 0
M  V30 19147 N 1829.89 0.224867 -1.55988 0
M  V30 19148 C 1831.14 0.947871 -1.78493 0
M  V30 19149 C 1831.46 1.85001 -0.616413 0
M  V30 19150 O 1830.73 1.92435 0.366847 0
M  V30 19151 H 1829.31 0.352987 -0.658338 0
M  V30 19152 H 1831.97 0.237519 -1.93447 0
M  V30 19153 H 1831.06 1.55664 -2.70509 0
M  V30 19154 N 1831.37 1.49742 0.491438 0
M  V30 19155 C 1832.59 1.63703 1.27343 0
M  V30 19156 C 1833.02 0.312079 1.85493 0
M  V30 19157 O 1832.37 -0.721545 1.66323 0
M  V30 19158 C 1832.42 2.71549 2.37262 0
M  V30 19159 O 1831.53 2.31387 3.41371 0
M  V30 19160 H 1830.87 0.547605 0.375533 0
M  V30 19161 H 1833.4 1.95991 0.587243 0
M  V30 19162 H 1833.41 2.94009 2.82883 0
M  V30 19163 H 1832.08 3.6772 1.94306 0
M  V30 19164 H 1830.66 2.19295 3.01603 0
M  V30 19165 N 1832.84 -0.743177 1.38977 0
M  V30 19166 C 1834.26 -1.32104 1.3193 0
M  V30 19167 C 1834.61 -1.9619 -0.0201331 0
M  V30 19168 O 1833.73 -1.95764 -0.922245 0
M  V30 19169 C 1834.33 -2.40204 2.3893 0
M  V30 19170 C 1832.89 -2.93684 2.35428 0
M  V30 19171 C 1832.03 -1.67168 2.21247 0
M  V30 19172 H 1834.98 -0.541283 1.49184 0
M  V30 19173 H 1835 -3.20397 2.05246 0
M  V30 19174 H 1834.52 -1.93532 3.36403 0
M  V30 19175 H 1832.62 -3.44658 1.41568 0
M  V30 19176 H 1832.73 -3.47355 3.29971 0
M  V30 19177 H 1831.09 -1.91193 1.68278 0
M  V30 19178 H 1831.88 -1.22559 3.20678 0
M  V30 19179 N 1834.32 -1.24018 -0.972487 0
M  V30 19180 C 1835.57 -1.07489 -1.71145 0
M  V30 19181 C 1835.89 0.387798 -1.91105 0
M  V30 19182 O 1835.16 1.27725 -1.48537 0
M  V30 19183 H 1833.74 -0.394765 -0.634168 0
M  V30 19184 H 1836.4 -1.55861 -1.17018 0
M  V30 19185 H 1835.5 -1.56913 -2.69786 0
M  V30 19186 N 1835.8 1.17245 -1.05316 0
M  V30 19187 C 1836.76 2.19508 -0.659467 0
M  V30 19188 C 1837.76 1.58169 0.289697 0
M  V30 19189 O 1838.95 1.74045 0.0734019 0
M  V30 19190 C 1836.09 3.40886 0.0311886 0
M  V30 19191 H 1837.28 2.55852 -1.5646 0
M  V30 19192 H 1834.83 1.31348 -0.847193 0
M  V30 19193 H 1835.57 3.10088 0.949535 0
M  V30 19194 H 1835.35 3.86655 -0.651191 0
M  V30 19195 H 1836.84 4.16573 0.292702 0
M  V30 19196 N 1837.28 0.834353 1.33702 0
M  V30 19197 C 1838.53 0.427042 1.97537 0
M  V30 19198 C 1838.85 -1.01607 1.66436 0
M  V30 19199 O 1838.12 -1.70711 0.960958 0
M  V30 19200 H 1836.7 0.154921 0.730759 0
M  V30 19201 H 1839.36 1.06632 1.63143 0
M  V30 19202 H 1838.46 0.555396 3.07118 0
M  V30 19203 N 1838.76 -1.46125 0.590367 0
M  V30 19204 C 1839.7 -2.30384 -0.138481 0
M  V30 19205 C 1840.67 -1.41078 -0.876715 0
M  V30 19206 O 1841.86 -1.70022 -0.86587 0
M  V30 19207 C 1839 -3.25684 -1.14122 0
M  V30 19208 C 1838.11 -4.30091 -0.405639 0
M  V30 19209 C 1837.25 -5.12513 -1.39657 0
M  V30 19210 C 1836.29 -6.08662 -0.647833 0
M  V30 19211 N 1835.42 -6.83924 -1.5872 0
M  V30 19212 H 1840.26 -2.9218 0.586086 0
M  V30 19213 H 1837.8 -1.43991 0.300835 0
M  V30 19214 H 1839.76 -3.79388 -1.73553 0
M  V30 19215 H 1838.39 -2.6568 -1.8334 0
M  V30 19216 H 1837.44 -3.79184 0.303858 0
M  V30 19217 H 1838.75 -4.98477 0.179348 0
M  V30 19218 H 1837.91 -5.70531 -2.06346 0
M  V30 19219 H 1836.64 -4.44105 -2.01549 0
M  V30 19220 H 1835.65 -5.4979 0.0327878 0
M  V30 19221 H 1836.87 -6.79091 -0.0342018 0
M  V30 19222 H 1834.82 -6.1822 -2.19408 0
M  V30 19223 H 1834.74 -7.48599 -1.05522 0
M  V30 19224 H 1836.01 -7.46496 -2.2442 0
M  V30 19225 N 1840.23 -0.328564 -1.54137 0
M  V30 19226 C 1841.46 0.277044 -2.05541 0
M  V30 19227 C 1841.88 1.44613 -1.20285 0
M  V30 19228 O 1841.24 1.80043 -0.213107 0
M  V30 19229 C 1841.29 0.684495 -3.54044 0
M  V30 19230 O 1840.39 1.78629 -3.71706 0
M  V30 19231 H 1839.74 0.049078 -0.662184 0
M  V30 19232 H 1842.27 -0.478426 -1.98928 0
M  V30 19233 H 1842.28 0.965784 -3.96405 0
M  V30 19234 H 1840.95 -0.170554 -4.1555 0
M  V30 19235 H 1839.53 1.50343 -3.4125 0
M  V30 19236 N 1841.71 1.57497 -0.0568439 0
M  V30 19237 C 1842.96 1.932 0.61658 0
M  V30 19238 C 1843.29 0.935936 1.70158 0
M  V30 19239 O 1842.57 -0.0372005 1.94464 0
M  V30 19240 C 1842.85 3.39254 1.20742 0
M  V30 19241 C 1842.7 4.49612 0.130081 0
M  V30 19242 C 1844.02 3.85817 2.11738 0
M  V30 19243 H 1841.14 0.702558 0.222668 0
M  V30 19244 H 1843.78 1.89622 -0.119765 0
M  V30 19245 H 1841.93 3.42434 1.83497 0
M  V30 19246 H 1843.6 4.58559 -0.502172 0
M  V30 19247 H 1841.85 4.30411 -0.541167 0
M  V30 19248 H 1842.52 5.48906 0.583606 0
M  V30 19249 H 1844.99 3.8455 1.58936 0
M  V30 19250 H 1843.87 4.88653 2.50019 0
M  V30 19251 H 1844.13 3.22899 3.01974 0
M  V30 19252 N 1843.19 -0.216591 1.56105 0
M  V30 19253 C 1844.15 -1.25198 1.91985 0
M  V30 19254 C 1845.15 -1.39551 0.798884 0
M  V30 19255 O 1846.34 -1.37731 1.06657 0
M  V30 19256 C 1843.48 -2.62499 2.17502 0
M  V30 19257 H 1844.67 -0.945854 2.84594 0
M  V30 19258 H 1842.22 -0.457218 1.49463 0
M  V30 19259 H 1842.96 -2.98202 1.27461 0
M  V30 19260 H 1842.74 -2.53457 2.99169 0
M  V30 19261 H 1844.23 -3.37204 2.4634 0
M  V30 19262 N 1844.67 -1.5 -0.48349 0
M  V30 19263 C 1845.9 -1.64105 -1.26004 0
M  V30 19264 C 1846.31 -0.319389 -1.86079 0
M  V30 19265 O 1845.67 0.697243 -1.68656 0
M  V30 19266 C 1845.72 -2.72299 -2.37772 0
M  V30 19267 O 1845.44 -3.99341 -1.80163 0
M  V30 19268 C 1846.94 -2.97266 -3.28858 0
M  V30 19269 H 1844.16 -0.551971 -0.381535 0
M  V30 19270 H 1846.71 -1.96146 -0.57852 0
M  V30 19271 H 1844.86 -2.42987 -3.01722 0
M  V30 19272 H 1845.27 -4.59077 -2.5367 0
M  V30 19273 H 1846.75 -3.76662 -4.03521 0
M  V30 19274 H 1847.23 -2.07855 -3.86902 0
M  V30 19275 H 1847.83 -3.28062 -2.70657 0
M  V30 19276 N 1846.15 0.735796 -1.39369 0
M  V30 19277 C 1847.09 1.87116 -1.38168 0
M  V30 19278 C 1848.09 1.67315 -0.264936 0
M  V30 19279 O 1849.29 1.74666 -0.434928 0
M  V30 19280 H 1845.67 0.615926 -0.431438 0
M  V30 19281 H 1847.64 1.85245 -2.33938 0
M  V30 19282 C 1846.39 3.2479 -1.24125 0
M  V30 19283 H 1845.71 3.40621 -2.09325 0
M  V30 19284 H 1847.15 4.04426 -1.27341 0
M  V30 19285 C 1845.61 3.36862 0.050393 0
M  V30 19286 O 1846.14 3.88511 1.02088 0
M  V30 19287 N 1844.35 2.90379 0.113184 0
M  V30 19288 H 1843.89 2.48537 -0.677267 0
M  V30 19289 H 1843.85 2.98837 0.976928 0
M  V30 19290 N 1847.63 1.24532 0.965897 0
M  V30 19291 C 1848.56 1.06393 2.07853 0
M  V30 19292 C 1849.54 -0.0236467 1.70084 0
M  V30 19293 O 1850.72 0.143767 1.93667 0
M  V30 19294 C 1847.85 0.669877 3.40778 0
M  V30 19295 C 1846.81 1.70643 3.92511 0
M  V30 19296 C 1846.13 1.16738 5.21801 0
M  V30 19297 C 1847.43 3.10278 4.20149 0
M  V30 19298 H 1849.13 1.99459 2.23285 0
M  V30 19299 H 1846.67 0.960397 1.07296 0
M  V30 19300 H 1848.62 0.52997 4.18054 0
M  V30 19301 H 1847.35 -0.296477 3.25252 0
M  V30 19302 H 1846.01 1.83458 3.17393 0
M  V30 19303 H 1845.66 0.191586 5.02635 0
M  V30 19304 H 1845.36 1.86009 5.57382 0
M  V30 19305 H 1846.88 1.03963 6.01684 0
M  V30 19306 H 1848.29 3.00681 4.88123 0
M  V30 19307 H 1846.69 3.76918 4.66962 0
M  V30 19308 H 1847.76 3.58182 3.26854 0
M  V30 19309 N 1849.1 -1.16685 1.05936 0
M  V30 19310 C 1850.35 -1.86466 0.768993 0
M  V30 19311 C 1850.67 -1.82374 -0.707038 0
M  V30 19312 O 1851.87 -2.47699 -1.11164 0
M  V30 19313 C 1850.33 -3.34605 1.32543 0
M  V30 19314 C 1849.94 -3.47179 2.83144 0
M  V30 19315 C 1851.68 -4.09665 1.11244 0
M  V30 19316 C 1849.59 -4.89384 3.3205 0
M  V30 19317 H 1848.52 -0.698479 0.283978 0
M  V30 19318 H 1851.17 -1.31717 1.27761 0
M  V30 19319 H 1849.55 -3.88937 0.744592 0
M  V30 19320 H 1850.72 -3.03027 3.47148 0
M  V30 19321 H 1849.04 -2.85549 3.03069 0
M  V30 19322 H 1851.64 -5.14586 1.45276 0
M  V30 19323 H 1851.98 -4.16269 0.0505969 0
M  V30 19324 H 1852.51 -3.61561 1.65887 0
M  V30 19325 H 1849.25 -4.87957 4.37697 0
M  V30 19326 H 1848.77 -5.34176 2.72793 0
M  V30 19327 H 1850.45 -5.58186 3.27166 0
M  V30 19328 N 1850.58 -0.841432 -1.33258 0
M  V30 19329 C 1851.83 -0.437512 -1.97307 0
M  V30 19330 C 1852.15 1.00723 -1.66973 0
M  V30 19331 O 1851.42 1.70199 -0.969998 0
M  V30 19332 H 1850 -0.158794 -0.729927 0
M  V30 19333 H 1852.66 -1.07495 -1.62575 0
M  V30 19334 H 1851.76 -0.571675 -3.0682 0
M  V30 19335 N 1852.06 1.4581 -0.598108 0
M  V30 19336 C 1853.48 1.57452 -0.260993 0
M  V30 19337 C 1853.68 1.59093 1.2366 0
M  V30 19338 O 1852.73 1.51614 2.01915 0
M  V30 19339 C 1854.04 2.86158 -0.923801 0
M  V30 19340 C 1855.59 2.99817 -0.89883 0
M  V30 19341 C 1856.07 4.3128 -1.54147 0
M  V30 19342 N 1857.56 4.38016 -1.50652 0
M  V30 19343 C 1858.29 5.38387 -1.973 0
M  V30 19344 N 1857.79 6.45347 -2.51991 0
M  V30 19345 N 1859.58 5.29684 -1.88124 0
M  V30 19346 H 1851.73 1.42988 -1.57061 0
M  V30 19347 H 1854 0.683038 -0.657391 0
M  V30 19348 H 1853.7 2.90812 -1.97791 0
M  V30 19349 H 1853.58 3.74609 -0.441318 0
M  V30 19350 H 1855.96 2.94735 0.146702 0
M  V30 19351 H 1856.04 2.12801 -1.41949 0
M  V30 19352 H 1855.69 4.3712 -2.58628 0
M  V30 19353 H 1855.62 5.17097 -0.995911 0
M  V30 19354 H 1858.11 3.61326 -1.1069 0
M  V30 19355 H 1858.42 7.18168 -2.85403 0
M  V30 19356 H 1856.77 6.46124 -2.56025 0
M  V30 19357 H 1859.96 4.45029 -1.45144 0
M  V30 19358 H 1860.13 6.0776 -2.24793 0
M  V30 19359 N 1853.54 0.336733 1.53961 0
M  V30 19360 C 1854.76 -0.26614 2.05685 0
M  V30 19361 C 1855.19 -1.43973 1.21051 0
M  V30 19362 O 1854.55 -1.79928 0.222652 0
M  V30 19363 C 1854.59 -0.66571 3.54402 0
M  V30 19364 O 1853.7 -1.76656 3.72648 0
M  V30 19365 H 1853.04 -0.0455655 0.662435 0
M  V30 19366 H 1855.57 0.488969 1.98671 0
M  V30 19367 H 1855.58 -0.944748 3.96911 0
M  V30 19368 H 1854.25 0.192589 4.15454 0
M  V30 19369 H 1852.83 -1.48531 3.42042 0
M  V30 19370 N 1855.02 -1.57465 0.0651956 0
M  V30 19371 C 1855.95 -2.15374 -0.902018 0
M  V30 19372 C 1856.93 -1.07904 -1.31494 0
M  V30 19373 O 1858.11 -1.35909 -1.38717 0
M  V30 19374 C 1855.24 -2.71005 -2.17195 0
M  V30 19375 C 1854.2 -3.83583 -1.89864 0
M  V30 19376 C 1853.52 -4.25789 -3.23432 0
M  V30 19377 C 1854.82 -5.08112 -1.20913 0
M  V30 19378 H 1856.52 -2.96445 -0.419631 0
M  V30 19379 H 1854.06 -1.42599 -0.200401 0
M  V30 19380 H 1856.01 -3.1016 -2.8527 0
M  V30 19381 H 1854.74 -1.87146 -2.67664 0
M  V30 19382 H 1853.4 -3.44921 -1.24197 0
M  V30 19383 H 1853.05 -3.38861 -3.71729 0
M  V30 19384 H 1852.75 -5.01673 -3.05938 0
M  V30 19385 H 1854.27 -4.67555 -3.92715 0
M  V30 19386 H 1855.68 -5.44624 -1.79046 0
M  V30 19387 H 1854.08 -5.8923 -1.137 0
M  V30 19388 H 1855.15 -4.84538 -0.187224 0
M  V30 19389 N 1856.49 0.20831 -1.56217 0
M  V30 19390 C 1857.46 1.24178 -1.92646 0
M  V30 19391 C 1858.46 1.39125 -0.806274 0
M  V30 19392 O 1859.65 1.37163 -1.07386 0
M  V30 19393 C 1856.78 2.61342 -2.18891 0
M  V30 19394 H 1857.97 0.930748 -2.85091 0
M  V30 19395 H 1855.52 0.449285 -1.49703 0
M  V30 19396 H 1856.26 2.97521 -1.29041 0
M  V30 19397 H 1856.04 2.51866 -3.00509 0
M  V30 19398 H 1857.53 3.35892 -2.48125 0
M  V30 19399 N 1857.97 1.50255 0.475528 0
M  V30 19400 C 1858.88 1.71573 1.6 0
M  V30 19401 C 1859.9 0.598748 1.63374 0
M  V30 19402 O 1861.07 0.876544 1.81325 0
M  V30 19403 C 1858.14 1.80117 2.96241 0
M  V30 19404 C 1857.2 3.03831 3.03291 0
M  V30 19405 C 1856.43 3.11958 4.33033 0
M  V30 19406 O 1856.66 2.26995 5.23287 0
M  V30 19407 O 1855.59 4.04647 4.45583 0
M  V30 19408 H 1859.42 2.66884 1.44937 0
M  V30 19409 H 1857 1.34298 0.654553 0
M  V30 19410 H 1858.88 1.87943 3.77167 0
M  V30 19411 H 1857.56 0.879896 3.11512 0
M  V30 19412 H 1856.46 3.01508 2.21458 0
M  V30 19413 H 1857.8 3.95523 2.92955 0
M  V30 19414 N 1859.45 -0.728395 1.39758 0
M  V30 19415 C 1860.4 -1.84245 1.39005 0
M  V30 19416 C 1861.37 -1.64226 0.248783 0
M  V30 19417 O 1862.55 -1.8554 0.444904 0
M  V30 19418 C 1859.69 -3.21828 1.24583 0
M  V30 19419 C 1858.8 -3.53507 2.48308 0
M  V30 19420 C 1857.94 -4.80526 2.26425 0
M  V30 19421 C 1856.98 -5.05069 3.45792 0
M  V30 19422 N 1856.12 -6.23295 3.23184 0
M  V30 19423 H 1860.96 -1.84224 2.34234 0
M  V30 19424 H 1858.49 -0.900094 1.16347 0
M  V30 19425 H 1860.45 -4.01257 1.14231 0
M  V30 19426 H 1859.08 -3.21111 0.329793 0
M  V30 19427 H 1858.13 -2.68729 2.69238 0
M  V30 19428 H 1859.44 -3.67558 3.37198 0
M  V30 19429 H 1858.6 -5.67949 2.13353 0
M  V30 19430 H 1857.34 -4.6866 1.3494 0
M  V30 19431 H 1856.34 -4.16106 3.59355 0
M  V30 19432 H 1857.57 -5.18815 4.38186 0
M  V30 19433 H 1855.51 -6.12704 2.3437 0
M  V30 19434 H 1855.43 -6.37964 4.05633 0
M  V30 19435 H 1856.7 -7.13539 3.13819 0
M  V30 19436 N 1860.93 -1.25042 -0.959279 0
M  V30 19437 C 1861.86 -1.07494 -2.07285 0
M  V30 19438 C 1862.84 0.0146264 -1.70094 0
M  V30 19439 O 1864.02 -0.154035 -1.93588 0
M  V30 19440 C 1861.15 -0.68794 -3.40418 0
M  V30 19441 C 1860.11 -1.72722 -3.91601 0
M  V30 19442 C 1859.43 -1.19504 -5.21175 0
M  V30 19443 C 1860.73 -3.12502 -4.18497 0
M  V30 19444 H 1862.43 -2.00641 -2.22224 0
M  V30 19445 H 1859.97 -0.966074 -1.06785 0
M  V30 19446 H 1861.93 -0.552133 -4.17767 0
M  V30 19447 H 1860.65 0.279224 -3.25404 0
M  V30 19448 H 1859.31 -1.85139 -3.16416 0
M  V30 19449 H 1858.96 -0.218239 -5.02526 0
M  V30 19450 H 1858.66 -1.88962 -5.56387 0
M  V30 19451 H 1860.18 -1.07153 -6.01124 0
M  V30 19452 H 1861.6 -3.03266 -4.86521 0
M  V30 19453 H 1859.99 -3.79389 -4.64956 0
M  V30 19454 H 1861.06 -3.5991 -3.2495 0
M  V30 19455 N 1862.41 1.16121 -1.06553 0
M  V30 19456 C 1863.35 2.22656 -0.672827 0
M  V30 19457 C 1864.35 1.66492 0.312509 0
M  V30 19458 O 1865.55 1.79127 0.17709 0
M  V30 19459 H 1861.93 0.725064 -0.199464 0
M  V30 19460 H 1863.9 2.53065 -1.58116 0
M  V30 19461 C 1862.65 3.47612 -0.0780782 0
M  V30 19462 H 1861.97 3.91145 -0.82739 0
M  V30 19463 H 1863.41 4.23701 0.159143 0
M  V30 19464 C 1861.87 3.15594 1.17906 0
M  V30 19465 O 1862.4 3.31641 2.26665 0
M  V30 19466 N 1860.61 2.69703 1.08206 0
M  V30 19467 H 1860.15 2.56846 0.196981 0
M  V30 19468 H 1860.11 2.48654 1.92402 0
M  V30 19469 N 1863.88 0.848487 1.3281 0
M  V30 19470 C 1865.11 0.46174 2.02195 0
M  V30 19471 C 1865.53 -0.932159 1.63378 0
M  V30 19472 O 1864.89 -1.6112 0.831266 0
M  V30 19473 C 1864.94 0.601234 3.55552 0
M  V30 19474 O 1864.04 -0.368549 4.1075 0
M  V30 19475 H 1863.39 0.186379 0.637306 0
M  V30 19476 H 1865.92 1.14598 1.69495 0
M  V30 19477 H 1865.93 0.486456 4.0509 0
M  V30 19478 H 1864.6 1.61773 3.83148 0
M  V30 19479 H 1863.18 -0.210525 3.72305 0
M  V30 19480 N 1865.36 -1.4549 0.605832 0
M  V30 19481 C 1866.59 -2.07135 0.104838 0
M  V30 19482 C 1867.01 -1.4478 -1.20085 0
M  V30 19483 O 1866.37 -0.539875 -1.73075 0
M  V30 19484 C 1866.42 -3.60593 -0.0231858 0
M  V30 19485 O 1865.52 -3.98173 -1.07386 0
M  V30 19486 H 1864.86 -0.659945 0.0732691 0
M  V30 19487 H 1867.39 -1.8677 0.835343 0
M  V30 19488 H 1867.4 -4.07396 -0.221964 0
M  V30 19489 H 1866.08 -4.05364 0.930211 0
M  V30 19490 H 1864.66 -3.63044 -0.851689 0
M  V30 19491 N 1866.84 -0.344893 -1.5378 0
M  V30 19492 C 1868.09 0.25158 -2.01233 0
M  V30 19493 C 1868.42 1.50094 -1.23229 0
M  V30 19494 O 1867.69 1.91845 -0.320282 0
M  V30 19495 C 1867.98 0.564366 -3.5565 0
M  V30 19496 C 1867.83 -0.697186 -4.44364 0
M  V30 19497 C 1869.15 1.37343 -4.18121 0
M  V30 19498 H 1866.27 0.0899643 -0.731488 0
M  V30 19499 H 1868.91 -0.465697 -1.84204 0
M  V30 19500 H 1867.06 1.17543 -3.70292 0
M  V30 19501 H 1868.73 -1.33512 -4.41557 0
M  V30 19502 H 1866.98 -1.3218 -4.13172 0
M  V30 19503 H 1867.65 -0.433571 -5.50295 0
M  V30 19504 H 1870.12 0.85671 -4.07185 0
M  V30 19505 H 1869 1.56103 -5.26235 0
M  V30 19506 H 1869.26 2.37593 -3.7283 0
M  V30 19507 N 1868.32 1.57428 -0.0735454 0
M  V30 19508 C 1869.55 1.97596 0.603272 0
M  V30 19509 C 1869.96 0.950716 1.63579 0
M  V30 19510 O 1869.3 -0.0707453 1.83564 0
M  V30 19511 C 1869.36 3.34079 1.32784 0
M  V30 19512 C 1869.03 4.54793 0.448586 0
M  V30 19513 C 1870.02 5.19065 -0.294536 0
M  V30 19514 C 1867.71 5.00914 0.372952 0
M  V30 19515 C 1869.7 6.2781 -1.1015 0
M  V30 19516 C 1867.39 6.09531 -0.437679 0
M  V30 19517 C 1868.39 6.72842 -1.17357 0
M  V30 19518 O 1868.07 7.79367 -1.97083 0
M  V30 19519 H 1867.81 0.654764 0.168108 0
M  V30 19520 H 1870.36 2.04902 -0.143013 0
M  V30 19521 H 1868.59 3.23393 2.12023 0
M  V30 19522 H 1870.28 3.5884 1.89707 0
M  V30 19523 H 1871.05 4.84377 -0.245706 0
M  V30 19524 H 1866.92 4.51411 0.935363 0
M  V30 19525 H 1870.47 6.77158 -1.67639 0
M  V30 19526 H 1866.37 6.43652 -0.488066 0
M  V30 19527 H 1867.13 7.96253 -1.89533 0
M  V30 19528 N 1869.8 -0.200022 1.56326 0
M  V30 19529 C 1871.02 -0.937503 1.84441 0
M  V30 19530 C 1871.44 -1.77058 0.655428 0
M  V30 19531 O 1870.8 -1.78587 -0.375913 0
M  V30 19532 C 1870.85 -1.83766 3.11307 0
M  V30 19533 O 1870.57 -1.03823 4.2562 0
M  V30 19534 C 1872.07 -2.68724 3.52565 0
M  V30 19535 H 1869.29 -0.273767 0.612611 0
M  V30 19536 H 1871.83 -0.208759 2.03432 0
M  V30 19537 H 1869.99 -2.52009 2.94228 0
M  V30 19538 H 1870.4 -1.6512 4.97831 0
M  V30 19539 H 1871.88 -3.2755 4.44314 0
M  V30 19540 H 1872.35 -3.4219 2.75323 0
M  V30 19541 H 1872.96 -2.0586 3.72158 0
M  V30 19542 N 1871.27 -1.50505 -0.467553 0
M  V30 19543 C 1872.2 -1.72558 -1.57309 0
M  V30 19544 C 1873.19 -0.574619 -1.601 0
M  V30 19545 O 1874.37 -0.814135 -1.76311 0
M  V30 19546 C 1871.5 -1.82296 -2.9561 0
M  V30 19547 C 1870.45 -2.97513 -3.07685 0
M  V30 19548 C 1869.78 -2.92398 -4.47669 0
M  V30 19549 C 1871.08 -4.37968 -2.84573 0
M  V30 19550 H 1872.77 -2.65122 -1.39107 0
M  V30 19551 H 1870.32 -1.2758 -0.667776 0
M  V30 19552 H 1872.27 -1.96308 -3.72882 0
M  V30 19553 H 1871 -0.863562 -3.14976 0
M  V30 19554 H 1869.66 -2.83157 -2.32847 0
M  V30 19555 H 1869.3 -1.94297 -4.63959 0
M  V30 19556 H 1869 -3.69749 -4.56683 0
M  V30 19557 H 1870.53 -3.08464 -5.26956 0
M  V30 19558 H 1871.94 -4.52831 -3.51593 0
M  V30 19559 H 1870.34 -5.16796 -3.05028 0
M  V30 19560 H 1871.41 -4.50093 -1.80402 0
M  V30 19561 N 1872.75 0.720973 -1.40142 0
M  V30 19562 C 1874.16 1.29988 -1.34015 0
M  V30 19563 C 1874.51 1.96197 -0.0110816 0
M  V30 19564 O 1873.64 1.97207 0.890984 0
M  V30 19565 C 1874.23 2.36373 -2.42721 0
M  V30 19566 C 1872.79 2.89902 -2.40071 0
M  V30 19567 C 1871.94 1.63627 -2.23878 0
M  V30 19568 H 1874.89 0.51748 -1.50026 0
M  V30 19569 H 1874.91 3.17091 -2.10317 0
M  V30 19570 H 1874.42 1.88156 -3.39439 0
M  V30 19571 H 1872.53 3.42362 -1.47033 0
M  V30 19572 H 1872.64 3.42062 -3.35456 0
M  V30 19573 H 1871 1.88491 -1.71298 0
M  V30 19574 H 1871.79 1.17442 -3.22587 0
M  V30 19575 N 1874.23 1.25549 0.952634 0
M  V30 19576 C 1875.64 1.09496 1.5122 0
M  V30 19577 C 1875.99 -0.328639 1.93428 0
M  V30 19578 O 1875.12 -1.21884 1.78811 0
M  V30 19579 C 1875.71 1.9815 2.74813 0
M  V30 19580 C 1874.27 1.86275 3.27076 0
M  V30 19581 C 1873.42 1.92181 1.99904 0
M  V30 19582 H 1876.37 1.38806 0.769318 0
M  V30 19583 H 1876.39 1.52265 3.48705 0
M  V30 19584 H 1875.9 3.01754 2.44062 0
M  V30 19585 H 1874 0.855627 3.62643 0
M  V30 19586 H 1874.12 2.71194 3.94957 0
M  V30 19587 H 1872.48 1.36092 2.15293 0
M  V30 19588 H 1873.26 2.97393 1.71499 0
M  V30 19589 N 1875.71 -1.15554 1.07168 0
M  V30 19590 C 1876.99 -1.8238 0.706884 0
M  V30 19591 C 1877.37 -1.94906 -0.810848 0
M  V30 19592 O 1876.71 -1.49905 -1.72455 0
M  V30 19593 C 1876.92 -3.18844 1.41913 0
M  V30 19594 C 1878.27 -3.94506 1.57004 0
M  V30 19595 O 1879.3 -3.28392 1.37976 0
M  V30 19596 O 1878.15 -5.13036 1.88297 0
M  V30 19597 H 1875.25 -0.787892 0.251307 0
M  V30 19598 H 1877.79 -1.22681 1.17249 0
M  V30 19599 H 1876.57 -3.04814 2.45365 0
M  V30 19600 H 1876.19 -3.86227 0.944182 0
M  V30 19601 N 1877.19 -0.855519 -1.32358 0
M  V30 19602 C 1878.6 -0.513833 -1.7949 0
M  V30 19603 C 1878.95 0.968373 -1.70637 0
M  V30 19604 O 1878.07 1.75541 -1.26547 0
M  V30 19605 C 1878.67 -0.925925 -3.25902 0
M  V30 19606 C 1877.23 -0.636124 -3.70986 0
M  V30 19607 C 1876.38 -1.12519 -2.53446 0
M  V30 19608 H 1879.33 -1.04264 -1.19644 0
M  V30 19609 H 1879.35 -0.242659 -3.79725 0
M  V30 19610 H 1878.86 -2.00473 -3.32313 0
M  V30 19611 H 1876.96 0.431924 -3.70088 0
M  V30 19612 H 1877.07 -1.20302 -4.6375 0
M  V30 19613 H 1875.44 -0.545429 -2.48791 0
M  V30 19614 H 1876.22 -2.21112 -2.62611 0
M  V30 19615 N 1878.67 1.45167 -0.61354 0
M  V30 19616 C 1879.94 1.95553 -0.042781 0
M  V30 19617 C 1880.32 1.55588 1.42673 0
M  V30 19618 O 1879.67 0.821325 2.13229 0
M  V30 19619 C 1879.88 3.48124 -0.247141 0
M  V30 19620 C 1881.23 4.24398 -0.131068 0
M  V30 19621 O 1882.25 3.55757 -0.177576 0
M  V30 19622 O 1881.11 5.46496 -0.0211683 0
M  V30 19623 H 1878.21 0.826367 0.0323494 0
M  V30 19624 H 1880.75 1.55304 -0.684017 0
M  V30 19625 H 1879.52 3.70202 -1.26751 0
M  V30 19626 H 1879.15 3.95278 0.429074 0
M  V30 19627 N 1880.14 0.353044 1.53595 0
M  V30 19628 C 1881.09 -0.515504 2.22096 0
M  V30 19629 C 1882.08 -1.05861 1.2117 0
M  V30 19630 O 1883.27 -0.990737 1.46674 0
M  V30 19631 C 1880.4 -1.66112 3.00436 0
M  V30 19632 C 1879.48 -1.1315 4.08727 0
M  V30 19633 N 1879.88 -0.323846 5.04762 0
M  V30 19634 C 1878.17 -1.4075 4.23209 0
M  V30 19635 C 1878.87 -0.0353104 5.81689 0
M  V30 19636 N 1877.85 -0.629542 5.39942 0
M  V30 19637 H 1881.65 0.108512 2.937 0
M  V30 19638 H 1879.17 0.1604 1.61606 0
M  V30 19639 H 1881.16 -2.29541 3.48018 0
M  V30 19640 H 1879.82 -2.28832 2.3036 0
M  V30 19641 H 1880.83 0.0358889 5.17888 0
M  V30 19642 H 1877.51 -2.0384 3.64357 0
M  V30 19643 H 1878.9 0.616806 6.69063 0
M  V30 19644 N 1881.62 -1.57387 0.0818932 0
M  V30 19645 C 1882.87 -1.93869 -0.584899 0
M  V30 19646 C 1883.2 -0.962686 -1.69005 0
M  V30 19647 O 1882.45 0.0199955 -1.9569 0
M  V30 19648 C 1882.75 -3.36939 -1.19193 0
M  V30 19649 C 1882.42 -4.50402 -0.211908 0
M  V30 19650 C 1881.08 -4.81165 0.0576757 0
M  V30 19651 C 1883.43 -5.19184 0.457992 0
M  V30 19652 C 1880.76 -5.78044 1.00408 0
M  V30 19653 C 1883.11 -6.17077 1.39278 0
M  V30 19654 C 1881.77 -6.46253 1.67073 0
M  V30 19655 H 1881.04 -0.709417 -0.21403 0
M  V30 19656 H 1883.69 -1.90872 0.154919 0
M  V30 19657 H 1882 -3.3645 -2.00771 0
M  V30 19658 H 1883.69 -3.62461 -1.71532 0
M  V30 19659 H 1880.28 -4.26415 -0.43221 0
M  V30 19660 H 1884.47 -4.95603 0.262847 0
M  V30 19661 H 1879.72 -5.9897 1.22656 0
M  V30 19662 H 1883.9 -6.69474 1.91775 0
M  V30 19663 H 1881.52 -7.21132 2.40566 0
M  V30 19664 N 1883.1 0.191729 -1.56429 0
M  V30 19665 C 1884.38 0.937684 -1.71659 0
M  V30 19666 C 1884.76 2.0124 -0.63762 0
M  V30 19667 O 1884.1 2.2579 0.350865 0
M  V30 19668 C 1884.31 1.52104 -3.14111 0
M  V30 19669 C 1885.66 2.00186 -3.74447 0
M  V30 19670 O 1886.69 1.61939 -3.1726 0
M  V30 19671 O 1885.55 2.70576 -4.74817 0
M  V30 19672 H 1882.64 0.439962 -0.700259 0
M  V30 19673 H 1885.19 0.181161 -1.6873 0
M  V30 19674 H 1883.96 0.746526 -3.84113 0
M  V30 19675 H 1883.58 2.3423 -3.21282 0
M  V30 19676 N 1884.58 1.50751 0.459565 0
M  V30 19677 C 1885.83 1.61995 1.20839 0
M  V30 19678 C 1886.15 0.327782 1.92225 0
M  V30 19679 O 1885.42 -0.655341 1.84613 0
M  V30 19680 H 1884 0.596972 0.449036 0
M  V30 19681 H 1886.66 1.87582 0.52906 0
M  V30 19682 H 1885.75 2.43678 1.95006 0
M  V30 19683 N 1886.06 -0.713531 1.40522 0
M  V30 19684 C 1887.29 -1.50042 1.42024 0
M  V30 19685 C 1887.69 -1.89191 0.0188277 0
M  V30 19686 O 1887.04 -1.56122 -0.968071 0
M  V30 19687 C 1887.1 -2.8045 2.24918 0
M  V30 19688 C 1886.76 -2.63612 3.73306 0
M  V30 19689 C 1887.76 -2.30736 4.65893 0
M  V30 19690 C 1885.44 -2.79813 4.17145 0
M  V30 19691 C 1887.44 -2.14273 6.00305 0
M  V30 19692 C 1885.13 -2.62967 5.51626 0
M  V30 19693 C 1886.12 -2.30246 6.43021 0
M  V30 19694 O 1885.81 -2.1353 7.75023 0
M  V30 19695 H 1885.54 -0.46954 0.486321 0
M  V30 19696 H 1888.1 -0.887579 1.85233 0
M  V30 19697 H 1886.33 -3.44075 1.76492 0
M  V30 19698 H 1888.02 -3.42176 2.18336 0
M  V30 19699 H 1888.78 -2.17851 4.3332 0
M  V30 19700 H 1884.66 -3.04269 3.46325 0
M  V30 19701 H 1888.21 -1.88656 6.71606 0
M  V30 19702 H 1884.1 -2.75437 5.83785 0
M  V30 19703 H 1884.87 -2.28434 7.85977 0
M  V30 19704 N 1887.53 -1.26053 -0.945962 0
M  V30 19705 C 1888.48 -1.07194 -2.04397 0
M  V30 19706 C 1889.45 0.0215796 -1.66086 0
M  V30 19707 O 1890.64 -0.137272 -1.90306 0
M  V30 19708 C 1887.78 -0.705915 -3.37803 0
M  V30 19709 C 1886.89 -1.87519 -3.89179 0
M  V30 19710 C 1886.02 -1.45272 -5.1095 0
M  V30 19711 C 1885.06 -2.59059 -5.54576 0
M  V30 19712 N 1884.2 -2.17527 -6.67552 0
M  V30 19713 H 1889.04 -2.01159 -2.19861 0
M  V30 19714 H 1886.58 -1.00162 -1.07731 0
M  V30 19715 H 1888.53 -0.474611 -4.14492 0
M  V30 19716 H 1887.16 0.196761 -3.222 0
M  V30 19717 H 1886.22 -2.21956 -3.08933 0
M  V30 19718 H 1887.53 -2.7294 -4.17499 0
M  V30 19719 H 1886.68 -1.18158 -5.95083 0
M  V30 19720 H 1885.42 -0.569345 -4.84365 0
M  V30 19721 H 1884.43 -2.86908 -4.69003 0
M  V30 19722 H 1885.65 -3.47989 -5.83164 0
M  V30 19723 H 1883.6 -1.31618 -6.42661 0
M  V30 19724 H 1883.51 -2.96493 -6.95433 0
M  V30 19725 H 1884.78 -1.93612 -7.55073 0
M  V30 19726 N 1889.01 1.14984 -1.07779 0
M  V30 19727 C 1889.94 2.19494 -0.659934 0
M  V30 19728 C 1890.96 1.60201 0.289756 0
M  V30 19729 O 1892.15 1.78328 0.0784004 0
M  V30 19730 C 1889.25 3.38862 0.0506161 0
M  V30 19731 C 1888.42 4.27693 -0.916355 0
M  V30 19732 C 1887.48 5.25642 -0.242303 0
M  V30 19733 O 1886.5 5.62282 -0.884715 0
M  V30 19734 N 1887.71 5.7164 1.01033 0
M  V30 19735 H 1890.47 2.5596 -1.55899 0
M  V30 19736 H 1888.03 1.30143 -0.963043 0
M  V30 19737 H 1890.02 4.01444 0.512331 0
M  V30 19738 H 1888.59 3.00775 0.851671 0
M  V30 19739 H 1887.81 3.62145 -1.55708 0
M  V30 19740 H 1889.1 4.83913 -1.57182 0
M  V30 19741 H 1888.5 5.43991 1.55212 0
M  V30 19742 H 1887.06 6.36241 1.41565 0
M  V30 19743 N 1890.49 0.862526 1.31902 0
M  V30 19744 C 1891.42 0.270103 2.27603 0
M  V30 19745 C 1892.43 -0.562639 1.52768 0
M  V30 19746 O 1893.62 -0.385845 1.7428 0
M  V30 19747 C 1890.72 -0.636314 3.32873 0
M  V30 19748 C 1889.9 0.162327 4.37099 0
M  V30 19749 C 1888.96 -0.67107 5.21903 0
M  V30 19750 O 1887.98 -0.101765 5.69109 0
M  V30 19751 N 1889.18 -1.98441 5.45529 0
M  V30 19752 H 1891.95 1.09248 2.79079 0
M  V30 19753 H 1889.51 0.723275 1.44846 0
M  V30 19754 H 1891.5 -1.19937 3.86519 0
M  V30 19755 H 1890.07 -1.35936 2.81496 0
M  V30 19756 H 1889.29 0.906824 3.83628 0
M  V30 19757 H 1890.58 0.710602 5.03813 0
M  V30 19758 H 1889.98 -2.47017 5.0892 0
M  V30 19759 H 1888.53 -2.49542 6.0214 0
M  V30 19760 N 1891.97 -1.4484 0.62123 0
M  V30 19761 C 1892.93 -2.29061 -0.0797989 0
M  V30 19762 C 1893.93 -1.40508 -0.781932 0
M  V30 19763 O 1895.12 -1.62485 -0.628023 0
M  V30 19764 C 1892.25 -3.21857 -1.12342 0
M  V30 19765 H 1893.45 -2.92528 0.66084 0
M  V30 19766 H 1891 -1.51588 0.3809 0
M  V30 19767 H 1891.73 -2.63218 -1.89437 0
M  V30 19768 H 1891.52 -3.87103 -0.624003 0
M  V30 19769 H 1893.01 -3.8515 -1.61398 0
M  V30 19770 N 1893.45 -0.361184 -1.53405 0
M  V30 19771 C 1894.69 0.230222 -2.01489 0
M  V30 19772 C 1895.03 1.48779 -1.24814 0
M  V30 19773 O 1894.3 1.91494 -0.340612 0
M  V30 19774 C 1894.58 0.526613 -3.56229 0
M  V30 19775 C 1894.44 -0.744277 -4.436 0
M  V30 19776 C 1895.76 1.32901 -4.19554 0
M  V30 19777 H 1892.87 0.0822009 -0.732402 0
M  V30 19778 H 1895.52 -0.485208 -1.837 0
M  V30 19779 H 1893.67 1.13609 -3.71517 0
M  V30 19780 H 1895.34 -1.38188 -4.40116 0
M  V30 19781 H 1893.58 -1.36555 -4.11747 0
M  V30 19782 H 1894.25 -0.491913 -5.49804 0
M  V30 19783 H 1896.73 0.813474 -4.08071 0
M  V30 19784 H 1895.6 1.50513 -5.27861 0
M  V30 19785 H 1895.87 2.33625 -3.75329 0
M  V30 19786 N 1894.92 1.57341 -0.0902386 0
M  V30 19787 C 1896.17 1.94464 0.575461 0
M  V30 19788 C 1896.5 0.971819 1.68135 0
M  V30 19789 O 1895.78 0.00405665 1.945 0
M  V30 19790 C 1896.06 3.41739 1.13518 0
M  V30 19791 C 1895.91 4.49787 0.0346821 0
M  V30 19792 C 1897.23 3.90222 2.03506 0
M  V30 19793 H 1894.35 0.707123 0.207716 0
M  V30 19794 H 1896.99 1.89325 -0.15996 0
M  V30 19795 H 1895.14 3.46249 1.76192 0
M  V30 19796 H 1896.82 4.5739 -0.599326 0
M  V30 19797 H 1895.06 4.29166 -0.632342 0
M  V30 19798 H 1895.73 5.50021 0.467044 0
M  V30 19799 H 1898.21 3.87834 1.50744 0
M  V30 19800 H 1897.08 4.93846 2.39598 0
M  V30 19801 H 1897.34 3.29232 2.95057 0
M  V30 19802 N 1896.4 -0.183431 1.56529 0
M  V30 19803 C 1897.65 -0.900237 1.80495 0
M  V30 19804 C 1897.96 -1.83932 0.665454 0
M  V30 19805 O 1899.17 -2.59761 0.789728 0
M  V30 19806 C 1897.63 -1.65125 3.19784 0
M  V30 19807 C 1897.23 -0.756411 4.41568 0
M  V30 19808 C 1898.98 -2.357 3.53052 0
M  V30 19809 C 1896.89 -1.50696 5.71878 0
M  V30 19810 H 1895.82 -0.339898 0.673042 0
M  V30 19811 H 1898.47 -0.153327 1.82858 0
M  V30 19812 H 1896.85 -2.44248 3.11703 0
M  V30 19813 H 1898.02 -0.00301509 4.608 0
M  V30 19814 H 1896.34 -0.160916 4.16089 0
M  V30 19815 H 1898.93 -2.92426 4.4765 0
M  V30 19816 H 1899.28 -3.10454 2.77352 0
M  V30 19817 H 1899.81 -1.63533 3.62632 0
M  V30 19818 H 1896.55 -0.801985 6.50575 0
M  V30 19819 H 1896.07 -2.23399 5.56644 0
M  V30 19820 H 1897.75 -2.05768 6.13407 0
M  V30 19821 N 1897.88 -1.50992 -0.451564 0
M  V30 19822 C 1899.13 -1.63197 -1.20394 0
M  V30 19823 C 1899.46 -0.340409 -1.91193 0
M  V30 19824 O 1898.73 0.65926 -1.82986 0
M  V30 19825 C 1899.02 -2.82567 -2.23221 0
M  V30 19826 C 1898.87 -4.2166 -1.56598 0
M  V30 19827 C 1900.19 -2.97468 -3.24347 0
M  V30 19828 H 1897.31 -0.59395 -0.43634 0
M  V30 19829 H 1899.95 -1.83437 -0.495056 0
M  V30 19830 H 1898.1 -2.65441 -2.83678 0
M  V30 19831 H 1899.77 -4.50422 -0.995877 0
M  V30 19832 H 1898.02 -4.25015 -0.86862 0
M  V30 19833 H 1898.69 -5.0115 -2.31415 0
M  V30 19834 H 1901.16 -3.13211 -2.73931 0
M  V30 19835 H 1900.04 -3.82581 -3.93603 0
M  V30 19836 H 1900.3 -2.08921 -3.89621 0
M  V30 19837 N 1899.36 0.706069 -1.40899 0
M  V30 19838 C 1900.64 1.45984 -1.30185 0
M  V30 19839 C 1901.02 2.10965 0.0754423 0
M  V30 19840 O 1900.36 2.00883 1.08896 0
M  V30 19841 C 1900.57 2.48782 -2.44762 0
M  V30 19842 C 1901.92 3.14339 -2.85441 0
M  V30 19843 O 1902.95 2.59104 -2.44425 0
M  V30 19844 O 1901.8 4.14354 -3.56333 0
M  V30 19845 H 1898.9 0.649628 -0.511774 0
M  V30 19846 H 1901.44 0.737436 -1.5284 0
M  V30 19847 H 1900.22 1.99346 -3.36715 0
M  V30 19848 H 1899.84 3.28545 -2.23929 0
M  V30 19849 N 1900.84 1.26553 0.939264 0
M  V30 19850 C 1902.11 1.02956 1.66312 0
M  V30 19851 C 1902.49 -0.439417 2.06476 0
M  V30 19852 O 1901.84 -1.42019 1.79005 0
M  V30 19853 C 1902.05 1.98013 2.87388 0
M  V30 19854 C 1903.4 2.26732 3.58996 0
M  V30 19855 O 1904.42 1.95894 2.97496 0
M  V30 19856 O 1903.28 2.79244 4.69771 0
M  V30 19857 H 1900.38 0.391621 0.728397 0
M  V30 19858 H 1902.92 1.37771 0.990824 0
M  V30 19859 H 1901.69 2.97133 2.54613 0
M  V30 19860 H 1901.32 1.63689 3.62342 0
M  V30 19861 N 1902.31 -1.14411 1.08387 0
M  V30 19862 C 1903.24 -2.21619 0.735327 0
M  V30 19863 C 1904.23 -1.67744 -0.282132 0
M  V30 19864 O 1905.41 -1.936 -0.152547 0
M  V30 19865 C 1902.54 -3.47003 0.143628 0
M  V30 19866 C 1901.49 -4.13903 1.08941 0
M  V30 19867 C 1900.82 -5.33487 0.359941 0
M  V30 19868 C 1902.12 -4.62463 2.42746 0
M  V30 19869 H 1903.81 -2.51031 1.63168 0
M  V30 19870 H 1901.36 -1.20658 0.785981 0
M  V30 19871 H 1903.31 -4.21251 -0.112217 0
M  V30 19872 H 1902.04 -3.16955 -0.787856 0
M  V30 19873 H 1900.7 -3.4161 1.33035 0
M  V30 19874 H 1900.34 -4.99699 -0.57534 0
M  V30 19875 H 1900.04 -5.79192 0.990451 0
M  V30 19876 H 1901.57 -6.10497 0.112145 0
M  V30 19877 H 1902.98 -5.28185 2.22919 0
M  V30 19878 H 1901.38 -5.18869 3.01488 0
M  V30 19879 H 1902.45 -3.77542 3.04286 0
M  V30 19880 N 1903.79 -0.869509 -1.31443 0
M  V30 19881 C 1905.03 -0.486705 -1.98521 0
M  V30 19882 C 1905.4 0.943287 -1.67231 0
M  V30 19883 O 1906.6 1.43142 -2.27517 0
M  V30 19884 C 1904.87 -0.736028 -3.49739 0
M  V30 19885 S 1906.43 -0.453014 -4.36455 0
M  V30 19886 H 1903.25 -0.181701 -0.687391 0
M  V30 19887 H 1905.85 -1.12544 -1.59857 0
M  V30 19888 H 1904.55 -1.77557 -3.70002 0
M  V30 19889 H 1904.08 -0.0842742 -3.9331 0
M  V30 19890 H 1906.1 0.714891 -4.91023 0
M  V30 19891 N 1905.27 1.44508 -0.628902 0
M  V30 19892 C 1906.2 2.28908 0.115743 0
M  V30 19893 C 1907.22 1.41158 0.811067 0
M  V30 19894 O 1908.4 1.65331 0.672887 0
M  V30 19895 C 1905.5 3.17471 1.18599 0
M  V30 19896 C 1904.68 4.33622 0.573612 0
M  V30 19897 C 1903.74 5.03236 1.53752 0
M  V30 19898 O 1902.76 5.59328 1.05553 0
M  V30 19899 N 1903.96 5.04483 2.87189 0
M  V30 19900 H 1906.73 2.93456 -0.608565 0
M  V30 19901 H 1904.29 1.54931 -0.469902 0
M  V30 19902 H 1906.28 3.60906 1.8311 0
M  V30 19903 H 1904.85 2.54687 1.81255 0
M  V30 19904 H 1904.07 3.93406 -0.25007 0
M  V30 19905 H 1905.36 5.08593 0.14509 0
M  V30 19906 H 1904.76 4.6024 3.28931 0
M  V30 19907 H 1903.32 5.51714 3.47066 0
M  V30 19908 N 1906.75 0.369315 1.53212 0
M  V30 19909 C 1907.7 -0.490481 2.2737 0
M  V30 19910 C 1908.69 -1.08021 1.30491 0
M  V30 19911 O 1909.9 -1.02298 1.48105 0
M  V30 19912 H 1906.27 -0.176899 0.730897 0
M  V30 19913 H 1908.24 0.156696 2.97988 0
M  V30 19914 C 1906.99 -1.61628 3.0785 0
M  V30 19915 H 1906.32 -1.1718 3.82242 0
M  V30 19916 H 1907.76 -2.19252 3.62911 0
M  V30 19917 C 1906.21 -2.56077 2.18921 0
M  V30 19918 O 1906.74 -3.58988 1.80251 0
M  V30 19919 N 1904.95 -2.25352 1.83479 0
M  V30 19920 H 1904.5 -1.41701 2.15124 0
M  V30 19921 H 1904.46 -2.888 1.24264 0
M  V30 19922 N 1908.23 -1.57291 0.0985816 0
M  V30 19923 C 1909.64 -1.81681 -0.430009 0
M  V30 19924 C 1909.99 -1.01443 -1.6794 0
M  V30 19925 O 1909.11 -0.244848 -2.1501 0
M  V30 19926 C 1909.71 -3.29535 -0.786919 0
M  V30 19927 C 1908.27 -3.54676 -1.26024 0
M  V30 19928 C 1907.42 -2.76091 -0.258642 0
M  V30 19929 H 1910.37 -1.55358 0.323982 0
M  V30 19930 H 1910.39 -3.43048 -1.64616 0
M  V30 19931 H 1909.9 -3.87906 0.122591 0
M  V30 19932 H 1908 -3.01639 -2.18734 0
M  V30 19933 H 1908.11 -4.63315 -1.21967 0
M  V30 19934 H 1906.48 -2.43667 -0.741507 0
M  V30 19935 H 1907.26 -3.37213 0.643607 0
M  V30 19936 N 1909.71 0.175127 -1.56624 0
M  V30 19937 C 1910.98 0.919424 -1.72644 0
M  V30 19938 C 1911.36 2.00553 -0.658929 0
M  V30 19939 O 1910.71 2.2615 0.326897 0
M  V30 19940 C 1910.92 1.48764 -3.15706 0
M  V30 19941 C 1912.27 1.96204 -3.76549 0
M  V30 19942 O 1913.29 1.58565 -3.1896 0
M  V30 19943 O 1912.15 2.65525 -4.7766 0
M  V30 19944 H 1909.25 0.43251 -0.704886 0
M  V30 19945 H 1911.79 0.163255 -1.68913 0
M  V30 19946 H 1910.56 0.705743 -3.84883 0
M  V30 19947 H 1910.19 2.3081 -3.23748 0
M  V30 19948 N 1911.18 1.5123 0.44355 0
M  V30 19949 C 1912.43 1.63267 1.19114 0
M  V30 19950 C 1912.75 0.348151 1.91867 0
M  V30 19951 O 1912.02 -0.635724 1.85298 0
M  V30 19952 H 1910.6 0.601701 0.442679 0
M  V30 19953 H 1913.26 1.88132 0.509134 0
M  V30 19954 H 1912.36 2.45732 1.92411 0
M  V30 19955 N 1912.66 -0.698586 1.41271 0
M  V30 19956 C 1913.61 -1.81256 1.42881 0
M  V30 19957 C 1914.58 -1.63662 0.283562 0
M  V30 19958 O 1915.76 -1.84555 0.48416 0
M  V30 19959 C 1912.9 -3.19113 1.31381 0
M  V30 19960 C 1912.02 -3.4816 2.55751 0
M  V30 19961 C 1911.15 -4.75615 2.36566 0
M  V30 19962 C 1910.19 -4.9762 3.56427 0
M  V30 19963 N 1909.33 -6.16299 3.36332 0
M  V30 19964 H 1914.17 -1.79214 2.38089 0
M  V30 19965 H 1911.7 -0.875213 1.1823 0
M  V30 19966 H 1913.66 -3.98744 1.22716 0
M  V30 19967 H 1912.29 -3.20339 0.397831 0
M  V30 19968 H 1911.34 -2.62957 2.74878 0
M  V30 19969 H 1912.66 -3.60323 3.44918 0
M  V30 19970 H 1911.81 -5.63295 2.25352 0
M  V30 19971 H 1910.55 -4.65693 1.44851 0
M  V30 19972 H 1909.55 -4.0839 3.681 0
M  V30 19973 H 1910.78 -5.09404 4.49093 0
M  V30 19974 H 1908.73 -6.07595 2.47314 0
M  V30 19975 H 1908.64 -6.29216 4.19074 0
M  V30 19976 H 1909.91 -7.06722 3.28884 0
M  V30 19977 N 1914.14 -1.27049 -0.93254 0
M  V30 19978 C 1915.42 -1.03836 -1.65763 0
M  V30 19979 C 1915.8 0.428461 -2.06706 0
M  V30 19980 O 1915.14 1.41067 -1.79756 0
M  V30 19981 C 1915.35 -1.99534 -2.86334 0
M  V30 19982 C 1916.7 -2.28632 -3.57788 0
M  V30 19983 O 1917.73 -1.97469 -2.96453 0
M  V30 19984 O 1916.59 -2.81732 -4.68284 0
M  V30 19985 H 1913.68 -0.395479 -0.72631 0
M  V30 19986 H 1916.23 -1.38294 -0.983504 0
M  V30 19987 H 1915 -2.98479 -2.53033 0
M  V30 19988 H 1914.62 -1.65608 -3.61469 0
M  V30 19989 N 1915.62 1.13835 -1.08993 0
M  V30 19990 C 1916.86 1.85284 -0.824476 0
M  V30 19991 C 1917.2 1.83062 0.648235 0
M  V30 19992 O 1916.47 1.26555 1.47696 0
M  V30 19993 C 1916.75 3.33649 -1.35463 0
M  V30 19994 C 1916.61 3.44411 -2.89312 0
M  V30 19995 C 1917.93 4.28941 -0.984768 0
M  V30 19996 H 1915.05 0.672745 -0.300971 0
M  V30 19997 H 1917.69 1.3364 -1.35057 0
M  V30 19998 H 1915.84 3.77761 -0.907128 0
M  V30 19999 H 1917.51 3.09043 -3.42477 0
M  V30 20000 H 1915.75 2.85429 -3.26669 0
M  V30 20001 H 1916.42 4.48724 -3.21481 0
M  V30 20002 H 1918.9 3.92877 -1.37064 0
M  V30 20003 H 1917.78 5.31196 -1.38283 0
M  V30 20004 H 1918.04 4.41969 0.10755 0
M  V30 20005 N 1917.1 0.876467 1.3098 0
M  V30 20006 C 1918.32 0.504524 2.0117 0
M  V30 20007 C 1918.75 -0.897295 1.65319 0
M  V30 20008 O 1918.1 -1.59321 0.865255 0
M  V30 20009 C 1918.15 0.676516 3.54197 0
M  V30 20010 O 1917.26 -0.28134 4.11439 0
M  V30 20011 H 1916.6 0.199855 0.633209 0
M  V30 20012 H 1919.13 1.18167 1.67026 0
M  V30 20013 H 1919.14 0.572273 4.03967 0
M  V30 20014 H 1917.81 1.69864 3.7963 0
M  V30 20015 H 1916.39 -0.131506 3.72668 0
M  V30 20016 N 1918.57 -1.44173 0.636557 0
M  V30 20017 C 1919.5 -2.33442 -0.0518719 0
M  V30 20018 C 1920.48 -1.48519 -0.829226 0
M  V30 20019 O 1921.67 -1.77225 -0.794028 0
M  V30 20020 C 1918.8 -3.31663 -1.03038 0
M  V30 20021 C 1917.75 -4.26447 -0.364286 0
M  V30 20022 C 1917.08 -5.14577 -1.45308 0
M  V30 20023 C 1918.38 -5.17133 0.732884 0
M  V30 20024 H 1920.07 -2.91255 0.693589 0
M  V30 20025 H 1917.62 -1.40049 0.33499 0
M  V30 20026 H 1919.57 -3.93002 -1.52077 0
M  V30 20027 H 1918.3 -2.72071 -1.80679 0
M  V30 20028 H 1916.96 -3.66448 0.105505 0
M  V30 20029 H 1916.6 -4.51334 -2.22051 0
M  V30 20030 H 1916.3 -5.78807 -1.01274 0
M  V30 20031 H 1917.83 -5.78788 -1.94517 0
M  V30 20032 H 1919.24 -5.72376 0.325363 0
M  V30 20033 H 1917.64 -5.89994 1.09669 0
M  V30 20034 H 1918.71 -4.5782 1.59779 0
M  V30 20035 N 1920.05 -0.377435 -1.53014 0
M  V30 20036 C 1921.3 0.20853 -2.01423 0
M  V30 20037 C 1921.63 1.47801 -1.26433 0
M  V30 20038 O 1920.88 1.92551 -0.34966 0
M  V30 20039 C 1921.18 0.534659 -3.53378 0
M  V30 20040 C 1920.85 -0.641876 -4.46308 0
M  V30 20041 C 1919.51 -0.964671 -4.71431 0
M  V30 20042 C 1921.86 -1.42954 -5.01212 0
M  V30 20043 C 1919.19 -2.07689 -5.4871 0
M  V30 20044 C 1921.54 -2.53227 -5.79706 0
M  V30 20045 C 1920.2 -2.86028 -6.03112 0
M  V30 20046 H 1919.47 0.0763064 -0.737061 0
M  V30 20047 H 1922.12 -0.51234 -1.84519 0
M  V30 20048 H 1920.43 1.3367 -3.68293 0
M  V30 20049 H 1922.12 1.00048 -3.88319 0
M  V30 20050 H 1918.71 -0.380266 -4.2691 0
M  V30 20051 H 1922.9 -1.1934 -4.81738 0
M  V30 20052 H 1918.15 -2.33487 -5.65061 0
M  V30 20053 H 1922.33 -3.14669 -6.21254 0
M  V30 20054 H 1919.95 -3.72332 -6.62777 0
M  V30 20055 N 1921.53 1.57237 -0.106922 0
M  V30 20056 C 1922.77 1.96658 0.557214 0
M  V30 20057 C 1923.13 0.988281 1.64612 0
M  V30 20058 O 1924.34 1.27142 2.3683 0
M  V30 20059 C 1922.61 3.40462 1.08723 0
M  V30 20060 S 1924.17 4.01888 1.76158 0
M  V30 20061 H 1920.98 0.687449 0.181481 0
M  V30 20062 H 1923.59 1.94583 -0.189135 0
M  V30 20063 H 1922.29 4.0942 0.283378 0
M  V30 20064 H 1921.82 3.4616 1.86913 0
M  V30 20065 H 1923.84 3.91658 3.04661 0
M  V30 20066 N 1923.01 -0.166818 1.56715 0
M  V30 20067 C 1923.94 -1.23113 1.93328 0
M  V30 20068 C 1924.95 -1.40238 0.826866 0
M  V30 20069 O 1926.14 -1.40161 1.10531 0
M  V30 20070 C 1923.24 -2.59914 2.17481 0
M  V30 20071 C 1922.42 -2.64028 3.48723 0
M  V30 20072 C 1921.47 -3.82224 3.61651 0
M  V30 20073 O 1920.5 -3.68014 4.34229 0
M  V30 20074 N 1921.7 -4.98868 2.96835 0
M  V30 20075 H 1924.47 -0.920103 2.85227 0
M  V30 20076 H 1922.03 -0.356548 1.57925 0
M  V30 20077 H 1924.02 -3.37459 2.2339 0
M  V30 20078 H 1922.59 -2.83389 1.31945 0
M  V30 20079 H 1921.81 -1.72544 3.54432 0
M  V30 20080 H 1923.1 -2.63792 4.35076 0
M  V30 20081 H 1922.5 -5.13314 2.3775 0
M  V30 20082 H 1921.05 -5.74259 3.08333 0
M  V30 20083 N 1924.49 -1.51463 -0.435524 0
M  V30 20084 C 1925.42 -1.67594 -1.54879 0
M  V30 20085 C 1926.4 -0.523516 -1.53942 0
M  V30 20086 O 1927.58 -0.747582 -1.73042 0
M  V30 20087 C 1924.71 -1.69117 -2.93457 0
M  V30 20088 C 1923.75 -2.90346 -3.12413 0
M  V30 20089 S 1924.59 -4.51129 -2.88518 0
M  V30 20090 C 1925.74 -4.554 -4.29374 0
M  V30 20091 H 1925.98 -2.61757 -1.40963 0
M  V30 20092 H 1923.51 -1.4117 -0.625338 0
M  V30 20093 H 1925.47 -1.70679 -3.73335 0
M  V30 20094 H 1924.13 -0.761275 -3.04735 0
M  V30 20095 H 1923.32 -2.87818 -4.13735 0
M  V30 20096 H 1922.92 -2.86534 -2.40362 0
M  V30 20097 H 1925.22 -4.31152 -5.22603 0
M  V30 20098 H 1926.16 -5.5722 -4.36935 0
M  V30 20099 H 1926.57 -3.84704 -4.13113 0
M  V30 20100 N 1925.96 0.691085 -1.4164 0
M  V30 20101 C 1927.21 1.45329 -1.41447 0
M  V30 20102 C 1927.54 1.94184 -0.0249758 0
M  V30 20103 O 1926.82 1.69831 0.948043 0
M  V30 20104 C 1927.1 2.66199 -2.42508 0
M  V30 20105 C 1926.95 2.23081 -3.90583 0
M  V30 20106 C 1928.27 3.68402 -2.40766 0
M  V30 20107 H 1925.39 0.527115 -0.515091 0
M  V30 20108 H 1928.03 0.786758 -1.72945 0
M  V30 20109 H 1926.18 3.23066 -2.15778 0
M  V30 20110 H 1927.86 1.71506 -4.28233 0
M  V30 20111 H 1926.1 1.54818 -4.05233 0
M  V30 20112 H 1926.77 3.09828 -4.56848 0
M  V30 20113 H 1929.25 3.21217 -2.64497 0
M  V30 20114 H 1928.12 4.50576 -3.13484 0
M  V30 20115 H 1928.38 4.18408 -1.42783 0
M  V30 20116 N 1927.44 1.27542 0.925789 0
M  V30 20117 C 1928.67 1.16921 1.71301 0
M  V30 20118 C 1929.09 -0.270082 1.86151 0
M  V30 20119 O 1928.45 -1.19558 1.36293 0
M  V30 20120 C 1928.5 1.8599 3.08934 0
M  V30 20121 O 1927.6 1.15917 3.95774 0
M  V30 20122 H 1926.94 0.406542 0.524995 0
M  V30 20123 H 1929.47 1.68646 1.15843 0
M  V30 20124 H 1929.48 1.93424 3.59237 0
M  V30 20125 H 1928.16 2.9069 2.97443 0
M  V30 20126 H 1926.74 1.16564 3.54213 0
M  V30 20127 N 1928.92 -1.13255 1.09595 0
M  V30 20128 C 1930.15 -1.88952 0.855104 0
M  V30 20129 C 1930.57 -1.78668 -0.588174 0
M  V30 20130 O 1929.93 -1.13544 -1.41341 0
M  V30 20131 C 1929.98 -3.36461 1.29717 0
M  V30 20132 O 1929.08 -4.09863 0.456717 0
M  V30 20133 H 1928.42 -0.587432 0.309547 0
M  V30 20134 H 1930.95 -1.43282 1.46053 0
M  V30 20135 H 1930.96 -3.87291 1.28333 0
M  V30 20136 H 1929.64 -3.43263 2.34826 0
M  V30 20137 H 1928.21 -3.69042 0.535026 0
M  V30 20138 N 1930.4 -0.883401 -1.30514 0
M  V30 20139 C 1931.64 -0.501795 -1.96494 0
M  V30 20140 C 1931.98 0.946294 -1.69585 0
M  V30 20141 O 1931.25 1.66842 -0.999705 0
M  V30 20142 C 1931.54 -0.775405 -3.51653 0
M  V30 20143 C 1931.39 -2.27401 -3.88084 0
M  V30 20144 C 1932.71 -0.250854 -4.39384 0
M  V30 20145 H 1929.83 -0.183786 -0.713717 0
M  V30 20146 H 1932.47 -1.1071 -1.54412 0
M  V30 20147 H 1930.62 -0.260217 -3.87628 0
M  V30 20148 H 1932.29 -2.85748 -3.62141 0
M  V30 20149 H 1930.53 -2.74128 -3.36209 0
M  V30 20150 H 1931.2 -2.41606 -4.96317 0
M  V30 20151 H 1933.68 -0.691785 -4.10309 0
M  V30 20152 H 1932.56 -0.471637 -5.4687 0
M  V30 20153 H 1932.82 0.847835 -4.33894 0
M  V30 20154 N 1931.88 1.43833 -0.644194 0
M  V30 20155 C 1933.15 1.95418 -0.0842511 0
M  V30 20156 C 1933.53 1.58579 1.39341 0
M  V30 20157 O 1932.88 0.866369 2.11439 0
M  V30 20158 C 1933.09 3.47521 -0.320928 0
M  V30 20159 C 1934.44 4.24024 -0.221059 0
M  V30 20160 O 1935.46 3.553 -0.252997 0
M  V30 20161 O 1934.32 5.46328 -0.137083 0
M  V30 20162 H 1931.42 0.826867 0.0148137 0
M  V30 20163 H 1933.96 1.53818 -0.716805 0
M  V30 20164 H 1932.73 3.67431 -1.34575 0
M  V30 20165 H 1932.36 3.96099 0.345133 0
M  V30 20166 N 1933.35 0.385544 1.52811 0
M  V30 20167 C 1934.6 -0.197845 2.01531 0
M  V30 20168 C 1934.93 -1.47128 1.27215 0
M  V30 20169 O 1934.18 -1.92363 0.359866 0
M  V30 20170 C 1934.48 -0.515911 3.53657 0
M  V30 20171 C 1934.15 0.665535 4.45961 0
M  V30 20172 C 1932.81 0.989658 4.70913 0
M  V30 20173 C 1935.16 1.4561 5.00447 0
M  V30 20174 C 1932.49 2.10596 5.476 0
M  V30 20175 C 1934.84 2.56298 5.78355 0
M  V30 20176 C 1933.51 2.89223 6.01587 0
M  V30 20177 H 1932.78 -0.0723965 0.737455 0
M  V30 20178 H 1935.42 0.522118 1.84245 0
M  V30 20179 H 1933.73 -1.31715 3.68996 0
M  V30 20180 H 1935.43 -0.979874 3.88844 0
M  V30 20181 H 1932.02 0.4029 4.26702 0
M  V30 20182 H 1936.2 1.21893 4.81098 0
M  V30 20183 H 1931.46 2.3648 5.63815 0
M  V30 20184 H 1935.63 3.1796 6.19576 0
M  V30 20185 H 1933.26 3.75842 6.60793 0
M  V30 20186 N 1934.83 -1.57178 0.115259 0
M  V30 20187 C 1936.08 -1.95355 -0.54445 0
M  V30 20188 C 1936.41 -0.998445 -1.66567 0
M  V30 20189 O 1935.69 -0.0349993 -1.94469 0
M  V30 20190 C 1935.97 -3.43502 -1.08067 0
M  V30 20191 C 1935.82 -4.49785 0.0368794 0
M  V30 20192 C 1937.14 -3.9341 -1.97273 0
M  V30 20193 H 1934.26 -0.710338 -0.19644 0
M  V30 20194 H 1936.9 -1.89047 0.19006 0
M  V30 20195 H 1935.05 -3.49008 -1.70662 0
M  V30 20196 H 1936.72 -4.56379 0.672017 0
M  V30 20197 H 1934.97 -4.28106 0.700539 0
M  V30 20198 H 1935.64 -5.50694 -0.379481 0
M  V30 20199 H 1938.11 -3.90184 -1.44555 0
M  V30 20200 H 1936.99 -4.97596 -2.31711 0
M  V30 20201 H 1937.25 -3.33884 -2.89782 0
M  V30 20202 N 1936.31 0.158505 -1.56801 0
M  V30 20203 C 1937.72 0.71972 -1.7227 0
M  V30 20204 C 1938.07 1.822 -0.72784 0
M  V30 20205 O 1937.2 2.1613 0.108043 0
M  V30 20206 C 1937.79 1.31231 -3.12352 0
M  V30 20207 C 1936.35 1.82021 -3.29462 0
M  V30 20208 C 1935.5 0.704157 -2.68211 0
M  V30 20209 H 1938.45 -0.0670395 -1.58558 0
M  V30 20210 H 1938.47 2.18208 -3.11714 0
M  V30 20211 H 1937.98 0.509823 -3.84737 0
M  V30 20212 H 1936.08 2.64873 -2.62056 0
M  V30 20213 H 1936.2 1.95684 -4.37315 0
M  V30 20214 H 1934.56 1.12787 -2.28366 0
M  V30 20215 H 1935.34 -0.0866929 -3.43191 0
M  V30 20216 N 1937.79 1.51692 0.427485 0
M  V30 20217 C 1939.2 1.57214 1.007 0
M  V30 20218 C 1939.55 0.401527 1.92047 0
M  V30 20219 O 1938.68 -0.480464 2.10999 0
M  V30 20220 C 1939.27 2.84927 1.83309 0
M  V30 20221 C 1937.83 2.92989 2.36294 0
M  V30 20222 C 1936.98 2.51977 1.15772 0
M  V30 20223 H 1939.93 1.57326 0.208386 0
M  V30 20224 H 1939.95 2.69245 2.68863 0
M  V30 20225 H 1939.46 3.70108 1.16799 0
M  V30 20226 H 1937.56 2.1226 3.06229 0
M  V30 20227 H 1937.68 3.9685 2.68416 0
M  V30 20228 H 1936.04 2.054 1.50608 0
M  V30 20229 H 1936.82 3.39512 0.508568 0
M  V30 20230 N 1939.27 -0.683564 1.42004 0
M  V30 20231 C 1940.2 -1.80812 1.39221 0
M  V30 20232 C 1941.18 -1.60545 0.25771 0
M  V30 20233 O 1942.36 -1.83135 0.446539 0
M  V30 20234 C 1939.49 -3.17679 1.17463 0
M  V30 20235 C 1938.54 -3.56713 2.33791 0
M  V30 20236 S 1939.37 -3.60144 3.96304 0
M  V30 20237 C 1940.52 -4.99718 3.76872 0
M  V30 20238 H 1940.76 -1.82897 2.34384 0
M  V30 20239 H 1938.29 -0.853409 1.28671 0
M  V30 20240 H 1940.25 -3.96686 1.05597 0
M  V30 20241 H 1938.91 -3.13189 0.239001 0
M  V30 20242 H 1938.1 -4.56174 2.14292 0
M  V30 20243 H 1937.7 -2.85045 2.42127 0
M  V30 20244 H 1940 -5.87555 3.37321 0
M  V30 20245 H 1940.94 -5.24261 4.75979 0
M  V30 20246 H 1941.35 -4.71823 3.09909 0
M  V30 20247 N 1940.75 -1.28031 -0.919012 0
M  V30 20248 C 1941.71 -1.11534 -2.00232 0
M  V30 20249 C 1942.71 -0.0566233 -1.607 0
M  V30 20250 O 1943.9 -0.30196 -1.71563 0
M  V30 20251 C 1941.03 -0.701371 -3.33607 0
M  V30 20252 H 1942.22 -2.0774 -2.16297 0
M  V30 20253 H 1939.78 -1.10942 -1.10098 0
M  V30 20254 H 1940.51 0.261682 -3.23243 0
M  V30 20255 H 1940.3 -1.4661 -3.63659 0
M  V30 20256 H 1941.79 -0.608444 -4.13144 0
M  V30 20257 N 1942.22 1.12672 -1.10194 0
M  V30 20258 C 1943.19 2.16513 -0.751974 0
M  V30 20259 C 1944.19 1.59255 0.222352 0
M  V30 20260 O 1945.38 1.742 -0.000482744 0
M  V30 20261 C 1942.51 3.40711 -0.113421 0
M  V30 20262 H 1943.7 2.48986 -1.67171 0
M  V30 20263 H 1941.25 1.27637 -0.90214 0
M  V30 20264 H 1941.99 3.13836 0.817162 0
M  V30 20265 H 1941.77 3.83545 -0.814599 0
M  V30 20266 H 1943.26 4.1744 0.115756 0
M  V30 20267 N 1943.7 0.89031 1.30043 0
M  V30 20268 C 1944.63 0.377386 2.3043 0
M  V30 20269 C 1945.61 -0.542607 1.61213 0
M  V30 20270 O 1946.8 -0.455328 1.88787 0
M  V30 20271 C 1943.93 -0.404264 3.44939 0
M  V30 20272 C 1942.88 0.424448 4.2589 0
M  V30 20273 C 1942.21 -0.48413 5.32504 0
M  V30 20274 C 1943.51 1.6694 4.94902 0
M  V30 20275 H 1945.2 1.21628 2.73582 0
M  V30 20276 H 1942.75 0.586299 1.31524 0
M  V30 20277 H 1944.7 -0.773769 4.14235 0
M  V30 20278 H 1943.42 -1.27685 3.00606 0
M  V30 20279 H 1942.08 0.776162 3.58289 0
M  V30 20280 H 1941.73 -1.35458 4.84417 0
M  V30 20281 H 1941.43 0.0665939 5.87562 0
M  V30 20282 H 1942.96 -0.850034 6.04654 0
M  V30 20283 H 1944.37 1.37017 5.56686 0
M  V30 20284 H 1942.77 2.16073 5.59851 0
M  V30 20285 H 1943.84 2.41077 4.20725 0
M  V30 20286 N 1945.18 -1.43489 0.651812 0
M  V30 20287 C 1946.09 -2.34564 -0.0413115 0
M  V30 20288 C 1947.11 -1.53803 -0.81368 0
M  V30 20289 O 1948.28 -1.86459 -0.761246 0
M  V30 20290 C 1945.35 -3.32063 -0.996745 0
M  V30 20291 C 1944.41 -4.28728 -0.221464 0
M  V30 20292 C 1943.64 -5.2157 -1.13139 0
M  V30 20293 O 1943.86 -5.18804 -2.37062 0
M  V30 20294 O 1942.8 -5.98856 -0.604552 0
M  V30 20295 H 1946.62 -2.95325 0.708295 0
M  V30 20296 H 1944.21 -1.43607 0.411999 0
M  V30 20297 H 1946.09 -3.92022 -1.54586 0
M  V30 20298 H 1944.77 -2.73807 -1.7266 0
M  V30 20299 H 1943.67 -3.72254 0.371205 0
M  V30 20300 H 1945.01 -4.89962 0.468797 0
M  V30 20301 N 1946.66 -0.393643 -1.52605 0
M  V30 20302 C 1947.57 0.446642 -2.30309 0
M  V30 20303 C 1948.58 1.06758 -1.374 0
M  V30 20304 O 1949.76 1.07246 -1.70471 0
M  V30 20305 C 1946.82 1.5564 -3.09802 0
M  V30 20306 C 1945.89 0.960113 -4.18426 0
M  V30 20307 C 1945.12 2.01698 -4.94119 0
M  V30 20308 O 1945.34 3.23273 -4.69947 0
M  V30 20309 O 1944.28 1.63186 -5.79357 0
M  V30 20310 H 1948.1 -0.186494 -3.03127 0
M  V30 20311 H 1945.69 -0.157245 -1.4857 0
M  V30 20312 H 1947.57 2.201 -3.59352 0
M  V30 20313 H 1946.24 2.17442 -2.39793 0
M  V30 20314 H 1945.15 0.278648 -3.73061 0
M  V30 20315 H 1946.48 0.386245 -4.90682 0
M  V30 20316 N 1948.14 1.57115 -0.123593 0
M  V30 20317 C 1949.08 2.15555 0.824912 0
M  V30 20318 C 1950.05 1.08181 1.2604 0
M  V30 20319 O 1951.24 1.36111 1.3371 0
M  V30 20320 C 1948.38 2.76288 2.06783 0
M  V30 20321 C 1947.49 3.97983 1.68029 0
M  V30 20322 C 1946.63 4.46788 2.87322 0
M  V30 20323 C 1945.66 5.61004 2.44829 0
M  V30 20324 N 1944.8 6.04532 3.57052 0
M  V30 20325 H 1949.64 2.9628 0.319726 0
M  V30 20326 H 1947.18 1.46372 0.14612 0
M  V30 20327 H 1949.14 3.09632 2.79613 0
M  V30 20328 H 1947.77 1.98245 2.54752 0
M  V30 20329 H 1946.82 3.70769 0.850542 0
M  V30 20330 H 1948.13 4.80796 1.32804 0
M  V30 20331 H 1947.28 4.82066 3.68372 0
M  V30 20332 H 1946.02 3.62934 3.25776 0
M  V30 20333 H 1945.03 5.25326 1.62213 0
M  V30 20334 H 1946.25 6.46627 2.07487 0
M  V30 20335 H 1944.2 5.23618 3.95171 0
M  V30 20336 H 1944.12 6.82212 3.25766 0
M  V30 20337 H 1945.38 6.44449 4.38527 0
M  V30 20338 N 1949.61 -0.150187 1.56883 0
M  V30 20339 C 1950.86 -0.86163 1.82812 0
M  V30 20340 C 1951.18 -1.81849 0.703977 0
M  V30 20341 O 1950.45 -1.93966 -0.274616 0
M  V30 20342 H 1949.03 -0.321175 0.67443 0
M  V30 20343 H 1951.69 -0.144952 1.9436 0
M  V30 20344 H 1950.79 -1.4258 2.77628 0
M  V30 20345 N 1951.09 -1.51916 -0.419434 0
M  V30 20346 C 1952.34 -1.64698 -1.16436 0
M  V30 20347 C 1952.65 -0.377878 -1.91915 0
M  V30 20348 O 1953.86 -0.385341 -2.68752 0
M  V30 20349 C 1952.32 -2.90939 -2.11854 0
M  V30 20350 C 1951.92 -4.2492 -1.4194 0
M  V30 20351 C 1953.67 -3.13083 -2.86669 0
M  V30 20352 C 1951.58 -5.42294 -2.35946 0
M  V30 20353 H 1950.51 -0.613496 -0.438337 0
M  V30 20354 H 1953.16 -1.78397 -0.429738 0
M  V30 20355 H 1951.54 -2.70916 -2.88826 0
M  V30 20356 H 1952.71 -4.5539 -0.70403 0
M  V30 20357 H 1951.03 -4.08797 -0.792071 0
M  V30 20358 H 1953.62 -3.97951 -3.57127 0
M  V30 20359 H 1953.97 -2.26891 -3.49036 0
M  V30 20360 H 1954.5 -3.33531 -2.168 0
M  V30 20361 H 1951.24 -6.30801 -1.78242 0
M  V30 20362 H 1950.76 -5.16177 -3.05485 0
M  V30 20363 H 1952.44 -5.74962 -2.96695 0
M  V30 20364 N 1952.57 0.676023 -1.42365 0
M  V30 20365 C 1953.5 1.80165 -1.48536 0
M  V30 20366 C 1954.48 1.66625 -0.342049 0
M  V30 20367 O 1955.67 1.86065 -0.55619 0
M  V30 20368 C 1952.8 3.18451 -1.38586 0
M  V30 20369 C 1951.75 3.46724 -2.50931 0
M  V30 20370 C 1951.08 4.84572 -2.2604 0
M  V30 20371 C 1952.38 3.4374 -3.93243 0
M  V30 20372 H 1954.07 1.75258 -2.42745 0
M  V30 20373 H 1951.62 0.841756 -1.16835 0
M  V30 20374 H 1953.57 3.96929 -1.41511 0
M  V30 20375 H 1952.29 3.24033 -0.408703 0
M  V30 20376 H 1950.95 2.70607 -2.47321 0
M  V30 20377 H 1950.6 4.86802 -1.2662 0
M  V30 20378 H 1950.3 5.04452 -3.01334 0
M  V30 20379 H 1951.82 5.65336 -2.30712 0
M  V30 20380 H 1953.24 4.12189 -3.98463 0
M  V30 20381 H 1951.64 3.75155 -4.68379 0
M  V30 20382 H 1952.71 2.42337 -4.20001 0
M  V30 20383 N 1954.05 1.28517 0.912209 0
M  V30 20384 C 1955.3 1.15761 1.6615 0
M  V30 20385 C 1955.62 -0.293495 1.92273 0
M  V30 20386 O 1954.88 -1.22975 1.52235 0
M  V30 20387 C 1955.18 1.90307 3.02519 0
M  V30 20388 C 1954.84 3.40095 2.96051 0
M  V30 20389 C 1953.51 3.80948 2.93994 0
M  V30 20390 C 1955.86 4.35601 2.86185 0
M  V30 20391 C 1953.19 5.15643 2.79873 0
M  V30 20392 C 1955.54 5.70371 2.73604 0
M  V30 20393 C 1954.2 6.10497 2.69906 0
M  V30 20394 H 1953.47 0.423598 0.607985 0
M  V30 20395 H 1956.12 1.59309 1.06268 0
M  V30 20396 H 1954.42 1.39312 3.66196 0
M  V30 20397 H 1956.12 1.77852 3.59402 0
M  V30 20398 H 1952.71 3.07615 2.98447 0
M  V30 20399 H 1956.89 4.05 2.8686 0
M  V30 20400 H 1952.15 5.45858 2.75407 0
M  V30 20401 H 1956.32 6.44035 2.64939 0
M  V30 20402 H 1953.95 7.1482 2.58722 0
M  V30 20403 N 1955.53 -1.12086 1.1079 0
M  V30 20404 C 1956.75 -1.87493 0.874862 0
M  V30 20405 C 1957.17 -1.79834 -0.574907 0
M  V30 20406 O 1956.53 -1.17483 -1.39657 0
M  V30 20407 C 1956.58 -3.36566 1.3193 0
M  V30 20408 O 1956.3 -3.4405 2.71222 0
M  V30 20409 C 1957.8 -4.289 1.12069 0
M  V30 20410 H 1955.02 -0.593122 0.313764 0
M  V30 20411 H 1957.56 -1.41803 1.4735 0
M  V30 20412 H 1955.72 -3.79787 0.764254 0
M  V30 20413 H 1956.13 -4.36824 2.90319 0
M  V30 20414 H 1957.61 -5.31768 1.48076 0
M  V30 20415 H 1958.08 -4.3916 0.0596432 0
M  V30 20416 H 1958.69 -3.91465 1.66238 0
M  V30 20417 N 1957 -0.897194 -1.29569 0
M  V30 20418 C 1958.23 -0.536465 -2.00342 0
M  V30 20419 C 1958.65 0.87088 -1.66725 0
M  V30 20420 O 1958.01 1.57924 -0.890492 0
M  V30 20421 C 1958.06 -0.732781 -3.53076 0
M  V30 20422 O 1957.16 0.215848 -4.11835 0
M  V30 20423 H 1956.51 -0.209904 -0.62995 0
M  V30 20424 H 1959.04 -1.20809 -1.65125 0
M  V30 20425 H 1959.05 -0.636468 -4.03005 0
M  V30 20426 H 1957.72 -1.75882 -3.7688 0
M  V30 20427 H 1956.3 0.0722012 -3.7283 0
M  V30 20428 N 1958.48 1.43142 -0.659413 0
M  V30 20429 C 1959.41 2.33495 0.0147266 0
M  V30 20430 C 1960.39 1.49819 0.805493 0
M  V30 20431 O 1961.58 1.78466 0.765732 0
M  V30 20432 C 1958.71 3.33261 0.977483 0
M  V30 20433 C 1957.66 4.26972 0.296396 0
M  V30 20434 C 1956.99 5.16824 1.37103 0
M  V30 20435 C 1958.29 5.15901 -0.815063 0
M  V30 20436 H 1959.98 2.90115 -0.739837 0
M  V30 20437 H 1957.53 1.39499 -0.357229 0
M  V30 20438 H 1959.48 3.95372 1.45805 0
M  V30 20439 H 1958.21 2.74911 1.76328 0
M  V30 20440 H 1956.86 3.66234 -0.16379 0
M  V30 20441 H 1956.51 4.5481 2.14842 0
M  V30 20442 H 1956.21 5.80345 0.920528 0
M  V30 20443 H 1957.74 5.81809 1.85284 0
M  V30 20444 H 1959.15 5.71786 -0.416382 0
M  V30 20445 H 1957.55 5.88175 -1.19041 0
M  V30 20446 H 1958.62 4.5522 -1.67042 0
M  V30 20447 N 1959.96 0.40173 1.52394 0
M  V30 20448 C 1961.21 -0.176458 2.0173 0
M  V30 20449 C 1961.54 -1.45771 1.28768 0
M  V30 20450 O 1960.79 -1.9197 0.380249 0
M  V30 20451 C 1961.09 -0.478372 3.54184 0
M  V30 20452 C 1960.76 0.712798 4.4523 0
M  V30 20453 C 1959.42 1.03955 4.69837 0
M  V30 20454 C 1961.77 1.5091 4.98874 0
M  V30 20455 C 1959.1 2.16392 5.45336 0
M  V30 20456 C 1961.45 2.62418 5.75604 0
M  V30 20457 C 1960.11 2.95587 5.98485 0
M  V30 20458 H 1959.38 -0.0645707 0.738181 0
M  V30 20459 H 1962.03 0.541631 1.83681 0
M  V30 20460 H 1960.34 -1.27794 3.70373 0
M  V30 20461 H 1962.03 -0.938577 3.89861 0
M  V30 20462 H 1958.62 0.448135 4.26251 0
M  V30 20463 H 1962.81 1.26989 4.79779 0
M  V30 20464 H 1958.06 2.42447 5.61275 0
M  V30 20465 H 1962.24 3.24513 6.16169 0
M  V30 20466 H 1959.86 3.82829 6.56769 0
M  V30 20467 N 1961.44 -1.57047 0.131923 0
M  V30 20468 C 1962.68 -1.95921 -0.5237 0
M  V30 20469 C 1963.02 -1.01606 -1.65499 0
M  V30 20470 O 1962.29 -0.0556233 -1.9442 0
M  V30 20471 C 1962.58 -3.44629 -1.04418 0
M  V30 20472 C 1962.43 -4.4972 0.084583 0
M  V30 20473 C 1963.75 -3.9548 -1.93089 0
M  V30 20474 H 1960.87 -0.712382 -0.188894 0
M  V30 20475 H 1963.51 -1.88835 0.2101 0
M  V30 20476 H 1961.66 -3.50799 -1.6695 0
M  V30 20477 H 1963.33 -4.5564 0.720384 0
M  V30 20478 H 1961.57 -4.27339 0.745906 0
M  V30 20479 H 1962.24 -5.51066 -0.321051 0
M  V30 20480 H 1964.72 -3.91695 -1.40408 0
M  V30 20481 H 1963.6 -5.00025 -2.2642 0
M  V30 20482 H 1963.86 -3.36939 -2.86224 0
M  V30 20483 N 1962.92 0.141865 -1.5696 0
M  V30 20484 C 1963.85 1.17667 -2.01685 0
M  V30 20485 C 1964.83 1.44509 -0.897282 0
M  V30 20486 O 1966.01 1.55342 -1.16544 0
M  V30 20487 C 1963.14 2.50859 -2.40182 0
M  V30 20488 C 1962.1 2.38527 -3.55371 0
M  V30 20489 C 1961.42 3.76476 -3.79697 0
M  V30 20490 C 1962.72 1.86502 -4.87867 0
M  V30 20491 H 1964.42 0.804761 -2.88382 0
M  V30 20492 H 1961.96 0.385672 -1.38739 0
M  V30 20493 H 1963.92 3.2348 -2.70071 0
M  V30 20494 H 1962.64 2.89895 -1.50428 0
M  V30 20495 H 1961.3 1.68357 -3.25656 0
M  V30 20496 H 1960.95 4.12957 -2.87186 0
M  V30 20497 H 1960.65 3.69085 -4.5722 0
M  V30 20498 H 1962.17 4.50638 -4.12017 0
M  V30 20499 H 1963.58 2.48921 -5.16441 0
M  V30 20500 H 1961.98 1.89989 -5.69231 0
M  V30 20501 H 1963.05 0.821025 -4.77899 0
M  V30 20502 N 1964.39 1.52136 0.411372 0
M  V30 20503 C 1965.36 1.74698 1.48369 0
M  V30 20504 C 1966.36 0.616863 1.48497 0
M  V30 20505 O 1967.55 0.884716 1.50061 0
M  V30 20506 C 1964.68 1.82729 2.8779 0
M  V30 20507 H 1965.87 2.70424 1.29658 0
M  V30 20508 H 1963.43 1.42519 0.641725 0
M  V30 20509 H 1964.16 0.889096 3.11874 0
M  V30 20510 H 1963.95 2.64884 2.891 0
M  V30 20511 H 1965.44 2.01934 3.6553 0
M  V30 20512 N 1965.87 -0.668464 1.42721 0
M  V30 20513 C 1967.1 -1.46158 1.47148 0
M  V30 20514 C 1967.52 -1.87903 0.0860652 0
M  V30 20515 O 1966.88 -1.56406 -0.91689 0
M  V30 20516 C 1966.93 -2.68284 2.40949 0
M  V30 20517 O 1966.03 -3.66787 1.88522 0
M  V30 20518 H 1965.37 -0.438842 0.498311 0
M  V30 20519 H 1967.9 -0.819353 1.87477 0
M  V30 20520 H 1967.91 -3.1628 2.57742 0
M  V30 20521 H 1966.59 -2.3724 3.41599 0
M  V30 20522 H 1965.17 -3.25851 1.81315 0
M  V30 20523 N 1967.35 -1.28999 -0.905381 0
M  V30 20524 C 1968.58 -1.19512 -1.68892 0
M  V30 20525 C 1968.99 0.245073 -1.87203 0
M  V30 20526 O 1968.35 1.16474 -1.405 0
M  V30 20527 C 1968.4 -1.89822 -3.07652 0
M  V30 20528 O 1968.12 -3.28217 -2.90181 0
M  V30 20529 C 1969.62 -1.86742 -4.02048 0
M  V30 20530 H 1966.84 -0.414483 -0.527678 0
M  V30 20531 H 1969.39 -1.70271 -1.1326 0
M  V30 20532 H 1967.54 -1.42913 -3.60076 0
M  V30 20533 H 1967.96 -3.63549 -3.78064 0
M  V30 20534 H 1969.43 -2.40512 -4.96848 0
M  V30 20535 H 1969.91 -0.841659 -4.3106 0
M  V30 20536 H 1970.51 -2.33369 -3.55555 0
M  V30 20537 N 1968.83 1.11497 -1.11383 0
M  V30 20538 C 1969.78 2.19602 -0.766658 0
M  V30 20539 C 1970.77 1.67668 0.241612 0
M  V30 20540 O 1971.98 1.79717 0.100956 0
M  V30 20541 H 1968.35 0.715952 -0.230037 0
M  V30 20542 H 1970.32 2.46131 -1.68707 0
M  V30 20543 C 1969.07 3.46968 -0.225442 0
M  V30 20544 H 1968.4 3.87284 -0.992544 0
M  V30 20545 H 1969.84 4.23995 -0.0207066 0
M  V30 20546 C 1968.29 3.20311 1.04414 0
M  V30 20547 O 1968.82 3.40956 2.12395 0
M  V30 20548 N 1967.03 2.7405 0.966692 0
M  V30 20549 H 1966.58 2.5745 0.0878667 0
M  V30 20550 H 1966.54 2.56591 1.81682 0
M  V30 20551 N 1970.31 0.904053 1.29092 0
M  V30 20552 C 1971.27 0.389889 2.25859 0
M  V30 20553 C 1972.27 -0.47836 1.5352 0
M  V30 20554 O 1973.46 -0.282793 1.71889 0
M  V30 20555 C 1970.59 -0.442126 3.38021 0
M  V30 20556 H 1971.79 1.24458 2.72856 0
M  V30 20557 H 1969.34 0.68258 1.40608 0
M  V30 20558 H 1970.07 -1.31662 2.96371 0
M  V30 20559 H 1969.86 0.180067 3.91686 0
M  V30 20560 H 1971.35 -0.793021 4.10001 0
M  V30 20561 N 1971.79 -1.4279 0.666995 0
M  V30 20562 C 1973.03 -2.01245 0.185662 0
M  V30 20563 C 1973.35 -1.52966 -1.2094 0
M  V30 20564 O 1972.62 -0.748036 -1.81056 0
M  V30 20565 H 1971.2 -0.74411 0.0656484 0
M  V30 20566 H 1973.87 -1.74814 0.861754 0
M  V30 20567 H 1972.96 -3.11575 0.180905 0
M  V30 20568 N 1973.26 -0.409806 -1.52179 0
M  V30 20569 C 1974.49 0.167702 -2.06721 0
M  V30 20570 C 1974.91 1.38034 -1.27782 0
M  V30 20571 O 1974.27 1.7866 -0.308244 0
M  V30 20572 C 1974.32 0.495862 -3.57174 0
M  V30 20573 O 1973.42 1.58675 -3.80652 0
M  V30 20574 H 1972.76 0.013908 -0.663854 0
M  V30 20575 H 1975.29 -0.583201 -1.96112 0
M  V30 20576 H 1975.3 0.754301 -4.00967 0
M  V30 20577 H 1973.98 -0.390588 -4.14062 0
M  V30 20578 H 1972.56 1.32042 -3.48739 0
M  V30 20579 N 1974.74 1.56975 -0.14025 0
M  V30 20580 C 1975.99 1.95081 0.512469 0
M  V30 20581 C 1976.3 1.02722 1.66456 0
M  V30 20582 O 1977.51 1.3038 2.38146 0
M  V30 20583 C 1975.97 3.46775 0.963057 0
M  V30 20584 C 1975.57 4.47708 -0.161733 0
M  V30 20585 C 1977.32 3.93761 1.58595 0
M  V30 20586 C 1975.22 5.90604 0.306746 0
M  V30 20587 H 1974.15 0.72829 0.195216 0
M  V30 20588 H 1976.81 1.82134 -0.223514 0
M  V30 20589 H 1975.19 3.55032 1.7541 0
M  V30 20590 H 1976.36 4.51141 -0.938529 0
M  V30 20591 H 1974.68 4.10599 -0.692608 0
M  V30 20592 H 1977.27 4.97954 1.94796 0
M  V30 20593 H 1977.62 3.34931 2.47238 0
M  V30 20594 H 1978.15 3.88394 0.859928 0
M  V30 20595 H 1974.89 6.53238 -0.544152 0
M  V30 20596 H 1974.41 5.90546 1.04956 0
M  V30 20597 H 1976.09 6.42509 0.760989 0
M  V30 20598 N 1976.22 -0.133539 1.57033 0
M  V30 20599 C 1977.17 -1.18356 2.00237 0
M  V30 20600 C 1978.16 -1.43708 0.896902 0
M  V30 20601 O 1979.37 -1.43842 1.0821 0
M  V30 20602 H 1975.74 -0.398709 0.637601 0
M  V30 20603 H 1977.71 -0.792575 2.87682 0
M  V30 20604 C 1976.46 -2.50593 2.41036 0
M  V30 20605 H 1975.79 -2.31919 3.25659 0
M  V30 20606 H 1977.23 -3.22659 2.75077 0
M  V30 20607 C 1975.68 -3.12117 1.26826 0
M  V30 20608 O 1976.21 -3.97545 0.576298 0
M  V30 20609 N 1974.42 -2.7177 1.02904 0
M  V30 20610 H 1973.97 -2.02398 1.59352 0
M  V30 20611 H 1973.93 -3.13266 0.266798 0
M  V30 20612 N 1977.7 -1.52352 -0.403298 0
M  V30 20613 C 1978.66 -1.75482 -1.4744 0
M  V30 20614 C 1979.66 -0.62473 -1.48168 0
M  V30 20615 O 1980.85 -0.892662 -1.4959 0
M  V30 20616 C 1977.98 -1.84253 -2.86817 0
M  V30 20617 H 1979.18 -2.71107 -1.28222 0
M  V30 20618 H 1976.73 -1.42857 -0.634157 0
M  V30 20619 H 1977.46 -0.905623 -3.11398 0
M  V30 20620 H 1977.25 -2.66414 -2.87691 0
M  V30 20621 H 1978.74 -2.03869 -3.64454 0
M  V30 20622 N 1979.18 0.660885 -1.43074 0
M  V30 20623 C 1980.59 1.24187 -1.39407 0
M  V30 20624 C 1980.94 1.95973 -0.0942854 0
M  V30 20625 O 1980.06 2.00808 0.80654 0
M  V30 20626 C 1980.66 2.25865 -2.52528 0
M  V30 20627 C 1979.22 2.79459 -2.5215 0
M  V30 20628 C 1978.36 1.53984 -2.30617 0
M  V30 20629 H 1981.31 0.453383 -1.52086 0
M  V30 20630 H 1981.34 3.07886 -2.23577 0
M  V30 20631 H 1980.85 1.73589 -3.47114 0
M  V30 20632 H 1978.95 3.35818 -1.61422 0
M  V30 20633 H 1979.06 3.27526 -3.49662 0
M  V30 20634 H 1977.43 1.81056 -1.79139 0
M  V30 20635 H 1978.21 1.03654 -3.27278 0
M  V30 20636 N 1980.65 1.29477 0.898527 0
M  V30 20637 C 1981.88 1.20406 1.68255 0
M  V30 20638 C 1982.3 -0.235141 1.8733 0
M  V30 20639 O 1981.65 -1.15727 1.41115 0
M  V30 20640 C 1981.71 1.91451 3.06641 0
M  V30 20641 O 1981.43 3.29751 2.88437 0
M  V30 20642 C 1982.93 1.88871 4.01052 0
M  V30 20643 H 1980.15 0.417276 0.525473 0
M  V30 20644 H 1982.69 1.7087 1.12356 0
M  V30 20645 H 1980.85 1.4482 3.59313 0
M  V30 20646 H 1981.26 3.65548 3.76131 0
M  V30 20647 H 1982.73 2.43144 4.95566 0
M  V30 20648 H 1983.21 0.864507 4.30608 0
M  V30 20649 H 1983.82 2.35251 3.54312 0
M  V30 20650 N 1982.13 -1.10905 1.11972 0
M  V30 20651 C 1983.38 -1.83033 0.873311 0
M  V30 20652 C 1983.71 -1.84716 -0.599472 0
M  V30 20653 O 1982.99 -1.30427 -1.44288 0
M  V30 20654 C 1983.27 -3.29941 1.44261 0
M  V30 20655 C 1983.12 -3.36619 2.98341 0
M  V30 20656 C 1984.44 -4.26179 1.09815 0
M  V30 20657 H 1981.56 -0.664529 0.318701 0
M  V30 20658 H 1984.2 -1.30012 1.38553 0
M  V30 20659 H 1982.35 -3.75223 1.00697 0
M  V30 20660 H 1984.02 -2.99854 3.5055 0
M  V30 20661 H 1982.27 -2.76668 3.34122 0
M  V30 20662 H 1982.94 -4.40043 3.33266 0
M  V30 20663 H 1985.41 -3.89105 1.47433 0
M  V30 20664 H 1984.29 -5.27343 1.52318 0
M  V30 20665 H 1984.55 -4.42099 0.00966838 0
M  V30 20666 N 1983.61 -0.910886 -1.2861 0
M  V30 20667 C 1984.84 -0.557684 -1.99761 0
M  V30 20668 C 1985.26 0.853148 -1.67639 0
M  V30 20669 O 1984.62 1.5697 -0.907192 0
M  V30 20670 C 1984.67 -0.770188 -3.52279 0
M  V30 20671 O 1983.77 0.172155 -4.12041 0
M  V30 20672 H 1983.11 -0.216573 -0.627688 0
M  V30 20673 H 1985.64 -1.22554 -1.63834 0
M  V30 20674 H 1985.65 -0.679176 -4.02307 0
M  V30 20675 H 1984.33 -1.79869 -3.74993 0
M  V30 20676 H 1982.9 0.0326535 -3.72886 0
M  V30 20677 N 1985.09 1.42434 -0.674558 0
M  V30 20678 C 1986.37 1.95196 -0.125683 0
M  V30 20679 C 1986.75 1.61499 1.35946 0
M  V30 20680 O 1986.09 0.911023 2.09553 0
M  V30 20681 C 1986.3 3.46762 -0.39457 0
M  V30 20682 C 1987.65 4.2346 -0.310951 0
M  V30 20683 O 1988.68 3.54684 -0.328304 0
M  V30 20684 O 1987.53 5.45914 -0.252937 0
M  V30 20685 H 1984.63 0.826995 -0.00272875 0
M  V30 20686 H 1987.17 1.52263 -0.749271 0
M  V30 20687 H 1985.95 3.64493 -1.42339 0
M  V30 20688 H 1985.57 3.96742 0.261037 0
M  V30 20689 N 1986.57 0.417871 1.51959 0
M  V30 20690 C 1987.79 -0.156736 2.06807 0
M  V30 20691 C 1988.22 -1.37354 1.28512 0
M  V30 20692 O 1987.57 -1.78494 0.317715 0
M  V30 20693 C 1987.62 -0.476913 3.57432 0
M  V30 20694 O 1986.73 -1.56654 3.81488 0
M  V30 20695 H 1986.07 -0.0103873 0.663919 0
M  V30 20696 H 1988.6 0.593593 1.958 0
M  V30 20697 H 1988.61 -0.733026 4.01361 0
M  V30 20698 H 1987.28 0.412542 4.13849 0
M  V30 20699 H 1985.86 -1.30191 3.49435 0
M  V30 20700 N 1988.04 -1.56898 0.148573 0
M  V30 20701 C 1989.46 -1.58241 -0.207826 0
M  V30 20702 C 1989.66 -1.16291 -1.64556 0
M  V30 20703 O 1988.72 -0.863939 -2.3726 0
M  V30 20704 C 1990.03 -3.00654 0.0523559 0
M  V30 20705 C 1991.58 -3.12998 -0.0112297 0
M  V30 20706 C 1992.05 -4.57463 0.221641 0
M  V30 20707 N 1993.54 -4.62893 0.168624 0
M  V30 20708 C 1994.28 -5.72488 0.323296 0
M  V30 20709 N 1993.77 -6.90725 0.535776 0
M  V30 20710 N 1995.57 -5.61495 0.26079 0
M  V30 20711 H 1987.72 -1.82459 1.08731 0
M  V30 20712 H 1989.98 -0.8446 0.430529 0
M  V30 20713 H 1989.69 -3.3574 1.04745 0
M  V30 20714 H 1989.56 -3.71268 -0.666346 0
M  V30 20715 H 1991.95 -2.77752 -0.996873 0
M  V30 20716 H 1992.03 -2.44868 0.739826 0
M  V30 20717 H 1991.67 -4.93413 1.20439 0
M  V30 20718 H 1991.6 -5.23722 -0.549756 0
M  V30 20719 H 1994.09 -3.77899 0.00911581 0
M  V30 20720 H 1994.41 -7.70113 0.643862 0
M  V30 20721 H 1992.75 -6.92641 0.572117 0
M  V30 20722 H 1995.94 -4.68002 0.095543 0
M  V30 20723 H 1996.12 -6.46857 0.384765 0
M  V30 20724 N 1989.52 0.125209 -1.57102 0
M  V30 20725 C 1990.49 1.13792 -1.98957 0
M  V30 20726 C 1991.49 1.34656 -0.878887 0
M  V30 20727 O 1992.68 1.31278 -1.14506 0
M  V30 20728 C 1989.81 2.49371 -2.32437 0
M  V30 20729 H 1991 0.778319 -2.89624 0
M  V30 20730 H 1988.55 0.369299 -1.51875 0
M  V30 20731 H 1989.29 2.90263 -1.4463 0
M  V30 20732 H 1989.07 2.35583 -3.13437 0
M  V30 20733 H 1990.56 3.22268 -2.65581 0
M  V30 20734 N 1991 1.52564 0.395213 0
M  V30 20735 C 1991.93 1.79867 1.48897 0
M  V30 20736 C 1992.91 0.650351 1.57176 0
M  V30 20737 O 1994.1 0.897328 1.72226 0
M  V30 20738 C 1991.23 1.96192 2.86576 0
M  V30 20739 C 1990.18 3.11854 2.9314 0
M  V30 20740 C 1989.51 3.13424 4.33208 0
M  V30 20741 C 1990.81 4.51046 2.63353 0
M  V30 20742 H 1992.5 2.71457 1.26299 0
M  V30 20743 H 1990.05 1.30621 0.606145 0
M  V30 20744 H 1992 2.13875 3.63091 0
M  V30 20745 H 1990.72 1.01286 3.10498 0
M  V30 20746 H 1989.38 2.93944 2.19072 0
M  V30 20747 H 1989.03 2.16212 4.5416 0
M  V30 20748 H 1988.73 3.91117 4.38522 0
M  V30 20749 H 1990.25 3.33254 5.11639 0
M  V30 20750 H 1991.67 4.6909 3.29587 0
M  V30 20751 H 1990.07 5.3076 2.80024 0
M  V30 20752 H 1991.14 4.58187 1.58722 0
M  V30 20753 N 1992.48 -0.653289 1.43422 0
M  V30 20754 C 1993.44 -1.74802 1.48246 0
M  V30 20755 C 1994.44 -1.56552 0.367179 0
M  V30 20756 O 1995.63 -1.62451 0.628923 0
M  V30 20757 C 1992.76 -3.13673 1.33499 0
M  V30 20758 H 1993.96 -1.71906 2.4574 0
M  V30 20759 H 1991.51 -0.864936 1.30187 0
M  V30 20760 H 1992.24 -3.22181 0.370118 0
M  V30 20761 H 1992.03 -3.28325 2.14348 0
M  V30 20762 H 1993.52 -3.93502 1.39806 0
M  V30 20763 N 1993.96 -1.29952 -0.891648 0
M  V30 20764 C 1995.37 -1.08138 -1.17381 0
M  V30 20765 C 1995.57 0.162165 -2.00846 0
M  V30 20766 O 1994.63 0.857667 -2.37488 0
M  V30 20767 C 1995.94 -2.34125 -1.88695 0
M  V30 20768 C 1997.49 -2.39524 -2.01487 0
M  V30 20769 C 1997.96 -3.65336 -2.76213 0
M  V30 20770 N 1999.46 -3.66105 -2.83762 0
M  V30 20771 C 2000.19 -4.6014 -3.42139 0
M  V30 20772 N 1999.69 -5.64513 -4.01617 0
M  V30 20773 N 2001.48 -4.47695 -3.3989 0
M  V30 20774 H 1993.63 -2.09742 -0.334958 0
M  V30 20775 H 1995.89 -0.924239 -0.210916 0
M  V30 20776 H 1995.6 -3.24839 -1.34805 0
M  V30 20777 H 1995.47 -2.42258 -2.89121 0
M  V30 20778 H 1997.86 -1.49293 -2.5455 0
M  V30 20779 H 1997.94 -2.35371 -1.0017 0
M  V30 20780 H 1997.59 -4.55922 -2.23824 0
M  V30 20781 H 1997.52 -3.66749 -3.77893 0
M  V30 20782 H 2000.01 -2.90643 -2.41526 0
M  V30 20783 H 2000.32 -6.32376 -4.44207 0
M  V30 20784 H 1998.66 -5.68313 -4.00056 0
M  V30 20785 H 2001.86 -3.65343 -2.92647 0
M  V30 20786 H 2002.03 -5.21162 -3.85089 0
M  V30 20787 N 1995.44 1.1031 -1.12559 0
M  V30 20788 C 1996.85 1.34325 -0.861911 0
M  V30 20789 C 1997.05 1.95009 0.507319 0
M  V30 20790 O 1996.11 2.1906 1.25574 0
M  V30 20791 C 1997.42 2.26367 -1.97935 0
M  V30 20792 C 1998.97 2.39901 -2.01039 0
M  V30 20793 C 1999.44 3.35273 -3.1202 0
M  V30 20794 N 2000.93 3.42841 -3.11471 0
M  V30 20795 C 2001.67 4.16611 -3.93983 0
M  V30 20796 N 2001.17 4.93256 -4.86488 0
M  V30 20797 N 2002.96 4.12243 -3.82116 0
M  V30 20798 H 1995.11 0.692899 -2.0078 0
M  V30 20799 H 1997.37 0.367689 -0.87379 0
M  V30 20800 H 1997.08 1.8899 -2.96607 0
M  V30 20801 H 1996.95 3.26685 -1.88565 0
M  V30 20802 H 1999.34 2.76546 -1.02986 0
M  V30 20803 H 1999.42 1.39393 -2.14484 0
M  V30 20804 H 1999.06 2.99352 -4.10306 0
M  V30 20805 H 1998.99 4.35663 -2.95813 0
M  V30 20806 H 2001.49 2.88182 -2.44457 0
M  V30 20807 H 2001.8 5.46948 -5.45956 0
M  V30 20808 H 2000.14 4.92376 -4.90501 0
M  V30 20809 H 2003.33 3.5146 -3.09182 0
M  V30 20810 H 2003.51 4.69475 -4.46651 0
M  V30 20811 N 1996.91 0.917694 1.28125 0
M  V30 20812 C 1998.16 0.552896 1.94806 0
M  V30 20813 C 1998.49 -0.904113 1.72209 0
M  V30 20814 O 1997.74 -1.65876 1.03844 0
M  V30 20815 C 1998.04 0.813214 3.48025 0
M  V30 20816 C 1997.71 2.25039 3.90728 0
M  V30 20817 C 1996.37 2.64331 4.02098 0
M  V30 20818 C 1998.72 3.18545 4.12527 0
M  V30 20819 C 1996.05 3.96274 4.32647 0
M  V30 20820 C 1998.4 4.50058 4.44557 0
M  V30 20821 C 1997.07 4.89198 4.54138 0
M  V30 20822 H 1996.34 0.202319 0.712845 0
M  V30 20823 H 1998.98 1.15976 1.52387 0
M  V30 20824 H 1997.29 0.123579 3.91605 0
M  V30 20825 H 1998.99 0.510076 3.97743 0
M  V30 20826 H 1995.58 1.93551 3.82408 0
M  V30 20827 H 1999.76 2.89395 4.03192 0
M  V30 20828 H 1995.02 4.26295 4.38272 0
M  V30 20829 H 1999.19 5.22523 4.60372 0
M  V30 20830 H 1996.82 5.91469 4.77565 0
M  V30 20831 N 1998.39 -1.42074 0.682102 0
M  V30 20832 C 1999.34 -2.27995 -0.0145854 0
M  V30 20833 C 2000.33 -1.4148 -0.766303 0
M  V30 20834 O 2001.52 -1.64868 -0.644013 0
M  V30 20835 C 1998.65 -3.29606 -0.959932 0
M  V30 20836 C 1997.73 -4.23603 -0.205172 0
M  V30 20837 N 1998.12 -4.99531 0.793859 0
M  V30 20838 C 1996.42 -4.43799 -0.442582 0
M  V30 20839 C 1997.12 -5.68232 1.24447 0
M  V30 20840 N 1996.1 -5.40572 0.572991 0
M  V30 20841 H 1999.9 -2.84127 0.751591 0
M  V30 20842 H 1997.41 -1.54125 0.511785 0
M  V30 20843 H 1999.41 -3.8997 -1.47408 0
M  V30 20844 H 1998.07 -2.75035 -1.72585 0
M  V30 20845 H 1999.08 -5.04426 1.17365 0
M  V30 20846 H 1995.76 -4.00258 -1.18744 0
M  V30 20847 H 1997.15 -6.3913 2.07273 0
M  V30 20848 N 1999.87 -0.425924 -1.51735 0
M  V30 20849 C 2001.12 0.144343 -2.01985 0
M  V30 20850 C 2001.44 1.43704 -1.31071 0
M  V30 20851 O 2000.7 1.91341 -0.410741 0
M  V30 20852 C 2001 0.421964 -3.549 0
M  V30 20853 C 2000.66 -0.78354 -4.4404 0
M  V30 20854 C 1999.33 -1.11416 -4.68124 0
M  V30 20855 C 2001.68 -1.58827 -4.9641 0
M  V30 20856 C 1999.01 -2.25041 -5.41824 0
M  V30 20857 C 2001.36 -2.71542 -5.71356 0
M  V30 20858 C 2000.02 -3.05071 -5.93707 0
M  V30 20859 H 1999.29 0.0528187 -0.739115 0
M  V30 20860 H 2001.94 -0.570784 -1.82796 0
M  V30 20861 H 2000.24 1.21885 -3.72359 0
M  V30 20862 H 2001.94 0.876435 -3.91305 0
M  V30 20863 H 1998.53 -0.515891 -4.25484 0
M  V30 20864 H 2002.72 -1.34606 -4.77698 0
M  V30 20865 H 1997.97 -2.51346 -5.57347 0
M  V30 20866 H 2002.15 -3.34275 -6.10928 0
M  V30 20867 H 1999.77 -3.93229 -6.50596 0
M  V30 20868 N 2001.35 1.56817 -0.156891 0
M  V30 20869 C 2002.62 1.88075 0.537326 0
M  V30 20870 C 2003 1.06447 1.82297 0
M  V30 20871 O 2002.35 0.154147 2.27979 0
M  V30 20872 C 2002.56 3.39866 0.79321 0
M  V30 20873 C 2003.91 4.09298 1.12961 0
M  V30 20874 O 2004.93 3.45102 0.882235 0
M  V30 20875 O 2003.79 5.22688 1.59561 0
M  V30 20876 H 2000.89 0.779855 0.275236 0
M  V30 20877 H 2003.43 1.68585 -0.194246 0
M  V30 20878 H 2002.21 3.91127 -0.11626 0
M  V30 20879 H 2001.83 3.64919 1.57861 0
M  V30 20880 N 2002.83 -0.116876 1.57166 0
M  V30 20881 C 2003.76 -1.1737 1.95702 0
M  V30 20882 C 2004.74 -1.39998 0.826998 0
M  V30 20883 O 2005.92 -1.54117 1.08536 0
M  V30 20884 C 2003.05 -2.52714 2.25507 0
M  V30 20885 C 2002.09 -2.465 3.48051 0
M  V30 20886 S 2002.93 -1.9026 5.00561 0
M  V30 20887 C 2004.08 -3.27272 5.3352 0
M  V30 20888 H 2004.32 -0.845087 2.85036 0
M  V30 20889 H 2001.85 -0.323716 1.50968 0
M  V30 20890 H 2003.81 -3.30587 2.43357 0
M  V30 20891 H 2002.47 -2.82753 1.36783 0
M  V30 20892 H 2001.66 -3.46202 3.66278 0
M  V30 20893 H 2001.26 -1.76749 3.29599 0
M  V30 20894 H 2003.55 -4.23489 5.28832 0
M  V30 20895 H 2004.5 -3.1387 6.34737 0
M  V30 20896 H 2004.91 -3.25798 4.60994 0
M  V30 20897 N 2004.3 -1.52772 -0.387116 0
M  V30 20898 C 2005.25 -1.78325 -1.49341 0
M  V30 20899 C 2006.25 -0.651278 -1.5638 0
M  V30 20900 O 2007.45 -0.833795 -1.59524 0
M  V30 20901 H 2003.83 -0.56428 -0.497084 0
M  V30 20902 H 2005.8 -2.70965 -1.24983 0
M  V30 20903 C 2004.55 -1.97079 -2.86453 0
M  V30 20904 H 2003.87 -2.83612 -2.81788 0
M  V30 20905 H 2005.31 -2.18947 -3.63095 0
M  V30 20906 C 2003.77 -0.743842 -3.28586 0
M  V30 20907 O 2004.3 0.0778266 -4.01625 0
M  V30 20908 N 2002.5 -0.573415 -2.84886 0
M  V30 20909 H 2002.05 -1.24319 -2.25616 0
M  V30 20910 H 2002.01 0.24616 -3.13435 0
M  V30 20911 N 2005.78 0.645673 -1.43767 0
M  V30 20912 C 2007.03 1.40137 -1.45067 0
M  V30 20913 C 2007.34 1.9543 -0.0815041 0
M  V30 20914 O 2008.55 2.71486 0.0280161 0
M  V30 20915 C 2007.01 2.53651 -2.55322 0
M  V30 20916 C 2006.61 2.04934 -3.98379 0
M  V30 20917 C 2008.36 3.30964 -2.65826 0
M  V30 20918 C 2006.26 3.15703 -5.00086 0
M  V30 20919 H 2005.19 0.52657 -0.539667 0
M  V30 20920 H 2007.85 0.696144 -1.69782 0
M  V30 20921 H 2006.23 3.26681 -2.23821 0
M  V30 20922 H 2007.4 1.38865 -4.39378 0
M  V30 20923 H 2005.72 1.40478 -3.91988 0
M  V30 20924 H 2008.31 4.13513 -3.38986 0
M  V30 20925 H 2008.66 3.79492 -1.71149 0
M  V30 20926 H 2009.19 2.65018 -2.96665 0
M  V30 20927 H 2005.93 2.72136 -5.96341 0
M  V30 20928 H 2005.45 3.80459 -4.63693 0
M  V30 20929 H 2007.13 3.80714 -5.23131 0
M  V30 20930 N 2007.26 1.30423 0.884744 0
M  V30 20931 C 2008.17 1.18747 2.02327 0
M  V30 20932 C 2009.19 0.107354 1.73669 0
M  V30 20933 O 2010.36 0.322332 1.98804 0
M  V30 20934 C 2007.43 0.880361 3.35336 0
M  V30 20935 C 2006.49 2.04587 3.77416 0
M  V30 20936 C 2005.72 1.75332 5.04078 0
M  V30 20937 O 2005.94 0.68135 5.66316 0
M  V30 20938 O 2004.88 2.60579 5.4257 0
M  V30 20939 H 2008.7 2.14391 2.15105 0
M  V30 20940 H 2006.29 1.10019 1.01076 0
M  V30 20941 H 2008.17 0.7243 4.15129 0
M  V30 20942 H 2006.85 -0.0461673 3.23667 0
M  V30 20943 H 2005.75 2.25726 2.98326 0
M  V30 20944 H 2007.09 2.95413 3.9369 0
M  V30 20945 N 2008.74 -1.09711 1.13142 0
M  V30 20946 C 2009.98 -1.82097 0.892675 0
M  V30 20947 C 2010.32 -1.85341 -0.579846 0
M  V30 20948 O 2009.59 -1.3195 -1.42897 0
M  V30 20949 C 2009.87 -3.28392 1.47752 0
M  V30 20950 C 2009.73 -3.33436 3.01895 0
M  V30 20951 C 2011.05 -4.24991 1.14329 0
M  V30 20952 H 2008.17 -0.661111 0.325732 0
M  V30 20953 H 2010.81 -1.28535 1.39924 0
M  V30 20954 H 2008.96 -3.74134 1.04671 0
M  V30 20955 H 2010.63 -2.96119 3.53711 0
M  V30 20956 H 2008.87 -2.73109 3.37037 0
M  V30 20957 H 2009.54 -4.36484 3.37914 0
M  V30 20958 H 2012.02 -3.8752 1.51551 0
M  V30 20959 H 2010.9 -5.25698 1.57902 0
M  V30 20960 H 2011.16 -4.42064 0.0565583 0
M  V30 20961 N 2010.22 -0.924476 -1.27637 0
M  V30 20962 C 2011.47 -0.559056 -1.93797 0
M  V30 20963 C 2011.78 0.903501 -1.73483 0
M  V30 20964 O 2012.98 1.37756 -2.33956 0
M  V30 20965 C 2011.44 -0.949035 -3.47162 0
M  V30 20966 C 2011.05 -2.43205 -3.76238 0
M  V30 20967 C 2012.79 -0.654714 -4.19421 0
M  V30 20968 C 2010.7 -2.7616 -5.22962 0
M  V30 20969 H 2009.63 -0.205363 -0.725494 0
M  V30 20970 H 2012.28 -1.12485 -1.4498 0
M  V30 20971 H 2010.66 -0.311922 -3.9477 0
M  V30 20972 H 2011.84 -3.1168 -3.39399 0
M  V30 20973 H 2010.15 -2.69794 -3.17176 0
M  V30 20974 H 2012.75 -0.877465 -5.27451 0
M  V30 20975 H 2013.09 0.407944 -4.14296 0
M  V30 20976 H 2013.62 -1.25078 -3.77625 0
M  V30 20977 H 2010.36 -3.81322 -5.33173 0
M  V30 20978 H 2009.88 -2.12332 -5.60959 0
M  V30 20979 H 2011.56 -2.63732 -5.90808 0
M  V30 20980 N 2011.69 1.41711 -0.689627 0
M  V30 20981 C 2012.92 2.06171 -0.225425 0
M  V30 20982 C 2013.34 1.51535 1.11439 0
M  V30 20983 O 2012.7 0.639865 1.69633 0
M  V30 20984 C 2012.75 3.60114 -0.187089 0
M  V30 20985 O 2011.85 4.03757 0.83989 0
M  V30 20986 H 2011.2 0.654551 -0.111621 0
M  V30 20987 H 2013.73 1.81582 -0.942814 0
M  V30 20988 H 2013.74 4.07997 -0.0159369 0
M  V30 20989 H 2012.41 3.99251 -1.16497 0
M  V30 20990 H 2010.99 3.67392 0.638575 0
M  V30 20991 N 2013.17 0.433965 1.51507 0
M  V30 20992 C 2014.11 -0.424335 2.2422 0
M  V30 20993 C 2015.08 -1.02751 1.26019 0
M  V30 20994 O 2016.27 -1.07062 1.55145 0
M  V30 20995 C 2013.39 -1.59113 2.98999 0
M  V30 20996 C 2012.44 -1.10896 4.1183 0
M  V30 20997 S 2013.27 -0.0537502 5.35473 0
M  V30 20998 C 2014.43 -1.22529 6.13789 0
M  V30 20999 H 2014.66 0.192998 2.96673 0
M  V30 21000 H 2012.2 0.218455 1.52847 0
M  V30 21001 H 2014.15 -2.26006 3.42683 0
M  V30 21002 H 2012.81 -2.17987 2.26143 0
M  V30 21003 H 2012.01 -1.9814 4.63419 0
M  V30 21004 H 2011.61 -0.518327 3.70391 0
M  V30 21005 H 2013.9 -2.14429 6.42671 0
M  V30 21006 H 2014.84 -0.749446 7.04123 0
M  V30 21007 H 2015.25 -1.46233 5.4523 0
M  V30 21008 N 2014.65 -1.56732 0.165206 0
M  V30 21009 C 2015.88 -2.00777 -0.487041 0
M  V30 21010 C 2016.29 -1.04447 -1.57758 0
M  V30 21011 O 2015.63 -0.0363979 -1.83664 0
M  V30 21012 C 2015.69 -3.41252 -1.1308 0
M  V30 21013 C 2015.36 -4.56635 -0.182666 0
M  V30 21014 C 2016.35 -5.16465 0.596665 0
M  V30 21015 C 2014.04 -5.02236 -0.0802703 0
M  V30 21016 C 2016.03 -6.2032 1.46565 0
M  V30 21017 C 2013.72 -6.05942 0.792308 0
M  V30 21018 C 2014.72 -6.64855 1.56386 0
M  V30 21019 O 2014.41 -7.66551 2.42187 0
M  V30 21020 H 2014.14 -0.663451 -0.129647 0
M  V30 21021 H 2016.69 -2.03719 0.262233 0
M  V30 21022 H 2014.92 -3.35204 -1.92808 0
M  V30 21023 H 2016.61 -3.6929 -1.68463 0
M  V30 21024 H 2017.38 -4.82121 0.527694 0
M  V30 21025 H 2013.26 -4.56097 -0.670586 0
M  V30 21026 H 2016.8 -6.66232 2.06834 0
M  V30 21027 H 2012.7 -6.39712 0.862504 0
M  V30 21028 H 2013.47 -7.83849 2.35635 0
M  V30 21029 N 2016.13 0.10854 -1.57226 0
M  V30 21030 C 2017.35 0.832276 -1.89968 0
M  V30 21031 C 2017.78 1.72143 -0.758179 0
M  V30 21032 O 2017.14 1.78952 0.290864 0
M  V30 21033 C 2017.18 1.63287 -3.21512 0
M  V30 21034 O 2016.29 2.74071 -3.08154 0
M  V30 21035 H 2015.63 0.229508 -0.623075 0
M  V30 21036 H 2018.16 0.0877974 -2.04412 0
M  V30 21037 H 2018.17 2.01992 -3.5449 0
M  V30 21038 H 2016.84 0.98022 -4.04184 0
M  V30 21039 H 2015.42 2.38492 -2.86664 0
M  V30 21040 N 2017.61 1.52975 0.379009 0
M  V30 21041 C 2018.54 1.74729 1.48332 0
M  V30 21042 C 2019.55 0.627862 1.50206 0
M  V30 21043 O 2020.74 0.903805 1.53927 0
M  V30 21044 C 2017.84 1.79998 2.87148 0
M  V30 21045 C 2017.01 3.09452 3.09125 0
M  V30 21046 C 2016.07 3.06138 4.27979 0
M  V30 21047 O 2015.1 3.79976 4.23801 0
M  V30 21048 N 2016.3 2.26019 5.34692 0
M  V30 21049 H 2019.07 2.70011 1.30054 0
M  V30 21050 H 2016.63 1.51586 0.568617 0
M  V30 21051 H 2018.62 1.75275 3.64775 0
M  V30 21052 H 2017.19 0.920593 2.98737 0
M  V30 21053 H 2016.41 3.27586 2.19274 0
M  V30 21054 H 2017.7 3.9503 3.20669 0
M  V30 21055 H 2017.09 1.65515 5.40945 0
M  V30 21056 H 2015.65 2.27126 6.10948 0
M  V30 21057 N 2019.08 -0.63804 1.44107 0
M  V30 21058 C 2020.03 -1.77153 1.5073 0
M  V30 21059 C 2021.03 -1.65093 0.379567 0
M  V30 21060 O 2022.23 -1.71255 0.554218 0
M  V30 21061 H 2018.61 -0.584742 0.472843 0
M  V30 21062 H 2020.58 -1.68689 2.46143 0
M  V30 21063 C 2019.33 -3.15467 1.46204 0
M  V30 21064 H 2018.65 -3.25392 2.32293 0
M  V30 21065 H 2020.09 -3.94693 1.54899 0
M  V30 21066 C 2018.55 -3.36409 0.181784 0
M  V30 21067 O 2019.08 -3.94621 -0.750818 0
M  V30 21068 N 2017.29 -2.90469 0.0871207 0
M  V30 21069 H 2016.83 -2.43281 0.846871 0
M  V30 21070 H 2016.79 -3.04857 -0.768744 0
M  V30 21071 N 2020.56 -1.3089 -0.877815 0
M  V30 21072 C 2021.81 -1.19888 -1.627 0
M  V30 21073 C 2022.13 0.244972 -1.93455 0
M  V30 21074 O 2021.4 1.16355 -1.57602 0
M  V30 21075 H 2019.98 -0.440719 -0.603138 0
M  V30 21076 H 2022.64 -1.64112 -1.05134 0
M  V30 21077 H 2021.74 -1.76493 -2.57404 0
M  V30 21078 N 2022.04 1.0911 -1.13723 0
M  V30 21079 C 2022.99 2.15834 -0.817576 0
M  V30 21080 C 2023.96 1.64613 0.221749 0
M  V30 21081 O 2025.14 1.90572 0.0932703 0
M  V30 21082 C 2022.28 3.43851 -0.293315 0
M  V30 21083 C 2021.4 4.08956 -1.39208 0
M  V30 21084 C 2020.53 5.24741 -0.825823 0
M  V30 21085 C 2019.57 5.81774 -1.90277 0
M  V30 21086 N 2018.71 6.88916 -1.35421 0
M  V30 21087 H 2023.55 2.42519 -1.73172 0
M  V30 21088 H 2021.08 1.19026 -0.864368 0
M  V30 21089 H 2023.04 4.1719 0.0288002 0
M  V30 21090 H 2021.67 3.17474 0.583951 0
M  V30 21091 H 2020.72 3.33449 -1.83073 0
M  V30 21092 H 2022.04 4.47372 -2.2059 0
M  V30 21093 H 2021.19 6.0499 -0.455184 0
M  V30 21094 H 2019.93 4.87696 0.0190362 0
M  V30 21095 H 2018.93 5.00185 -2.28244 0
M  V30 21096 H 2020.16 6.2088 -2.75109 0
M  V30 21097 H 2018.1 6.53844 -0.531412 0
M  V30 21098 H 2018.02 7.26118 -2.10448 0
M  V30 21099 H 2019.29 7.72913 -1.01125 0
M  V30 21100 N 2023.52 0.931232 1.27145 0
M  V30 21101 C 2024.77 0.569326 1.93498 0
M  V30 21102 C 2025.08 -0.894288 1.73959 0
M  V30 21103 O 2026.29 -1.36513 2.34684 0
M  V30 21104 C 2024.74 0.967432 3.46654 0
M  V30 21105 C 2024.35 2.45197 3.74943 0
M  V30 21106 C 2026.09 0.676947 4.19068 0
M  V30 21107 C 2024 2.7893 5.2149 0
M  V30 21108 H 2022.93 0.209208 0.724395 0
M  V30 21109 H 2025.58 1.13252 1.44382 0
M  V30 21110 H 2023.96 0.332853 3.94599 0
M  V30 21111 H 2025.14 3.13476 3.37742 0
M  V30 21112 H 2023.45 2.71472 3.1574 0
M  V30 21113 H 2026.05 0.905425 5.26978 0
M  V30 21114 H 2026.39 -0.385967 4.14507 0
M  V30 21115 H 2026.93 1.27079 3.76956 0
M  V30 21116 H 2023.67 3.84144 5.31144 0
M  V30 21117 H 2023.19 2.15304 5.59825 0
M  V30 21118 H 2024.86 2.66862 5.89401 0
M  V30 21119 N 2025 -1.41343 0.697132 0
M  V30 21120 C 2025.95 -2.3259 0.0214207 0
M  V30 21121 C 2026.94 -1.51048 -0.766873 0
M  V30 21122 O 2028.15 -1.66973 -0.672319 0
M  V30 21123 H 2024.52 -0.751906 -0.0118741 0
M  V30 21124 H 2026.49 -2.87252 0.808025 0
M  V30 21125 C 2025.24 -3.35853 -0.899884 0
M  V30 21126 H 2024.56 -3.98652 -0.302721 0
M  V30 21127 H 2026 -4.02236 -1.34097 0
M  V30 21128 C 2024.46 -2.69865 -2.01679 0
M  V30 21129 O 2024.99 -2.54768 -3.10574 0
M  V30 21130 N 2023.2 -2.28536 -1.79498 0
M  V30 21131 H 2022.75 -2.41015 -0.909364 0
M  V30 21132 H 2022.7 -1.8472 -2.54413 0
M  V30 21133 N 2026.48 -0.441993 -1.51275 0
M  V30 21134 C 2027.41 0.412439 -2.24442 0
M  V30 21135 C 2028.39 1.02082 -1.26563 0
M  V30 21136 O 2029.57 1.06238 -1.5571 0
M  V30 21137 C 2026.7 1.57525 -2.99839 0
M  V30 21138 C 2025.74 1.08711 -4.12413 0
M  V30 21139 S 2026.58 0.025352 -5.35494 0
M  V30 21140 C 2027.73 1.19273 -6.14431 0
M  V30 21141 H 2027.97 -0.208728 -2.96566 0
M  V30 21142 H 2025.5 -0.226557 -1.52729 0
M  V30 21143 H 2027.46 2.24185 -3.43877 0
M  V30 21144 H 2026.12 2.16785 -2.27295 0
M  V30 21145 H 2025.31 1.95679 -4.64463 0
M  V30 21146 H 2024.91 0.498677 -3.70661 0
M  V30 21147 H 2027.2 2.11018 -6.438 0
M  V30 21148 H 2028.15 0.712094 -7.0451 0
M  V30 21149 H 2028.56 1.4334 -5.45998 0
M  V30 21150 N 2027.95 1.56642 -0.173515 0
M  V30 21151 C 2029.36 1.83525 0.342837 0
M  V30 21152 C 2029.72 1.0934 1.62908 0
M  V30 21153 O 2028.84 0.347154 2.13597 0
M  V30 21154 C 2029.44 3.32914 0.628798 0
M  V30 21155 C 2027.99 3.60285 1.08958 0
M  V30 21156 C 2027.14 2.77011 0.126621 0
M  V30 21157 H 2030.09 1.53635 -0.397736 0
M  V30 21158 H 2030.11 3.50511 1.48061 0
M  V30 21159 H 2029.63 3.8688 -0.307526 0
M  V30 21160 H 2027.73 3.11732 2.04093 0
M  V30 21161 H 2027.84 4.68607 0.997222 0
M  V30 21162 H 2026.2 2.46928 0.624406 0
M  V30 21163 H 2026.99 3.33758 -0.803763 0
M  V30 21164 N 2029.43 -0.1002 1.57281 0
M  V30 21165 C 2030.36 -1.15288 1.96936 0
M  V30 21166 C 2031.34 -1.39113 0.8418 0
M  V30 21167 O 2032.53 -1.52958 1.10165 0
M  V30 21168 C 2029.65 -2.50308 2.28175 0
M  V30 21169 C 2028.7 -2.42795 3.50646 0
M  V30 21170 S 2029.53 -1.8494 5.02551 0
M  V30 21171 C 2030.69 -3.21595 5.36962 0
M  V30 21172 H 2030.92 -0.814808 2.85916 0
M  V30 21173 H 2028.45 -0.307686 1.51303 0
M  V30 21174 H 2030.41 -3.27987 2.46849 0
M  V30 21175 H 2029.07 -2.81286 1.39775 0
M  V30 21176 H 2028.27 -3.42298 3.6993 0
M  V30 21177 H 2027.87 -1.73243 3.31456 0
M  V30 21178 H 2030.16 -4.17856 5.33294 0
M  V30 21179 H 2031.1 -3.0712 6.38031 0
M  V30 21180 H 2031.51 -3.2089 4.64424 0
M  V30 21181 N 2030.91 -1.53174 -0.370891 0
M  V30 21182 C 2032.13 -1.73304 -1.13932 0
M  V30 21183 C 2032.56 -0.458494 -1.82427 0
M  V30 21184 O 2031.92 0.587094 -1.71531 0
M  V30 21185 C 2031.97 -2.89544 -2.14933 0
M  V30 21186 O 2031.07 -2.57782 -3.21904 0
M  V30 21187 H 2030.41 -0.575715 -0.33083 0
M  V30 21188 H 2032.94 -2.00038 -0.429641 0
M  V30 21189 H 2032.95 -3.15559 -2.58625 0
M  V30 21190 H 2031.63 -3.81998 -1.64471 0
M  V30 21191 H 2030.2 -2.42568 -2.83223 0
M  V30 21192 N 2032.39 0.630389 -1.44443 0
M  V30 21193 C 2033.3 1.77101 -1.53859 0
M  V30 21194 C 2034.31 1.68749 -0.424221 0
M  V30 21195 O 2035.49 1.89513 -0.681673 0
M  V30 21196 C 2032.55 3.13487 -1.48077 0
M  V30 21197 C 2031.62 3.33464 -2.7037 0
M  V30 21198 C 2030.85 4.63344 -2.64855 0
M  V30 21199 O 2031.07 5.44196 -1.70899 0
M  V30 21200 O 2030.01 4.85539 -3.55718 0
M  V30 21201 H 2033.83 1.7211 -2.50223 0
M  V30 21202 H 2031.42 0.791704 -1.26698 0
M  V30 21203 H 2033.3 3.94788 -1.47378 0
M  V30 21204 H 2031.97 3.19018 -0.54856 0
M  V30 21205 H 2030.88 2.51839 -2.76637 0
M  V30 21206 H 2032.21 3.32795 -3.6264 0
M  V30 21207 N 2033.87 1.31354 0.870861 0
M  V30 21208 C 2034.81 1.18928 1.978 0
M  V30 21209 C 2035.78 0.07529 1.65929 0
M  V30 21210 O 2036.97 0.247992 1.89181 0
M  V30 21211 C 2034.11 0.901663 3.33113 0
M  V30 21212 C 2033.22 2.0989 3.77584 0
M  V30 21213 C 2032.36 1.74815 5.01611 0
M  V30 21214 C 2031.39 2.90952 5.38529 0
M  V30 21215 N 2030.53 2.56077 6.53734 0
M  V30 21216 H 2035.37 2.13636 2.07759 0
M  V30 21217 H 2032.91 1.06273 1.01708 0
M  V30 21218 H 2034.87 0.715464 4.11019 0
M  V30 21219 H 2033.5 -0.00857463 3.22799 0
M  V30 21220 H 2032.55 2.3959 2.95467 0
M  V30 21221 H 2033.86 2.96817 4.00875 0
M  V30 21222 H 2033.01 1.52652 5.87182 0
M  V30 21223 H 2031.75 0.850776 4.80222 0
M  V30 21224 H 2030.76 3.13764 4.51478 0
M  V30 21225 H 2031.98 3.81397 5.61884 0
M  V30 21226 H 2029.93 1.68863 6.33894 0
M  V30 21227 H 2029.85 3.36535 6.76964 0
M  V30 21228 H 2031.11 2.37306 7.425 0
M  V30 21229 N 2035.34 -1.08505 1.143 0
M  V30 21230 C 2036.57 -1.84615 0.934069 0
M  V30 21231 C 2036.99 -1.81572 -0.517403 0
M  V30 21232 O 2036.34 -1.21866 -1.35849 0
M  V30 21233 C 2036.39 -3.32199 1.42571 0
M  V30 21234 O 2036.12 -3.35247 2.82031 0
M  V30 21235 C 2037.62 -4.25118 1.25658 0
M  V30 21236 H 2034.84 -0.582839 0.332474 0
M  V30 21237 H 2037.38 -1.37043 1.51787 0
M  V30 21238 H 2035.54 -3.77163 0.884694 0
M  V30 21239 H 2035.95 -4.27366 3.0407 0
M  V30 21240 H 2037.42 -5.26788 1.64919 0
M  V30 21241 H 2037.9 -4.38747 0.199328 0
M  V30 21242 H 2038.51 -3.85978 1.78609 0
M  V30 21243 N 2036.82 -0.937962 -1.26649 0
M  V30 21244 C 2038.06 -0.591253 -1.95662 0
M  V30 21245 C 2038.43 0.853316 -1.71996 0
M  V30 21246 O 2039.63 1.3088 -2.34785 0
M  V30 21247 C 2037.9 -0.920382 -3.45346 0
M  V30 21248 S 2039.46 -0.683733 -4.3344 0
M  V30 21249 H 2036.27 -0.217883 -0.676793 0
M  V30 21250 H 2038.88 -1.20859 -1.53666 0
M  V30 21251 H 2037.58 -1.96921 -3.6007 0
M  V30 21252 H 2037.11 -0.292641 -3.9231 0
M  V30 21253 H 2039.13 0.453606 -4.94122 0
M  V30 21254 N 2038.3 1.40971 -0.704618 0
M  V30 21255 C 2039.58 1.94885 -0.167059 0
M  V30 21256 C 2039.96 1.64346 1.3249 0
M  V30 21257 O 2039.3 0.955268 2.07574 0
M  V30 21258 C 2039.51 3.45847 -0.468035 0
M  V30 21259 C 2040.86 4.22705 -0.400704 0
M  V30 21260 O 2041.89 3.53908 -0.403464 0
M  V30 21261 O 2040.75 5.45255 -0.368676 0
M  V30 21262 H 2037.84 0.826752 -0.0202699 0
M  V30 21263 H 2040.39 1.50639 -0.7814 0
M  V30 21264 H 2039.16 3.61392 -1.50038 0
M  V30 21265 H 2038.78 3.97207 0.176823 0
M  V30 21266 N 2039.78 0.45001 1.51039 0
M  V30 21267 C 2040.69 -0.360857 2.31808 0
M  V30 21268 C 2041.7 -1.01585 1.41267 0
M  V30 21269 O 2042.88 -1.00845 1.74334 0
M  V30 21270 C 2039.95 -1.44034 3.15365 0
M  V30 21271 C 2039.01 -0.804156 4.21701 0
M  V30 21272 C 2038.24 -1.83221 5.01264 0
M  V30 21273 O 2038.46 -3.05609 4.81622 0
M  V30 21274 O 2037.4 -1.41571 5.85014 0
M  V30 21275 H 2041.22 0.298869 3.02226 0
M  V30 21276 H 2038.81 0.212277 1.47884 0
M  V30 21277 H 2040.69 -2.06611 3.67273 0
M  V30 21278 H 2039.36 -2.08392 2.47698 0
M  V30 21279 H 2038.27 -0.139997 3.73838 0
M  V30 21280 H 2039.6 -0.203865 4.91778 0
M  V30 21281 N 2041.26 -1.56548 0.18182 0
M  V30 21282 C 2042.17 -2.22065 -0.756597 0
M  V30 21283 C 2043.18 -1.21554 -1.24501 0
M  V30 21284 O 2044.36 -1.5425 -1.29495 0
M  V30 21285 C 2041.42 -2.85678 -1.9644 0
M  V30 21286 C 2040.48 -4.0142 -1.52185 0
M  V30 21287 C 2039.72 -4.61991 -2.67209 0
M  V30 21288 O 2039.94 -4.21463 -3.8435 0
M  V30 21289 O 2038.87 -5.51685 -2.40682 0
M  V30 21290 H 2042.7 -3.02838 -0.228696 0
M  V30 21291 H 2040.29 -1.49326 -0.0468661 0
M  V30 21292 H 2042.17 -3.25973 -2.67057 0
M  V30 21293 H 2040.84 -2.07894 -2.48116 0
M  V30 21294 H 2039.75 -3.65774 -0.784878 0
M  V30 21295 H 2041.08 -4.80828 -1.0519 0
M  V30 21296 N 2042.73 0.0918577 -1.57332 0
M  V30 21297 C 2043.97 0.800334 -1.8808 0
M  V30 21298 C 2044.34 1.75743 -0.773207 0
M  V30 21299 O 2045.54 2.5095 -0.96319 0
M  V30 21300 C 2043.81 1.50715 -3.24067 0
M  V30 21301 S 2045.37 2.25346 -3.76516 0
M  V30 21302 H 2042.19 0.266573 -0.659136 0
M  V30 21303 H 2044.79 0.0573092 -1.95416 0
M  V30 21304 H 2043.49 0.7965 -4.02597 0
M  V30 21305 H 2043.02 2.29001 -3.19878 0
M  V30 21306 H 2045.04 3.51539 -3.50192 0
M  V30 21307 N 2044.21 1.53368 0.362763 0
M  V30 21308 C 2045.45 1.7139 1.11376 0
M  V30 21309 C 2045.82 0.457385 1.86472 0
M  V30 21310 O 2047.02 0.514341 2.63833 0
M  V30 21311 C 2045.29 2.93093 2.04527 0
M  V30 21312 S 2046.85 3.31834 2.87109 0
M  V30 21313 H 2043.67 0.603054 0.376626 0
M  V30 21314 H 2046.27 1.91475 0.394647 0
M  V30 21315 H 2044.97 3.82737 1.48125 0
M  V30 21316 H 2044.5 2.75418 2.80906 0
M  V30 21317 H 2046.52 2.84067 4.06842 0
M  V30 21318 N 2045.69 -0.62272 1.44776 0
M  V30 21319 C 2047.1 -1.20448 1.42651 0
M  V30 21320 C 2047.45 -1.95654 0.146211 0
M  V30 21321 O 2046.58 -2.02876 -0.753016 0
M  V30 21322 C 2047.17 -2.19091 2.58428 0
M  V30 21323 C 2045.73 -2.72675 2.59471 0
M  V30 21324 C 2044.88 -1.47816 2.34618 0
M  V30 21325 H 2047.83 -0.412901 1.53235 0
M  V30 21326 H 2047.85 -3.0185 2.31662 0
M  V30 21327 H 2047.36 -1.64325 3.51595 0
M  V30 21328 H 2045.46 -3.3142 1.70269 0
M  V30 21329 H 2045.58 -3.1814 3.58223 0
M  V30 21330 H 2043.94 -1.76243 1.83876 0
M  V30 21331 H 2044.72 -0.949408 3.29911 0
M  V30 21332 N 2047.17 -1.31814 -0.863883 0
M  V30 21333 C 2048.41 -1.22028 -1.61979 0
M  V30 21334 C 2048.75 0.219661 -1.92954 0
M  V30 21335 O 2048.02 1.15428 -1.56546 0
M  V30 21336 C 2048.31 -2.0707 -2.94608 0
M  V30 21337 C 2048.16 -3.59395 -2.70473 0
M  V30 21338 C 2049.48 -1.92477 -3.95779 0
M  V30 21339 H 2046.6 -0.444641 -0.587762 0
M  V30 21340 H 2049.24 -1.61666 -0.998202 0
M  V30 21341 H 2047.39 -1.73395 -3.47659 0
M  V30 21342 H 2049.06 -4.03237 -2.24048 0
M  V30 21343 H 2047.3 -3.82521 -2.04597 0
M  V30 21344 H 2047.97 -4.14213 -3.64871 0
M  V30 21345 H 2050.45 -2.21959 -3.51957 0
M  V30 21346 H 2049.33 -2.54272 -4.86453 0
M  V30 21347 H 2049.59 -0.889783 -4.33053 0
M  V30 21348 N 2048.65 1.07897 -1.14873 0
M  V30 21349 C 2049.59 2.17052 -0.836135 0
M  V30 21350 C 2050.59 1.68352 0.188148 0
M  V30 21351 O 2051.79 1.79947 0.0437298 0
M  V30 21352 H 2048.17 0.708271 -0.252698 0
M  V30 21353 H 2050.14 2.40639 -1.76452 0
M  V30 21354 C 2048.89 3.46076 -0.335713 0
M  V30 21355 H 2048.21 3.8393 -1.11525 0
M  V30 21356 H 2049.65 4.23714 -0.155587 0
M  V30 21357 C 2048.11 3.23471 0.941711 0
M  V30 21358 O 2048.64 3.47541 2.0144 0
M  V30 21359 N 2046.85 2.76987 0.879016 0
M  V30 21360 H 2046.39 2.57599 0.00591639 0
M  V30 21361 H 2046.35 2.62241 1.73427 0
M  V30 21362 N 2050.12 0.944665 1.2615 0
M  V30 21363 C 2051.37 0.594093 1.93589 0
M  V30 21364 C 2051.7 -0.867382 1.74088 0
M  V30 21365 O 2050.95 -1.63636 1.07339 0
M  V30 21366 C 2051.25 0.886852 3.46222 0
M  V30 21367 C 2050.92 2.33276 3.85867 0
M  V30 21368 C 2049.58 2.72801 3.964 0
M  V30 21369 C 2051.93 3.27224 4.05677 0
M  V30 21370 C 2049.26 4.05362 4.24144 0
M  V30 21371 C 2051.61 4.59386 4.34911 0
M  V30 21372 C 2050.28 4.98721 4.4366 0
M  V30 21373 H 2049.55 0.217394 0.708393 0
M  V30 21374 H 2052.19 1.19183 1.49892 0
M  V30 21375 H 2050.5 0.206616 3.91255 0
M  V30 21376 H 2052.2 0.594328 3.96571 0
M  V30 21377 H 2048.79 2.01619 3.78216 0
M  V30 21378 H 2052.97 2.97883 3.96963 0
M  V30 21379 H 2048.23 4.35496 4.29131 0
M  V30 21380 H 2052.4 5.32171 4.49185 0
M  V30 21381 H 2050.03 6.01466 4.64911 0
M  V30 21382 N 2051.6 -1.40596 0.712085 0
M  V30 21383 C 2052.55 -2.30729 0.0572693 0
M  V30 21384 C 2053.52 -1.48 -0.753997 0
M  V30 21385 O 2054.7 -1.76748 -0.71866 0
M  V30 21386 C 2051.84 -3.34184 -0.861092 0
M  V30 21387 C 2050.96 -4.31982 -0.0396747 0
M  V30 21388 C 2050.09 -5.22505 -0.957193 0
M  V30 21389 C 2049.13 -6.11963 -0.129658 0
M  V30 21390 N 2048.27 -6.94915 -1.00186 0
M  V30 21391 H 2053.11 -2.86161 0.831601 0
M  V30 21392 H 2050.65 -1.40923 0.421786 0
M  V30 21393 H 2052.6 -3.92732 -1.40775 0
M  V30 21394 H 2051.23 -2.80263 -1.60164 0
M  V30 21395 H 2050.29 -3.75245 0.624125 0
M  V30 21396 H 2051.6 -4.95164 0.601165 0
M  V30 21397 H 2050.75 -5.85967 -1.57251 0
M  V30 21398 H 2049.49 -4.59589 -1.63186 0
M  V30 21399 H 2048.5 -5.47534 0.49862 0
M  V30 21400 H 2049.72 -6.76938 0.541455 0
M  V30 21401 H 2047.67 -6.34591 -1.66225 0
M  V30 21402 H 2047.58 -7.54849 -0.41698 0
M  V30 21403 H 2048.85 -7.6283 -1.60347 0
M  V30 21404 N 2053.08 -0.458013 -1.50798 0
M  V30 21405 C 2054.5 -0.111425 -1.59211 0
M  V30 21406 C 2054.7 1.38104 -1.46729 0
M  V30 21407 O 2053.75 2.15306 -1.31907 0
M  V30 21408 C 2055.07 -0.649971 -2.93591 0
M  V30 21409 C 2056.61 -0.612237 -3.06954 0
M  V30 21410 C 2057.09 -1.1281 -4.43889 0
M  V30 21411 N 2058.58 -1.08696 -4.50266 0
M  V30 21412 C 2059.31 -1.45676 -5.54586 0
M  V30 21413 N 2058.81 -1.90042 -6.66225 0
M  V30 21414 N 2060.6 -1.37362 -5.45058 0
M  V30 21415 H 2052.75 -1.42885 -1.57155 0
M  V30 21416 H 2055.02 -0.590085 -0.741959 0
M  V30 21417 H 2054.72 -1.695 -3.0816 0
M  V30 21418 H 2054.6 -0.0862666 -3.77101 0
M  V30 21419 H 2056.98 0.42385 -2.9204 0
M  V30 21420 H 2057.07 -1.21259 -2.25233 0
M  V30 21421 H 2056.71 -2.16276 -4.59551 0
M  V30 21422 H 2056.64 -0.50409 -5.24182 0
M  V30 21423 H 2059.13 -0.761406 -3.7015 0
M  V30 21424 H 2059.44 -2.16442 -7.41871 0
M  V30 21425 H 2057.79 -1.93985 -6.67379 0
M  V30 21426 H 2060.98 -1.02552 -4.56728 0
M  V30 21427 H 2061.15 -1.66508 -6.26242 0
M  V30 21428 N 2054.56 1.56449 -0.190119 0
M  V30 21429 C 2055.8 1.99335 0.452186 0
M  V30 21430 C 2056.16 1.07415 1.59142 0
M  V30 21431 O 2057.36 1.39517 2.29757 0
M  V30 21432 C 2055.64 3.45746 0.90523 0
M  V30 21433 S 2057.19 4.1066 1.54607 0
M  V30 21434 H 2054.01 0.696102 0.144786 0
M  V30 21435 H 2056.61 1.93307 -0.292013 0
M  V30 21436 H 2055.32 4.10347 0.0659543 0
M  V30 21437 H 2054.85 3.55581 1.68302 0
M  V30 21438 H 2056.86 4.07257 2.83472 0
M  V30 21439 N 2056.04 -0.0835127 1.57379 0
M  V30 21440 C 2057.28 -0.790348 1.88502 0
M  V30 21441 C 2057.64 -1.7533 0.782517 0
M  V30 21442 O 2058.84 -2.50436 0.976485 0
M  V30 21443 C 2057.11 -1.48995 3.24862 0
M  V30 21444 S 2058.67 -2.23346 3.77706 0
M  V30 21445 H 2055.49 -0.263074 0.66054 0
M  V30 21446 H 2058.09 -0.046945 1.95444 0
M  V30 21447 H 2056.8 -0.775138 4.03013 0
M  V30 21448 H 2056.33 -2.27302 3.21088 0
M  V30 21449 H 2058.34 -3.49677 3.52051 0
M  V30 21450 N 2057.52 -1.53558 -0.354624 0
M  V30 21451 C 2058.93 -1.6184 -0.930847 0
M  V30 21452 C 2059.28 -0.492698 -1.89913 0
M  V30 21453 O 2058.4 0.379247 -2.13051 0
M  V30 21454 C 2059 -2.93348 -1.69506 0
M  V30 21455 C 2057.56 -3.03929 -2.22046 0
M  V30 21456 C 2056.7 -2.57213 -1.03618 0
M  V30 21457 H 2059.65 -1.58141 -0.133086 0
M  V30 21458 H 2059.68 -2.81766 -2.55711 0
M  V30 21459 H 2059.19 -3.75259 -0.990072 0
M  V30 21460 H 2057.29 -2.26629 -2.95753 0
M  V30 21461 H 2057.4 -4.09204 -2.49176 0
M  V30 21462 H 2055.77 -2.12352 -1.40636 0
M  V30 21463 H 2056.55 -3.41552 -0.346003 0
M  V30 21464 N 2058.99 0.615033 -1.45104 0
M  V30 21465 C 2059.92 1.73703 -1.56043 0
M  V30 21466 C 2060.9 1.65025 -0.412413 0
M  V30 21467 O 2062.09 1.83539 -0.634606 0
M  V30 21468 C 2059.22 3.12287 -1.51968 0
M  V30 21469 C 2058.17 3.35769 -2.65411 0
M  V30 21470 C 2057.5 4.74549 -2.46389 0
M  V30 21471 C 2058.8 3.26752 -4.07469 0
M  V30 21472 H 2060.49 1.64805 -2.4996 0
M  V30 21473 H 2058.04 0.791445 -1.203 0
M  V30 21474 H 2059.99 3.9057 -1.58219 0
M  V30 21475 H 2058.72 3.22008 -0.545769 0
M  V30 21476 H 2057.38 2.59874 -2.58575 0
M  V30 21477 H 2057.02 4.80994 -1.47153 0
M  V30 21478 H 2056.72 4.91217 -3.22458 0
M  V30 21479 H 2058.25 5.55041 -2.54482 0
M  V30 21480 H 2059.66 3.94918 -4.15587 0
M  V30 21481 H 2058.06 3.54952 -4.83869 0
M  V30 21482 H 2059.13 2.24305 -4.29902 0
M  V30 21483 N 2060.47 1.3227 0.85688 0
M  V30 21484 C 2061.72 1.22885 1.61329 0
M  V30 21485 C 2062.05 -0.209425 1.93067 0
M  V30 21486 O 2061.33 -1.14596 1.57156 0
M  V30 21487 C 2061.61 2.0863 2.93506 0
M  V30 21488 C 2061.46 3.60824 2.68563 0
M  V30 21489 C 2062.78 1.94573 3.94752 0
M  V30 21490 H 2059.9 0.447751 0.585395 0
M  V30 21491 H 2062.54 1.62193 0.989615 0
M  V30 21492 H 2060.69 1.75236 3.46734 0
M  V30 21493 H 2062.36 4.0442 2.21906 0
M  V30 21494 H 2060.61 3.83601 2.02566 0
M  V30 21495 H 2061.28 4.16143 3.6267 0
M  V30 21496 H 2063.75 2.23822 3.50775 0
M  V30 21497 H 2062.63 2.56848 4.85098 0
M  V30 21498 H 2062.89 0.912736 4.32575 0
M  V30 21499 N 2061.95 -1.07287 1.15444 0
M  V30 21500 C 2063.19 -1.8149 0.940261 0
M  V30 21501 C 2063.55 -1.84734 -0.523206 0
M  V30 21502 O 2064.75 -2.54815 -0.855738 0
M  V30 21503 C 2063.03 -3.22592 1.53848 0
M  V30 21504 S 2064.58 -4.13533 1.4675 0
M  V30 21505 H 2061.4 -0.625317 0.338377 0
M  V30 21506 H 2064 -1.28879 1.47005 0
M  V30 21507 H 2062.71 -3.1782 2.59651 0
M  V30 21508 H 2062.24 -3.80278 1.00758 0
M  V30 21509 H 2064.25 -4.94055 0.460833 0
M  V30 21510 N 2063.43 -0.951342 -1.25647 0
M  V30 21511 C 2064.68 -0.603157 -1.9289 0
M  V30 21512 C 2065 0.862093 -1.74908 0
M  V30 21513 O 2064.27 1.61366 -1.11075 0
M  V30 21514 H 2062.85 -0.220085 -0.713843 0
M  V30 21515 H 2065.51 -1.20887 -1.5288 0
M  V30 21516 H 2064.6 -0.82965 -3.00871 0
M  V30 21517 N 2064.91 1.40216 -0.719531 0
M  V30 21518 C 2065.85 2.30695 -0.0695046 0
M  V30 21519 C 2066.82 1.48398 0.746138 0
M  V30 21520 O 2068.01 1.77127 0.709277 0
M  V30 21521 C 2065.15 3.34636 0.843357 0
M  V30 21522 C 2064.26 4.31997 0.0167651 0
M  V30 21523 C 2063.4 5.23005 0.929469 0
M  V30 21524 C 2062.43 6.12023 0.0972024 0
M  V30 21525 N 2061.57 6.95437 0.964997 0
M  V30 21526 H 2066.41 2.85716 -0.846765 0
M  V30 21527 H 2063.95 1.40698 -0.429253 0
M  V30 21528 H 2065.91 3.93473 1.38691 0
M  V30 21529 H 2064.54 2.81108 1.58676 0
M  V30 21530 H 2063.59 3.74909 -0.644016 0
M  V30 21531 H 2064.9 4.94838 -0.627416 0
M  V30 21532 H 2064.05 5.86792 1.54141 0
M  V30 21533 H 2062.79 4.60447 1.60746 0
M  V30 21534 H 2061.8 5.47262 -0.52765 0
M  V30 21535 H 2063.02 6.76641 -0.577347 0
M  V30 21536 H 2060.97 6.35463 1.62857 0
M  V30 21537 H 2060.89 7.5506 0.376943 0
M  V30 21538 H 2062.15 7.63669 1.56299 0
M  V30 21539 N 2066.38 0.466004 1.50553 0
M  V30 21540 C 2067.35 -0.319434 2.26963 0
M  V30 21541 C 2068.35 -0.92489 1.31539 0
M  V30 21542 O 2069.54 -0.794862 1.55008 0
M  V30 21543 C 2066.67 -1.45457 3.0831 0
M  V30 21544 H 2067.86 0.350606 2.97844 0
M  V30 21545 H 2065.41 0.219925 1.54745 0
M  V30 21546 H 2066.15 -2.15982 2.41914 0
M  V30 21547 H 2065.93 -1.02628 3.78431 0
M  V30 21548 H 2067.42 -2.00876 3.66113 0
M  V30 21549 N 2067.86 -1.56346 0.198413 0
M  V30 21550 C 2069.11 -1.96849 -0.439713 0
M  V30 21551 C 2069.42 -1.08829 -1.62529 0
M  V30 21552 O 2070.63 -1.39128 -2.33143 0
M  V30 21553 C 2069.09 -3.50111 -0.83369 0
M  V30 21554 C 2068.69 -4.46799 0.327785 0
M  V30 21555 C 2070.44 -3.99376 -1.43871 0
M  V30 21556 C 2068.34 -5.91336 -0.0873357 0
M  V30 21557 H 2067.27 -0.735034 -0.168052 0
M  V30 21558 H 2069.93 -1.81179 0.290957 0
M  V30 21559 H 2068.31 -3.61297 -1.62112 0
M  V30 21560 H 2069.48 -4.47347 1.10532 0
M  V30 21561 H 2067.8 -4.07746 0.844522 0
M  V30 21562 H 2070.39 -5.04841 -1.76181 0
M  V30 21563 H 2070.74 -3.43877 -2.34637 0
M  V30 21564 H 2071.27 -3.91318 -0.715186 0
M  V30 21565 H 2068.01 -6.50768 0.786222 0
M  V30 21566 H 2067.53 -5.94034 -0.829663 0
M  V30 21567 H 2069.21 -6.44891 -0.522002 0
M  V30 21568 N 2069.34 0.0751653 -1.57421 0
M  V30 21569 C 2070.27 1.11632 -2.00177 0
M  V30 21570 C 2071.29 1.35179 -0.907222 0
M  V30 21571 O 2072.47 1.33479 -1.18515 0
M  V30 21572 C 2069.57 2.46792 -2.32265 0
M  V30 21573 C 2068.75 2.43248 -3.63524 0
M  V30 21574 C 2067.81 3.60488 -3.8332 0
M  V30 21575 O 2066.83 3.42071 -4.54946 0
M  V30 21576 N 2068.03 4.80713 -3.25416 0
M  V30 21577 H 2070.8 0.752243 -2.90106 0
M  V30 21578 H 2068.36 0.263867 -1.59735 0
M  V30 21579 H 2070.35 3.23861 -2.42685 0
M  V30 21580 H 2068.92 2.75214 -1.48243 0
M  V30 21581 H 2068.14 1.51587 -3.63889 0
M  V30 21582 H 2069.43 2.37977 -4.49716 0
M  V30 21583 H 2068.83 4.9858 -2.67273 0
M  V30 21584 H 2067.39 5.55306 -3.4129 0
M  V30 21585 N 2070.82 1.53744 0.346476 0
M  V30 21586 C 2072.07 1.70849 1.08705 0
M  V30 21587 C 2072.39 0.470151 1.88732 0
M  V30 21588 O 2071.65 -0.548082 1.87868 0
M  V30 21589 C 2071.95 2.92192 2.05812 0
M  V30 21590 C 2071.61 4.27917 1.42119 0
M  V30 21591 C 2070.28 4.64821 1.24477 0
M  V30 21592 C 2072.63 5.12243 0.962087 0
M  V30 21593 C 2069.96 5.83671 0.595386 0
M  V30 21594 C 2072.31 6.31756 0.326627 0
M  V30 21595 C 2070.97 6.67358 0.137866 0
M  V30 21596 H 2070.24 0.625182 0.397779 0
M  V30 21597 H 2072.89 1.87957 0.366657 0
M  V30 21598 H 2071.19 2.69675 2.84223 0
M  V30 21599 H 2072.89 3.0262 2.63101 0
M  V30 21600 H 2069.48 3.9887 1.56847 0
M  V30 21601 H 2073.66 4.84267 1.08625 0
M  V30 21602 H 2068.92 6.09831 0.437727 0
M  V30 21603 H 2073.09 6.9639 -0.0372189 0
M  V30 21604 H 2070.72 7.59312 -0.367372 0
M  V30 21605 N 2072.3 -0.607329 1.45428 0
M  V30 21606 C 2073.55 -1.36242 1.48731 0
M  V30 21607 C 2073.86 -1.95145 0.13329 0
M  V30 21608 O 2075.06 -2.71464 0.0439733 0
M  V30 21609 C 2073.52 -2.46792 2.61957 0
M  V30 21610 C 2073.13 -1.94299 4.03673 0
M  V30 21611 C 2074.87 -3.238 2.74507 0
M  V30 21612 C 2072.78 -3.02333 5.0828 0
M  V30 21613 H 2071.71 -0.512076 0.553438 0
M  V30 21614 H 2074.36 -0.650885 1.71568 0
M  V30 21615 H 2072.74 -3.20632 2.32404 0
M  V30 21616 H 2073.92 -1.27167 4.42905 0
M  V30 21617 H 2072.23 -1.30036 3.95575 0
M  V30 21618 H 2074.83 -4.0438 3.4983 0
M  V30 21619 H 2075.17 -3.7482 1.8115 0
M  V30 21620 H 2075.7 -2.5706 3.03587 0
M  V30 21621 H 2072.44 -2.56229 6.03346 0
M  V30 21622 H 2071.96 -3.68031 4.73617 0
M  V30 21623 H 2073.64 -3.6671 5.33041 0
M  V30 21624 N 2073.77 -1.32722 -0.849853 0
M  V30 21625 C 2075.05 -1.14168 -1.58824 0
M  V30 21626 C 2075.43 0.296136 -2.09013 0
M  V30 21627 O 2074.78 1.2935 -1.88364 0
M  V30 21628 C 2074.99 -2.1734 -2.73065 0
M  V30 21629 C 2076.34 -2.50923 -3.42524 0
M  V30 21630 O 2077.36 -2.15923 -2.83295 0
M  V30 21631 O 2076.22 -3.10942 -4.49419 0
M  V30 21632 H 2073.31 -0.440869 -0.699688 0
M  V30 21633 H 2075.86 -1.44269 -0.893563 0
M  V30 21634 H 2074.63 -3.13967 -2.33539 0
M  V30 21635 H 2074.26 -1.88261 -3.50205 0
M  V30 21636 N 2075.25 1.06673 -1.16011 0
M  V30 21637 C 2076.67 1.31515 -0.90421 0
M  V30 21638 C 2076.87 1.96524 0.445021 0
M  V30 21639 O 2075.92 2.22945 1.18541 0
M  V30 21640 C 2077.24 2.19955 -2.05037 0
M  V30 21641 C 2078.79 2.33384 -2.08569 0
M  V30 21642 C 2079.26 3.25176 -3.22528 0
M  V30 21643 N 2080.75 3.32759 -3.2222 0
M  V30 21644 C 2081.49 4.03866 -4.07038 0
M  V30 21645 N 2080.98 4.77529 -5.01934 0
M  V30 21646 N 2082.78 3.99877 -3.95037 0
M  V30 21647 H 2074.93 0.628672 -2.02883 0
M  V30 21648 H 2077.19 0.339704 -0.885045 0
M  V30 21649 H 2076.9 1.79458 -3.02469 0
M  V30 21650 H 2076.77 3.20521 -1.98862 0
M  V30 21651 H 2079.16 2.7313 -1.11732 0
M  V30 21652 H 2079.24 1.32499 -2.1881 0
M  V30 21653 H 2078.88 2.86147 -4.19622 0
M  V30 21654 H 2078.81 4.26031 -3.09524 0
M  V30 21655 H 2081.3 2.80259 -2.53502 0
M  V30 21656 H 2081.62 5.29302 -5.6308 0
M  V30 21657 H 2079.96 4.76522 -5.05917 0
M  V30 21658 H 2083.15 3.41446 -3.20207 0
M  V30 21659 H 2083.32 4.55027 -4.61361 0
M  V30 21660 N 2076.73 0.957992 1.25141 0
M  V30 21661 C 2078.15 0.662955 1.45179 0
M  V30 21662 C 2078.35 -0.778426 1.85857 0
M  V30 21663 O 2077.4 -1.55337 1.99065 0
M  V30 21664 C 2078.72 1.63876 2.52121 0
M  V30 21665 C 2080.26 1.65031 2.65958 0
M  V30 21666 C 2080.74 2.61384 3.76089 0
M  V30 21667 N 2082.23 2.59768 3.83503 0
M  V30 21668 C 2082.96 3.30999 4.68217 0
M  V30 21669 N 2082.46 4.11715 5.57192 0
M  V30 21670 N 2084.25 3.1987 4.62211 0
M  V30 21671 H 2076.4 1.88941 0.97031 0
M  V30 21672 H 2078.67 0.812898 0.487751 0
M  V30 21673 H 2078.37 2.66846 2.29098 0
M  V30 21674 H 2078.25 1.4039 3.50101 0
M  V30 21675 H 2080.63 0.627761 2.88346 0
M  V30 21676 H 2080.72 1.92576 1.68369 0
M  V30 21677 H 2080.36 3.63767 3.54452 0
M  V30 21678 H 2080.29 2.31121 4.73171 0
M  V30 21679 H 2082.78 2.01172 3.19903 0
M  V30 21680 H 2083.09 4.62978 6.18766 0
M  V30 21681 H 2081.44 4.15812 5.56889 0
M  V30 21682 H 2084.63 2.56282 3.91711 0
M  V30 21683 H 2084.8 3.75649 5.28008 0
M  V30 21684 N 2078.21 -1.39832 0.726957 0
M  V30 21685 C 2079.44 -2.04978 0.281383 0
M  V30 21686 C 2079.85 -1.54795 -1.08092 0
M  V30 21687 O 2079.21 -0.709375 -1.68149 0
M  V30 21688 C 2079.26 -3.60526 0.265184 0
M  V30 21689 O 2078.98 -4.0886 1.5737 0
M  V30 21690 C 2080.48 -4.4286 -0.197547 0
M  V30 21691 H 2077.7 -0.659374 0.124366 0
M  V30 21692 H 2080.25 -1.7903 0.988352 0
M  V30 21693 H 2078.4 -3.85403 -0.392835 0
M  V30 21694 H 2078.81 -5.03132 1.48183 0
M  V30 21695 H 2080.29 -5.51775 -0.157727 0
M  V30 21696 H 2080.77 -4.21288 -1.24149 0
M  V30 21697 H 2081.37 -4.23114 0.430611 0
M  V30 21698 N 2079.69 -0.473982 -1.50304 0
M  V30 21699 C 2080.62 0.355019 -2.26434 0
M  V30 21700 C 2081.63 0.954546 -1.3188 0
M  V30 21701 O 2082.82 0.842462 -1.57368 0
M  V30 21702 C 2079.92 1.51219 -3.03292 0
M  V30 21703 C 2079.09 1.02492 -4.25222 0
M  V30 21704 C 2078.15 2.05649 -4.8435 0
M  V30 21705 O 2077.18 1.63594 -5.45184 0
M  V30 21706 N 2078.38 3.38481 -4.71605 0
M  V30 21707 H 2081.15 -0.297646 -2.98218 0
M  V30 21708 H 2078.71 -0.304934 -1.59002 0
M  V30 21709 H 2080.7 2.19927 -3.39726 0
M  V30 21710 H 2079.27 2.0695 -2.34287 0
M  V30 21711 H 2078.49 0.16363 -3.9386 0
M  V30 21712 H 2079.78 0.677339 -5.04271 0
M  V30 21713 H 2079.17 3.75356 -4.23231 0
M  V30 21714 H 2077.73 4.02979 -5.123 0
M  V30 21715 N 2081.16 1.56239 -0.206702 0
M  V30 21716 C 2082.41 1.98197 0.429627 0
M  V30 21717 C 2082.74 1.09386 1.60463 0
M  V30 21718 O 2082.02 0.148321 1.93934 0
M  V30 21719 C 2082.3 3.49218 0.878562 0
M  V30 21720 C 2082.15 4.48805 -0.299054 0
M  V30 21721 C 2083.47 4.04243 1.74 0
M  V30 21722 H 2080.59 0.720583 0.154691 0
M  V30 21723 H 2083.23 1.87617 -0.299957 0
M  V30 21724 H 2081.38 3.58365 1.50023 0
M  V30 21725 H 2083.06 4.51684 -0.936956 0
M  V30 21726 H 2081.3 4.23294 -0.948945 0
M  V30 21727 H 2081.97 5.5197 0.0577652 0
M  V30 21728 H 2084.45 3.97948 1.2156 0
M  V30 21729 H 2083.32 5.10259 2.02305 0
M  V30 21730 H 2083.58 3.50212 2.69823 0
M  V30 21731 N 2082.64 -0.0668159 1.57458 0
M  V30 21732 C 2084.06 -0.421716 1.53928 0
M  V30 21733 C 2084.26 -1.78879 0.927602 0
M  V30 21734 O 2083.31 -2.46826 0.532256 0
M  V30 21735 C 2084.63 -0.358209 2.98559 0
M  V30 21736 C 2086.18 -0.438036 3.0992 0
M  V30 21737 C 2086.65 -0.404384 4.56211 0
M  V30 21738 N 2088.14 -0.464311 4.60867 0
M  V30 21739 C 2088.88 -0.460566 5.71547 0
M  V30 21740 N 2088.37 -0.41134 6.91578 0
M  V30 21741 N 2090.17 -0.507495 5.59804 0
M  V30 21742 H 2082.32 0.828281 1.95584 0
M  V30 21743 H 2084.58 0.311307 0.895428 0
M  V30 21744 H 2084.29 0.579727 3.46889 0
M  V30 21745 H 2084.16 -1.16651 3.58709 0
M  V30 21746 H 2086.55 -1.3664 2.6156 0
M  V30 21747 H 2086.63 0.398926 2.5267 0
M  V30 21748 H 2086.27 0.520148 5.0523 0
M  V30 21749 H 2086.2 -1.25895 5.1133 0
M  V30 21750 H 2088.69 -0.506402 3.74492 0
M  V30 21751 H 2089.01 -0.412545 7.71698 0
M  V30 21752 H 2087.35 -0.377953 6.93972 0
M  V30 21753 H 2090.54 -0.543679 4.64932 0
M  V30 21754 H 2090.71 -0.501107 6.4606 0
M  V30 21755 N 2084.12 -1.53926 -0.338317 0
M  V30 21756 C 2085.35 -1.75114 -1.0963 0
M  V30 21757 C 2085.76 -0.492691 -1.82672 0
M  V30 21758 O 2085.1 0.545601 -1.75411 0
M  V30 21759 C 2085.16 -2.88063 -2.15081 0
M  V30 21760 C 2084.83 -4.27487 -1.61568 0
M  V30 21761 C 2085.83 -5.0887 -1.06523 0
M  V30 21762 C 2083.51 -4.73988 -1.66256 0
M  V30 21763 C 2085.5 -6.34857 -0.568774 0
M  V30 21764 C 2083.19 -5.99946 -1.16223 0
M  V30 21765 C 2084.19 -6.80214 -0.616267 0
M  V30 21766 O 2083.88 -8.03805 -0.123412 0
M  V30 21767 H 2083.61 -0.588533 -0.332572 0
M  V30 21768 H 2086.16 -2.01572 -0.394676 0
M  V30 21769 H 2084.39 -2.57141 -2.88817 0
M  V30 21770 H 2086.08 -2.97172 -2.76485 0
M  V30 21771 H 2086.85 -4.74106 -1.02219 0
M  V30 21772 H 2082.73 -4.11564 -2.07692 0
M  V30 21773 H 2086.27 -6.97456 -0.141967 0
M  V30 21774 H 2082.17 -6.34204 -1.2023 0
M  V30 21775 H 2082.94 -8.18147 -0.240214 0
M  V30 21776 N 2085.6 0.599608 -1.45748 0
M  V30 21777 C 2086.82 1.38971 -1.53954 0
M  V30 21778 C 2087.25 1.87278 -0.175618 0
M  V30 21779 O 2086.61 1.60602 0.841223 0
M  V30 21780 C 2086.66 2.56482 -2.53474 0
M  V30 21781 O 2085.76 3.57375 -2.05808 0
M  V30 21782 H 2085.1 0.414567 -0.518681 0
M  V30 21783 H 2087.63 0.728972 -1.91173 0
M  V30 21784 H 2087.64 3.03623 -2.72539 0
M  V30 21785 H 2086.32 2.20672 -3.52529 0
M  V30 21786 H 2084.89 3.1683 -1.96656 0
M  V30 21787 N 2087.08 1.33171 0.842803 0
M  V30 21788 C 2088.01 1.2572 1.96766 0
M  V30 21789 C 2088.99 0.138574 1.69535 0
M  V30 21790 O 2090.17 0.327704 1.91415 0
M  V30 21791 C 2087.3 0.991637 3.32842 0
M  V30 21792 C 2086.26 2.07278 3.74459 0
M  V30 21793 C 2085.58 1.65942 5.08299 0
M  V30 21794 C 2086.88 3.48911 3.88662 0
M  V30 21795 H 2088.58 2.19834 2.03257 0
M  V30 21796 H 2086.12 1.05829 0.976533 0
M  V30 21797 H 2088.08 0.926021 4.111 0
M  V30 21798 H 2086.8 0.0148823 3.26597 0
M  V30 21799 H 2085.46 2.12875 2.98462 0
M  V30 21800 H 2085.11 0.669795 4.98521 0
M  V30 21801 H 2084.81 2.38288 5.37115 0
M  V30 21802 H 2086.33 1.60839 5.89036 0
M  V30 21803 H 2087.75 3.45837 4.57241 0
M  V30 21804 H 2086.14 4.1971 4.2891 0
M  V30 21805 H 2087.21 3.87705 2.91226 0
M  V30 21806 N 2088.56 -1.06056 1.16576 0
M  V30 21807 C 2089.83 -1.75733 0.858908 0
M  V30 21808 C 2090.21 -2.01077 -0.642746 0
M  V30 21809 O 2089.56 -1.63981 -1.5913 0
M  V30 21810 C 2089.77 -3.0567 1.68425 0
M  V30 21811 C 2091.12 -3.7978 1.89874 0
M  V30 21812 O 2092.14 -3.15517 1.65311 0
M  V30 21813 O 2091 -4.95232 2.311 0
M  V30 21814 H 2088.1 -0.763759 0.317177 0
M  V30 21815 H 2090.64 -1.12303 1.27225 0
M  V30 21816 H 2089.41 -2.82923 2.70315 0
M  V30 21817 H 2089.04 -3.76835 1.26811 0
M  V30 21818 N 2090.03 -0.964615 -1.24631 0
M  V30 21819 C 2090.97 -0.436956 -2.23978 0
M  V30 21820 C 2091.94 0.487238 -1.55128 0
M  V30 21821 O 2093.13 0.419325 -1.83777 0
M  V30 21822 C 2090.26 0.369565 -3.36678 0
M  V30 21823 C 2089.3 -0.496467 -4.23601 0
M  V30 21824 S 2090.13 -1.9348 -4.99325 0
M  V30 21825 C 2091.29 -1.13698 -6.15486 0
M  V30 21826 H 2091.52 -1.27886 -2.68388 0
M  V30 21827 H 2089.06 -0.769419 -1.33863 0
M  V30 21828 H 2091.01 0.828933 -4.02043 0
M  V30 21829 H 2089.68 1.18641 -2.90832 0
M  V30 21830 H 2088.87 0.122614 -5.03851 0
M  V30 21831 H 2088.47 -0.891439 -3.63221 0
M  V30 21832 H 2090.76 -0.390494 -6.76374 0
M  V30 21833 H 2091.71 -1.91375 -6.81749 0
M  V30 21834 H 2092.11 -0.662712 -5.60596 0
M  V30 21835 N 2091.51 1.39445 -0.734362 0
M  V30 21836 C 2092.44 2.33245 -0.109065 0
M  V30 21837 C 2093.42 1.53878 0.724945 0
M  V30 21838 O 2094.61 1.82274 0.670055 0
M  V30 21839 C 2091.74 3.37973 0.799454 0
M  V30 21840 C 2090.69 4.27943 0.0696508 0
M  V30 21841 C 2090.02 5.23365 1.09514 0
M  V30 21842 C 2091.32 5.10855 -1.08738 0
M  V30 21843 H 2093.01 2.85786 -0.892581 0
M  V30 21844 H 2090.56 1.37409 -0.430672 0
M  V30 21845 H 2092.51 4.02545 1.24643 0
M  V30 21846 H 2091.23 2.83871 1.61508 0
M  V30 21847 H 2089.89 3.64851 -0.357693 0
M  V30 21848 H 2089.54 4.65559 1.90432 0
M  V30 21849 H 2089.24 5.84408 0.611606 0
M  V30 21850 H 2090.77 5.90813 1.54183 0
M  V30 21851 H 2092.18 5.68775 -0.718888 0
M  V30 21852 H 2090.58 5.81038 -1.50051 0
M  V30 21853 H 2091.65 4.45725 -1.90937 0
M  V30 21854 N 2092.99 0.481946 1.5005 0
M  V30 21855 C 2094.24 -0.0693805 2.02681 0
M  V30 21856 C 2094.57 -1.3839 1.36242 0
M  V30 21857 O 2093.84 -1.88182 0.491706 0
M  V30 21858 C 2094.13 -0.24187 3.59287 0
M  V30 21859 C 2093.98 1.09443 4.36282 0
M  V30 21860 C 2095.3 -0.991404 4.28788 0
M  V30 21861 H 2092.42 -0.0237405 0.736618 0
M  V30 21862 H 2095.06 0.629651 1.79263 0
M  V30 21863 H 2093.21 -0.837271 3.79371 0
M  V30 21864 H 2094.88 1.72725 4.27743 0
M  V30 21865 H 2093.12 1.68843 3.99593 0
M  V30 21866 H 2093.8 0.92726 5.44156 0
M  V30 21867 H 2096.27 -0.486628 4.13245 0
M  V30 21868 H 2095.15 -1.08091 5.38152 0
M  V30 21869 H 2095.41 -2.03061 3.92707 0
M  V30 21870 N 2094.47 -1.56127 0.214985 0
M  V30 21871 C 2095.7 -2.02519 -0.423533 0
M  V30 21872 C 2096.11 -1.0949 -1.5381 0
M  V30 21873 O 2095.47 -0.103303 -1.82207 0
M  V30 21874 C 2095.52 -3.48484 -0.961313 0
M  V30 21875 O 2095.24 -4.37965 0.108806 0
M  V30 21876 C 2096.74 -4.10489 -1.67373 0
M  V30 21877 H 2093.96 -0.662835 -0.104359 0
M  V30 21878 H 2096.5 -2.01828 0.329517 0
M  V30 21879 H 2094.66 -3.49811 -1.66466 0
M  V30 21880 H 2095.07 -5.23673 -0.294413 0
M  V30 21881 H 2096.55 -5.14412 -2.00209 0
M  V30 21882 H 2097.02 -3.55102 -2.58455 0
M  V30 21883 H 2097.63 -4.12992 -1.01575 0
M  V30 21884 N 2095.95 0.0584645 -1.57492 0
M  V30 21885 C 2096.86 1.08563 -2.07969 0
M  V30 21886 C 2097.87 1.41545 -1.01198 0
M  V30 21887 O 2099.05 1.51455 -1.32753 0
M  V30 21888 C 2096.11 2.37616 -2.52467 0
M  V30 21889 C 2095.17 2.11485 -3.73594 0
M  V30 21890 C 2094.41 3.34384 -4.1596 0
M  V30 21891 O 2094.63 4.43997 -3.58083 0
M  V30 21892 O 2093.56 3.21812 -5.08646 0
M  V30 21893 H 2097.39 0.686764 -2.95833 0
M  V30 21894 H 2094.97 0.273502 -1.46875 0
M  V30 21895 H 2096.86 3.13541 -2.81549 0
M  V30 21896 H 2095.53 2.76857 -1.67726 0
M  V30 21897 H 2094.44 1.33222 -3.49575 0
M  V30 21898 H 2095.77 1.77117 -4.59228 0
M  V30 21899 N 2097.42 1.54103 0.330149 0
M  V30 21900 C 2098.36 1.77865 1.42966 0
M  V30 21901 C 2099.33 0.62832 1.4997 0
M  V30 21902 O 2100.52 0.865011 1.67481 0
M  V30 21903 C 2097.65 1.88931 2.8111 0
M  V30 21904 C 2096.69 3.11177 2.91669 0
M  V30 21905 S 2097.52 4.69933 2.56755 0
M  V30 21906 C 2098.68 4.83896 3.96982 0
M  V30 21907 H 2098.91 2.70846 1.22596 0
M  V30 21908 H 2096.45 1.45142 0.526603 0
M  V30 21909 H 2098.4 1.95992 3.6069 0
M  V30 21910 H 2097.07 0.969392 2.98767 0
M  V30 21911 H 2096.26 3.15635 3.92925 0
M  V30 21912 H 2095.86 3.02412 2.20053 0
M  V30 21913 H 2098.15 4.66129 4.91661 0
M  V30 21914 H 2099.1 5.85995 3.97511 0
M  V30 21915 H 2099.5 4.12249 3.85631 0
M  V30 21916 N 2098.9 -0.59187 1.46064 0
M  V30 21917 C 2100.15 -1.3504 1.50899 0
M  V30 21918 C 2100.48 -1.93865 0.156992 0
M  V30 21919 O 2099.73 -1.76455 -0.846284 0
M  V30 21920 C 2100.03 -2.50587 2.54835 0
M  V30 21921 C 2099.7 -2.09811 3.99111 0
M  V30 21922 C 2098.36 -1.98406 4.38393 0
M  V30 21923 C 2100.71 -1.78225 4.89781 0
M  V30 21924 C 2098.04 -1.53658 5.66221 0
M  V30 21925 C 2100.39 -1.34959 6.18036 0
M  V30 21926 C 2099.06 -1.22123 6.56233 0
M  V30 21927 H 2098.33 -0.494146 0.552178 0
M  V30 21928 H 2100.97 -0.667418 1.79493 0
M  V30 21929 H 2099.28 -3.24292 2.19868 0
M  V30 21930 H 2100.97 -3.08809 2.55809 0
M  V30 21931 H 2097.56 -2.1962 3.68056 0
M  V30 21932 H 2101.75 -1.85927 4.60158 0
M  V30 21933 H 2097 -1.42356 5.94596 0
M  V30 21934 H 2101.18 -1.09569 6.87726 0
M  V30 21935 H 2098.81 -0.872249 7.55179 0
M  V30 21936 N 2100.38 -1.33616 -0.835729 0
M  V30 21937 C 2101.8 -1.13019 -1.12689 0
M  V30 21938 C 2102 0.0768335 -2.01353 0
M  V30 21939 O 2101.05 0.756169 -2.40911 0
M  V30 21940 C 2102.37 -2.41918 -1.78595 0
M  V30 21941 C 2103.91 -2.47854 -1.91147 0
M  V30 21942 C 2104.39 -3.76723 -2.60469 0
M  V30 21943 N 2105.88 -3.77811 -2.67979 0
M  V30 21944 C 2106.61 -4.74237 -3.22315 0
M  V30 21945 N 2106.11 -5.81039 -3.77313 0
M  V30 21946 N 2107.9 -4.61709 -3.20596 0
M  V30 21947 H 2100.05 -2.10974 -0.245697 0
M  V30 21948 H 2102.32 -0.932353 -0.171526 0
M  V30 21949 H 2102.02 -3.30264 -1.20906 0
M  V30 21950 H 2101.9 -2.54302 -2.78586 0
M  V30 21951 H 2104.28 -1.59955 -2.47989 0
M  V30 21952 H 2104.37 -2.39408 -0.900965 0
M  V30 21953 H 2104.01 -4.65005 -2.04286 0
M  V30 21954 H 2103.94 -3.82447 -3.61998 0
M  V30 21955 H 2106.43 -3.00626 -2.28982 0
M  V30 21956 H 2106.74 -6.50648 -4.16986 0
M  V30 21957 H 2105.09 -5.8477 -3.75592 0
M  V30 21958 H 2108.28 -3.77426 -2.76888 0
M  V30 21959 H 2108.45 -5.37026 -3.62639 0
M  V30 21960 N 2101.86 1.05436 -1.17136 0
M  V30 21961 C 2102.77 2.16633 -0.900413 0
M  V30 21962 C 2103.78 1.7351 0.130523 0
M  V30 21963 O 2104.96 2.01342 -0.0481629 0
M  V30 21964 C 2102.03 3.4421 -0.414754 0
M  V30 21965 C 2101.09 4.01793 -1.51198 0
M  V30 21966 C 2100.32 5.23281 -1.0494 0
M  V30 21967 O 2100.54 5.70317 0.0974405 0
M  V30 21968 O 2099.48 5.73041 -1.8414 0
M  V30 21969 H 2103.3 2.42336 -1.83049 0
M  V30 21970 H 2100.89 1.15137 -0.952042 0
M  V30 21971 H 2102.77 4.21128 -0.151319 0
M  V30 21972 H 2101.44 3.20013 0.487199 0
M  V30 21973 H 2100.35 3.26326 -1.82926 0
M  V30 21974 H 2101.68 4.30304 -2.38955 0
M  V30 21975 N 2103.34 0.971211 1.24118 0
M  V30 21976 C 2104.57 0.651802 1.96049 0
M  V30 21977 C 2104.97 -0.783604 1.7221 0
M  V30 21978 O 2104.32 -1.53782 1.00483 0
M  V30 21979 C 2104.38 0.850953 3.49284 0
M  V30 21980 C 2104.04 2.26667 3.96826 0
M  V30 21981 C 2105.04 3.24467 4.06223 0
M  V30 21982 C 2102.73 2.5953 4.30057 0
M  V30 21983 C 2104.72 4.53215 4.4819 0
M  V30 21984 C 2102.41 3.88503 4.71708 0
M  V30 21985 C 2103.4 4.85158 4.8074 0
M  V30 21986 O 2103.09 6.1183 5.21459 0
M  V30 21987 H 2102.82 0.241912 0.631233 0
M  V30 21988 H 2105.38 1.30265 1.58809 0
M  V30 21989 H 2103.61 0.142941 3.86436 0
M  V30 21990 H 2105.3 0.530099 4.02424 0
M  V30 21991 H 2106.06 3.00407 3.80763 0
M  V30 21992 H 2101.94 1.85015 4.22245 0
M  V30 21993 H 2105.49 5.28659 4.55155 0
M  V30 21994 H 2101.38 4.12363 4.96616 0
M  V30 21995 H 2102.15 6.15448 5.39598 0
M  V30 21996 N 2104.81 -1.39054 0.741747 0
M  V30 21997 C 2105.76 -2.32404 0.0954067 0
M  V30 21998 C 2106.76 -1.53411 -0.71843 0
M  V30 21999 O 2107.96 -1.69027 -0.618858 0
M  V30 22000 H 2104.34 -0.751903 0.0120533 0
M  V30 22001 H 2106.31 -2.84536 0.899003 0
M  V30 22002 C 2105.06 -3.38546 -0.79258 0
M  V30 22003 H 2104.38 -3.99414 -0.175739 0
M  V30 22004 H 2105.82 -4.06299 -1.21232 0
M  V30 22005 C 2104.28 -2.76145 -1.92991 0
M  V30 22006 O 2104.81 -2.6452 -3.02311 0
M  V30 22007 N 2103.02 -2.34131 -1.72137 0
M  V30 22008 H 2102.56 -2.43786 -0.832227 0
M  V30 22009 H 2102.52 -1.92721 -2.48407 0
M  V30 22010 N 2106.29 -0.489897 -1.49792 0
M  V30 22011 C 2107.24 0.31345 -2.25835 0
M  V30 22012 C 2108.23 0.945221 -1.30209 0
M  V30 22013 O 2109.42 0.854657 -1.54999 0
M  V30 22014 C 2106.55 1.38388 -3.14171 0
M  V30 22015 C 2105.63 0.758908 -4.17255 0
M  V30 22016 N 2106.02 -0.131925 -5.05628 0
M  V30 22017 C 2104.32 1.02075 -4.34162 0
M  V30 22018 C 2105.02 -0.488548 -5.79645 0
M  V30 22019 N 2104 0.140856 -5.43417 0
M  V30 22020 H 2107.8 -0.372499 -2.9153 0
M  V30 22021 H 2105.32 -0.305248 -1.59505 0
M  V30 22022 H 2107.31 1.97275 -3.67271 0
M  V30 22023 H 2105.97 2.07163 -2.50027 0
M  V30 22024 H 2106.98 -0.502015 -5.15461 0
M  V30 22025 H 2103.66 1.70207 -3.81229 0
M  V30 22026 H 2105.05 -1.21668 -6.60792 0
M  V30 22027 N 2107.77 1.56011 -0.223262 0
M  V30 22028 C 2109.19 1.59052 0.132091 0
M  V30 22029 C 2109.39 1.2401 1.5882 0
M  V30 22030 O 2108.44 0.976155 2.32868 0
M  V30 22031 C 2109.76 3.00062 -0.195742 0
M  V30 22032 C 2111.3 3.12695 -0.138118 0
M  V30 22033 C 2111.78 4.55885 -0.439651 0
M  V30 22034 N 2113.27 4.61561 -0.389284 0
M  V30 22035 C 2114 5.70293 -0.596069 0
M  V30 22036 N 2113.5 6.87382 -0.86472 0
M  V30 22037 N 2115.29 5.59611 -0.528389 0
M  V30 22038 H 2107.44 1.77064 -1.17312 0
M  V30 22039 H 2109.71 0.823097 -0.470336 0
M  V30 22040 H 2109.41 3.3036 -1.20644 0
M  V30 22041 H 2109.29 3.74024 0.48845 0
M  V30 22042 H 2111.67 2.82192 0.863219 0
M  V30 22043 H 2111.76 2.41059 -0.855813 0
M  V30 22044 H 2111.4 4.87105 -1.43843 0
M  V30 22045 H 2111.33 5.25749 0.299255 0
M  V30 22046 H 2113.82 3.77425 -0.189406 0
M  V30 22047 H 2114.13 7.66164 -1.01056 0
M  V30 22048 H 2112.48 6.89123 -0.901933 0
M  V30 22049 H 2115.67 4.67014 -0.318724 0
M  V30 22050 H 2115.84 6.44284 -0.69295 0
M  V30 22051 N 2109.25 -0.0501116 1.5752 0
M  V30 22052 C 2110.2 -1.06457 2.01621 0
M  V30 22053 C 2111.18 -1.3325 0.901851 0
M  V30 22054 O 2112.37 -1.33187 1.16577 0
M  V30 22055 C 2109.5 -2.37203 2.48173 0
M  V30 22056 C 2108.59 -2.13592 3.66387 0
M  V30 22057 N 2108.98 -1.59973 4.79836 0
M  V30 22058 C 2107.28 -2.43972 3.73355 0
M  V30 22059 C 2107.98 -1.5168 5.61576 0
M  V30 22060 N 2106.96 -1.985 5.06062 0
M  V30 22061 H 2110.76 -0.643677 2.86765 0
M  V30 22062 H 2108.27 -0.256812 1.60357 0
M  V30 22063 H 2110.27 -3.10665 2.78016 0
M  V30 22064 H 2108.93 -2.7999 1.64425 0
M  V30 22065 H 2109.94 -1.28533 5.01697 0
M  V30 22066 H 2106.62 -2.89977 3.00366 0
M  V30 22067 H 2108.01 -1.10893 6.62686 0
M  V30 22068 N 2110.73 -1.54276 -0.321972 0
M  V30 22069 C 2111.95 -1.76841 -1.0836 0
M  V30 22070 C 2112.38 -0.5163 -1.80876 0
M  V30 22071 O 2111.73 0.532225 -1.73312 0
M  V30 22072 C 2111.78 -2.96236 -2.05613 0
M  V30 22073 O 2110.89 -2.67893 -3.1354 0
M  V30 22074 H 2110.23 -0.585948 -0.312347 0
M  V30 22075 H 2112.76 -2.01304 -0.365783 0
M  V30 22076 H 2112.77 -3.23627 -2.48455 0
M  V30 22077 H 2111.44 -3.87037 -1.52234 0
M  V30 22078 H 2110.02 -2.51456 -2.75362 0
M  V30 22079 N 2112.2 0.584116 -1.46376 0
M  V30 22080 C 2113.45 1.34437 -1.51837 0
M  V30 22081 C 2113.78 1.93464 -0.168948 0
M  V30 22082 O 2113.06 1.76395 0.819455 0
M  V30 22083 C 2113.34 2.47477 -2.61586 0
M  V30 22084 C 2113.19 1.93494 -4.06054 0
M  V30 22085 C 2114.51 3.49527 -2.6743 0
M  V30 22086 H 2111.63 0.487455 -0.552772 0
M  V30 22087 H 2114.27 0.656303 -1.78305 0
M  V30 22088 H 2112.42 3.0617 -2.39148 0
M  V30 22089 H 2114.1 1.39268 -4.39775 0
M  V30 22090 H 2112.34 1.24333 -4.15601 0
M  V30 22091 H 2113.01 2.75087 -4.78572 0
M  V30 22092 H 2115.49 3.00712 -2.87596 0
M  V30 22093 H 2114.36 4.26082 -3.46043 0
M  V30 22094 H 2114.62 4.06664 -1.73426 0
M  V30 22095 N 2113.68 1.34058 0.828631 0
M  V30 22096 C 2114.93 1.25844 1.58138 0
M  V30 22097 C 2115.25 -0.173004 1.94231 0
M  V30 22098 O 2114.52 -1.10425 1.61812 0
M  V30 22099 H 2113.1 0.4628 0.586366 0
M  V30 22100 H 2115.76 1.67901 0.989709 0
M  V30 22101 H 2114.86 1.85925 2.50676 0
M  V30 22102 N 2115.16 -1.04814 1.17694 0
M  V30 22103 C 2116.12 -2.10819 0.899339 0
M  V30 22104 C 2117.12 -1.60409 -0.112116 0
M  V30 22105 O 2118.31 -1.73783 0.120484 0
M  V30 22106 C 2115.45 -3.39121 0.34786 0
M  V30 22107 H 2116.64 -2.36878 1.83926 0
M  V30 22108 H 2114.19 -1.21119 0.987923 0
M  V30 22109 H 2114.93 -3.1872 -0.599026 0
M  V30 22110 H 2114.71 -3.77022 1.07688 0
M  V30 22111 H 2116.2 -4.17245 0.172084 0
M  V30 22112 N 2116.64 -0.977779 -1.23601 0
M  V30 22113 C 2117.87 -0.663151 -1.95984 0
M  V30 22114 C 2118.28 0.769376 -1.72412 0
M  V30 22115 O 2117.64 1.51741 -1.01395 0
M  V30 22116 C 2117.69 -0.940786 -3.49044 0
M  V30 22117 O 2117.41 -2.31701 -3.71815 0
M  V30 22118 C 2118.91 -0.641745 -4.3863 0
M  V30 22119 H 2116.13 -0.246565 -0.624057 0
M  V30 22120 H 2118.68 -1.30845 -1.57162 0
M  V30 22121 H 2116.83 -0.341537 -3.85892 0
M  V30 22122 H 2117.25 -2.40469 -4.66128 0
M  V30 22123 H 2118.72 -0.886389 -5.44837 0
M  V30 22124 H 2119.2 0.42415 -4.37147 0
M  V30 22125 H 2119.8 -1.22135 -4.07386 0
M  V30 22126 N 2118.12 1.38658 -0.749111 0
M  V30 22127 C 2119.05 2.33116 -0.133797 0
M  V30 22128 C 2120.03 1.54639 0.708583 0
M  V30 22129 O 2121.21 1.82975 0.650684 0
M  V30 22130 C 2118.34 3.38802 0.763563 0
M  V30 22131 C 2117.3 4.27993 0.0242578 0
M  V30 22132 C 2116.62 5.24497 1.03957 0
M  V30 22133 C 2117.92 5.09673 -1.14151 0
M  V30 22134 H 2119.62 2.84823 -0.922842 0
M  V30 22135 H 2117.16 1.36944 -0.445221 0
M  V30 22136 H 2119.12 4.03844 1.20366 0
M  V30 22137 H 2117.84 2.85568 1.58488 0
M  V30 22138 H 2116.5 3.64451 -0.39637 0
M  V30 22139 H 2116.15 4.67552 1.85483 0
M  V30 22140 H 2115.85 5.85024 0.549587 0
M  V30 22141 H 2117.37 5.92415 1.47908 0
M  V30 22142 H 2118.79 5.6798 -0.779174 0
M  V30 22143 H 2117.18 5.79413 -1.56206 0
M  V30 22144 H 2118.25 4.43675 -1.95654 0
M  V30 22145 N 2119.6 0.497834 1.49531 0
M  V30 22146 C 2120.51 -0.286926 2.32839 0
M  V30 22147 C 2121.52 -0.970397 1.44427 0
M  V30 22148 O 2122.7 -0.952478 1.77454 0
M  V30 22149 C 2119.76 -1.33928 3.19788 0
M  V30 22150 C 2118.82 -0.669588 4.24046 0
M  V30 22151 C 2118.06 -1.67181 5.0684 0
M  V30 22152 O 2118.28 -2.90132 4.91101 0
M  V30 22153 O 2117.21 -1.22887 5.89222 0
M  V30 22154 H 2121.04 0.394869 3.01122 0
M  V30 22155 H 2118.62 0.259218 1.47134 0
M  V30 22156 H 2120.51 -1.94822 3.73661 0
M  V30 22157 H 2119.18 -2.00407 2.54202 0
M  V30 22158 H 2118.09 -0.0209922 3.74094 0
M  V30 22159 H 2119.42 -0.0473067 4.92177 0
M  V30 22160 N 2121.07 -1.5589 0.231532 0
M  V30 22161 C 2122.04 -2.19461 -0.661012 0
M  V30 22162 C 2123.04 -1.15936 -1.11424 0
M  V30 22163 O 2124.23 -1.41111 -1.02144 0
M  V30 22164 C 2121.36 -2.82592 -1.90669 0
M  V30 22165 H 2122.55 -2.9971 -0.106607 0
M  V30 22166 H 2120.1 -1.5629 -0.0180602 0
M  V30 22167 H 2120.84 -2.06239 -2.50272 0
M  V30 22168 H 2120.62 -3.58412 -1.59007 0
M  V30 22169 H 2122.11 -3.3129 -2.54238 0
M  V30 22170 N 2122.55 0.0417572 -1.57545 0
M  V30 22171 C 2123.48 1.04602 -2.0876 0
M  V30 22172 C 2124.46 1.3851 -0.987368 0
M  V30 22173 O 2125.65 1.47615 -1.26188 0
M  V30 22174 C 2122.78 2.35076 -2.55649 0
M  V30 22175 C 2121.73 2.15444 -3.69821 0
M  V30 22176 C 2121.06 3.51566 -4.02871 0
M  V30 22177 C 2122.36 1.55098 -4.9874 0
M  V30 22178 H 2124.05 0.619732 -2.92916 0
M  V30 22179 H 2121.6 0.296659 -1.40911 0
M  V30 22180 H 2123.55 3.0565 -2.90097 0
M  V30 22181 H 2122.27 2.79741 -1.6856 0
M  V30 22182 H 2120.93 1.47306 -3.35703 0
M  V30 22183 H 2120.58 3.93857 -3.12867 0
M  V30 22184 H 2120.28 3.3926 -4.79767 0
M  V30 22185 H 2121.81 4.23523 -4.39842 0
M  V30 22186 H 2123.22 2.15573 -5.31226 0
M  V30 22187 H 2121.62 1.53403 -5.80162 0
M  V30 22188 H 2122.69 0.515437 -4.82153 0
M  V30 22189 N 2124.03 1.54445 0.313786 0
M  V30 22190 C 2125.28 1.73117 1.05056 0
M  V30 22191 C 2125.6 0.510078 1.87692 0
M  V30 22192 O 2124.86 -0.508109 1.88989 0
M  V30 22193 C 2125.16 2.96492 1.99568 0
M  V30 22194 C 2124.82 4.30835 1.3301 0
M  V30 22195 C 2123.49 4.67357 1.14589 0
M  V30 22196 C 2125.84 5.14169 0.853216 0
M  V30 22197 C 2123.17 5.84803 0.471447 0
M  V30 22198 C 2125.52 6.32307 0.192549 0
M  V30 22199 C 2124.18 6.675 -0.00372174 0
M  V30 22200 H 2123.45 0.633479 0.384428 0
M  V30 22201 H 2126.1 1.88693 0.326706 0
M  V30 22202 H 2124.4 2.75643 2.78438 0
M  V30 22203 H 2126.1 3.08133 2.56623 0
M  V30 22204 H 2122.69 4.02107 1.48351 0
M  V30 22205 H 2126.88 4.86462 0.983284 0
M  V30 22206 H 2122.13 6.10622 0.308274 0
M  V30 22207 H 2126.31 6.96154 -0.184925 0
M  V30 22208 H 2123.93 7.58362 -0.52835 0
M  V30 22209 N 2125.51 -0.576345 1.46683 0
M  V30 22210 C 2126.44 -1.69965 1.53768 0
M  V30 22211 C 2127.45 -1.57142 0.425462 0
M  V30 22212 O 2128.64 -1.6445 0.694142 0
M  V30 22213 C 2125.74 -3.08273 1.40788 0
M  V30 22214 C 2124.91 -3.47036 2.66242 0
M  V30 22215 C 2123.97 -4.6443 2.47369 0
M  V30 22216 O 2123 -4.69971 3.21117 0
M  V30 22217 N 2124.2 -5.59714 1.53948 0
M  V30 22218 H 2126.97 -1.6434 2.50624 0
M  V30 22219 H 2124.53 -0.762495 1.4282 0
M  V30 22220 H 2126.52 -3.8461 1.25925 0
M  V30 22221 H 2125.09 -3.0823 0.520883 0
M  V30 22222 H 2124.31 -2.6034 2.96001 0
M  V30 22223 H 2125.6 -3.69703 3.49567 0
M  V30 22224 H 2125 -5.57979 0.931464 0
M  V30 22225 H 2123.55 -6.35456 1.45046 0
M  V30 22226 N 2126.99 -1.34495 -0.82151 0
M  V30 22227 C 2128.23 -1.26681 -1.57469 0
M  V30 22228 C 2128.55 0.162701 -1.9432 0
M  V30 22229 O 2127.82 1.09566 -1.62395 0
M  V30 22230 H 2126.4 -0.465903 -0.583903 0
M  V30 22231 H 2129.07 -1.68424 -0.980791 0
M  V30 22232 H 2128.16 -1.87251 -2.49686 0
M  V30 22233 N 2128.46 1.04188 -1.18248 0
M  V30 22234 C 2129.88 1.58822 -0.981458 0
M  V30 22235 C 2130.23 1.90507 0.469187 0
M  V30 22236 O 2129.35 1.6942 1.34632 0
M  V30 22237 C 2129.95 2.88565 -1.77526 0
M  V30 22238 C 2128.51 3.3982 -1.61862 0
M  V30 22239 C 2127.65 2.13421 -1.77051 0
M  V30 22240 H 2130.6 0.868749 -1.3281 0
M  V30 22241 H 2130.62 3.58905 -1.26362 0
M  V30 22242 H 2130.14 2.65472 -2.83101 0
M  V30 22243 H 2128.24 3.67928 -0.588186 0
M  V30 22244 H 2128.35 4.13728 -2.4159 0
M  V30 22245 H 2126.71 2.24667 -1.19986 0
M  V30 22246 H 2127.5 1.92785 -2.84058 0
M  V30 22247 N 2129.94 0.98432 1.23081 0
M  V30 22248 C 2131.35 0.691779 1.73411 0
M  V30 22249 C 2131.7 -0.791814 1.79513 0
M  V30 22250 O 2130.83 -1.61921 1.43563 0
M  V30 22251 C 2131.42 1.24906 3.14935 0
M  V30 22252 C 2129.98 1.00608 3.62705 0
M  V30 22253 C 2129.13 1.37443 2.40842 0
M  V30 22254 H 2132.08 1.1577 1.08549 0
M  V30 22255 H 2132.1 0.623401 3.75358 0
M  V30 22256 H 2131.61 2.32884 3.10462 0
M  V30 22257 H 2129.72 -0.0574556 3.72556 0
M  V30 22258 H 2129.83 1.66341 4.49296 0
M  V30 22259 H 2128.19 0.792926 2.42043 0
M  V30 22260 H 2128.98 2.46407 2.39037 0
M  V30 22261 N 2131.42 -1.38259 0.756453 0
M  V30 22262 C 2132.67 -1.99293 0.310658 0
M  V30 22263 C 2132.98 -1.60729 -1.11469 0
M  V30 22264 O 2134.19 -2.14755 -1.6611 0
M  V30 22265 C 2132.64 -3.56347 0.50448 0
M  V30 22266 C 2132.25 -4.0386 1.9391 0
M  V30 22267 C 2134 -4.24326 0.121541 0
M  V30 22268 C 2131.9 -5.53565 2.08133 0
M  V30 22269 H 2130.83 -0.745574 0.112405 0
M  V30 22270 H 2133.48 -1.57987 0.933403 0
M  V30 22271 H 2131.87 -3.95556 -0.187493 0
M  V30 22272 H 2133.04 -3.75934 2.66478 0
M  V30 22273 H 2131.36 -3.48614 2.27722 0
M  V30 22274 H 2133.95 -5.34301 0.206533 0
M  V30 22275 H 2134.3 -4.05866 -0.926213 0
M  V30 22276 H 2134.83 -3.90366 0.765478 0
M  V30 22277 H 2131.57 -5.76933 3.11173 0
M  V30 22278 H 2131.09 -5.83225 1.4003 0
M  V30 22279 H 2132.77 -6.19307 1.87264 0
M  V30 22280 N 2132.9 -0.505757 -1.49264 0
M  V30 22281 C 2134.13 0.0336911 -2.06573 0
M  V30 22282 C 2134.54 1.30934 -1.36576 0
M  V30 22283 O 2133.88 1.7837 -0.439315 0
M  V30 22284 C 2133.94 0.352849 -3.57764 0
M  V30 22285 C 2133.61 -0.825771 -4.49478 0
M  V30 22286 C 2134.6 -1.71758 -4.90709 0
M  V30 22287 C 2132.29 -1.02592 -4.91711 0
M  V30 22288 C 2134.28 -2.79364 -5.72918 0
M  V30 22289 C 2131.97 -2.10516 -5.73695 0
M  V30 22290 C 2132.97 -2.98736 -6.14203 0
M  V30 22291 O 2132.65 -4.04796 -6.94547 0
M  V30 22292 H 2132.39 -0.019393 -0.675722 0
M  V30 22293 H 2134.94 -0.703718 -1.92969 0
M  V30 22294 H 2133.17 1.14391 -3.69393 0
M  V30 22295 H 2134.86 0.831477 -3.97292 0
M  V30 22296 H 2135.63 -1.57478 -4.58722 0
M  V30 22297 H 2131.5 -0.348606 -4.5968 0
M  V30 22298 H 2135.05 -3.48252 -6.04455 0
M  V30 22299 H 2130.95 -2.24788 -6.05095 0
M  V30 22300 H 2131.71 -4.02208 -7.12861 0
M  V30 22301 N 2134.38 1.55765 -0.239796 0
M  V30 22302 C 2135.79 1.59184 0.115214 0
M  V30 22303 C 2135.99 1.25688 1.57496 0
M  V30 22304 O 2135.05 1.0008 2.31819 0
M  V30 22305 C 2136.36 2.99838 -0.227557 0
M  V30 22306 C 2137.91 3.12531 -0.171276 0
M  V30 22307 C 2138.38 4.55393 -0.487979 0
M  V30 22308 N 2139.88 4.61122 -0.438217 0
M  V30 22309 C 2140.61 5.69629 -0.656523 0
M  V30 22310 N 2140.11 6.86426 -0.937578 0
M  V30 22311 N 2141.9 5.59019 -0.587713 0
M  V30 22312 H 2134.05 1.7581 -1.19184 0
M  V30 22313 H 2136.31 0.818062 -0.47904 0
M  V30 22314 H 2136.02 3.29062 -1.24141 0
M  V30 22315 H 2135.89 3.74521 0.448752 0
M  V30 22316 H 2138.28 2.83092 0.83324 0
M  V30 22317 H 2138.36 2.40138 -0.881332 0
M  V30 22318 H 2138.01 4.85552 -1.49002 0
M  V30 22319 H 2137.94 5.26037 0.243475 0
M  V30 22320 H 2140.43 3.77203 -0.229426 0
M  V30 22321 H 2140.74 7.65049 -1.09177 0
M  V30 22322 H 2139.08 6.88127 -0.974973 0
M  V30 22323 H 2142.28 4.66649 -0.368239 0
M  V30 22324 H 2142.45 6.43513 -0.761246 0
M  V30 22325 N 2135.85 -0.0334016 1.57565 0
M  V30 22326 C 2136.76 -1.05241 2.0967 0
M  V30 22327 C 2137.78 -1.39917 1.03437 0
M  V30 22328 O 2138.96 -1.49324 1.35146 0
M  V30 22329 C 2136.02 -2.3357 2.56215 0
M  V30 22330 C 2135.08 -2.05514 3.76912 0
M  V30 22331 C 2134.32 -3.27724 4.21227 0
M  V30 22332 O 2134.54 -4.38244 3.65101 0
M  V30 22333 O 2133.47 -3.13679 5.13701 0
M  V30 22334 H 2137.3 -0.639612 2.96888 0
M  V30 22335 H 2134.88 -0.250101 1.47292 0
M  V30 22336 H 2136.77 -3.09022 2.86502 0
M  V30 22337 H 2135.44 -2.74153 1.7211 0
M  V30 22338 H 2134.35 -1.27644 3.5165 0
M  V30 22339 H 2135.68 -1.69789 4.61988 0
M  V30 22340 N 2137.33 -1.54609 -0.305591 0
M  V30 22341 C 2138.58 -1.72882 -1.03898 0
M  V30 22342 C 2138.89 -0.519195 -1.88583 0
M  V30 22343 O 2140.1 -0.583633 -2.65153 0
M  V30 22344 C 2138.56 -3.05853 -1.89689 0
M  V30 22345 C 2138.16 -4.34278 -1.10029 0
M  V30 22346 C 2139.91 -3.33485 -2.62656 0
M  V30 22347 C 2137.82 -5.58302 -1.9507 0
M  V30 22348 H 2136.75 -0.64432 -0.391621 0
M  V30 22349 H 2139.4 -1.81093 -0.296223 0
M  V30 22350 H 2137.78 -2.91594 -2.67935 0
M  V30 22351 H 2138.95 -4.59358 -0.364293 0
M  V30 22352 H 2137.27 -4.13546 -0.486653 0
M  V30 22353 H 2139.86 -4.23345 -3.26624 0
M  V30 22354 H 2140.21 -2.52157 -3.31244 0
M  V30 22355 H 2140.74 -3.48694 -1.91462 0
M  V30 22356 H 2137.48 -6.42285 -1.3096 0
M  V30 22357 H 2137 -5.37415 -2.66355 0
M  V30 22358 H 2138.68 -5.95386 -2.53228 0
M  V30 22359 N 2138.81 0.568558 -1.46987 0
M  V30 22360 C 2139.76 1.67655 -1.5862 0
M  V30 22361 C 2140.73 1.60444 -0.429761 0
M  V30 22362 O 2141.91 1.79446 -0.648355 0
M  V30 22363 C 2139.05 3.05988 -1.59578 0
M  V30 22364 C 2138.17 3.2372 -2.86058 0
M  V30 22365 C 2137.3 4.52385 -2.78427 0
M  V30 22366 C 2136.34 4.63509 -3.99782 0
M  V30 22367 N 2135.48 5.83515 -3.90454 0
M  V30 22368 H 2140.32 1.5705 -2.53257 0
M  V30 22369 H 2137.85 0.765211 -1.2563 0
M  V30 22370 H 2139.81 3.86076 -1.58118 0
M  V30 22371 H 2138.44 3.15456 -0.684628 0
M  V30 22372 H 2137.49 2.37141 -2.97436 0
M  V30 22373 H 2138.81 3.27806 -3.75959 0
M  V30 22374 H 2137.96 5.40718 -2.75152 0
M  V30 22375 H 2136.7 4.5076 -1.86191 0
M  V30 22376 H 2135.7 3.7359 -4.03374 0
M  V30 22377 H 2136.93 4.66902 -4.93132 0
M  V30 22378 H 2134.87 5.82861 -3.01013 0
M  V30 22379 H 2134.79 5.8893 -4.74022 0
M  V30 22380 H 2136.06 6.74241 -3.91177 0
M  V30 22381 N 2140.29 1.34929 0.814366 0
M  V30 22382 C 2141.54 1.27105 1.56612 0
M  V30 22383 C 2141.85 -0.154812 1.94986 0
M  V30 22384 O 2143.06 -0.355268 2.69166 0
M  V30 22385 C 2141.51 2.22863 2.82595 0
M  V30 22386 C 2141.12 3.70753 2.51489 0
M  V30 22387 C 2142.86 2.23965 3.6061 0
M  V30 22388 C 2140.77 4.58355 3.73717 0
M  V30 22389 H 2139.7 0.472214 0.587818 0
M  V30 22390 H 2142.35 1.60146 0.895848 0
M  V30 22391 H 2140.73 1.82784 3.51292 0
M  V30 22392 H 2141.91 4.19421 1.90848 0
M  V30 22393 H 2140.22 3.72182 1.86733 0
M  V30 22394 H 2142.82 2.86634 4.51381 0
M  V30 22395 H 2143.16 1.24126 3.97364 0
M  V30 22396 H 2143.7 2.62533 2.98866 0
M  V30 22397 H 2140.44 5.59163 3.42077 0
M  V30 22398 H 2139.96 4.14418 4.3361 0
M  V30 22399 H 2141.63 4.73391 4.41033 0
M  V30 22400 N 2141.77 -1.0356 1.18799 0
M  V30 22401 C 2142.99 -1.81025 1.01216 0
M  V30 22402 C 2143.42 -1.8301 -0.434636 0
M  V30 22403 O 2142.77 -1.25115 -1.3121 0
M  V30 22404 C 2142.82 -3.24257 1.57766 0
M  V30 22405 O 2141.93 -4.04518 0.802435 0
M  V30 22406 H 2141.27 -0.559085 0.358218 0
M  V30 22407 H 2143.8 -1.30389 1.57671 0
M  V30 22408 H 2143.81 -3.75022 1.60694 0
M  V30 22409 H 2142.48 -3.22127 2.63073 0
M  V30 22410 H 2141.06 -3.6318 0.845866 0
M  V30 22411 N 2143.25 -0.990834 -1.22557 0
M  V30 22412 C 2144.49 -0.666519 -1.91534 0
M  V30 22413 C 2144.82 0.799165 -1.76994 0
M  V30 22414 O 2144.1 1.57769 -1.13751 0
M  V30 22415 C 2144.38 -1.07064 -3.43816 0
M  V30 22416 C 2144.24 -2.59473 -3.67415 0
M  V30 22417 C 2145.55 -0.622332 -4.35678 0
M  V30 22418 H 2142.67 -0.243613 -0.695573 0
M  V30 22419 H 2145.32 -1.23399 -1.44474 0
M  V30 22420 H 2143.47 -0.587797 -3.84028 0
M  V30 22421 H 2145.14 -3.15412 -3.3662 0
M  V30 22422 H 2143.38 -3.01635 -3.11767 0
M  V30 22423 H 2144.05 -2.828 -4.74055 0
M  V30 22424 H 2146.53 -1.03704 -4.0297 0
M  V30 22425 H 2145.4 -0.933416 -5.40905 0
M  V30 22426 H 2145.66 0.477057 -4.39519 0
M  V30 22427 N 2144.72 1.37856 -0.763775 0
M  V30 22428 C 2145.69 2.28702 -0.151022 0
M  V30 22429 C 2146.69 1.47661 0.636627 0
M  V30 22430 O 2147.88 1.67979 0.46139 0
M  V30 22431 C 2145.01 3.31525 0.793965 0
M  V30 22432 H 2146.2 2.84397 -0.951747 0
M  V30 22433 H 2143.75 1.46987 -0.531452 0
M  V30 22434 H 2144.49 2.80939 1.61999 0
M  V30 22435 H 2144.27 3.91416 0.231444 0
M  V30 22436 H 2145.76 3.99432 1.21837 0
M  V30 22437 N 2146.2 0.513665 1.48994 0
M  V30 22438 C 2147.61 0.0690541 1.86572 0
M  V30 22439 C 2147.96 -1.34882 1.42482 0
M  V30 22440 O 2147.09 -2.00738 0.808279 0
M  V30 22441 C 2147.68 0.118539 3.38593 0
M  V30 22442 C 2146.24 -0.270792 3.75425 0
M  V30 22443 C 2145.39 0.485519 2.73016 0
M  V30 22444 H 2148.34 0.725789 1.41131 0
M  V30 22445 H 2148.36 -0.673737 3.74488 0
M  V30 22446 H 2147.87 1.1506 3.70652 0
M  V30 22447 H 2145.97 -1.30561 3.48976 0
M  V30 22448 H 2146.09 0.0574672 4.79066 0
M  V30 22449 H 2144.45 -0.066227 2.54614 0
M  V30 22450 H 2145.23 1.5179 3.0792 0
M  V30 22451 N 2147.68 -1.55636 0.248053 0
M  V30 22452 C 2148.59 -2.25074 -0.661731 0
M  V30 22453 C 2149.61 -1.26725 -1.19234 0
M  V30 22454 O 2150.78 -1.59603 -1.22836 0
M  V30 22455 C 2147.85 -2.93753 -1.84147 0
M  V30 22456 C 2146.91 -4.07514 -1.35022 0
M  V30 22457 C 2146.14 -4.72908 -2.47374 0
M  V30 22458 O 2146.36 -4.37385 -3.66129 0
M  V30 22459 O 2145.3 -5.61396 -2.17066 0
M  V30 22460 H 2149.12 -3.03535 -0.100047 0
M  V30 22461 H 2146.71 -1.49391 0.0165105 0
M  V30 22462 H 2148.59 -3.37007 -2.52991 0
M  V30 22463 H 2147.27 -2.18231 -2.39075 0
M  V30 22464 H 2146.17 -3.68774 -0.629034 0
M  V30 22465 H 2147.51 -4.84857 -0.847015 0
M  V30 22466 N 2149.16 0.0250451 -1.5758 0
M  V30 22467 C 2150.39 0.72671 -1.93718 0
M  V30 22468 C 2150.8 1.68677 -0.848148 0
M  V30 22469 O 2150.16 1.81658 0.175105 0
M  V30 22470 C 2150.21 1.4803 -3.29802 0
M  V30 22471 O 2149.93 0.55877 -4.34522 0
M  V30 22472 C 2151.43 2.27876 -3.80247 0
M  V30 22473 H 2148.65 0.203986 -0.639242 0
M  V30 22474 H 2151.19 -0.0186251 -2.04492 0
M  V30 22475 H 2149.35 2.17748 -3.20413 0
M  V30 22476 H 2149.76 1.08769 -5.13098 0
M  V30 22477 H 2151.24 2.7614 -4.77965 0
M  V30 22478 H 2151.71 3.09471 -3.11648 0
M  V30 22479 H 2152.32 1.63224 -3.92731 0
M  V30 22480 N 2150.64 1.54769 0.297388 0
M  V30 22481 C 2152.05 1.65183 0.87014 0
M  V30 22482 C 2152.4 0.562844 1.87953 0
M  V30 22483 O 2151.52 -0.299913 2.14312 0
M  V30 22484 C 2152.12 2.99437 1.58501 0
M  V30 22485 C 2150.68 3.1196 2.10612 0
M  V30 22486 C 2149.82 2.60882 0.94 0
M  V30 22487 H 2152.77 1.58526 0.0743014 0
M  V30 22488 H 2152.8 2.91063 2.45077 0
M  V30 22489 H 2152.31 3.78675 0.850115 0
M  V30 22490 H 2150.41 2.3745 2.87138 0
M  V30 22491 H 2150.52 4.1817 2.33817 0
M  V30 22492 H 2148.89 2.17426 1.32658 0
M  V30 22493 H 2149.67 3.42601 0.219 0
M  V30 22494 N 2152.11 -0.560755 1.47286 0
M  V30 22495 C 2153.52 -1.14289 1.47631 0
M  V30 22496 C 2153.88 -1.94858 0.229063 0
M  V30 22497 O 2153 -2.05887 -0.666292 0
M  V30 22498 C 2153.6 -2.07933 2.67487 0
M  V30 22499 C 2152.15 -2.61425 2.70803 0
M  V30 22500 C 2151.3 -1.37732 2.40677 0
M  V30 22501 H 2154.25 -0.347538 1.54848 0
M  V30 22502 H 2154.27 -2.91752 2.44256 0
M  V30 22503 H 2153.79 -1.49265 3.58248 0
M  V30 22504 H 2151.89 -3.239 1.84172 0
M  V30 22505 H 2152 -3.02661 3.71394 0
M  V30 22506 H 2150.36 -1.68286 1.91186 0
M  V30 22507 H 2151.15 -0.808627 3.33641 0
M  V30 22508 N 2153.59 -1.35359 -0.807199 0
M  V30 22509 C 2155 -1.25624 -1.38114 0
M  V30 22510 C 2155.35 0.11163 -1.95882 0
M  V30 22511 O 2154.48 1.01256 -1.91249 0
M  V30 22512 C 2155.07 -2.27464 -2.51088 0
M  V30 22513 C 2153.63 -2.21472 -3.04347 0
M  V30 22514 C 2152.78 -2.13208 -1.77307 0
M  V30 22515 H 2155.73 -1.46496 -0.610285 0
M  V30 22516 H 2155.75 -1.90077 -3.29623 0
M  V30 22517 H 2155.26 -3.27009 -2.09014 0
M  V30 22518 H 2153.36 -1.25336 -3.50887 0
M  V30 22519 H 2153.48 -3.13409 -3.6237 0
M  V30 22520 H 2151.84 -1.59176 -1.98834 0
M  V30 22521 H 2152.62 -3.14611 -1.37385 0
M  V30 22522 N 2155.07 1.02928 -1.19346 0
M  V30 22523 C 2156.48 1.57772 -0.998248 0
M  V30 22524 C 2156.83 1.90994 0.448955 0
M  V30 22525 O 2155.96 1.70839 1.32827 0
M  V30 22526 C 2156.55 2.86666 -1.80577 0
M  V30 22527 C 2155.11 3.38084 -1.65457 0
M  V30 22528 C 2154.26 2.11531 -1.79304 0
M  V30 22529 H 2157.21 0.854614 -1.33724 0
M  V30 22530 H 2157.23 3.57545 -1.30161 0
M  V30 22531 H 2156.74 2.62455 -2.85901 0
M  V30 22532 H 2154.84 3.67284 -0.627176 0
M  V30 22533 H 2154.96 4.11143 -2.45965 0
M  V30 22534 H 2153.32 2.23382 -1.22362 0
M  V30 22535 H 2154.1 1.89761 -2.86087 0
M  V30 22536 N 2156.55 0.997319 1.2203 0
M  V30 22537 C 2157.51 0.556352 2.22345 0
M  V30 22538 C 2158.51 -0.363165 1.56645 0
M  V30 22539 O 2159.7 -0.154511 1.73513 0
M  V30 22540 C 2156.83 -0.190172 3.40369 0
M  V30 22541 H 2158.03 1.44355 2.62872 0
M  V30 22542 H 2155.58 0.784999 1.35157 0
M  V30 22543 H 2156.31 -1.09315 3.05321 0
M  V30 22544 H 2156.1 0.470115 3.89272 0
M  V30 22545 H 2157.59 -0.486708 4.14754 0
M  V30 22546 N 2158.03 -1.37449 0.771075 0
M  V30 22547 C 2159.28 -1.98953 0.331779 0
M  V30 22548 C 2159.59 -1.61903 -1.09758 0
M  V30 22549 O 2160.79 -2.16505 -1.63823 0
M  V30 22550 C 2159.25 -3.55792 0.542247 0
M  V30 22551 C 2158.86 -4.01781 1.98183 0
M  V30 22552 C 2160.6 -4.24173 0.16654 0
M  V30 22553 C 2158.51 -5.51327 2.13993 0
M  V30 22554 H 2157.44 -0.74434 0.120306 0
M  V30 22555 H 2160.09 -1.56988 0.950108 0
M  V30 22556 H 2158.47 -3.95733 -0.145529 0
M  V30 22557 H 2159.65 -3.73086 2.7045 0
M  V30 22558 H 2157.96 -3.46179 2.31406 0
M  V30 22559 H 2160.56 -5.34052 0.263191 0
M  V30 22560 H 2160.9 -4.06825 -0.883113 0
M  V30 22561 H 2161.43 -3.89532 0.806838 0
M  V30 22562 H 2158.17 -5.736 3.17275 0
M  V30 22563 H 2157.69 -5.81707 1.46208 0
M  V30 22564 H 2159.37 -6.17286 1.93822 0
M  V30 22565 N 2159.5 -0.52156 -1.4872 0
M  V30 22566 C 2160.47 0.234979 -2.27992 0
M  V30 22567 C 2161.47 0.875433 -1.34881 0
M  V30 22568 O 2162.66 0.736784 -1.57852 0
M  V30 22569 C 2159.79 1.33914 -3.13496 0
M  V30 22570 H 2160.98 -0.460907 -2.96337 0
M  V30 22571 H 2158.54 -0.277206 -1.53822 0
M  V30 22572 H 2159.27 2.06854 -2.49763 0
M  V30 22573 H 2159.06 0.885123 -3.81979 0
M  V30 22574 H 2160.55 1.8715 -3.73316 0
M  V30 22575 N 2160.98 1.55502 -0.256304 0
M  V30 22576 C 2162.26 1.91111 0.41663 0
M  V30 22577 C 2162.64 1.17825 1.75159 0
M  V30 22578 O 2161.99 0.298822 2.26538 0
M  V30 22579 C 2162.2 3.44223 0.575462 0
M  V30 22580 C 2163.55 4.15653 0.867028 0
M  V30 22581 O 2164.57 3.50014 0.660977 0
M  V30 22582 O 2163.43 5.31777 1.25997 0
M  V30 22583 H 2160.52 0.795781 0.225083 0
M  V30 22584 H 2163.07 1.67008 -0.301066 0
M  V30 22585 H 2161.84 3.89596 -0.364767 0
M  V30 22586 H 2161.46 3.74219 1.34334 0
M  V30 22587 N 2162.46 -0.0166879 1.57591 0
M  V30 22588 C 2163.39 -1.01268 2.10398 0
M  V30 22589 C 2164.37 -1.36922 1.00928 0
M  V30 22590 O 2165.56 -1.45589 1.2852 0
M  V30 22591 C 2162.69 -2.30979 2.59357 0
M  V30 22592 C 2161.64 -2.09533 3.73202 0
M  V30 22593 C 2160.97 -3.45113 4.08413 0
M  V30 22594 C 2162.27 -1.47144 5.01145 0
M  V30 22595 H 2163.96 -0.573053 2.93865 0
M  V30 22596 H 2161.51 -0.274203 1.41365 0
M  V30 22597 H 2163.46 -3.00996 2.94923 0
M  V30 22598 H 2162.18 -2.77024 1.72989 0
M  V30 22599 H 2160.84 -1.41946 3.38004 0
M  V30 22600 H 2160.49 -3.88829 3.19094 0
M  V30 22601 H 2160.19 -3.31585 4.85104 0
M  V30 22602 H 2161.71 -4.16472 4.46524 0
M  V30 22603 H 2163.13 -2.07094 5.34588 0
M  V30 22604 H 2161.53 -1.44154 5.82529 0
M  V30 22605 H 2162.6 -0.438665 4.82912 0
M  V30 22606 N 2163.94 -1.54924 -0.289176 0
M  V30 22607 C 2164.87 -1.89696 -1.36153 0
M  V30 22608 C 2165.85 -0.757081 -1.52323 0
M  V30 22609 O 2167.03 -1.01384 -1.65635 0
M  V30 22610 C 2164.16 -2.15468 -2.7238 0
M  V30 22611 C 2163.12 -3.31307 -2.70961 0
M  V30 22612 C 2162.44 -3.42522 -4.10588 0
M  V30 22613 C 2163.74 -4.68117 -2.31655 0
M  V30 22614 H 2165.44 -2.79513 -1.07299 0
M  V30 22615 H 2162.98 -1.34486 -0.514723 0
M  V30 22616 H 2164.94 -2.3838 -3.47495 0
M  V30 22617 H 2163.66 -1.22435 -3.02783 0
M  V30 22618 H 2162.32 -3.08337 -1.98302 0
M  V30 22619 H 2161.97 -2.46985 -4.38187 0
M  V30 22620 H 2161.67 -4.20397 -4.10537 0
M  V30 22621 H 2163.19 -3.67708 -4.87466 0
M  V30 22622 H 2164.61 -4.9068 -2.96489 0
M  V30 22623 H 2163 -5.4879 -2.42796 0
M  V30 22624 H 2164.07 -4.68033 -1.26781 0
M  V30 22625 N 2165.42 0.552936 -1.47582 0
M  V30 22626 C 2166.36 1.65963 -1.60389 0
M  V30 22627 C 2167.33 1.59979 -0.446754 0
M  V30 22628 O 2168.52 1.78749 -0.667351 0
M  V30 22629 C 2165.66 3.04278 -1.62815 0
M  V30 22630 C 2164.77 3.20668 -2.89476 0
M  V30 22631 C 2163.91 4.49406 -2.8321 0
M  V30 22632 C 2162.95 4.59243 -4.04676 0
M  V30 22633 N 2162.08 5.79341 -3.96621 0
M  V30 22634 H 2166.92 1.54355 -2.54909 0
M  V30 22635 H 2164.46 0.751844 -1.26435 0
M  V30 22636 H 2166.42 3.84377 -1.62204 0
M  V30 22637 H 2165.05 3.14712 -0.718048 0
M  V30 22638 H 2164.1 2.33973 -2.99935 0
M  V30 22639 H 2165.41 3.238 -3.79414 0
M  V30 22640 H 2164.57 5.3777 -2.80872 0
M  V30 22641 H 2163.3 4.4876 -1.90961 0
M  V30 22642 H 2162.31 3.69291 -4.07314 0
M  V30 22643 H 2163.53 4.61645 -4.98057 0
M  V30 22644 H 2161.48 5.79636 -3.07178 0
M  V30 22645 H 2161.4 5.8387 -4.80242 0
M  V30 22646 H 2162.67 6.70054 -3.98306 0
M  V30 22647 N 2166.89 1.35785 0.800009 0
M  V30 22648 C 2168.12 1.32717 1.59377 0
M  V30 22649 C 2168.54 -0.0914251 1.87878 0
M  V30 22650 O 2167.9 -1.06023 1.47068 0
M  V30 22651 C 2167.95 2.14589 2.898 0
M  V30 22652 O 2167.05 1.53112 3.82924 0
M  V30 22653 H 2166.4 0.45473 0.483856 0
M  V30 22654 H 2168.93 1.7892 0.992412 0
M  V30 22655 H 2168.94 2.26784 3.39165 0
M  V30 22656 H 2167.61 3.17717 2.68382 0
M  V30 22657 H 2166.19 1.49795 3.41491 0
M  V30 22658 N 2168.37 -1.02294 1.19891 0
M  V30 22659 C 2169.62 -1.76051 1.00667 0
M  V30 22660 C 2169.95 -1.88654 -0.460802 0
M  V30 22661 O 2169.23 -1.4077 -1.34216 0
M  V30 22662 C 2169.51 -3.18331 1.68338 0
M  V30 22663 C 2169.36 -3.13562 3.22489 0
M  V30 22664 C 2170.68 -4.16859 1.41125 0
M  V30 22665 H 2167.8 -0.639057 0.367117 0
M  V30 22666 H 2170.44 -1.19377 1.47815 0
M  V30 22667 H 2168.59 -3.6672 1.28252 0
M  V30 22668 H 2170.26 -2.73025 3.71827 0
M  V30 22669 H 2168.51 -2.51121 3.53724 0
M  V30 22670 H 2169.18 -4.1411 3.64989 0
M  V30 22671 H 2171.65 -3.77097 1.75889 0
M  V30 22672 H 2170.53 -5.14592 1.91015 0
M  V30 22673 H 2170.79 -4.40809 0.33758 0
M  V30 22674 N 2169.85 -1.00378 -1.21499 0
M  V30 22675 C 2171.13 -0.601329 -1.86127 0
M  V30 22676 C 2171.51 0.921083 -1.89945 0
M  V30 22677 O 2170.86 1.80753 -1.39787 0
M  V30 22678 C 2171.07 -1.2343 -3.26445 0
M  V30 22679 C 2172.41 -1.34165 -4.02846 0
M  V30 22680 O 2173.44 -1.18952 -3.35751 0
M  V30 22681 O 2172.3 -1.58622 -5.22973 0
M  V30 22682 H 2169.39 -0.205796 -0.800985 0
M  V30 22683 H 2171.94 -1.10035 -1.29192 0
M  V30 22684 H 2170.71 -2.27515 -3.18359 0
M  V30 22685 H 2170.33 -0.721556 -3.90998 0
M  V30 22686 N 2171.33 1.37038 -0.778354 0
M  V30 22687 C 2172.55 2.0432 -0.356086 0
M  V30 22688 C 2172.98 1.58315 1.01577 0
M  V30 22689 O 2172.34 0.74645 1.65221 0
M  V30 22690 C 2172.38 3.58196 -0.41573 0
M  V30 22691 O 2171.49 4.08281 0.581416 0
M  V30 22692 H 2170.83 0.646127 -0.153022 0
M  V30 22693 H 2173.36 1.75219 -1.05639 0
M  V30 22694 H 2173.37 4.0707 -0.275375 0
M  V30 22695 H 2172.04 3.91034 -1.41652 0
M  V30 22696 H 2170.62 3.70709 0.403635 0
M  V30 22697 N 2172.81 0.529439 1.48441 0
M  V30 22698 C 2173.72 -0.237473 2.33395 0
M  V30 22699 C 2174.73 -0.939543 1.46453 0
M  V30 22700 O 2175.91 -0.914623 1.79434 0
M  V30 22701 C 2172.97 -1.27115 3.22556 0
M  V30 22702 C 2172.04 -0.579491 4.25371 0
M  V30 22703 C 2171.27 -1.56392 5.10272 0
M  V30 22704 O 2171.49 -2.79649 4.97144 0
M  V30 22705 O 2170.43 -1.10361 5.91696 0
M  V30 22706 H 2174.25 0.458653 3.00217 0
M  V30 22707 H 2171.84 0.290369 1.46551 0
M  V30 22708 H 2173.72 -1.86853 3.77709 0
M  V30 22709 H 2172.39 -1.94969 2.58396 0
M  V30 22710 H 2171.3 0.0583634 3.74054 0
M  V30 22711 H 2172.63 0.0571021 4.92167 0
M  V30 22712 N 2174.29 -1.55364 0.264547 0
M  V30 22713 C 2175.25 -2.20814 -0.614312 0
M  V30 22714 C 2176.25 -1.18274 -1.0894 0
M  V30 22715 O 2177.44 -1.43246 -0.991274 0
M  V30 22716 C 2174.57 -2.86572 -1.84632 0
M  V30 22717 H 2175.76 -2.99869 -0.0430102 0
M  V30 22718 H 2173.32 -1.56293 0.0150952 0
M  V30 22719 H 2174.05 -2.11501 -2.45841 0
M  V30 22720 H 2173.84 -3.61704 -1.51369 0
M  V30 22721 H 2175.33 -3.36608 -2.47153 0
M  V30 22722 N 2175.76 0.00833021 -1.57598 0
M  V30 22723 C 2177.01 0.695941 -1.90485 0
M  V30 22724 C 2177.34 1.73883 -0.864775 0
M  V30 22725 O 2176.62 1.94144 0.11758 0
M  V30 22726 C 2176.9 1.34667 -3.33971 0
M  V30 22727 C 2176.75 0.315885 -4.48689 0
M  V30 22728 C 2178.07 2.2751 -3.76732 0
M  V30 22729 H 2175.19 0.251528 -0.69275 0
M  V30 22730 H 2177.83 -0.0412539 -1.89955 0
M  V30 22731 H 2175.98 1.975 -3.34553 0
M  V30 22732 H 2177.66 -0.312127 -4.60243 0
M  V30 22733 H 2175.9 -0.362729 -4.32281 0
M  V30 22734 H 2176.57 0.810081 -5.46024 0
M  V30 22735 H 2179.05 1.74702 -3.77649 0
M  V30 22736 H 2177.92 2.70011 -4.77897 0
M  V30 22737 H 2178.18 3.15068 -3.10136 0
M  V30 22738 N 2177.24 1.55075 0.280956 0
M  V30 22739 C 2178.66 1.46737 0.627723 0
M  V30 22740 C 2178.86 0.674952 1.8986 0
M  V30 22741 O 2177.91 0.190625 2.51779 0
M  V30 22742 C 2179.23 2.90883 0.762079 0
M  V30 22743 C 2180.77 3.01049 0.856656 0
M  V30 22744 C 2181.25 4.46432 1.02285 0
M  V30 22745 N 2182.74 4.50227 1.08857 0
M  V30 22746 C 2183.48 5.59924 1.23582 0
M  V30 22747 N 2182.97 6.79504 1.35077 0
M  V30 22748 N 2184.76 5.47651 1.26629 0
M  V30 22749 H 2176.92 2.05054 -0.553775 0
M  V30 22750 H 2179.18 0.929521 -0.186267 0
M  V30 22751 H 2178.88 3.51554 -0.101172 0
M  V30 22752 H 2178.76 3.39447 1.64486 0
M  V30 22753 H 2181.15 2.40479 1.71038 0
M  V30 22754 H 2181.23 2.5575 -0.05057 0
M  V30 22755 H 2180.87 5.07602 0.173817 0
M  V30 22756 H 2180.8 4.8938 1.94461 0
M  V30 22757 H 2183.29 3.64085 1.01245 0
M  V30 22758 H 2183.6 7.58859 1.46124 0
M  V30 22759 H 2181.95 6.82331 1.32096 0
M  V30 22760 H 2185.14 4.53172 1.17274 0
M  V30 22761 H 2185.31 6.33187 1.37761 0
M  V30 22762 N 2178.72 -0.545102 1.47873 0
M  V30 22763 C 2179.63 -1.67829 1.63922 0
M  V30 22764 C 2180.65 -1.65989 0.521885 0
M  V30 22765 O 2181.82 -1.85216 0.791005 0
M  V30 22766 C 2178.89 -3.0432 1.66102 0
M  V30 22767 C 2177.95 -3.17134 2.89352 0
M  V30 22768 C 2177.18 -4.47114 2.91419 0
M  V30 22769 O 2177.4 -5.33307 2.02337 0
M  V30 22770 O 2176.34 -4.63974 3.83421 0
M  V30 22771 H 2180.16 -1.57229 2.59832 0
M  V30 22772 H 2177.75 -0.716489 1.31098 0
M  V30 22773 H 2179.63 -3.85524 1.70145 0
M  V30 22774 H 2178.31 -3.15277 0.733623 0
M  V30 22775 H 2177.21 -2.35282 2.90849 0
M  V30 22776 H 2178.55 -3.11086 3.81426 0
M  V30 22777 N 2180.2 -1.36208 -0.792797 0
M  V30 22778 C 2181.43 -1.33203 -1.57926 0
M  V30 22779 C 2181.84 0.0894968 -1.88988 0
M  V30 22780 O 2181.18 1.05585 -1.50325 0
M  V30 22781 C 2181.24 -2.08496 -2.92865 0
M  V30 22782 C 2180.9 -3.57605 -2.84548 0
M  V30 22783 C 2181.9 -4.51922 -2.57026 0
M  V30 22784 C 2179.59 -4.00445 -3.03232 0
M  V30 22785 C 2181.58 -5.87055 -2.48284 0
M  V30 22786 C 2179.27 -5.35669 -2.94111 0
M  V30 22787 C 2180.27 -6.28787 -2.66675 0
M  V30 22788 O 2179.95 -7.61529 -2.57543 0
M  V30 22789 H 2179.69 -0.458647 -0.496608 0
M  V30 22790 H 2182.24 -1.79849 -0.992152 0
M  V30 22791 H 2180.47 -1.56508 -3.53613 0
M  V30 22792 H 2182.16 -1.98392 -3.54112 0
M  V30 22793 H 2182.92 -4.20139 -2.42297 0
M  V30 22794 H 2178.8 -3.28341 -3.23594 0
M  V30 22795 H 2182.35 -6.59706 -2.26789 0
M  V30 22796 H 2178.24 -5.67061 -3.08402 0
M  V30 22797 H 2179.01 -7.71613 -2.73049 0
M  V30 22798 N 2181.68 1.01656 -1.20431 0
M  V30 22799 C 2182.92 1.76797 -1.02578 0
M  V30 22800 C 2183.28 1.8702 0.434471 0
M  V30 22801 O 2184.48 2.58607 0.733188 0
M  V30 22802 C 2182.75 3.14884 -1.69064 0
M  V30 22803 S 2184.31 4.06061 -1.66314 0
M  V30 22804 H 2181.13 0.608461 -0.367826 0
M  V30 22805 H 2183.73 1.21718 -1.52987 0
M  V30 22806 H 2182.43 3.0507 -2.74519 0
M  V30 22807 H 2181.97 3.75038 -1.18787 0
M  V30 22808 H 2183.98 4.91294 -0.696029 0
M  V30 22809 N 2183.15 1.01021 1.20965 0
M  V30 22810 C 2184.1 0.575015 2.23522 0
M  V30 22811 C 2185.07 -0.401609 1.61172 0
M  V30 22812 O 2186.26 -0.302487 1.88387 0
M  V30 22813 C 2183.4 -0.0869827 3.4499 0
M  V30 22814 C 2182.51 0.933442 4.21795 0
M  V30 22815 C 2181.64 0.243164 5.30643 0
M  V30 22816 C 2180.68 1.25078 5.99184 0
M  V30 22817 N 2179.82 0.587617 6.99637 0
M  V30 22818 H 2184.66 1.45423 2.60108 0
M  V30 22819 H 2182.2 0.728091 1.27817 0
M  V30 22820 H 2184.15 -0.487872 4.14338 0
M  V30 22821 H 2182.78 -0.929881 3.09117 0
M  V30 22822 H 2181.84 1.45254 3.51576 0
M  V30 22823 H 2183.15 1.70003 4.68936 0
M  V30 22824 H 2182.3 -0.213561 6.06324 0
M  V30 22825 H 2181.04 -0.555781 4.84523 0
M  V30 22826 H 2180.05 1.71796 5.2227 0
M  V30 22827 H 2181.27 2.0509 6.47391 0
M  V30 22828 H 2179.22 -0.191575 6.5572 0
M  V30 22829 H 2179.13 1.29237 7.44872 0
M  V30 22830 H 2180.4 0.154271 7.79347 0
M  V30 22831 N 2184.63 -1.36623 0.78561 0
M  V30 22832 C 2185.54 -2.33889 0.182448 0
M  V30 22833 C 2186.56 -1.60858 -0.66338 0
M  V30 22834 O 2187.73 -1.92866 -0.580058 0
M  V30 22835 C 2184.8 -3.40052 -0.675704 0
M  V30 22836 C 2183.86 -4.28887 0.188182 0
M  V30 22837 C 2183.09 -5.29979 -0.629108 0
M  V30 22838 O 2183.32 -5.39037 -1.86534 0
M  V30 22839 O 2182.25 -6.01892 -0.0310062 0
M  V30 22840 H 2186.08 -2.87229 0.986556 0
M  V30 22841 H 2183.66 -1.39026 0.547001 0
M  V30 22842 H 2185.54 -4.04971 -1.16518 0
M  V30 22843 H 2184.22 -2.89017 -1.45777 0
M  V30 22844 H 2183.12 -3.67021 0.724325 0
M  V30 22845 H 2184.46 -4.83263 0.933665 0
M  V30 22846 N 2186.11 -0.537304 -1.48158 0
M  V30 22847 C 2187.06 0.221446 -2.29735 0
M  V30 22848 C 2188.03 0.927005 -1.37825 0
M  V30 22849 O 2189.21 0.926601 -1.6679 0
M  V30 22850 C 2186.35 1.25789 -3.21358 0
M  V30 22851 C 2185.46 0.560427 -4.28349 0
M  V30 22852 C 2184.6 1.58043 -5.07145 0
M  V30 22853 C 2183.64 0.86684 -6.05931 0
M  V30 22854 N 2182.78 1.83273 -6.77758 0
M  V30 22855 H 2187.62 -0.480372 -2.94103 0
M  V30 22856 H 2185.15 -0.248729 -1.44982 0
M  V30 22857 H 2187.11 1.87117 -3.72885 0
M  V30 22858 H 2185.74 1.92799 -2.58898 0
M  V30 22859 H 2184.79 -0.166961 -3.80033 0
M  V30 22860 H 2186.1 0.000474239 -4.988 0
M  V30 22861 H 2185.26 2.2678 -5.62722 0
M  V30 22862 H 2184 2.17429 -4.3655 0
M  V30 22863 H 2183 0.165438 -5.49551 0
M  V30 22864 H 2184.23 0.278998 -6.78527 0
M  V30 22865 H 2182.17 2.41553 -6.09908 0
M  V30 22866 H 2182.09 1.32441 -7.44309 0
M  V30 22867 H 2183.36 2.51186 -7.3792 0
M  V30 22868 N 2187.59 1.55221 -0.272782 0
M  V30 22869 C 2188.84 1.99151 0.343986 0
M  V30 22870 C 2189.16 1.16259 1.56553 0
M  V30 22871 O 2188.43 0.25154 1.94278 0
M  V30 22872 H 2187.01 0.735586 0.130087 0
M  V30 22873 H 2189.67 1.91208 -0.377577 0
M  V30 22874 H 2188.77 3.05562 0.635452 0
M  V30 22875 N 2189.07 2.77022e-05 1.576 0
M  V30 22876 C 2190.31 -0.680196 1.9169 0
M  V30 22877 C 2190.67 -1.71379 0.874463 0
M  V30 22878 O 2189.96 -1.91265 -0.113334 0
M  V30 22879 C 2190.15 -1.36534 3.30292 0
M  V30 22880 C 2189.98 -0.399626 4.47921 0
M  V30 22881 C 2188.75 -0.0100172 5.05299 0
M  V30 22882 C 2190.95 0.33415 5.13213 0
M  V30 22883 N 2188.93 0.953911 6.06444 0
M  V30 22884 C 2190.3 1.15276 6.09189 0
M  V30 22885 C 2192.36 0.397982 4.96307 0
M  V30 22886 C 2191.06 2.02939 6.90078 0
M  V30 22887 C 2193.09 1.26184 5.77782 0
M  V30 22888 C 2192.45 2.0683 6.7335 0
M  V30 22889 H 2188.55 -0.222102 0.749796 0
M  V30 22890 H 2191.13 0.0603815 1.94606 0
M  V30 22891 H 2189.3 -2.07622 3.2825 0
M  V30 22892 H 2191.04 -2.00027 3.51812 0
M  V30 22893 H 2187.79 -0.378393 4.72086 0
M  V30 22894 H 2188.22 1.43125 6.61698 0
M  V30 22895 H 2192.86 -0.211238 4.22272 0
M  V30 22896 H 2190.58 2.64928 7.63439 0
M  V30 22897 H 2194.16 1.31514 5.66741 0
M  V30 22898 H 2193.04 2.72593 7.35298 0
M  V30 22899 N 2190.54 -1.55222 -0.272728 0
M  V30 22900 C 2191.47 -1.9113 -1.34133 0
M  V30 22901 C 2192.46 -0.773195 -1.51511 0
M  V30 22902 O 2193.64 -1.03135 -1.6455 0
M  V30 22903 C 2190.77 -2.18345 -2.70079 0
M  V30 22904 C 2189.72 -3.34162 -2.67431 0
M  V30 22905 C 2189.05 -3.46858 -4.06932 0
M  V30 22906 C 2190.35 -4.70547 -2.26677 0
M  V30 22907 H 2192.04 -2.80635 -1.04328 0
M  V30 22908 H 2189.59 -1.35025 -0.50043 0
M  V30 22909 H 2191.54 -2.42052 -3.44948 0
M  V30 22910 H 2190.27 -1.25639 -3.01467 0
M  V30 22911 H 2188.93 -3.10423 -1.9502 0
M  V30 22912 H 2188.57 -2.51618 -4.35542 0
M  V30 22913 H 2188.27 -4.24727 -4.06055 0
M  V30 22914 H 2189.8 -3.72858 -4.83539 0
M  V30 22915 H 2191.21 -4.93797 -2.91268 0
M  V30 22916 H 2189.61 -5.51334 -2.36961 0
M  V30 22917 H 2190.68 -4.69351 -1.2181 0
M  V30 22918 N 2192.02 0.537252 -1.4816 0
M  V30 22919 C 2193.27 1.29538 -1.56038 0
M  V30 22920 C 2193.6 1.92828 -0.230411 0
M  V30 22921 O 2192.88 1.78913 0.762921 0
M  V30 22922 C 2193.16 2.39029 -2.69327 0
M  V30 22923 C 2193.01 1.80478 -4.12005 0
M  V30 22924 C 2194.33 3.40842 -2.78414 0
M  V30 22925 H 2191.45 0.469622 -0.568 0
M  V30 22926 H 2194.09 0.599245 -1.80303 0
M  V30 22927 H 2192.24 2.98407 -2.48768 0
M  V30 22928 H 2193.91 1.25207 -4.43983 0
M  V30 22929 H 2192.16 1.11048 -4.19346 0
M  V30 22930 H 2192.83 2.59722 -4.87082 0
M  V30 22931 H 2195.3 2.9141 -2.97017 0
M  V30 22932 H 2194.18 4.14857 -3.59423 0
M  V30 22933 H 2194.44 4.00941 -1.86276 0
M  V30 22934 N 2193.5 1.36626 0.785562 0
M  V30 22935 C 2194.91 1.27805 1.36098 0
M  V30 22936 C 2195.26 -0.080453 1.96035 0
M  V30 22937 O 2194.39 -0.982008 1.92836 0
M  V30 22938 C 2194.98 2.3143 2.47438 0
M  V30 22939 C 2193.54 2.26286 3.00785 0
M  V30 22940 C 2192.69 2.16002 1.73892 0
M  V30 22941 H 2195.64 1.47449 0.586902 0
M  V30 22942 H 2195.66 1.95297 3.26557 0
M  V30 22943 H 2195.17 3.30293 2.03785 0
M  V30 22944 H 2193.27 1.30903 3.48848 0
M  V30 22945 H 2193.39 3.19134 3.57338 0
M  V30 22946 H 2191.75 1.62319 1.96277 0
M  V30 22947 H 2192.53 3.16757 1.32362 0
M  V30 22948 N 2194.98 -1.01016 1.20969 0
M  V30 22949 C 2195.89 -2.13142 0.980194 0
M  V30 22950 C 2196.9 -1.73875 -0.0660359 0
M  V30 22951 O 2198.08 -2.01025 0.122857 0
M  V30 22952 C 2195.15 -3.42434 0.54222 0
M  V30 22953 C 2194.21 -3.95905 1.66006 0
M  V30 22954 C 2193.44 -5.19026 1.24289 0
M  V30 22955 O 2193.66 -5.70285 0.114296 0
M  V30 22956 O 2192.6 -5.65812 2.05281 0
M  V30 22957 H 2196.42 -2.35376 1.91917 0
M  V30 22958 H 2194.01 -1.11524 0.994118 0
M  V30 22959 H 2195.89 -4.20276 0.307514 0
M  V30 22960 H 2194.56 -3.216 -0.368093 0
M  V30 22961 H 2193.47 -3.19312 1.94912 0
M  V30 22962 H 2194.8 -4.21139 2.54761 0
M  V30 22963 N 2196.46 -1.01661 -1.20428 0
M  V30 22964 C 2197.7 -0.706996 -1.90077 0
M  V30 22965 C 2198.04 0.761442 -1.7865 0
M  V30 22966 O 2197.31 1.55321 -1.17072 0
M  V30 22967 C 2197.59 -1.14333 -3.41467 0
M  V30 22968 C 2197.45 -2.67208 -3.61829 0
M  V30 22969 C 2198.77 -0.714606 -4.3426 0
M  V30 22970 H 2195.88 -0.258312 -0.690249 0
M  V30 22971 H 2198.53 -1.26435 -1.41824 0
M  V30 22972 H 2196.68 -0.669123 -3.82694 0
M  V30 22973 H 2198.35 -3.22481 -3.29854 0
M  V30 22974 H 2196.59 -3.0818 -3.05299 0
M  V30 22975 H 2197.26 -2.92792 -4.6795 0
M  V30 22976 H 2199.74 -1.12228 -4.0068 0
M  V30 22977 H 2198.61 -1.04794 -5.38804 0
M  V30 22978 H 2198.88 0.383721 -4.40432 0
M  V30 22979 N 2197.93 1.36205 -0.792844 0
M  V30 22980 C 2198.88 2.3189 -0.181596 0
M  V30 22981 C 2199.88 1.55972 0.660998 0
M  V30 22982 O 2201.08 1.71207 0.555698 0
M  V30 22983 H 2197.46 0.750938 -0.0399514 0
M  V30 22984 H 2199.43 2.81003 -1.00399 0
M  V30 22985 C 2198.18 3.41254 0.666384 0
M  V30 22986 H 2197.5 3.99791 0.0273786 0
M  V30 22987 H 2198.94 4.10518 1.06069 0
M  V30 22988 C 2197.4 2.83117 1.82609 0
M  V30 22989 O 2197.93 2.75558 2.92286 0
M  V30 22990 N 2196.14 2.40359 1.63328 0
M  V30 22991 H 2195.68 2.46707 0.741174 0
M  V30 22992 H 2195.64 2.01807 2.41083 0
M  V30 22993 N 2199.41 0.545154 1.47871 0
M  V30 22994 C 2200.64 0.0190975 2.07391 0
M  V30 22995 C 2201.06 -1.25969 1.39691 0
M  V30 22996 O 2200.42 -1.7516 0.467847 0
M  V30 22997 C 2200.47 -0.172272 3.60188 0
M  V30 22998 O 2199.57 -1.23759 3.93392 0
M  V30 22999 H 2198.91 0.0459176 0.66241 0
M  V30 23000 H 2201.44 0.757399 1.90065 0
M  V30 23001 H 2201.45 -0.390233 4.0613 0
M  V30 23002 H 2200.13 0.761796 4.08864 0
M  V30 23003 H 2198.71 -1.00108 3.59211 0
M  V30 23004 N 2200.89 -1.55074 0.28101 0
M  V30 23005 C 2202.12 -2.04133 -0.337257 0
M  V30 23006 C 2202.53 -1.15915 -1.49028 0
M  V30 23007 O 2201.89 -0.180491 -1.81605 0
M  V30 23008 C 2201.94 -3.52248 -0.812644 0
M  V30 23009 O 2201.66 -4.37109 0.294464 0
M  V30 23010 C 2203.16 -4.17218 -1.49812 0
M  V30 23011 H 2200.38 -0.666665 -0.0761521 0
M  V30 23012 H 2202.93 -2.00249 0.414822 0
M  V30 23013 H 2201.08 -3.56557 -1.5148 0
M  V30 23014 H 2201.5 -5.24451 -0.0720403 0
M  V30 23015 H 2202.97 -5.22441 -1.78211 0
M  V30 23016 H 2203.45 -3.65745 -2.43161 0
M  V30 23017 H 2204.05 -4.16929 -0.839669 0
M  V30 23018 N 2202.37 -0.00838561 -1.57598 0
M  V30 23019 C 2203.3 0.979076 -2.11982 0
M  V30 23020 C 2204.28 1.35299 -1.03093 0
M  V30 23021 O 2205.47 1.43526 -1.3082 0
M  V30 23022 C 2202.6 2.26824 -2.62999 0
M  V30 23023 C 2201.55 2.03569 -3.76488 0
M  V30 23024 C 2200.88 3.38571 -4.13852 0
M  V30 23025 C 2202.18 1.39152 -5.03422 0
M  V30 23026 H 2203.87 0.52623 -2.94739 0
M  V30 23027 H 2201.42 0.251679 -1.41784 0
M  V30 23028 H 2203.37 2.96266 -2.99674 0
M  V30 23029 H 2202.09 2.74237 -1.77374 0
M  V30 23030 H 2200.75 1.36551 -3.4022 0
M  V30 23031 H 2200.4 3.83704 -3.25239 0
M  V30 23032 H 2200.1 3.23825 -4.90317 0
M  V30 23033 H 2201.62 4.09315 -4.53093 0
M  V30 23034 H 2203.04 1.98563 -5.37815 0
M  V30 23035 H 2201.43 1.34868 -5.84748 0
M  V30 23036 H 2202.5 0.361783 -4.83548 0
M  V30 23037 N 2203.85 1.55365 0.264492 0
M  V30 23038 C 2204.78 1.85251 1.34962 0
M  V30 23039 C 2205.79 0.737551 1.45135 0
M  V30 23040 O 2206.98 1.0155 1.46799 0
M  V30 23041 C 2204.08 2.00802 2.73005 0
M  V30 23042 C 2203.25 3.3153 2.85319 0
M  V30 23043 C 2202.31 3.37041 4.04091 0
M  V30 23044 O 2201.34 4.10365 3.94448 0
M  V30 23045 N 2202.54 2.65058 5.16454 0
M  V30 23046 H 2205.31 2.78915 1.09667 0
M  V30 23047 H 2202.87 1.55386 0.454608 0
M  V30 23048 H 2204.86 2.0185 3.50769 0
M  V30 23049 H 2203.43 1.13965 2.91085 0
M  V30 23050 H 2202.65 3.42948 1.94371 0
M  V30 23051 H 2203.94 4.17729 2.90483 0
M  V30 23052 H 2203.34 2.05185 5.27177 0
M  V30 23053 H 2201.89 2.71819 5.92417 0
M  V30 23054 N 2205.33 -0.529387 1.48443 0
M  V30 23055 C 2206.57 -1.28166 1.55744 0
M  V30 23056 C 2206.89 -1.94164 0.236545 0
M  V30 23057 O 2208.09 -2.7085 0.187809 0
M  V30 23058 C 2206.55 -2.3256 2.74671 0
M  V30 23059 C 2206.16 -1.72628 4.13405 0
M  V30 23060 C 2207.9 -3.08793 2.91285 0
M  V30 23061 C 2205.81 -2.74965 5.23591 0
M  V30 23062 H 2204.74 -0.48202 0.579804 0
M  V30 23063 H 2207.39 -0.559025 1.74777 0
M  V30 23064 H 2205.77 -3.07862 2.49073 0
M  V30 23065 H 2206.95 -1.03511 4.49024 0
M  V30 23066 H 2205.26 -1.08885 4.01912 0
M  V30 23067 H 2207.86 -3.85267 3.70774 0
M  V30 23068 H 2208.2 -3.64691 2.00764 0
M  V30 23069 H 2208.73 -2.40606 3.16786 0
M  V30 23070 H 2205.47 -2.23887 6.1608 0
M  V30 23071 H 2204.99 -3.42409 4.9246 0
M  V30 23072 H 2206.67 -3.37939 5.5173 0
M  V30 23073 N 2206.8 -1.37041 -0.778305 0
M  V30 23074 C 2207.71 -1.3445 -1.92251 0
M  V30 23075 C 2208.73 -0.245021 -1.72266 0
M  V30 23076 O 2209.91 -0.479293 -1.95614 0
M  V30 23077 C 2206.97 -1.14405 -3.2728 0
M  V30 23078 C 2206.03 -2.33931 -3.59965 0
M  V30 23079 C 2205.26 -2.14834 -4.88551 0
M  V30 23080 O 2205.49 -1.12922 -5.59111 0
M  V30 23081 O 2204.42 -3.0287 -5.20147 0
M  V30 23082 H 2208.25 -2.30807 -1.97388 0
M  V30 23083 H 2205.83 -1.17703 -0.920134 0
M  V30 23084 H 2207.71 -1.05189 -4.0806 0
M  V30 23085 H 2206.39 -0.211181 -3.2301 0
M  V30 23086 H 2205.3 -2.48718 -2.79446 0
M  V30 23087 H 2206.63 -3.25763 -3.6897 0
M  V30 23088 N 2208.28 1.00373 -1.21503 0
M  V30 23089 C 2209.23 2.09175 -0.975424 0
M  V30 23090 C 2210.2 1.65805 0.0990324 0
M  V30 23091 O 2211.38 1.90739 -0.0483483 0
M  V30 23092 C 2208.52 3.40728 -0.547567 0
M  V30 23093 C 2207.64 3.97503 -1.6916 0
M  V30 23094 C 2206.77 5.1717 -1.21279 0
M  V30 23095 C 2205.81 5.66057 -2.32907 0
M  V30 23096 N 2204.95 6.76973 -1.8615 0
M  V30 23097 H 2209.79 2.29005 -1.90684 0
M  V30 23098 H 2207.32 1.12286 -0.950277 0
M  V30 23099 H 2209.28 4.16254 -0.280741 0
M  V30 23100 H 2207.91 3.20931 0.346848 0
M  V30 23101 H 2206.96 3.18951 -2.07303 0
M  V30 23102 H 2208.28 4.29776 -2.53167 0
M  V30 23103 H 2207.43 5.99947 -0.902697 0
M  V30 23104 H 2206.17 4.86494 -0.342777 0
M  V30 23105 H 2205.17 4.81876 -2.64718 0
M  V30 23106 H 2206.4 5.98763 -3.20406 0
M  V30 23107 H 2204.35 6.48101 -1.01495 0
M  V30 23108 H 2204.26 7.08507 -2.6373 0
M  V30 23109 H 2205.53 7.63282 -1.58179 0
M  V30 23110 N 2209.76 1.02298 1.19887 0
M  V30 23111 C 2210.71 0.569379 2.20776 0
M  V30 23112 C 2211.69 -0.378713 1.5638 0
M  V30 23113 O 2212.89 -0.200642 1.75859 0
M  V30 23114 C 2210.01 -0.0844474 3.43196 0
M  V30 23115 C 2209.1 0.885733 4.14748 0
M  V30 23116 N 2209.49 2.04581 4.6258 0
M  V30 23117 C 2207.79 0.707912 4.40346 0
M  V30 23118 C 2208.49 2.65723 5.17461 0
M  V30 23119 N 2207.47 1.93732 5.07906 0
M  V30 23120 H 2211.27 1.45369 2.55431 0
M  V30 23121 H 2208.78 0.889174 1.35895 0
M  V30 23122 H 2210.78 -0.426994 4.14708 0
M  V30 23123 H 2209.44 -0.96452 3.10044 0
M  V30 23124 H 2210.45 2.42548 4.57593 0
M  V30 23125 H 2207.13 -0.123567 4.17317 0
M  V30 23126 H 2208.52 3.63935 5.64802 0
M  V30 23127 N 2211.24 -1.35782 0.800057 0
M  V30 23128 C 2212.48 -1.99247 0.377936 0
M  V30 23129 C 2212.82 -1.63335 -1.05049 0
M  V30 23130 O 2212.09 -0.893415 -1.72767 0
M  V30 23131 C 2212.37 -3.55813 0.553984 0
M  V30 23132 C 2212.23 -4.01545 2.02687 0
M  V30 23133 C 2213.55 -4.40093 -0.0244028 0
M  V30 23134 H 2210.67 -0.723813 0.138795 0
M  V30 23135 H 2213.31 -1.61033 1.00838 0
M  V30 23136 H 2211.46 -3.88496 0.0173081 0
M  V30 23137 H 2213.13 -3.79301 2.62543 0
M  V30 23138 H 2211.37 -3.52693 2.52567 0
M  V30 23139 H 2212.04 -5.10454 2.10096 0
M  V30 23140 H 2214.52 -4.13832 0.433848 0
M  V30 23141 H 2213.4 -5.48749 0.128733 0
M  V30 23142 H 2213.66 -4.27743 -1.11751 0
M  V30 23143 N 2212.72 -0.552988 -1.4758 0
M  V30 23144 C 2213.94 -0.0300957 -2.07378 0
M  V30 23145 C 2214.37 1.25226 -1.40357 0
M  V30 23146 O 2213.72 1.74909 -0.477129 0
M  V30 23147 C 2213.77 0.153168 -3.60275 0
M  V30 23148 O 2212.88 1.21671 -3.94043 0
M  V30 23149 H 2212.22 -0.0494298 -0.662158 0
M  V30 23150 H 2214.75 -0.767468 -1.8966 0
M  V30 23151 H 2214.76 0.36869 -4.06331 0
M  V30 23152 H 2213.43 -0.783469 -4.08454 0
M  V30 23153 H 2212.01 0.982016 -3.59737 0
M  V30 23154 N 2214.19 1.54923 -0.28923 0
M  V30 23155 C 2215.61 1.5947 0.0645122 0
M  V30 23156 C 2215.81 1.30635 1.53417 0
M  V30 23157 O 2214.87 1.07404 2.28518 0
M  V30 23158 C 2216.18 2.98962 -0.322833 0
M  V30 23159 C 2217.73 3.11828 -0.270619 0
M  V30 23160 C 2218.2 4.5361 -0.632611 0
M  V30 23161 N 2219.69 4.59495 -0.584698 0
M  V30 23162 C 2220.43 5.67252 -0.837414 0
M  V30 23163 N 2219.92 6.83096 -1.15548 0
M  V30 23164 N 2221.72 5.56866 -0.765264 0
M  V30 23165 H 2213.87 1.71929 -1.24717 0
M  V30 23166 H 2216.13 0.802407 -0.504823 0
M  V30 23167 H 2215.84 3.24946 -1.34547 0
M  V30 23168 H 2215.71 3.75759 0.329374 0
M  V30 23169 H 2218.1 2.856 0.742755 0
M  V30 23170 H 2218.18 2.37212 -0.957284 0
M  V30 23171 H 2217.82 4.80566 -1.64374 0
M  V30 23172 H 2217.75 5.26545 0.0759974 0
M  V30 23173 H 2220.24 3.76282 -0.349314 0
M  V30 23174 H 2220.56 7.61189 -1.33461 0
M  V30 23175 H 2218.9 6.84677 -1.1934 0
M  V30 23176 H 2222.09 4.65242 -0.516514 0
M  V30 23177 H 2222.27 6.40765 -0.96559 0
M  V30 23178 N 2215.67 0.0167433 1.57591 0
M  V30 23179 C 2216.63 -0.954167 2.08395 0
M  V30 23180 C 2217.63 -1.26196 0.996553 0
M  V30 23181 O 2218.82 -1.20436 1.25861 0
M  V30 23182 C 2215.96 -2.27431 2.53944 0
M  V30 23183 H 2217.15 -0.514399 2.95455 0
M  V30 23184 H 2214.7 -0.231062 1.54583 0
M  V30 23185 H 2215.44 -2.76063 1.70176 0
M  V30 23186 H 2215.22 -2.06406 3.33375 0
M  V30 23187 H 2216.71 -2.97048 2.93517 0
M  V30 23188 N 2217.15 -1.55503 -0.256249 0
M  V30 23189 C 2218.4 -1.76897 -0.985588 0
M  V30 23190 C 2218.73 -0.579387 -1.8567 0
M  V30 23191 O 2217.98 0.437617 -1.90744 0
M  V30 23192 C 2218.28 -3.03694 -1.88427 0
M  V30 23193 C 2217.95 -4.35475 -1.16928 0
M  V30 23194 C 2216.61 -4.71288 -0.971647 0
M  V30 23195 C 2218.96 -5.16981 -0.661798 0
M  V30 23196 C 2216.29 -5.8615 -0.254076 0
M  V30 23197 C 2218.64 -6.32586 0.0422602 0
M  V30 23198 C 2217.3 -6.67026 0.251457 0
M  V30 23199 H 2216.57 -0.647311 -0.360652 0
M  V30 23200 H 2219.22 -1.89775 -0.256449 0
M  V30 23201 H 2217.53 -2.85788 -2.68016 0
M  V30 23202 H 2219.22 -3.17445 -2.4501 0
M  V30 23203 H 2215.81 -4.07336 -1.33325 0
M  V30 23204 H 2220 -4.89776 -0.802059 0
M  V30 23205 H 2215.25 -6.11346 -0.0814334 0
M  V30 23206 H 2219.43 -6.94988 0.443171 0
M  V30 23207 H 2217.05 -7.55878 0.809447 0
M  V30 23208 N 2218.63 0.521507 -1.48721 0
M  V30 23209 C 2219.88 1.27339 -1.56422 0
M  V30 23210 C 2220.19 1.94036 -0.246839 0
M  V30 23211 O 2221.4 2.70746 -0.20217 0
M  V30 23212 C 2219.85 2.311 -2.759 0
M  V30 23213 C 2219.46 1.70433 -4.14314 0
M  V30 23214 C 2221.2 3.07244 -2.92919 0
M  V30 23215 C 2219.11 2.72185 -5.25042 0
M  V30 23216 H 2218.04 0.478938 -0.582352 0
M  V30 23217 H 2220.69 0.549748 -1.75071 0
M  V30 23218 H 2219.07 3.06536 -2.50702 0
M  V30 23219 H 2220.25 1.01128 -4.49566 0
M  V30 23220 H 2218.56 1.06752 -4.02484 0
M  V30 23221 H 2221.16 3.83296 -3.72812 0
M  V30 23222 H 2221.5 3.63621 -2.02695 0
M  V30 23223 H 2222.04 2.38922 -3.18058 0
M  V30 23224 H 2218.78 2.20616 -6.17259 0
M  V30 23225 H 2218.3 3.39792 -4.94269 0
M  V30 23226 H 2219.97 3.35009 -5.53514 0
M  V30 23227 N 2220.11 1.37452 0.771027 0
M  V30 23228 C 2221.35 1.34099 1.54262 0
M  V30 23229 C 2221.71 -0.0737302 1.91858 0
M  V30 23230 O 2222.91 -0.231983 2.67797 0
M  V30 23231 C 2221.18 2.25449 2.77322 0
M  V30 23232 S 2222.74 2.39955 3.67379 0
M  V30 23233 H 2219.56 0.476043 0.528114 0
M  V30 23234 H 2222.16 1.73208 0.906603 0
M  V30 23235 H 2220.87 3.27158 2.47782 0
M  V30 23236 H 2220.4 1.87427 3.45882 0
M  V30 23237 H 2222.41 1.61067 4.69331 0
M  V30 23238 N 2221.58 -0.997276 1.22033 0
M  V30 23239 C 2222.51 -2.10493 1.01069 0
M  V30 23240 C 2223.5 -1.69968 -0.0669243 0
M  V30 23241 O 2224.68 -1.9397 0.0944328 0
M  V30 23242 C 2221.81 -3.42373 0.582934 0
M  V30 23243 C 2220.76 -3.96727 1.60599 0
M  V30 23244 C 2220.09 -5.24603 1.03421 0
M  V30 23245 C 2221.39 -4.27909 2.99485 0
M  V30 23246 H 2223.08 -2.28289 1.93712 0
M  V30 23247 H 2220.63 -1.09705 0.93278 0
M  V30 23248 H 2222.58 -4.19268 0.423406 0
M  V30 23249 H 2221.31 -3.24392 -0.379156 0
M  V30 23250 H 2219.97 -3.21959 1.75322 0
M  V30 23251 H 2219.61 -5.0296 0.0636064 0
M  V30 23252 H 2219.31 -5.61935 1.71764 0
M  V30 23253 H 2220.84 -6.04135 0.886172 0
M  V30 23254 H 2222.25 -4.95617 2.88161 0
M  V30 23255 H 2220.65 -4.76403 3.64912 0
M  V30 23256 H 2221.72 -3.35864 3.49748 0
M  V30 23257 N 2223.06 -1.02932 -1.19343 0
M  V30 23258 C 2223.99 -0.568609 -2.22035 0
M  V30 23259 C 2225.01 0.355751 -1.58866 0
M  V30 23260 O 2226.2 0.152072 -1.77851 0
M  V30 23261 C 2223.3 0.190693 -3.38363 0
M  V30 23262 C 2222.47 -0.738719 -4.31117 0
M  V30 23263 C 2221.53 -0.0247422 -5.26194 0
M  V30 23264 O 2220.55 -0.651454 -5.6546 0
M  V30 23265 N 2221.76 1.24584 -5.66974 0
M  V30 23266 H 2224.52 -1.45181 -2.62188 0
M  V30 23267 H 2222.08 -0.908405 -1.34013 0
M  V30 23268 H 2224.07 0.677891 -3.98982 0
M  V30 23269 H 2222.64 0.975314 -2.96996 0
M  V30 23270 H 2221.86 -1.406 -3.68273 0
M  V30 23271 H 2223.15 -1.37037 -4.89998 0
M  V30 23272 H 2222.55 1.77573 -5.37107 0
M  V30 23273 H 2221.11 1.67753 -6.29843 0
M  V30 23274 N 2224.54 1.35356 -0.807246 0
M  V30 23275 C 2225.5 2.28106 -0.223706 0
M  V30 23276 C 2226.5 1.49611 0.589328 0
M  V30 23277 O 2227.69 1.69362 0.407716 0
M  V30 23278 C 2224.83 3.33883 0.688091 0
M  V30 23279 H 2226.02 2.81225 -1.04174 0
M  V30 23280 H 2223.57 1.45222 -0.577946 0
M  V30 23281 H 2224.31 2.85951 1.52979 0
M  V30 23282 H 2224.09 3.91955 0.106801 0
M  V30 23283 H 2225.58 4.03105 1.09068 0
M  V30 23284 N 2226.02 0.560807 1.47284 0
M  V30 23285 C 2226.95 -0.173064 2.32858 0
M  V30 23286 C 2227.93 -0.905255 1.44011 0
M  V30 23287 O 2229.11 -0.885016 1.72862 0
M  V30 23288 C 2226.24 -1.20127 3.25863 0
M  V30 23289 C 2225.2 -0.585313 4.23979 0
M  V30 23290 C 2224.52 -1.71841 5.06335 0
M  V30 23291 C 2225.82 0.46327 5.20241 0
M  V30 23292 H 2227.52 0.541359 2.94465 0
M  V30 23293 H 2225.06 0.261789 1.416 0
M  V30 23294 H 2227.02 -1.72286 3.84572 0
M  V30 23295 H 2225.74 -1.94568 2.62318 0
M  V30 23296 H 2224.4 -0.0849896 3.66501 0
M  V30 23297 H 2224.05 -2.45195 4.3919 0
M  V30 23298 H 2223.75 -1.31203 5.72765 0
M  V30 23299 H 2225.27 -2.24319 5.67902 0
M  V30 23300 H 2226.69 0.0276027 5.73293 0
M  V30 23301 H 2225.08 0.788731 5.94894 0
M  V30 23302 H 2226.15 1.35782 4.65501 0
M  V30 23303 N 2227.5 -1.54768 0.297442 0
M  V30 23304 C 2228.72 -2.04479 -0.315587 0
M  V30 23305 C 2229.14 -1.17489 -1.4779 0
M  V30 23306 O 2228.5 -0.199742 -1.81404 0
M  V30 23307 C 2228.55 -3.5309 -0.775238 0
M  V30 23308 O 2228.27 -4.36772 0.340808 0
M  V30 23309 C 2229.77 -4.18784 -1.45379 0
M  V30 23310 H 2226.99 -0.667435 -0.0690769 0
M  V30 23311 H 2229.53 -1.99797 0.436038 0
M  V30 23312 H 2227.69 -3.58143 -1.47689 0
M  V30 23313 H 2228.1 -5.24497 -0.0164113 0
M  V30 23314 H 2229.58 -5.24302 -1.7266 0
M  V30 23315 H 2230.05 -3.68303 -2.39268 0
M  V30 23316 H 2230.66 -4.17796 -0.795401 0
M  V30 23317 N 2228.97 -0.0251005 -1.5758 0
M  V30 23318 C 2230.2 0.664712 -1.95932 0
M  V30 23319 C 2230.62 1.65893 -0.901382 0
M  V30 23320 O 2229.97 1.82123 0.117223 0
M  V30 23321 C 2230.03 1.37462 -3.34345 0
M  V30 23322 O 2229.75 0.420247 -4.3608 0
M  V30 23323 C 2231.25 2.15663 -3.87304 0
M  V30 23324 H 2228.47 0.183546 -0.645408 0
M  V30 23325 H 2231.01 -0.0836731 -2.04329 0
M  V30 23326 H 2229.17 2.07444 -3.27179 0
M  V30 23327 H 2229.58 0.9239 -5.16299 0
M  V30 23328 H 2231.05 2.60794 -4.86508 0
M  V30 23329 H 2231.53 2.99399 -3.21336 0
M  V30 23330 H 2232.14 1.50647 -3.97726 0
M  V30 23331 N 2230.45 1.55637 0.247999 0
M  V30 23332 C 2231.7 1.77417 0.976193 0
M  V30 23333 C 2232.03 0.589226 1.8536 0
M  V30 23334 O 2231.28 -0.427495 1.90974 0
M  V30 23335 C 2231.58 3.04689 1.86813 0
M  V30 23336 C 2231.25 4.36089 1.14617 0
M  V30 23337 C 2229.91 4.71797 0.94664 0
M  V30 23338 C 2232.26 5.17325 0.634372 0
M  V30 23339 C 2229.59 5.86276 0.222988 0
M  V30 23340 C 2231.94 6.32555 -0.0758071 0
M  V30 23341 C 2230.61 6.66883 -0.286828 0
M  V30 23342 H 2229.88 0.649214 0.357214 0
M  V30 23343 H 2232.52 1.89908 0.246381 0
M  V30 23344 H 2230.83 2.87205 2.66497 0
M  V30 23345 H 2232.52 3.1874 2.43323 0
M  V30 23346 H 2229.11 4.08037 1.31163 0
M  V30 23347 H 2233.3 4.90195 0.776074 0
M  V30 23348 H 2228.55 6.1138 0.0490111 0
M  V30 23349 H 2232.73 6.94744 -0.480022 0
M  V30 23350 H 2230.36 7.55438 -0.849522 0
M  V30 23351 N 2231.93 -0.513613 1.48996 0
M  V30 23352 C 2233.18 -1.27039 1.58079 0
M  V30 23353 C 2233.51 -1.92437 0.261059 0
M  V30 23354 O 2232.79 -1.80104 -0.734361 0
M  V30 23355 C 2233.07 -2.34714 2.73096 0
M  V30 23356 C 2232.92 -1.739 4.14824 0
M  V30 23357 C 2234.24 -3.3637 2.83802 0
M  V30 23358 H 2231.36 -0.460526 0.575399 0
M  V30 23359 H 2234 -0.570484 1.81233 0
M  V30 23360 H 2232.15 -2.94412 2.53484 0
M  V30 23361 H 2233.82 -1.18128 4.45919 0
M  V30 23362 H 2232.07 -1.04362 4.21059 0
M  V30 23363 H 2232.74 -2.5194 4.91152 0
M  V30 23364 H 2235.21 -2.86648 3.01616 0
M  V30 23365 H 2234.09 -4.09086 3.65978 0
M  V30 23366 H 2234.35 -3.97927 1.92631 0
M  V30 23367 N 2233.41 -1.37859 -0.763727 0
M  V30 23368 C 2234.63 -1.36896 -1.55802 0
M  V30 23369 C 2235.06 0.0415805 -1.88054 0
M  V30 23370 O 2234.42 1.02086 -1.49827 0
M  V30 23371 C 2234.47 -2.22197 -2.84008 0
M  V30 23372 O 2233.57 -1.6321 -3.7873 0
M  V30 23373 H 2232.91 -0.467399 -0.47163 0
M  V30 23374 H 2235.44 -1.81488 -0.944625 0
M  V30 23375 H 2235.45 -2.35696 -3.33033 0
M  V30 23376 H 2234.13 -3.24721 -2.59864 0
M  V30 23377 H 2232.7 -1.58797 -3.37399 0
M  V30 23378 N 2234.89 0.990791 -1.22561 0
M  V30 23379 C 2236.13 1.7332 -1.053 0
M  V30 23380 C 2236.47 1.89809 0.410622 0
M  V30 23381 O 2235.74 1.44279 1.30437 0
M  V30 23382 C 2236.02 3.13756 -1.76719 0
M  V30 23383 C 2235.88 3.04901 -3.30689 0
M  V30 23384 C 2237.2 4.12971 -1.52128 0
M  V30 23385 H 2234.32 0.629099 -0.383931 0
M  V30 23386 H 2236.96 1.15416 -1.50928 0
M  V30 23387 H 2235.11 3.63191 -1.3793 0
M  V30 23388 H 2236.78 2.6307 -3.78935 0
M  V30 23389 H 2235.02 2.41655 -3.60257 0
M  V30 23390 H 2235.69 4.04287 -3.7584 0
M  V30 23391 H 2238.17 3.72301 -1.85826 0
M  V30 23392 H 2237.05 5.09346 -2.04591 0
M  V30 23393 H 2237.31 4.39759 -0.454334 0
M  V30 23394 N 2236.37 1.03564 1.18795 0
M  V30 23395 C 2237.33 0.626808 2.20463 0
M  V30 23396 C 2238.33 -0.313146 1.57721 0
M  V30 23397 O 2239.52 -0.099231 1.73917 0
M  V30 23398 C 2236.65 -0.0817899 3.40802 0
M  V30 23399 H 2237.84 1.52645 2.58147 0
M  V30 23400 H 2235.4 0.827601 1.32591 0
M  V30 23401 H 2236.13 -0.995464 3.08644 0
M  V30 23402 H 2235.92 0.59372 3.87579 0
M  V30 23403 H 2237.41 -0.35451 4.16093 0
M  V30 23404 N 2237.84 -1.34926 0.814413 0
M  V30 23405 C 2239.09 -1.98149 0.397671 0
M  V30 23406 C 2239.41 -1.6491 -1.04066 0
M  V30 23407 O 2238.68 -0.93551 -1.72119 0
M  V30 23408 H 2237.26 -0.732978 0.144056 0
M  V30 23409 H 2239.92 -1.64708 1.04198 0
M  V30 23410 H 2239.02 -3.07909 0.509743 0
M  V30 23411 N 2239.32 -0.56861 -1.46985 0
M  V30 23412 C 2240.57 -0.0466248 -2.01646 0
M  V30 23413 C 2240.88 1.31584 -1.44723 0
M  V30 23414 O 2242.09 1.92838 -1.91117 0
M  V30 23415 C 2240.55 -0.0328152 -3.59885 0
M  V30 23416 C 2240.15 -1.39274 -4.25801 0
M  V30 23417 C 2241.9 0.435964 -4.22255 0
M  V30 23418 C 2239.8 -1.33742 -5.76079 0
M  V30 23419 H 2238.73 -0.0136602 -0.753876 0
M  V30 23420 H 2241.39 -0.718161 -1.68863 0
M  V30 23421 H 2239.77 0.704601 -3.89681 0
M  V30 23422 H 2240.94 -2.14877 -4.07633 0
M  V30 23423 H 2239.26 -1.80038 -3.75467 0
M  V30 23424 H 2241.85 0.495926 -5.32395 0
M  V30 23425 H 2242.2 1.45046 -3.90214 0
M  V30 23426 H 2242.73 -0.246947 -3.97033 0
M  V30 23427 H 2239.47 -2.32827 -6.12757 0
M  V30 23428 H 2238.99 -0.623372 -5.96552 0
M  V30 23429 H 2240.67 -1.04431 -6.38516 0
M  V30 23430 N 2240.8 1.54608 -0.305646 0
M  V30 23431 C 2242.05 1.9941 0.303063 0
M  V30 23432 C 2242.36 1.19767 1.54646 0
M  V30 23433 O 2243.57 1.54859 2.23005 0
M  V30 23434 C 2242.02 3.55022 0.590525 0
M  V30 23435 C 2241.63 4.4348 -0.634797 0
M  V30 23436 C 2243.38 4.08338 1.16017 0
M  V30 23437 C 2241.28 5.90532 -0.32023 0
M  V30 23438 H 2240.21 0.744864 0.117018 0
M  V30 23439 H 2242.86 1.78744 -0.415076 0
M  V30 23440 H 2241.25 3.71606 1.36838 0
M  V30 23441 H 2242.42 4.3867 -1.41086 0
M  V30 23442 H 2240.73 4.0096 -1.1234 0
M  V30 23443 H 2243.33 5.15778 1.40985 0
M  V30 23444 H 2243.67 3.59223 2.10391 0
M  V30 23445 H 2244.21 3.95315 0.443916 0
M  V30 23446 H 2240.95 6.43806 -1.23265 0
M  V30 23447 H 2240.47 5.98338 0.418474 0
M  V30 23448 H 2242.15 6.46955 0.0765103 0
M  V30 23449 N 2242.28 0.033457 1.57564 0
M  V30 23450 C 2243.51 -0.653363 1.95997 0
M  V30 23451 C 2243.92 -1.65945 0.908778 0
M  V30 23452 O 2243.26 -1.83324 -0.117438 0
M  V30 23453 C 2243.32 -1.41243 3.30591 0
M  V30 23454 C 2242.98 -0.564183 4.53504 0
M  V30 23455 C 2243.98 0.162342 5.19646 0
M  V30 23456 C 2241.67 -0.50031 4.99802 0
M  V30 23457 C 2243.66 0.941366 6.3041 0
M  V30 23458 C 2241.35 0.282415 6.10447 0
M  V30 23459 C 2242.35 1.00196 6.75611 0
M  V30 23460 O 2242.03 1.77184 7.84131 0
M  V30 23461 H 2241.77 -0.184717 0.650274 0
M  V30 23462 H 2244.32 0.0908201 2.05199 0
M  V30 23463 H 2242.55 -2.20185 3.17892 0
M  V30 23464 H 2244.24 -1.98778 3.53896 0
M  V30 23465 H 2245 0.122356 4.84846 0
M  V30 23466 H 2240.88 -1.04994 4.48884 0
M  V30 23467 H 2244.43 1.50351 6.81205 0
M  V30 23468 H 2240.32 0.324103 6.44686 0
M  V30 23469 H 2241.09 1.69208 8.00819 0
M  V30 23470 N 2243.76 -1.55766 -0.239741 0
M  V30 23471 C 2245 -1.77133 -0.964722 0
M  V30 23472 C 2245.32 -0.598712 -1.86212 0
M  V30 23473 O 2246.52 -0.695568 -2.62439 0
M  V30 23474 C 2244.98 -3.13623 -1.76547 0
M  V30 23475 C 2244.59 -4.38554 -0.915108 0
M  V30 23476 C 2246.33 -3.44325 -2.48275 0
M  V30 23477 C 2244.24 -5.66074 -1.71215 0
M  V30 23478 H 2243.17 -0.66035 -0.363941 0
M  V30 23479 H 2245.82 -1.82187 -0.219149 0
M  V30 23480 H 2244.2 -3.02696 -2.55326 0
M  V30 23481 H 2245.38 -4.60489 -0.169136 0
M  V30 23482 H 2243.69 -4.15238 -0.310816 0
M  V30 23483 H 2246.29 -4.36817 -3.08374 0
M  V30 23484 H 2246.63 -2.65979 -3.20251 0
M  V30 23485 H 2247.16 -3.565 -1.765 0
M  V30 23486 H 2243.9 -6.47261 -1.036 0
M  V30 23487 H 2243.42 -5.48229 -2.43322 0
M  V30 23488 H 2245.1 -6.05591 -2.27748 0
M  V30 23489 N 2245.23 0.505704 -1.49266 0
M  V30 23490 C 2246.48 1.25672 -1.57764 0
M  V30 23491 C 2246.8 1.93764 -0.267405 0
M  V30 23492 O 2248 2.70517 -0.230875 0
M  V30 23493 C 2246.46 2.2816 -2.78336 0
M  V30 23494 C 2246.07 1.6603 -4.16099 0
M  V30 23495 C 2247.81 3.0412 -2.96161 0
M  V30 23496 C 2245.72 2.66601 -5.279 0
M  V30 23497 H 2244.65 0.472735 -0.587399 0
M  V30 23498 H 2247.3 0.531149 -1.75645 0
M  V30 23499 H 2245.68 3.0386 -2.53939 0
M  V30 23500 H 2246.85 0.963543 -4.50613 0
M  V30 23501 H 2245.17 1.02477 -4.03593 0
M  V30 23502 H 2247.77 3.7932 -3.76856 0
M  V30 23503 H 2248.11 3.61451 -2.0654 0
M  V30 23504 H 2248.64 2.35536 -3.20574 0
M  V30 23505 H 2245.38 2.14057 -6.19564 0
M  V30 23506 H 2244.9 3.34531 -4.97845 0
M  V30 23507 H 2246.58 3.29119 -5.57036 0
M  V30 23508 N 2246.71 1.38262 0.756405 0
M  V30 23509 C 2247.94 1.37343 1.54339 0
M  V30 23510 C 2248.35 -0.0393584 1.89159 0
M  V30 23511 O 2247.69 -1.01562 1.53071 0
M  V30 23512 C 2247.76 2.16187 2.87234 0
M  V30 23513 C 2247.42 3.65024 2.74967 0
M  V30 23514 C 2248.42 4.58578 2.44954 0
M  V30 23515 C 2246.1 4.08344 2.92508 0
M  V30 23516 C 2248.1 5.93432 2.32632 0
M  V30 23517 C 2245.78 5.43279 2.79806 0
M  V30 23518 C 2246.78 6.35637 2.4991 0
M  V30 23519 O 2246.47 7.6809 2.37262 0
M  V30 23520 H 2246.2 0.471652 0.484273 0
M  V30 23521 H 2248.75 1.82416 0.94412 0
M  V30 23522 H 2246.98 1.65828 3.49339 0
M  V30 23523 H 2248.67 2.07711 3.48728 0
M  V30 23524 H 2249.44 4.26416 2.31073 0
M  V30 23525 H 2245.32 3.36805 3.14775 0
M  V30 23526 H 2248.86 6.65487 2.09219 0
M  V30 23527 H 2244.76 5.75039 2.93259 0
M  V30 23528 H 2245.53 7.78581 2.52495 0
M  V30 23529 N 2248.19 -0.984277 1.23084 0
M  V30 23530 C 2249.14 -2.07597 1.00858 0
M  V30 23531 C 2250.11 -1.65941 -0.0726418 0
M  V30 23532 O 2251.29 -1.90638 0.078687 0
M  V30 23533 C 2248.43 -3.39814 0.601704 0
M  V30 23534 C 2247.55 -3.94762 1.75463 0
M  V30 23535 C 2246.68 -5.15175 1.29491 0
M  V30 23536 C 2245.72 -5.6228 2.41883 0
M  V30 23537 N 2244.86 -6.73926 1.96897 0
M  V30 23538 H 2249.7 -2.25943 1.94303 0
M  V30 23539 H 2247.23 -1.1076 0.968021 0
M  V30 23540 H 2249.19 -4.15755 0.346927 0
M  V30 23541 H 2247.82 -3.21442 -0.295746 0
M  V30 23542 H 2246.87 -3.15612 2.12351 0
M  V30 23543 H 2248.19 -4.25694 2.59973 0
M  V30 23544 H 2247.34 -5.98435 0.998029 0
M  V30 23545 H 2246.08 -4.85887 0.420131 0
M  V30 23546 H 2245.08 -4.77604 2.7235 0
M  V30 23547 H 2246.31 -5.93589 3.29891 0
M  V30 23548 H 2244.25 -6.46404 1.11793 0
M  V30 23549 H 2244.17 -7.04222 2.74968 0
M  V30 23550 H 2245.44 -7.60669 1.70302 0
M  V30 23551 N 2249.67 -1.04192 -1.18244 0
M  V30 23552 C 2250.6 -0.654953 -2.24126 0
M  V30 23553 C 2251.58 0.342422 -1.66618 0
M  V30 23554 O 2252.76 0.222243 -1.92924 0
M  V30 23555 C 2249.89 -0.0184367 -3.47295 0
M  V30 23556 C 2248.85 -0.939488 -4.17562 0
M  V30 23557 C 2248.17 -0.16738 -5.34438 0
M  V30 23558 C 2249.47 -2.25916 -4.70913 0
M  V30 23559 H 2251.17 -1.54012 -2.5675 0
M  V30 23560 H 2248.71 -0.741971 -1.23413 0
M  V30 23561 H 2250.67 0.264009 -4.20572 0
M  V30 23562 H 2249.39 0.901609 -3.13909 0
M  V30 23563 H 2248.05 -1.20634 -3.46184 0
M  V30 23564 H 2247.7 0.755112 -4.973 0
M  V30 23565 H 2247.4 -0.781003 -5.82387 0
M  V30 23566 H 2248.92 0.108018 -6.10504 0
M  V30 23567 H 2250.34 -2.03733 -5.35879 0
M  V30 23568 H 2248.73 -2.82586 -5.29401 0
M  V30 23569 H 2249.8 -2.90477 -3.88267 0
M  V30 23570 N 2251.15 1.34492 -0.821557 0
M  V30 23571 C 2252.39 1.98327 -0.408981 0
M  V30 23572 C 2252.72 1.65138 1.02761 0
M  V30 23573 O 2251.98 0.91438 1.73025 0
M  V30 23574 C 2252.28 3.5304 -0.556574 0
M  V30 23575 C 2251.94 4.06136 -1.95868 0
M  V30 23576 C 2250.6 4.20348 -2.34224 0
M  V30 23577 C 2252.96 4.34713 -2.8753 0
M  V30 23578 C 2250.28 4.60463 -3.6358 0
M  V30 23579 C 2252.64 4.76274 -4.16349 0
M  V30 23580 C 2251.3 4.88691 -4.54684 0
M  V30 23581 H 2250.57 0.72573 -0.149657 0
M  V30 23582 H 2253.22 1.60459 -1.04524 0
M  V30 23583 H 2251.52 3.9146 0.163079 0
M  V30 23584 H 2253.22 4.00408 -0.217896 0
M  V30 23585 H 2249.81 3.95536 -1.65073 0
M  V30 23586 H 2253.99 4.23273 -2.59141 0
M  V30 23587 H 2249.25 4.68268 -3.9311 0
M  V30 23588 H 2253.42 4.97345 -4.87464 0
M  V30 23589 H 2251.05 5.19533 -5.54968 0
M  V30 23590 N 2252.62 0.576397 1.46681 0
M  V30 23591 C 2253.59 -0.150199 2.28707 0
M  V30 23592 C 2254.59 -0.82477 1.38037 0
M  V30 23593 O 2255.78 -0.677691 1.60477 0
M  V30 23594 C 2252.91 -1.22187 3.1825 0
M  V30 23595 H 2254.1 0.570573 2.94422 0
M  V30 23596 H 2251.66 0.334105 1.52687 0
M  V30 23597 H 2252.39 -1.97442 2.57269 0
M  V30 23598 H 2252.18 -0.742744 3.85001 0
M  V30 23599 H 2253.67 -1.73166 3.80004 0
M  V30 23600 N 2254.1 -1.54444 0.313841 0
M  V30 23601 C 2255.35 -1.99993 -0.291064 0
M  V30 23602 C 2255.67 -1.20369 -1.53416 0
M  V30 23603 O 2254.94 -0.302961 -1.93543 0
M  V30 23604 H 2253.52 -0.738776 -0.110539 0
M  V30 23605 H 2256.18 -1.90139 0.428139 0
M  V30 23606 H 2255.28 -3.0714 -0.554214 0
M  V30 23607 N 2255.58 -0.0418125 -1.57545 0
M  V30 23608 C 2256.83 0.634048 -1.92318 0
M  V30 23609 C 2257.16 1.714 -0.919364 0
M  V30 23610 O 2256.41 1.95576 0.0697909 0
M  V30 23611 C 2256.71 1.27729 -3.33796 0
M  V30 23612 C 2256.38 0.326464 -4.49717 0
M  V30 23613 C 2255.04 0.0647968 -4.81156 0
M  V30 23614 C 2257.39 -0.325714 -5.20181 0
M  V30 23615 C 2254.72 -0.856641 -5.80412 0
M  V30 23616 C 2257.07 -1.23529 -6.20422 0
M  V30 23617 C 2255.73 -1.50572 -6.50296 0
M  V30 23618 H 2255 0.232015 -0.70374 0
M  V30 23619 H 2257.65 -0.106293 -1.91205 0
M  V30 23620 H 2255.96 2.09268 -3.31231 0
M  V30 23621 H 2257.65 1.80701 -3.57978 0
M  V30 23622 H 2254.24 0.54059 -4.25177 0
M  V30 23623 H 2258.43 -0.136634 -4.96112 0
M  V30 23624 H 2253.68 -1.07373 -6.01898 0
M  V30 23625 H 2257.86 -1.74676 -6.74138 0
M  V30 23626 H 2255.48 -2.22136 -7.27021 0
M  V30 23627 N 2257.06 1.55891 0.231477 0
M  V30 23628 C 2257.99 1.88072 1.31002 0
M  V30 23629 C 2259 0.76817 1.43537 0
M  V30 23630 O 2260.19 1.0464 1.44612 0
M  V30 23631 C 2257.29 2.06548 2.68684 0
M  V30 23632 C 2256.47 3.37507 2.78222 0
M  V30 23633 C 2255.52 3.45536 3.96851 0
M  V30 23634 O 2254.55 4.1864 3.85655 0
M  V30 23635 N 2255.75 2.75953 5.10715 0
M  V30 23636 H 2258.52 2.81178 1.03726 0
M  V30 23637 H 2256.08 1.56316 0.421546 0
M  V30 23638 H 2258.07 2.09245 3.46408 0
M  V30 23639 H 2256.64 1.20114 2.88602 0
M  V30 23640 H 2255.86 3.46994 1.87053 0
M  V30 23641 H 2257.15 4.23796 2.81557 0
M  V30 23642 H 2256.55 2.16321 5.22706 0
M  V30 23643 H 2255.1 2.84324 5.86518 0
M  V30 23644 N 2258.54 -0.497781 1.49532 0
M  V30 23645 C 2259.78 -1.24923 1.58867 0
M  V30 23646 C 2260.11 -1.92997 0.278755 0
M  V30 23647 O 2259.38 -1.82886 -0.702112 0
M  V30 23648 H 2257.96 -0.464083 0.585351 0
M  V30 23649 H 2260.62 -0.576627 1.86175 0
M  V30 23650 H 2259.71 -2.01145 2.38636 0
M  V30 23651 N 2260.01 -1.38661 -0.749062 0
M  V30 23652 C 2260.98 -1.36048 -1.84455 0
M  V30 23653 C 2261.98 -0.26015 -1.58682 0
M  V30 23654 O 2263.17 -0.517291 -1.66342 0
M  V30 23655 C 2260.3 -1.11916 -3.22006 0
M  V30 23656 H 2261.49 -2.33515 -1.88178 0
M  V30 23657 H 2259.05 -1.2402 -0.951244 0
M  V30 23658 H 2259.78 -0.150743 -3.23949 0
M  V30 23659 H 2259.57 -1.91585 -3.42108 0
M  V30 23660 H 2261.06 -1.12795 -4.02078 0
M  V30 23661 N 2261.49 0.977736 -1.23605 0
M  V30 23662 C 2262.72 1.75201 -1.0949 0
M  V30 23663 C 2263.13 1.85815 0.356289 0
M  V30 23664 O 2262.47 1.33853 1.25813 0
M  V30 23665 C 2262.54 3.19445 -1.6491 0
M  V30 23666 C 2262.2 3.32333 -3.13694 0
M  V30 23667 C 2263.2 3.18448 -4.10959 0
M  V30 23668 C 2260.88 3.56896 -3.53456 0
M  V30 23669 C 2262.88 3.28934 -5.45968 0
M  V30 23670 C 2260.56 3.67022 -4.88609 0
M  V30 23671 C 2261.56 3.53052 -5.84674 0
M  V30 23672 O 2261.25 3.62814 -7.17371 0
M  V30 23673 H 2260.98 0.556566 -0.38368 0
M  V30 23674 H 2263.54 1.2369 -1.63982 0
M  V30 23675 H 2261.77 3.72216 -1.04842 0
M  V30 23676 H 2263.45 3.78643 -1.46233 0
M  V30 23677 H 2264.22 2.99366 -3.81583 0
M  V30 23678 H 2260.1 3.6684 -2.79195 0
M  V30 23679 H 2263.64 3.17947 -6.20931 0
M  V30 23680 H 2259.54 3.85614 -5.1766 0
M  V30 23681 H 2260.31 3.79592 -7.25157 0
M  V30 23682 N 2262.97 1.04818 1.1769 0
M  V30 23683 C 2264.2 0.776288 1.91785 0
M  V30 23684 C 2264.61 -0.667546 1.76605 0
M  V30 23685 O 2263.97 -1.45571 1.1007 0
M  V30 23686 C 2264.02 1.14269 3.42965 0
M  V30 23687 O 2263.74 2.52984 3.57674 0
M  V30 23688 C 2265.24 0.896388 4.34143 0
M  V30 23689 H 2262.46 0.28253 0.60862 0
M  V30 23690 H 2265.01 1.39785 1.49266 0
M  V30 23691 H 2263.16 0.565942 3.83244 0
M  V30 23692 H 2263.58 2.67236 4.51315 0
M  V30 23693 H 2265.05 1.20254 5.38742 0
M  V30 23694 H 2265.53 -0.168559 4.38876 0
M  V30 23695 H 2266.13 1.45679 3.99572 0
M  V30 23696 N 2264.45 -1.34055 0.828678 0
M  V30 23697 C 2265.7 -1.97716 0.418665 0
M  V30 23698 C 2266.02 -1.66004 -1.02311 0
M  V30 23699 O 2265.29 -0.953713 -1.71117 0
M  V30 23700 H 2263.87 -0.731409 0.151822 0
M  V30 23701 H 2266.53 -1.63594 1.05939 0
M  V30 23702 H 2265.63 -3.07351 0.542372 0
M  V30 23703 N 2265.93 -0.584167 -1.46374 0
M  V30 23704 C 2266.86 0.196636 -2.27351 0
M  V30 23705 C 2267.84 0.895537 -1.35716 0
M  V30 23706 O 2269.02 0.909131 -1.65127 0
M  V30 23707 C 2266.15 1.28229 -3.13488 0
M  V30 23708 C 2265.2 0.689071 -4.20897 0
M  V30 23709 S 2266.03 -0.485164 -5.33298 0
M  V30 23710 C 2267.18 0.601658 -6.23002 0
M  V30 23711 H 2267.42 -0.490447 -2.93227 0
M  V30 23712 H 2264.95 -0.371098 -1.49874 0
M  V30 23713 H 2266.91 1.90388 -3.63679 0
M  V30 23714 H 2265.57 1.94133 -2.46923 0
M  V30 23715 H 2264.76 1.50518 -4.80999 0
M  V30 23716 H 2264.36 0.143115 -3.73726 0
M  V30 23717 H 2266.66 1.48694 -6.60981 0
M  V30 23718 H 2267.6 0.0373554 -7.0809 0
M  V30 23719 H 2268.01 0.906459 -5.57175 0
M  V30 23720 N 2267.41 1.54275 -0.322027 0
M  V30 23721 C 2268.82 1.85957 0.166351 0
M  V30 23722 C 2269.17 1.2437 1.51745 0
M  V30 23723 O 2268.29 0.549161 2.09316 0
M  V30 23724 C 2268.89 3.37391 0.308622 0
M  V30 23725 C 2267.45 3.6903 0.741221 0
M  V30 23726 C 2266.59 2.76956 -0.137985 0
M  V30 23727 H 2269.54 1.49145 -0.542361 0
M  V30 23728 H 2269.57 3.63028 1.13978 0
M  V30 23729 H 2269.08 3.82187 -0.674876 0
M  V30 23730 H 2267.18 3.29765 1.73452 0
M  V30 23731 H 2267.29 4.75978 0.546035 0
M  V30 23732 H 2265.66 2.51755 0.386207 0
M  V30 23733 H 2266.44 3.24578 -1.11822 0
M  V30 23734 N 2268.88 0.0501669 1.5752 0
M  V30 23735 C 2269.83 -0.942421 2.12653 0
M  V30 23736 C 2270.83 -1.32291 1.05809 0
M  V30 23737 O 2272.03 -1.30268 1.24219 0
M  V30 23738 H 2268.41 -0.321777 0.679679 0
M  V30 23739 H 2270.38 -0.452304 2.94952 0
M  V30 23740 C 2269.13 -2.20831 2.68568 0
M  V30 23741 H 2268.45 -1.92433 3.50442 0
M  V30 23742 H 2269.89 -2.88444 3.10767 0
M  V30 23743 C 2268.35 -2.95231 1.62297 0
M  V30 23744 O 2268.88 -3.88133 1.03515 0
M  V30 23745 N 2267.08 -2.57944 1.33841 0
M  V30 23746 H 2266.63 -1.82472 1.81829 0
M  V30 23747 H 2266.59 -3.0803 0.629649 0
M  V30 23748 N 2270.36 -1.56011 -0.223207 0
M  V30 23749 C 2271.29 -1.88764 -1.30003 0
M  V30 23750 C 2272.31 -0.775771 -1.43128 0
M  V30 23751 O 2273.5 -1.05406 -1.44055 0
M  V30 23752 C 2270.6 -2.0797 -2.67585 0
M  V30 23753 C 2269.77 -3.38978 -2.76428 0
M  V30 23754 C 2268.83 -3.47636 -3.95013 0
M  V30 23755 O 2267.85 -4.20679 -3.83429 0
M  V30 23756 N 2269.06 -2.78658 -5.09245 0
M  V30 23757 H 2271.82 -2.81724 -1.02233 0
M  V30 23758 H 2269.38 -1.56537 -0.41325 0
M  V30 23759 H 2271.37 -2.11079 -3.45294 0
M  V30 23760 H 2269.94 -1.21643 -2.87961 0
M  V30 23761 H 2269.16 -3.47981 -1.8521 0
M  V30 23762 H 2270.45 -4.25283 -2.79305 0
M  V30 23763 H 2269.85 -2.1909 -5.21552 0
M  V30 23764 H 2268.41 -2.87431 -5.85002 0
M  V30 23765 N 2271.84 0.489844 -1.49794 0
M  V30 23766 C 2272.79 1.59011 -1.67284 0
M  V30 23767 C 2273.76 1.5794 -0.514204 0
M  V30 23768 O 2274.94 1.75757 -0.742564 0
M  V30 23769 C 2272.08 2.97099 -1.75574 0
M  V30 23770 C 2271.19 3.08102 -3.02816 0
M  V30 23771 C 2270.33 4.3699 -3.02016 0
M  V30 23772 C 2269.37 4.41666 -4.2379 0
M  V30 23773 N 2268.51 5.61998 -4.20836 0
M  V30 23774 H 2273.35 1.43405 -2.61226 0
M  V30 23775 H 2270.88 0.697542 -1.2951 0
M  V30 23776 H 2272.84 3.77152 -1.78361 0
M  V30 23777 H 2271.47 3.11384 -0.850882 0
M  V30 23778 H 2270.52 2.21041 -3.09588 0
M  V30 23779 H 2271.83 3.07416 -3.92806 0
M  V30 23780 H 2270.99 5.25373 -3.03427 0
M  V30 23781 H 2269.73 4.40256 -2.09823 0
M  V30 23782 H 2268.73 3.51683 -4.2261 0
M  V30 23783 H 2269.96 4.40106 -5.17188 0
M  V30 23784 H 2267.9 5.66086 -3.31486 0
M  V30 23785 H 2267.82 5.62976 -5.04574 0
M  V30 23786 H 2269.09 6.52558 -4.26367 0
M  V30 23787 N 2273.32 1.39056 0.741698 0
M  V30 23788 C 2274.73 1.3207 1.31963 0
M  V30 23789 C 2275.08 -0.0180453 1.96192 0
M  V30 23790 O 2274.2 -0.920162 1.95862 0
M  V30 23791 C 2274.8 2.39185 2.3995 0
M  V30 23792 C 2273.36 2.35741 2.93434 0
M  V30 23793 C 2272.51 2.21425 1.66932 0
M  V30 23794 H 2275.46 1.49241 0.539695 0
M  V30 23795 H 2275.48 2.05587 3.20178 0
M  V30 23796 H 2274.99 3.36609 1.93174 0
M  V30 23797 H 2273.09 1.41935 3.44507 0
M  V30 23798 H 2273.2 3.30341 3.47004 0
M  V30 23799 H 2271.57 1.68481 1.91014 0
M  V30 23800 H 2272.35 3.20808 1.22218 0
M  V30 23801 N 2274.8 -0.971167 1.24121 0
M  V30 23802 C 2275.74 -2.06515 1.03054 0
M  V30 23803 C 2276.71 -1.66009 -0.0550374 0
M  V30 23804 O 2277.9 -1.90543 0.0989023 0
M  V30 23805 C 2275.04 -3.39157 0.637712 0
M  V30 23806 C 2274.15 -3.92878 1.7964 0
M  V30 23807 C 2273.29 -5.13773 1.34948 0
M  V30 23808 C 2272.32 -5.59683 2.47833 0
M  V30 23809 N 2271.46 -6.718 2.04034 0
M  V30 23810 H 2276.3 -2.23869 1.96689 0
M  V30 23811 H 2273.84 -1.09727 0.979714 0
M  V30 23812 H 2275.8 -4.15364 0.391004 0
M  V30 23813 H 2274.43 -3.21738 -0.261636 0
M  V30 23814 H 2273.48 -3.13342 2.15687 0
M  V30 23815 H 2274.79 -4.22913 2.64473 0
M  V30 23816 H 2273.94 -5.97343 1.06144 0
M  V30 23817 H 2272.68 -4.85414 0.471642 0
M  V30 23818 H 2271.69 -4.74688 2.77401 0
M  V30 23819 H 2272.91 -5.90057 3.36169 0
M  V30 23820 H 2270.86 -6.45182 1.18643 0
M  V30 23821 H 2270.78 -7.01266 2.82422 0
M  V30 23822 H 2272.04 -7.5882 1.7836 0
M  V30 23823 N 2276.27 -1.05441 -1.17133 0
M  V30 23824 C 2277.52 -0.76711 -1.87732 0
M  V30 23825 C 2277.85 0.704221 -1.80982 0
M  V30 23826 O 2277.13 1.51517 -1.21954 0
M  V30 23827 C 2277.41 -1.25139 -3.37657 0
M  V30 23828 C 2277.26 -2.78584 -3.53145 0
M  V30 23829 C 2278.58 -0.8524 -4.31766 0
M  V30 23830 H 2275.7 -0.280141 -0.681682 0
M  V30 23831 H 2278.34 -1.30883 -1.3773 0
M  V30 23832 H 2276.49 -0.790536 -3.80372 0
M  V30 23833 H 2278.17 -3.32812 -3.19428 0
M  V30 23834 H 2276.41 -3.17737 -2.9534 0
M  V30 23835 H 2277.08 -3.07531 -4.58398 0
M  V30 23836 H 2279.56 -1.24918 -3.96906 0
M  V30 23837 H 2278.43 -1.21883 -5.35197 0
M  V30 23838 H 2278.69 0.243407 -4.41429 0
M  V30 23839 N 2277.75 1.33613 -0.835776 0
M  V30 23840 C 2279.16 1.80233 -0.487131 0
M  V30 23841 C 2279.51 1.69181 0.993597 0
M  V30 23842 O 2278.64 1.23927 1.77401 0
M  V30 23843 C 2279.23 3.27241 -0.877442 0
M  V30 23844 C 2277.79 3.71889 -0.580981 0
M  V30 23845 C 2276.94 2.55088 -1.08744 0
M  V30 23846 H 2279.89 1.21179 -1.02476 0
M  V30 23847 H 2279.91 3.80044 -0.186262 0
M  V30 23848 H 2279.42 3.35253 -1.95518 0
M  V30 23849 H 2277.53 3.69406 0.486817 0
M  V30 23850 H 2277.64 4.65485 -1.13405 0
M  V30 23851 H 2276 2.49574 -0.508436 0
M  V30 23852 H 2276.79 2.65864 -2.17189 0
M  V30 23853 N 2279.23 0.591922 1.46062 0
M  V30 23854 C 2280.46 0.0869299 2.06717 0
M  V30 23855 C 2280.87 -1.22201 1.43918 0
M  V30 23856 O 2280.23 -1.74087 0.547729 0
M  V30 23857 C 2280.28 -0.0758089 3.61421 0
M  V30 23858 O 2280 1.18133 4.21872 0
M  V30 23859 C 2281.5 -0.614083 4.39026 0
M  V30 23860 H 2278.72 0.0616635 0.668161 0
M  V30 23861 H 2281.27 0.815208 1.87549 0
M  V30 23862 H 2279.42 -0.754346 3.79985 0
M  V30 23863 H 2279.84 1.00101 5.14859 0
M  V30 23864 H 2281.31 -0.677097 5.47832 0
M  V30 23865 H 2281.79 -1.63305 4.07711 0
M  V30 23866 H 2282.39 0.029889 4.25289 0
M  V30 23867 N 2280.71 -1.54102 0.330204 0
M  V30 23868 C 2281.64 -2.27514 -0.525313 0
M  V30 23869 C 2282.62 -1.28562 -1.11381 0
M  V30 23870 O 2283.8 -1.57385 -1.1377 0
M  V30 23871 C 2280.93 -3.03794 -1.68305 0
M  V30 23872 C 2279.89 -4.10139 -1.22353 0
M  V30 23873 C 2279.21 -4.74297 -2.46873 0
M  V30 23874 C 2280.51 -5.21234 -0.333605 0
M  V30 23875 H 2282.21 -2.99273 0.0870656 0
M  V30 23876 H 2279.75 -1.43935 0.0433146 0
M  V30 23877 H 2281.71 -3.53884 -2.28788 0
M  V30 23878 H 2280.43 -2.29663 -2.32212 0
M  V30 23879 H 2279.09 -3.60942 -0.641586 0
M  V30 23880 H 2278.74 -3.96775 -3.09159 0
M  V30 23881 H 2278.44 -5.46136 -2.16815 0
M  V30 23882 H 2279.96 -5.27164 -3.08107 0
M  V30 23883 H 2281.38 -5.6704 -0.844913 0
M  V30 23884 H 2279.77 -5.99969 -0.125507 0
M  V30 23885 H 2280.84 -4.8074 0.633808 0
M  V30 23886 N 2282.19 -0.0585199 -1.57491 0
M  V30 23887 C 2283.6 0.298063 -1.56792 0
M  V30 23888 C 2283.8 1.70942 -1.06682 0
M  V30 23889 O 2282.86 2.41816 -0.726714 0
M  V30 23890 C 2284.17 0.119826 -3.00461 0
M  V30 23891 C 2285.72 0.190373 -3.12421 0
M  V30 23892 C 2286.19 0.0405762 -4.57982 0
M  V30 23893 N 2287.69 0.0966144 -4.63099 0
M  V30 23894 C 2288.42 0.00492864 -5.734 0
M  V30 23895 N 2287.92 -0.139524 -6.92659 0
M  V30 23896 N 2289.71 0.0610403 -5.62067 0
M  V30 23897 H 2281.86 -0.981084 -1.88384 0
M  V30 23898 H 2284.12 -0.381478 -0.867858 0
M  V30 23899 H 2283.83 -0.85355 -3.41185 0
M  V30 23900 H 2283.7 0.877769 -3.66845 0
M  V30 23901 H 2286.09 1.15423 -2.71591 0
M  V30 23902 H 2286.17 -0.598449 -2.48701 0
M  V30 23903 H 2285.82 -0.919985 -4.99498 0
M  V30 23904 H 2285.75 0.848636 -5.19717 0
M  V30 23905 H 2288.24 0.20721 -3.77331 0
M  V30 23906 H 2288.55 -0.20199 -7.72536 0
M  V30 23907 H 2286.89 -0.174708 -6.9478 0
M  V30 23908 H 2290.09 0.1725 -4.67782 0
M  V30 23909 H 2290.26 -0.0138701 -6.47999 0
M  V30 23910 N 2283.66 1.56128 0.21493 0
M  V30 23911 C 2284.6 1.89451 1.29 0
M  V30 23912 C 2285.61 0.783351 1.42715 0
M  V30 23913 O 2286.8 1.06168 1.43494 0
M  V30 23914 C 2283.9 2.09386 2.66478 0
M  V30 23915 C 2283.07 3.40439 2.74627 0
M  V30 23916 C 2282.13 3.49726 3.93164 0
M  V30 23917 O 2281.16 4.22707 3.81193 0
M  V30 23918 N 2282.36 2.81355 5.0776 0
M  V30 23919 H 2285.12 2.82262 1.00738 0
M  V30 23920 H 2282.68 1.56754 0.404943 0
M  V30 23921 H 2284.68 2.12908 3.44169 0
M  V30 23922 H 2283.25 1.23168 2.87312 0
M  V30 23923 H 2282.47 3.48959 1.83362 0
M  V30 23924 H 2283.75 4.26759 2.77046 0
M  V30 23925 H 2283.15 2.21853 5.20383 0
M  V30 23926 H 2281.71 2.90529 5.83469 0
M  V30 23927 N 2285.14 -0.481893 1.50052 0
M  V30 23928 C 2286.11 -1.56357 1.67586 0
M  V30 23929 C 2287.11 -1.51213 0.54692 0
M  V30 23930 O 2288.3 -1.54025 0.813752 0
M  V30 23931 C 2285.43 -2.96 1.69105 0
M  V30 23932 H 2286.62 -1.42131 2.64081 0
M  V30 23933 H 2284.17 -0.707509 1.3937 0
M  V30 23934 H 2284.91 -3.15682 0.742644 0
M  V30 23935 H 2284.69 -3.01141 2.5111 0
M  V30 23936 H 2286.18 -3.74552 1.84662 0
M  V30 23937 N 2286.62 -1.39448 -0.734313 0
M  V30 23938 C 2287.57 -1.38222 -1.84833 0
M  V30 23939 C 2288.54 -0.241819 -1.6433 0
M  V30 23940 O 2289.72 -0.437035 -1.85727 0
M  V30 23941 C 2286.86 -1.23217 -3.22353 0
M  V30 23942 C 2285.98 -2.46808 -3.54556 0
M  V30 23943 C 2285.11 -2.24386 -4.81482 0
M  V30 23944 C 2284.15 -3.43648 -5.0653 0
M  V30 23945 N 2283.29 -3.20539 -6.24659 0
M  V30 23946 H 2288.13 -2.33451 -1.85215 0
M  V30 23947 H 2285.66 -1.15965 -0.905018 0
M  V30 23948 H 2287.62 -1.12529 -4.01738 0
M  V30 23949 H 2286.25 -0.316178 -3.21248 0
M  V30 23950 H 2285.3 -2.68096 -2.69868 0
M  V30 23951 H 2286.62 -3.35636 -3.68985 0
M  V30 23952 H 2285.77 -2.10943 -5.68848 0
M  V30 23953 H 2284.51 -1.32952 -4.69228 0
M  V30 23954 H 2283.51 -3.57588 -4.17625 0
M  V30 23955 H 2284.74 -4.35983 -5.20668 0
M  V30 23956 H 2282.68 -2.31771 -6.13692 0
M  V30 23957 H 2282.6 -4.02925 -6.39678 0
M  V30 23958 H 2283.87 -3.10792 -7.14863 0
M  V30 23959 N 2288.1 0.964571 -1.24635 0
M  V30 23960 C 2289.34 1.71047 -1.08952 0
M  V30 23961 C 2289.68 1.90637 0.370268 0
M  V30 23962 O 2288.95 1.47014 1.27347 0
M  V30 23963 C 2289.24 3.09936 -1.83334 0
M  V30 23964 C 2289.09 2.97818 -3.37082 0
M  V30 23965 C 2290.41 4.09651 -1.60853 0
M  V30 23966 H 2287.53 0.620814 -0.397189 0
M  V30 23967 H 2290.17 1.12188 -1.53342 0
M  V30 23968 H 2288.32 3.60183 -1.45603 0
M  V30 23969 H 2289.99 2.54973 -3.8443 0
M  V30 23970 H 2288.23 2.33959 -3.65302 0
M  V30 23971 H 2288.9 3.96224 -3.84331 0
M  V30 23972 H 2291.38 3.68276 -1.93681 0
M  V30 23973 H 2290.26 5.04892 -2.15349 0
M  V30 23974 H 2290.52 4.38697 -0.547511 0
M  V30 23975 N 2289.58 1.0606 1.16572 0
M  V30 23976 C 2290.51 0.627278 2.20449 0
M  V30 23977 C 2291.52 -0.313506 1.59753 0
M  V30 23978 O 2292.71 -0.104865 1.78192 0
M  V30 23979 C 2289.81 -0.100915 3.3875 0
M  V30 23980 C 2288.98 0.852763 4.29007 0
M  V30 23981 C 2288.04 0.164245 5.25944 0
M  V30 23982 O 2287.07 0.801146 5.63534 0
M  V30 23983 N 2288.27 -1.09508 5.70077 0
M  V30 23984 H 2291.04 1.52082 2.58247 0
M  V30 23985 H 2288.6 0.943617 1.31558 0
M  V30 23986 H 2290.59 -0.57187 4.00639 0
M  V30 23987 H 2289.16 -0.896228 2.99477 0
M  V30 23988 H 2288.38 1.50314 3.64416 0
M  V30 23989 H 2289.67 1.49981 4.86193 0
M  V30 23990 H 2289.06 -1.6327 5.41627 0
M  V30 23991 H 2287.62 -1.50995 6.34069 0
M  V30 23992 N 2291.06 -1.33168 0.84285 0
M  V30 23993 C 2292.3 -1.97261 0.439612 0
M  V30 23994 C 2292.62 -1.6708 -1.00545 0
M  V30 23995 O 2291.89 -0.971809 -1.70096 0
M  V30 23996 H 2290.47 -0.729758 0.159571 0
M  V30 23997 H 2293.14 -1.62461 1.07668 0
M  V30 23998 H 2292.23 -3.06759 0.57494 0
M  V30 23999 N 2292.53 -0.599659 -1.45746 0
M  V30 24000 C 2293.94 -0.177714 -1.85852 0
M  V30 24001 C 2294.3 1.26346 -1.50104 0
M  V30 24002 O 2293.42 1.95684 -0.92394 0
M  V30 24003 C 2294.02 -0.315747 -3.37325 0
M  V30 24004 C 2292.57 0.0514483 -3.76365 0
M  V30 24005 C 2291.72 -0.643869 -2.69721 0
M  V30 24006 H 2294.67 -0.806838 -1.36659 0
M  V30 24007 H 2294.69 0.454254 -3.77779 0
M  V30 24008 H 2294.21 -1.36475 -3.63313 0
M  V30 24009 H 2292.31 1.09993 -3.55995 0
M  V30 24010 H 2292.42 -0.336678 -4.77916 0
M  V30 24011 H 2290.78 -0.0823329 -2.54567 0
M  V30 24012 H 2291.57 -1.69485 -2.98546 0
M  V30 24013 N 2294.01 1.53925 -0.338371 0
M  V30 24014 C 2294.97 2.23494 0.50826 0
M  V30 24015 C 2295.97 1.23337 1.03173 0
M  V30 24016 O 2297.16 1.47812 0.9218 0
M  V30 24017 C 2294.3 2.95055 1.70749 0
M  V30 24018 H 2295.49 2.99733 -0.10011 0
M  V30 24019 H 2293.04 1.56043 -0.0896473 0
M  V30 24020 H 2293.78 2.2299 2.3547 0
M  V30 24021 H 2293.56 3.68514 1.33939 0
M  V30 24022 H 2295.05 3.48017 2.30812 0
M  V30 24023 N 2295.49 0.0668712 1.57458 0
M  V30 24024 C 2296.74 -0.603372 1.93302 0
M  V30 24025 C 2297.06 -1.69916 0.946516 0
M  V30 24026 O 2296.32 -1.95662 -0.0386677 0
M  V30 24027 C 2296.62 -1.22403 3.35786 0
M  V30 24028 C 2296.28 -0.254876 4.50179 0
M  V30 24029 C 2294.95 0.0117592 4.81199 0
M  V30 24030 C 2297.3 0.40843 5.19597 0
M  V30 24031 C 2294.63 0.948871 5.78976 0
M  V30 24032 C 2296.98 1.33383 6.18378 0
M  V30 24033 C 2295.64 1.60898 6.47818 0
M  V30 24034 H 2294.91 -0.220789 0.707342 0
M  V30 24035 H 2297.56 0.136698 1.91011 0
M  V30 24036 H 2295.86 -2.03972 3.34519 0
M  V30 24037 H 2297.56 -1.74983 3.60807 0
M  V30 24038 H 2294.15 -0.47288 4.25983 0
M  V30 24039 H 2298.34 0.215543 4.95832 0
M  V30 24040 H 2293.59 1.16935 6.00113 0
M  V30 24041 H 2297.77 1.85378 6.71273 0
M  V30 24042 H 2295.39 2.33674 7.23395 0
M  V30 24043 N 2296.97 -1.56239 -0.206647 0
M  V30 24044 C 2297.88 -1.96811 -1.27682 0
M  V30 24045 C 2298.89 -0.874062 -1.50453 0
M  V30 24046 O 2300.07 -1.17887 -1.63293 0
M  V30 24047 C 2297.13 -2.28946 -2.60354 0
M  V30 24048 C 2296.2 -3.51998 -2.45756 0
M  V30 24049 C 2295.43 -3.82591 -3.72102 0
M  V30 24050 O 2295.65 -3.1464 -4.75771 0
M  V30 24051 O 2294.59 -4.76049 -3.68321 0
M  V30 24052 H 2298.41 -2.88043 -0.962543 0
M  V30 24053 H 2296 -1.43643 -0.410721 0
M  V30 24054 H 2297.88 -2.50743 -3.38682 0
M  V30 24055 H 2296.55 -1.40885 -2.91433 0
M  V30 24056 H 2295.46 -3.35462 -1.65578 0
M  V30 24057 H 2296.79 -4.40489 -2.19613 0
M  V30 24058 N 2298.45 0.473929 -1.50305 0
M  V30 24059 C 2299.69 1.22622 -1.61153 0
M  V30 24060 C 2300.02 1.92005 -0.310551 0
M  V30 24061 O 2299.28 1.82622 0.703387 0
M  V30 24062 C 2299.57 2.29544 -2.73942 0
M  V30 24063 C 2299.24 1.77432 -4.14522 0
M  V30 24064 C 2297.9 1.62941 -4.52773 0
M  V30 24065 C 2300.25 1.38741 -5.02395 0
M  V30 24066 C 2297.58 1.08177 -5.76641 0
M  V30 24067 C 2299.93 0.854199 -6.26806 0
M  V30 24068 C 2298.6 0.695894 -6.63863 0
M  V30 24069 H 2297.87 0.448705 -0.589699 0
M  V30 24070 H 2300.52 0.522673 -1.84229 0
M  V30 24071 H 2298.82 3.05795 -2.44943 0
M  V30 24072 H 2300.52 2.87504 -2.79539 0
M  V30 24073 H 2297.11 1.89678 -3.84344 0
M  V30 24074 H 2301.29 1.48772 -4.73477 0
M  V30 24075 H 2296.55 0.94656 -6.04028 0
M  V30 24076 H 2300.72 0.545721 -6.94258 0
M  V30 24077 H 2298.35 0.269386 -7.59723 0
M  V30 24078 N 2299.92 1.39835 0.726907 0
M  V30 24079 C 2300.89 1.38966 1.82267 0
M  V30 24080 C 2301.89 0.285362 1.58248 0
M  V30 24081 O 2303.08 0.543689 1.65498 0
M  V30 24082 C 2300.21 1.17025 3.20184 0
M  V30 24083 H 2301.4 2.36479 1.84439 0
M  V30 24084 H 2298.95 1.25518 0.931393 0
M  V30 24085 H 2299.69 0.202261 3.23669 0
M  V30 24086 H 2299.47 1.97003 3.39016 0
M  V30 24087 H 2300.96 1.19177 4.00233 0
M  V30 24088 N 2301.4 -0.957948 1.25144 0
M  V30 24089 C 2302.65 -1.70467 1.09858 0
M  V30 24090 C 2302.98 -1.90831 -0.360153 0
M  V30 24091 O 2302.26 -1.47687 -1.26565 0
M  V30 24092 C 2302.54 -3.0896 1.84975 0
M  V30 24093 C 2302.39 -2.96026 3.38657 0
M  V30 24094 C 2303.71 -4.08793 1.63024 0
M  V30 24095 H 2300.83 -0.618699 0.400476 0
M  V30 24096 H 2303.47 -1.11373 1.53935 0
M  V30 24097 H 2301.62 -3.59406 1.47511 0
M  V30 24098 H 2303.29 -2.52931 3.85777 0
M  V30 24099 H 2301.54 -2.32018 3.66538 0
M  V30 24100 H 2302.21 -3.94181 3.86427 0
M  V30 24101 H 2304.68 -3.67243 1.95631 0
M  V30 24102 H 2303.56 -5.03743 2.18024 0
M  V30 24103 H 2303.82 -4.384 0.570769 0
M  V30 24104 N 2302.88 -1.06677 -1.16008 0
M  V30 24105 C 2303.84 -0.685039 -2.18723 0
M  V30 24106 C 2304.84 0.271218 -1.58496 0
M  V30 24107 O 2306.03 0.053085 -1.74119 0
M  V30 24108 C 2303.16 -0.0085964 -3.40899 0
M  V30 24109 H 2304.36 -1.59435 -2.54009 0
M  V30 24110 H 2301.91 -0.862464 -1.3035 0
M  V30 24111 H 2302.65 0.913282 -3.11175 0
M  V30 24112 H 2302.43 -0.696271 -3.85868 0
M  V30 24113 H 2303.92 0.244066 -4.16886 0
M  V30 24114 N 2304.36 1.32719 -0.8499 0
M  V30 24115 C 2305.29 2.26977 -0.235943 0
M  V30 24116 C 2306.27 1.50178 0.623329 0
M  V30 24117 O 2307.45 1.79317 0.581175 0
M  V30 24118 C 2304.58 3.32054 0.667654 0
M  V30 24119 C 2303.63 4.26338 -0.117605 0
M  V30 24120 S 2304.46 5.1456 -1.48286 0
M  V30 24121 C 2305.61 6.23162 -0.58485 0
M  V30 24122 H 2305.85 2.78703 -1.035 0
M  V30 24123 H 2303.38 1.40178 -0.647264 0
M  V30 24124 H 2305.34 3.93074 1.18336 0
M  V30 24125 H 2304 2.79122 1.44047 0
M  V30 24126 H 2303.19 5.00762 0.570422 0
M  V30 24127 H 2302.79 3.69712 -0.564733 0
M  V30 24128 H 2305.09 6.77166 0.212849 0
M  V30 24129 H 2306.03 6.96072 -1.29959 0
M  V30 24130 H 2306.44 5.6427 -0.161301 0
M  V30 24131 N 2305.84 0.60738 1.45426 0
M  V30 24132 C 2306.77 -0.160442 2.27635 0
M  V30 24133 C 2307.75 -0.873832 1.37124 0
M  V30 24134 O 2308.93 -0.882745 1.66553 0
M  V30 24135 C 2306.06 -1.23226 3.15489 0
M  V30 24136 C 2305.1 -0.622023 4.2194 0
M  V30 24137 S 2305.94 0.569945 5.32458 0
M  V30 24138 C 2307.09 -0.502467 6.2388 0
M  V30 24139 H 2307.33 0.537035 2.92409 0
M  V30 24140 H 2304.86 0.394894 1.49265 0
M  V30 24141 H 2306.82 -1.84578 3.66662 0
M  V30 24142 H 2305.48 -1.9018 2.4998 0
M  V30 24143 H 2304.67 -1.42847 4.83333 0
M  V30 24144 H 2304.27 -0.0836406 3.73906 0
M  V30 24145 H 2306.57 -1.38159 6.63263 0
M  V30 24146 H 2307.51 0.0753003 7.0806 0
M  V30 24147 H 2307.92 -0.817702 5.58546 0
M  V30 24148 N 2307.31 -1.53743 0.34653 0
M  V30 24149 C 2308.26 -2.2512 -0.508874 0
M  V30 24150 C 2309.23 -1.2506 -1.09313 0
M  V30 24151 O 2310.42 -1.53799 -1.12918 0
M  V30 24152 C 2307.56 -3.02968 -1.65241 0
M  V30 24153 C 2306.67 -4.17888 -1.09517 0
M  V30 24154 C 2305.8 -4.83216 -2.20625 0
M  V30 24155 C 2304.84 -5.90199 -1.62269 0
M  V30 24156 N 2303.98 -6.49296 -2.67131 0
M  V30 24157 H 2308.82 -2.9781 0.106336 0
M  V30 24158 H 2306.36 -1.4696 0.0642485 0
M  V30 24159 H 2308.32 -3.46364 -2.32568 0
M  V30 24160 H 2306.95 -2.32569 -2.23856 0
M  V30 24161 H 2306 -3.79112 -0.312751 0
M  V30 24162 H 2307.31 -4.94826 -0.628357 0
M  V30 24163 H 2306.46 -5.29699 -2.95811 0
M  V30 24164 H 2305.2 -4.05708 -2.70652 0
M  V30 24165 H 2304.21 -5.43097 -0.855893 0
M  V30 24166 H 2305.43 -6.69617 -1.1309 0
M  V30 24167 H 2303.38 -5.7465 -3.16407 0
M  V30 24168 H 2303.3 -7.21717 -2.25081 0
M  V30 24169 H 2304.56 -7.00431 -3.42077 0
M  V30 24170 N 2308.79 -0.0752207 -1.5742 0
M  V30 24171 C 2310.21 0.281417 -1.57099 0
M  V30 24172 C 2310.41 1.69801 -1.08489 0
M  V30 24173 O 2309.46 2.41032 -0.752321 0
M  V30 24174 C 2310.78 0.0879513 -3.00571 0
M  V30 24175 C 2312.33 0.157226 -3.12605 0
M  V30 24176 C 2312.8 -0.00800121 -4.57999 0
M  V30 24177 N 2314.29 0.0474911 -4.63176 0
M  V30 24178 C 2315.03 -0.0558884 -5.73373 0
M  V30 24179 N 2314.52 -0.212982 -6.92473 0
M  V30 24180 N 2316.32 0.00142217 -5.621 0
M  V30 24181 H 2308.47 -1.00101 -1.87333 0
M  V30 24182 H 2310.73 -0.390662 -0.863764 0
M  V30 24183 H 2310.44 -0.889689 -3.40261 0
M  V30 24184 H 2310.31 0.83881 -3.67755 0
M  V30 24185 H 2312.7 1.12536 -2.728 0
M  V30 24186 H 2312.78 -0.624793 -2.48052 0
M  V30 24187 H 2312.42 -0.972912 -4.98495 0
M  V30 24188 H 2312.35 0.793465 -5.20588 0
M  V30 24189 H 2314.84 0.167178 -3.7753 0
M  V30 24190 H 2315.16 -0.283917 -7.72278 0
M  V30 24191 H 2313.5 -0.248389 -6.94556 0
M  V30 24192 H 2316.69 0.122876 -4.67939 0
M  V30 24193 H 2316.86 -0.0825983 -6.47947 0
M  V30 24194 N 2310.27 1.56347 0.198358 0
M  V30 24195 C 2311.22 1.95171 1.26534 0
M  V30 24196 C 2312.21 0.836711 1.47294 0
M  V30 24197 O 2313.42 1.0217 1.48194 0
M  V30 24198 H 2309.79 0.620569 0.424733 0
M  V30 24199 H 2311.76 2.84158 0.910854 0
M  V30 24200 C 2310.51 2.30468 2.60346 0
M  V30 24201 H 2309.84 3.15791 2.45186 0
M  V30 24202 H 2311.28 2.61499 3.33757 0
M  V30 24203 C 2309.74 1.13812 3.17094 0
M  V30 24204 O 2310.27 0.41142 3.99588 0
M  V30 24205 N 2308.47 0.915784 2.75793 0
M  V30 24206 H 2308.02 1.50846 2.08814 0
M  V30 24207 H 2307.98 0.137034 3.14101 0
M  V30 24208 N 2311.75 -0.465951 1.50554 0
M  V30 24209 C 2312.97 -1.24546 1.6584 0
M  V30 24210 C 2313.4 -1.84937 0.343518 0
M  V30 24211 O 2312.76 -1.67524 -0.69321 0
M  V30 24212 C 2312.8 -2.32619 2.75537 0
M  V30 24213 O 2311.91 -3.37394 2.37147 0
M  V30 24214 H 2311.25 -0.366184 0.5539 0
M  V30 24215 H 2313.78 -0.553892 1.9696 0
M  V30 24216 H 2313.79 -2.77852 2.98768 0
M  V30 24217 H 2312.46 -1.88037 3.70965 0
M  V30 24218 H 2311.04 -2.97837 2.24382 0
M  V30 24219 N 2313.23 -1.40218 -0.719481 0
M  V30 24220 C 2314.45 -1.41783 -1.51368 0
M  V30 24221 C 2314.88 -0.0182685 -1.88091 0
M  V30 24222 O 2314.23 0.97268 -1.52999 0
M  V30 24223 C 2314.28 -2.3112 -2.76796 0
M  V30 24224 O 2313.39 -1.75177 -3.73345 0
M  V30 24225 H 2312.73 -0.482167 -0.456521 0
M  V30 24226 H 2315.26 -1.84402 -0.886408 0
M  V30 24227 H 2315.27 -2.46172 -3.25366 0
M  V30 24228 H 2313.94 -3.32824 -2.49401 0
M  V30 24229 H 2312.52 -1.6945 -3.32176 0
M  V30 24230 N 2314.7 0.951297 -1.25651 0
M  V30 24231 C 2315.93 1.7309 -1.13346 0
M  V30 24232 C 2316.35 1.86197 0.312401 0
M  V30 24233 O 2315.7 1.36209 1.21463 0
M  V30 24234 C 2315.76 3.14295 -1.78607 0
M  V30 24235 O 2315.48 3.01825 -3.17542 0
M  V30 24236 C 2316.98 4.08519 -1.72126 0
M  V30 24237 H 2314.2 0.542278 -0.395191 0
M  V30 24238 H 2316.74 1.19325 -1.66078 0
M  V30 24239 H 2314.9 3.64994 -1.29839 0
M  V30 24240 H 2315.31 3.90925 -3.49683 0
M  V30 24241 H 2316.78 5.05196 -2.22444 0
M  V30 24242 H 2317.26 4.33814 -0.685711 0
M  V30 24243 H 2317.87 3.63737 -2.20399 0
M  V30 24244 N 2316.18 1.07291 1.1544 0
M  V30 24245 C 2317.43 0.796879 1.86488 0
M  V30 24246 C 2317.76 -0.675339 1.82079 0
M  V30 24247 O 2317.04 -1.49558 1.24349 0
M  V30 24248 C 2317.32 1.30495 3.35624 0
M  V30 24249 C 2317.17 2.84167 3.48668 0
M  V30 24250 C 2318.49 0.920983 4.30356 0
M  V30 24251 H 2315.61 0.290951 0.677139 0
M  V30 24252 H 2318.25 1.33058 1.3563 0
M  V30 24253 H 2316.4 0.850949 3.79066 0
M  V30 24254 H 2318.07 3.37851 3.14093 0
M  V30 24255 H 2316.32 3.22396 2.90247 0
M  V30 24256 H 2316.99 3.14785 4.53447 0
M  V30 24257 H 2319.46 1.31217 3.94869 0
M  V30 24258 H 2318.34 1.30382 5.3319 0
M  V30 24259 H 2318.6 -0.173149 4.41761 0
M  V30 24260 N 2317.66 -1.32267 0.856927 0
M  V30 24261 C 2318.61 -2.28826 0.301212 0
M  V30 24262 C 2319.58 -1.55151 -0.593077 0
M  V30 24263 O 2320.76 -1.83363 -0.527504 0
M  V30 24264 C 2317.9 -3.41422 -0.502463 0
M  V30 24265 C 2317.02 -4.29974 0.417873 0
M  V30 24266 C 2316.15 -5.29702 -0.398655 0
M  V30 24267 C 2315.19 -6.09896 0.518935 0
M  V30 24268 N 2314.33 -7.01616 -0.260551 0
M  V30 24269 H 2319.17 -2.75749 1.12988 0
M  V30 24270 H 2316.7 -1.35666 0.568606 0
M  V30 24271 H 2318.66 -4.05428 -0.98407 0
M  V30 24272 H 2317.29 -2.95644 -1.29594 0
M  V30 24273 H 2316.34 -3.66529 1.01788 0
M  V30 24274 H 2317.66 -4.86017 1.122 0
M  V30 24275 H 2316.81 -5.99321 -0.943329 0
M  V30 24276 H 2315.55 -4.74282 -1.13614 0
M  V30 24277 H 2314.55 -5.39179 1.07547 0
M  V30 24278 H 2315.78 -6.67402 1.25506 0
M  V30 24279 H 2313.72 -6.48622 -0.981084 0
M  V30 24280 H 2313.64 -7.55022 0.384496 0
M  V30 24281 H 2314.91 -7.75518 -0.786878 0
M  V30 24282 N 2319.14 -0.615084 -1.45102 0
M  V30 24283 C 2320.37 -0.119806 -2.06553 0
M  V30 24284 C 2320.78 1.19896 -1.45844 0
M  V30 24285 O 2320.14 1.73193 -0.575355 0
M  V30 24286 C 2320.19 0.0183005 -3.61495 0
M  V30 24287 O 2319.91 -1.2483 -4.19939 0
M  V30 24288 C 2321.41 0.54416 -4.39947 0
M  V30 24289 H 2318.63 -0.0722856 -0.667095 0
M  V30 24290 H 2321.18 -0.844942 -1.86228 0
M  V30 24291 H 2319.33 0.693798 -3.81137 0
M  V30 24292 H 2319.74 -1.08279 -5.13202 0
M  V30 24293 H 2321.22 0.589856 -5.48839 0
M  V30 24294 H 2321.7 1.56798 -4.10257 0
M  V30 24295 H 2322.3 -0.0975451 -4.25188 0
M  V30 24296 N 2320.62 1.53557 -0.354678 0
M  V30 24297 C 2321.53 2.29098 0.50511 0
M  V30 24298 C 2322.54 1.34638 1.10221 0
M  V30 24299 O 2323.72 1.67686 1.1155 0
M  V30 24300 C 2320.78 3.0574 1.63474 0
M  V30 24301 C 2319.85 4.15847 1.06629 0
M  V30 24302 C 2319.08 4.88826 2.14208 0
M  V30 24303 O 2319.3 4.61568 3.35129 0
M  V30 24304 O 2318.24 5.75016 1.77877 0
M  V30 24305 H 2322.06 3.03503 -0.10929 0
M  V30 24306 H 2319.65 1.48922 -0.119384 0
M  V30 24307 H 2321.53 3.53634 2.29174 0
M  V30 24308 H 2320.2 2.34182 2.23474 0
M  V30 24309 H 2319.11 3.72231 0.373499 0
M  V30 24310 H 2320.44 4.8954 0.510995 0
M  V30 24311 N 2322.1 0.083568 1.57378 0
M  V30 24312 C 2323.33 -0.590678 1.97976 0
M  V30 24313 C 2323.73 -1.6297 0.961112 0
M  V30 24314 O 2323.08 -1.83605 -0.0590556 0
M  V30 24315 C 2323.14 -1.30654 3.34918 0
M  V30 24316 C 2322.8 -0.419618 4.55069 0
M  V30 24317 C 2323.8 0.327581 5.18867 0
M  V30 24318 C 2321.48 -0.341049 5.01141 0
M  V30 24319 C 2323.48 1.14145 6.27096 0
M  V30 24320 C 2321.17 0.476481 6.0924 0
M  V30 24321 C 2322.16 1.21639 6.72081 0
M  V30 24322 O 2321.85 2.02041 7.78097 0
M  V30 24323 H 2321.58 -0.163935 0.655821 0
M  V30 24324 H 2324.14 0.156057 2.04806 0
M  V30 24325 H 2322.37 -2.0996 3.24736 0
M  V30 24326 H 2324.06 -1.87418 3.60041 0
M  V30 24327 H 2324.82 0.276544 4.84211 0
M  V30 24328 H 2320.7 -0.9066 4.51998 0
M  V30 24329 H 2324.25 1.71947 6.76077 0
M  V30 24330 H 2320.14 0.52904 6.43328 0
M  V30 24331 H 2320.91 1.946 7.9503 0
M  V30 24332 N 2323.57 -1.5645 -0.190064 0
M  V30 24333 C 2324.99 -1.50147 -0.541104 0
M  V30 24334 C 2325.19 -0.784498 -1.85601 0
M  V30 24335 O 2324.25 -0.337095 -2.5024 0
M  V30 24336 C 2325.56 -2.94831 -0.591189 0
M  V30 24337 C 2327.11 -3.05531 -0.679678 0
M  V30 24338 C 2327.58 -4.51636 -0.760828 0
M  V30 24339 N 2329.07 -4.55808 -0.824222 0
M  V30 24340 C 2329.81 -5.66177 -0.907266 0
M  V30 24341 N 2329.3 -6.86224 -0.952301 0
M  V30 24342 N 2331.1 -5.54102 -0.944843 0
M  V30 24343 H 2323.25 -2.01476 0.672385 0
M  V30 24344 H 2325.51 -0.91708 0.240144 0
M  V30 24345 H 2325.22 -3.50367 0.305967 0
M  V30 24346 H 2325.09 -3.48459 -1.44416 0
M  V30 24347 H 2327.48 -2.50042 -1.56726 0
M  V30 24348 H 2327.56 -2.5502 0.199594 0
M  V30 24349 H 2327.2 -5.07752 0.122425 0
M  V30 24350 H 2327.13 -4.99885 -1.65597 0
M  V30 24351 H 2329.62 -3.69368 -0.798461 0
M  V30 24352 H 2329.94 -7.66088 -1.01632 0
M  V30 24353 H 2328.28 -6.88872 -0.920893 0
M  V30 24354 H 2331.47 -4.59238 -0.906532 0
M  V30 24355 H 2331.65 -6.40142 -1.0061 0
M  V30 24356 N 2325.05 0.45796 -1.50799 0
M  V30 24357 C 2325.96 1.57986 -1.73429 0
M  V30 24358 C 2326.98 1.62664 -0.617773 0
M  V30 24359 O 2328.15 1.80289 -0.897646 0
M  V30 24360 C 2325.22 2.94119 -1.83562 0
M  V30 24361 C 2324.28 2.99724 -3.0735 0
M  V30 24362 C 2323.51 4.29363 -3.16991 0
M  V30 24363 O 2323.74 5.20603 -2.33086 0
M  V30 24364 O 2322.67 4.4083 -4.0982 0
M  V30 24365 H 2326.5 1.41812 -2.68557 0
M  V30 24366 H 2324.08 0.638836 -1.35053 0
M  V30 24367 H 2325.96 3.74948 -1.92332 0
M  V30 24368 H 2324.64 3.10464 -0.916191 0
M  V30 24369 H 2323.54 2.17924 -3.04072 0
M  V30 24370 H 2324.88 2.88319 -3.98915 0
M  V30 24371 N 2326.53 1.40598 0.712035 0
M  V30 24372 C 2327.78 1.39068 1.47195 0
M  V30 24373 C 2328.1 -0.00580472 1.94499 0
M  V30 24374 O 2327.36 -0.990991 1.68754 0
M  V30 24375 C 2327.66 2.3297 2.71035 0
M  V30 24376 C 2327.32 3.80152 2.42477 0
M  V30 24377 C 2325.99 4.20251 2.34399 0
M  V30 24378 C 2328.34 4.73147 2.1859 0
M  V30 24379 C 2325.67 5.51375 2.00506 0
M  V30 24380 C 2328.02 6.04573 1.86209 0
M  V30 24381 C 2326.68 6.43711 1.76615 0
M  V30 24382 H 2325.95 0.508886 0.538625 0
M  V30 24383 H 2328.6 1.73278 0.815294 0
M  V30 24384 H 2326.9 1.91957 3.41555 0
M  V30 24385 H 2328.6 2.29067 3.29134 0
M  V30 24386 H 2325.19 3.48384 2.49652 0
M  V30 24387 H 2329.38 4.42983 2.23785 0
M  V30 24388 H 2324.63 5.80597 1.91618 0
M  V30 24389 H 2328.81 6.76144 1.6674 0
M  V30 24390 H 2326.43 7.4523 1.5012 0
M  V30 24391 N 2328.01 -0.94462 1.26153 0
M  V30 24392 C 2329.24 -1.72487 1.14262 0
M  V30 24393 C 2329.65 -1.86361 -0.302523 0
M  V30 24394 O 2329.01 -1.36852 -1.20739 0
M  V30 24395 C 2329.06 -3.13344 1.80272 0
M  V30 24396 O 2328.78 -3.00137 3.19138 0
M  V30 24397 C 2330.28 -4.076 1.7429 0
M  V30 24398 H 2327.5 -0.540174 0.398061 0
M  V30 24399 H 2330.04 -1.18443 1.66708 0
M  V30 24400 H 2328.2 -3.643 1.31772 0
M  V30 24401 H 2328.61 -3.89065 3.51751 0
M  V30 24402 H 2330.09 -5.04009 2.2512 0
M  V30 24403 H 2330.56 -4.33444 0.708708 0
M  V30 24404 H 2331.17 -3.62563 2.22325 0
M  V30 24405 N 2329.49 -1.07901 -1.1487 0
M  V30 24406 C 2330.42 -0.648449 -2.18793 0
M  V30 24407 C 2331.4 0.337161 -1.59066 0
M  V30 24408 O 2332.58 0.242251 -1.86937 0
M  V30 24409 C 2329.71 0.0469822 -3.38667 0
M  V30 24410 C 2328.75 -0.897957 -4.1694 0
M  V30 24411 S 2329.59 -2.40192 -4.78611 0
M  V30 24412 C 2330.74 -1.71845 -6.01847 0
M  V30 24413 H 2330.98 -1.52885 -2.54977 0
M  V30 24414 H 2328.51 -0.893506 -1.2592 0
M  V30 24415 H 2330.47 0.441955 -4.08114 0
M  V30 24416 H 2329.13 0.903808 -3.00816 0
M  V30 24417 H 2328.32 -0.358184 -5.02726 0
M  V30 24418 H 2327.92 -1.23358 -3.53071 0
M  V30 24419 H 2330.21 -1.03339 -6.69572 0
M  V30 24420 H 2331.16 -2.55484 -6.60404 0
M  V30 24421 H 2331.57 -1.19402 -5.51728 0
M  V30 24422 N 2330.96 1.31811 -0.863929 0
M  V30 24423 C 2331.89 2.31144 -0.330883 0
M  V30 24424 C 2332.87 1.60088 0.574977 0
M  V30 24425 O 2334.06 1.87831 0.493271 0
M  V30 24426 C 2331.19 3.44055 0.473679 0
M  V30 24427 C 2330.14 4.26659 -0.338556 0
M  V30 24428 C 2329.47 5.3142 0.591318 0
M  V30 24429 C 2330.77 4.98165 -1.56935 0
M  V30 24430 H 2332.46 2.75977 -1.16091 0
M  V30 24431 H 2330.01 1.32678 -0.559681 0
M  V30 24432 H 2331.96 4.12592 0.857071 0
M  V30 24433 H 2330.69 2.97973 1.33716 0
M  V30 24434 H 2329.35 3.5978 -0.703818 0
M  V30 24435 H 2328.99 4.8159 1.4519 0
M  V30 24436 H 2328.69 5.87577 0.0517989 0
M  V30 24437 H 2330.22 6.02819 0.971685 0
M  V30 24438 H 2331.63 5.59333 -1.25774 0
M  V30 24439 H 2330.03 5.6409 -2.04749 0
M  V30 24440 H 2331.1 4.25497 -2.32552 0
M  V30 24441 N 2332.44 0.62277 1.44773 0
M  V30 24442 C 2333.69 0.12369 2.01721 0
M  V30 24443 C 2334.01 -1.25587 1.49174 0
M  V30 24444 O 2333.28 -1.83271 0.692006 0
M  V30 24445 H 2331.86 0.0427356 0.745777 0
M  V30 24446 H 2334.52 0.80759 1.77381 0
M  V30 24447 H 2333.62 0.0850082 3.11984 0
M  V30 24448 N 2333.92 -1.53367 0.362817 0
M  V30 24449 C 2335.17 -2.00398 -0.228845 0
M  V30 24450 C 2335.48 -1.25424 -1.50094 0
M  V30 24451 O 2336.69 -1.63029 -2.17103 0
M  V30 24452 C 2335.14 -3.56969 -0.458354 0
M  V30 24453 C 2334.75 -4.40818 0.798955 0
M  V30 24454 C 2336.5 -4.12363 -1.00782 0
M  V30 24455 C 2334.4 -5.88937 0.539182 0
M  V30 24456 H 2333.33 -0.748694 -0.0892919 0
M  V30 24457 H 2335.98 -1.7708 0.48113 0
M  V30 24458 H 2334.37 -3.76429 -1.22952 0
M  V30 24459 H 2335.54 -4.33131 1.5727 0
M  V30 24460 H 2333.85 -3.96514 1.27144 0
M  V30 24461 H 2336.45 -5.20656 -1.21745 0
M  V30 24462 H 2336.79 -3.66784 -1.96914 0
M  V30 24463 H 2337.33 -3.96691 -0.296891 0
M  V30 24464 H 2334.07 -6.38787 1.47075 0
M  V30 24465 H 2333.59 -5.99479 -0.196116 0
M  V30 24466 H 2335.27 -6.46793 0.163655 0
M  V30 24467 N 2335.4 -0.091913 -1.57332 0
M  V30 24468 C 2336.63 0.58017 -1.98287 0
M  V30 24469 C 2337.04 1.62458 -0.969741 0
M  V30 24470 O 2336.38 1.83634 0.0493178 0
M  V30 24471 C 2336.44 1.28876 -3.35606 0
M  V30 24472 C 2336.11 0.395479 -4.55286 0
M  V30 24473 C 2337.1 -0.355093 -5.18686 0
M  V30 24474 C 2334.79 0.314467 -5.01315 0
M  V30 24475 C 2336.78 -1.17469 -6.26482 0
M  V30 24476 C 2334.47 -0.508784 -6.08978 0
M  V30 24477 C 2335.47 -1.25201 -6.71427 0
M  V30 24478 O 2335.15 -2.06165 -7.77014 0
M  V30 24479 H 2334.89 0.160455 -0.656681 0
M  V30 24480 H 2337.44 -0.166916 -2.04721 0
M  V30 24481 H 2335.67 2.08235 -3.25845 0
M  V30 24482 H 2337.36 1.85506 -3.6103 0
M  V30 24483 H 2338.13 -0.302219 -4.84057 0
M  V30 24484 H 2334 0.882617 -4.52472 0
M  V30 24485 H 2337.55 -1.7553 -6.75156 0
M  V30 24486 H 2333.45 -0.56315 -6.43039 0
M  V30 24487 H 2334.21 -1.98813 -7.93987 0
M  V30 24488 N 2336.88 1.56548 0.181765 0
M  V30 24489 C 2338.15 1.72253 0.926734 0
M  V30 24490 C 2338.53 0.650421 2.0083 0
M  V30 24491 O 2337.88 -0.336481 2.26009 0
M  V30 24492 C 2338.09 3.15073 1.50101 0
M  V30 24493 C 2339.44 3.75714 1.97798 0
M  V30 24494 O 2340.46 3.18285 1.59916 0
M  V30 24495 O 2339.32 4.7653 2.67547 0
M  V30 24496 H 2336.42 0.703046 0.435494 0
M  V30 24497 H 2338.96 1.68842 0.170414 0
M  V30 24498 H 2337.73 3.8458 0.722053 0
M  V30 24499 H 2337.36 3.22767 2.3218 0
M  V30 24500 N 2338.35 -0.449957 1.5104 0
M  V30 24501 C 2339.77 -0.785438 1.38935 0
M  V30 24502 C 2339.97 -1.96136 0.461851 0
M  V30 24503 O 2339.03 -2.52348 -0.0876945 0
M  V30 24504 C 2340.34 -1.07765 2.80726 0
M  V30 24505 C 2341.89 -1.18285 2.89789 0
M  V30 24506 C 2342.36 -1.50807 4.32459 0
M  V30 24507 N 2343.85 -1.57757 4.35508 0
M  V30 24508 C 2344.59 -1.84468 5.42917 0
M  V30 24509 N 2344.08 -2.09056 6.60505 0
M  V30 24510 N 2345.88 -1.86146 5.30383 0
M  V30 24511 H 2338.03 0.324684 2.09904 0
M  V30 24512 H 2340.29 0.0828123 0.944376 0
M  V30 24513 H 2340 -0.286437 3.50532 0
M  V30 24514 H 2339.87 -2.00853 3.19277 0
M  V30 24515 H 2342.26 -1.96471 2.20189 0
M  V30 24516 H 2342.34 -0.231269 2.54752 0
M  V30 24517 H 2341.98 -0.731534 5.02604 0
M  V30 24518 H 2341.91 -2.4715 4.64999 0
M  V30 24519 H 2344.4 -1.40709 3.50727 0
M  V30 24520 H 2344.72 -2.28772 7.38162 0
M  V30 24521 H 2343.06 -2.06405 6.63643 0
M  V30 24522 H 2346.25 -1.66447 4.37508 0
M  V30 24523 H 2346.43 -2.06626 6.14174 0
M  V30 24524 N 2339.83 -1.40974 -0.704569 0
M  V30 24525 C 2341.08 -1.41055 -1.46543 0
M  V30 24526 C 2341.43 -0.0160052 -1.92393 0
M  V30 24527 O 2340.73 0.956477 -1.66018 0
M  V30 24528 C 2340.92 -2.34404 -2.69796 0
M  V30 24529 C 2340.75 -3.82797 -2.36002 0
M  V30 24530 C 2339.52 -4.5154 -2.26804 0
M  V30 24531 C 2341.72 -4.74006 -1.99556 0
M  V30 24532 N 2339.7 -5.85108 -1.858 0
M  V30 24533 C 2341.07 -5.96454 -1.69241 0
M  V30 24534 C 2343.13 -4.61737 -1.86288 0
M  V30 24535 C 2341.83 -7.08001 -1.2699 0
M  V30 24536 C 2343.85 -5.73237 -1.45442 0
M  V30 24537 C 2343.22 -6.94778 -1.16031 0
M  V30 24538 H 2339.32 -0.571393 -0.533886 0
M  V30 24539 H 2341.9 -1.76774 -0.81603 0
M  V30 24540 H 2340.07 -2.00795 -3.32469 0
M  V30 24541 H 2341.8 -2.25267 -3.3621 0
M  V30 24542 H 2338.56 -4.05362 -2.44906 0
M  V30 24543 H 2338.98 -6.55874 -1.67806 0
M  V30 24544 H 2343.62 -3.68276 -2.07683 0
M  V30 24545 H 2341.34 -8.01336 -1.04339 0
M  V30 24546 H 2344.93 -5.65744 -1.35738 0
M  V30 24547 H 2343.81 -7.79591 -0.849013 0
M  V30 24548 N 2341.31 0.937917 -1.26653 0
M  V30 24549 C 2342.27 2.01865 -1.08549 0
M  V30 24550 C 2343.27 1.60767 -0.032761 0
M  V30 24551 O 2344.46 1.71992 -0.276458 0
M  V30 24552 C 2341.6 3.34611 -0.651769 0
M  V30 24553 H 2342.79 2.19357 -2.04506 0
M  V30 24554 H 2340.34 1.11732 -1.09296 0
M  V30 24555 H 2341.08 3.22818 0.309639 0
M  V30 24556 H 2340.86 3.65795 -1.41195 0
M  V30 24557 H 2342.35 4.14001 -0.547046 0
M  V30 24558 N 2342.79 1.08509 1.14296 0
M  V30 24559 C 2344.03 0.816614 1.85632 0
M  V30 24560 C 2344.37 -0.655989 1.82785 0
M  V30 24561 O 2343.64 -1.48231 1.25928 0
M  V30 24562 C 2343.93 1.34047 3.34221 0
M  V30 24563 C 2343.78 2.87849 3.45634 0
M  V30 24564 C 2345.1 0.966576 4.29355 0
M  V30 24565 H 2342.22 0.298116 0.674015 0
M  V30 24566 H 2344.86 1.34489 1.34211 0
M  V30 24567 H 2343.01 0.891107 3.78142 0
M  V30 24568 H 2344.68 3.41164 3.10492 0
M  V30 24569 H 2342.92 3.25456 2.86812 0
M  V30 24570 H 2343.59 3.19576 4.50083 0
M  V30 24571 H 2346.07 1.35398 3.93455 0
M  V30 24572 H 2344.95 1.3603 5.31777 0
M  V30 24573 H 2345.21 -0.126284 4.4192 0
M  V30 24574 N 2344.27 -1.31351 0.870907 0
M  V30 24575 C 2345.2 -2.30965 0.343137 0
M  V30 24576 C 2346.18 -1.6039 -0.566479 0
M  V30 24577 O 2347.36 -1.8809 -0.483303 0
M  V30 24578 C 2344.49 -3.44301 -0.455426 0
M  V30 24579 C 2343.45 -4.26473 0.361178 0
M  V30 24580 C 2342.77 -5.31726 -0.563127 0
M  V30 24581 C 2344.07 -4.97326 1.59575 0
M  V30 24582 H 2345.77 -2.75357 1.17553 0
M  V30 24583 H 2343.31 -1.3238 0.566709 0
M  V30 24584 H 2345.27 -4.13041 -0.835178 0
M  V30 24585 H 2343.99 -2.98678 -1.32134 0
M  V30 24586 H 2342.65 -3.59402 0.722888 0
M  V30 24587 H 2342.3 -4.82353 -1.42634 0
M  V30 24588 H 2342 -5.87596 -0.0206376 0
M  V30 24589 H 2343.52 -6.03326 -0.939702 0
M  V30 24590 H 2344.93 -5.58659 1.28738 0
M  V30 24591 H 2343.33 -5.62996 2.07738 0
M  V30 24592 H 2344.4 -4.24258 2.34805 0
M  V30 24593 N 2345.74 -0.630439 -1.44441 0
M  V30 24594 C 2347.16 -0.217096 -1.85434 0
M  V30 24595 C 2347.51 1.23133 -1.5275 0
M  V30 24596 O 2346.63 1.9368 -0.965239 0
M  V30 24597 C 2347.23 -0.387227 -3.3658 0
M  V30 24598 C 2345.79 -0.0283959 -3.76389 0
M  V30 24599 C 2344.93 -0.700937 -2.68295 0
M  V30 24600 H 2347.88 -0.835644 -1.34917 0
M  V30 24601 H 2347.9 0.37402 -3.78657 0
M  V30 24602 H 2347.42 -1.4415 -3.60336 0
M  V30 24603 H 2345.52 1.02417 -3.58248 0
M  V30 24604 H 2345.63 -0.437976 -4.77094 0
M  V30 24605 H 2343.99 -0.136312 -2.54335 0
M  V30 24606 H 2344.78 -1.75779 -2.94884 0
M  V30 24607 N 2347.22 1.53172 -0.370945 0
M  V30 24608 C 2348.64 1.59587 -0.0201098 0
M  V30 24609 C 2348.84 1.38583 1.46277 0
M  V30 24610 O 2347.89 1.19367 2.22504 0
M  V30 24611 C 2349.21 2.9683 -0.480852 0
M  V30 24612 C 2350.76 3.09955 -0.435532 0
M  V30 24613 C 2351.23 4.49619 -0.872171 0
M  V30 24614 N 2352.72 4.55749 -0.827444 0
M  V30 24615 C 2353.46 5.62016 -1.13692 0
M  V30 24616 N 2352.95 6.76011 -1.51595 0
M  V30 24617 N 2354.75 5.52027 -1.05937 0
M  V30 24618 H 2346.9 1.65076 -1.33655 0
M  V30 24619 H 2349.16 0.77452 -0.546647 0
M  V30 24620 H 2348.87 3.17357 -1.51583 0
M  V30 24621 H 2348.74 3.76977 0.129729 0
M  V30 24622 H 2351.13 2.89135 0.59032 0
M  V30 24623 H 2351.21 2.31805 -1.08168 0
M  V30 24624 H 2350.85 4.71177 -1.89616 0
M  V30 24625 H 2350.78 5.26208 -0.20322 0
M  V30 24626 H 2353.27 3.73901 -0.548282 0
M  V30 24627 H 2353.59 7.53044 -1.73622 0
M  V30 24628 H 2351.93 6.77389 -1.55466 0
M  V30 24629 H 2355.12 4.6185 -0.762402 0
M  V30 24630 H 2355.29 6.34746 -1.30389 0
M  V30 24631 N 2348.7 0.100255 1.57281 0
M  V30 24632 C 2349.65 -0.867553 2.1085 0
M  V30 24633 C 2350.63 -1.24047 1.02475 0
M  V30 24634 O 2351.83 -1.21469 1.28741 0
M  V30 24635 C 2348.96 -2.12469 2.69651 0
M  V30 24636 C 2348.04 -1.77698 3.85077 0
M  V30 24637 N 2348.43 -1.13509 4.92899 0
M  V30 24638 C 2346.73 -2.07275 3.94909 0
M  V30 24639 C 2347.43 -0.974634 5.73477 0
M  V30 24640 N 2346.41 -1.49361 5.22678 0
M  V30 24641 H 2350.21 -0.36742 2.91594 0
M  V30 24642 H 2347.72 -0.102801 1.62074 0
M  V30 24643 H 2349.72 -2.82752 3.06361 0
M  V30 24644 H 2348.38 -2.63043 1.90364 0
M  V30 24645 H 2349.39 -0.801291 5.11664 0
M  V30 24646 H 2346.07 -2.60028 3.26637 0
M  V30 24647 H 2347.46 -0.472246 6.70238 0
M  V30 24648 N 2350.18 -1.56643 -0.17346 0
M  V30 24649 C 2351.14 -1.95364 -1.19856 0
M  V30 24650 C 2352.14 -0.837064 -1.37295 0
M  V30 24651 O 2353.33 -1.10415 -1.34737 0
M  V30 24652 C 2350.46 -2.24658 -2.56401 0
M  V30 24653 H 2351.66 -2.87094 -0.867012 0
M  V30 24654 H 2349.21 -1.50667 -0.415827 0
M  V30 24655 H 2349.95 -1.35636 -2.94573 0
M  V30 24656 H 2349.73 -3.06045 -2.4511 0
M  V30 24657 H 2351.22 -2.55546 -3.30282 0
M  V30 24658 N 2351.66 0.44194 -1.51277 0
M  V30 24659 C 2352.6 1.53609 -1.72258 0
M  V30 24660 C 2353.57 1.56224 -0.564191 0
M  V30 24661 O 2354.76 1.73306 -0.798104 0
M  V30 24662 C 2351.9 2.91363 -1.84937 0
M  V30 24663 C 2351.01 2.98312 -3.12465 0
M  V30 24664 C 2350.15 4.2716 -3.15765 0
M  V30 24665 C 2349.19 4.2796 -4.37627 0
M  V30 24666 N 2348.32 5.48325 -4.38502 0
M  V30 24667 H 2353.16 1.35021 -2.65656 0
M  V30 24668 H 2350.7 0.655986 -1.31663 0
M  V30 24669 H 2352.66 3.71286 -1.90269 0
M  V30 24670 H 2351.29 3.08519 -0.949515 0
M  V30 24671 H 2350.34 2.1108 -3.16464 0
M  V30 24672 H 2351.65 2.94764 -4.02388 0
M  V30 24673 H 2350.81 5.15454 -3.19988 0
M  V30 24674 H 2349.55 4.33358 -2.23723 0
M  V30 24675 H 2348.55 3.3806 -4.33585 0
M  V30 24676 H 2349.78 4.23429 -5.30928 0
M  V30 24677 H 2347.72 5.55253 -3.49328 0
M  V30 24678 H 2347.64 5.46638 -5.22229 0
M  V30 24679 H 2348.91 6.38663 -4.46912 0
M  V30 24680 N 2353.14 1.41345 0.697083 0
M  V30 24681 C 2354.55 1.36202 1.27695 0
M  V30 24682 C 2354.9 0.0443808 1.9615 0
M  V30 24683 O 2354.02 -0.857384 1.9869 0
M  V30 24684 C 2354.62 2.46698 2.32219 0
M  V30 24685 C 2353.18 2.44957 2.85785 0
M  V30 24686 C 2352.32 2.26623 1.59804 0
M  V30 24687 H 2355.27 1.50883 0.491942 0
M  V30 24688 H 2355.3 2.15669 3.13476 0
M  V30 24689 H 2354.81 3.42584 1.82367 0
M  V30 24690 H 2352.91 1.52823 3.39817 0
M  V30 24691 H 2353.02 3.41213 3.36319 0
M  V30 24692 H 2351.39 1.74473 1.85557 0
M  V30 24693 H 2352.17 3.24534 1.1195 0
M  V30 24694 N 2354.61 -0.931187 1.27148 0
M  V30 24695 C 2355.86 -1.67518 1.13058 0
M  V30 24696 C 2356.18 -1.92277 -0.324757 0
M  V30 24697 O 2355.45 -1.52656 -1.22772 0
M  V30 24698 H 2354.03 -0.620846 0.415402 0
M  V30 24699 H 2356.69 -1.1183 1.59624 0
M  V30 24700 H 2355.79 -2.64482 1.65698 0
M  V30 24701 N 2356.09 -1.09114 -1.13719 0
M  V30 24702 C 2357.5 -0.845097 -1.66478 0
M  V30 24703 C 2357.85 0.626977 -1.85912 0
M  V30 24704 O 2356.98 1.48338 -1.57559 0
M  V30 24705 C 2357.57 -1.52753 -3.0241 0
M  V30 24706 C 2356.13 -1.32855 -3.52174 0
M  V30 24707 C 2355.28 -1.58568 -2.27489 0
M  V30 24708 H 2358.23 -1.25073 -0.97685 0
M  V30 24709 H 2358.25 -0.958817 -3.68221 0
M  V30 24710 H 2357.76 -2.5989 -2.88234 0
M  V30 24711 H 2355.86 -0.278203 -3.7156 0
M  V30 24712 H 2355.98 -2.06118 -4.32495 0
M  V30 24713 H 2354.34 -1.00763 -2.33921 0
M  V30 24714 H 2355.12 -2.66927 -2.15881 0
M  V30 24715 N 2357.57 1.30887 -0.877861 0
M  V30 24716 C 2358.8 2.00581 -0.507449 0
M  V30 24717 C 2359.21 1.65849 0.902186 0
M  V30 24718 O 2358.57 0.891859 1.59224 0
M  V30 24719 C 2358.62 3.55345 -0.664224 0
M  V30 24720 O 2358.34 3.88837 -2.01836 0
M  V30 24721 C 2359.84 4.42312 -0.295865 0
M  V30 24722 H 2357.06 0.641467 -0.196878 0
M  V30 24723 H 2359.61 1.66937 -1.1812 0
M  V30 24724 H 2357.76 3.87381 -0.03793 0
M  V30 24725 H 2358.18 4.83546 -2.03182 0
M  V30 24726 H 2359.65 5.50109 -0.456485 0
M  V30 24727 H 2360.13 4.32476 0.765586 0
M  V30 24728 H 2360.73 4.15707 -0.898186 0
M  V30 24729 N 2359.05 0.638091 1.44105 0
M  V30 24730 C 2360.3 0.14278 2.01194 0
M  V30 24731 C 2360.61 -1.2453 1.50837 0
M  V30 24732 O 2361.82 -1.835 2.001 0
M  V30 24733 C 2360.27 0.204484 3.59319 0
M  V30 24734 C 2359.88 1.59431 4.18671 0
M  V30 24735 C 2361.62 -0.234004 4.23855 0
M  V30 24736 C 2359.53 1.61075 5.69042 0
M  V30 24737 H 2358.46 0.0496131 0.752366 0
M  V30 24738 H 2361.11 0.79791 1.65244 0
M  V30 24739 H 2359.49 -0.517877 3.92599 0
M  V30 24740 H 2360.67 2.34081 3.96917 0
M  V30 24741 H 2358.98 1.97747 3.66449 0
M  V30 24742 H 2361.58 -0.241349 5.34155 0
M  V30 24743 H 2361.92 -1.26263 3.9669 0
M  V30 24744 H 2362.46 0.436095 3.95402 0
M  V30 24745 H 2359.19 2.61798 6.00951 0
M  V30 24746 H 2358.71 0.907285 5.92898 0
M  V30 24747 H 2360.39 1.34777 6.32807 0
M  V30 24748 N 2360.53 -1.52973 0.379063 0
M  V30 24749 C 2361.46 -2.2907 -0.452665 0
M  V30 24750 C 2362.44 -1.32041 -1.07235 0
M  V30 24751 O 2363.62 -1.60925 -1.08705 0
M  V30 24752 C 2360.75 -3.08995 -1.58554 0
M  V30 24753 C 2359.71 -4.13824 -1.09243 0
M  V30 24754 C 2359.03 -4.81911 -2.31659 0
M  V30 24755 C 2360.33 -5.22031 -0.16761 0
M  V30 24756 H 2362.03 -2.98845 0.182233 0
M  V30 24757 H 2359.57 -1.43724 0.0890845 0
M  V30 24758 H 2361.52 -3.60983 -2.17414 0
M  V30 24759 H 2360.25 -2.36935 -2.24788 0
M  V30 24760 H 2358.91 -3.62801 -0.526431 0
M  V30 24761 H 2358.56 -4.06409 -2.96379 0
M  V30 24762 H 2358.26 -5.52758 -1.9933 0
M  V30 24763 H 2359.78 -5.367 -2.9118 0
M  V30 24764 H 2361.19 -5.69441 -0.664086 0
M  V30 24765 H 2359.59 -6.00064 0.065432 0
M  V30 24766 H 2360.66 -4.7848 0.786431 0
M  V30 24767 N 2362 -0.108595 -1.57225 0
M  V30 24768 C 2362.94 0.882427 -2.10448 0
M  V30 24769 C 2363.91 1.26764 -1.01831 0
M  V30 24770 O 2365.1 1.37052 -1.29418 0
M  V30 24771 C 2362.23 2.17948 -2.59261 0
M  V30 24772 C 2361.27 1.94311 -3.79665 0
M  V30 24773 S 2362.1 1.16883 -5.22588 0
M  V30 24774 C 2363.26 2.47789 -5.74762 0
M  V30 24775 H 2363.49 0.429693 -2.94178 0
M  V30 24776 H 2361.03 0.104973 -1.54043 0
M  V30 24777 H 2362.98 2.92477 -2.88041 0
M  V30 24778 H 2361.65 2.6034 -1.75732 0
M  V30 24779 H 2360.84 2.90392 -4.11933 0
M  V30 24780 H 2360.44 1.27906 -3.51448 0
M  V30 24781 H 2362.73 3.43691 -5.83852 0
M  V30 24782 H 2363.68 2.20081 -6.7303 0
M  V30 24783 H 2364.08 2.5668 -5.02768 0
M  V30 24784 N 2363.48 1.56732 0.16515 0
M  V30 24785 C 2364.43 1.97811 1.22366 0
M  V30 24786 C 2365.42 0.867766 1.45486 0
M  V30 24787 O 2366.63 1.0529 1.45993 0
M  V30 24788 H 2363 0.629438 0.411474 0
M  V30 24789 H 2364.98 2.86027 0.850375 0
M  V30 24790 C 2363.72 2.35938 2.55398 0
M  V30 24791 H 2363.05 3.2092 2.38433 0
M  V30 24792 H 2364.49 2.6852 3.28136 0
M  V30 24793 C 2362.95 1.20512 3.14608 0
M  V30 24794 O 2363.48 0.496086 3.98625 0
M  V30 24795 N 2361.68 0.974078 2.73788 0
M  V30 24796 H 2361.23 1.55242 2.05567 0
M  V30 24797 H 2361.19 0.203629 3.1374 0
M  V30 24798 N 2364.96 -0.433911 1.51509 0
M  V30 24799 C 2365.91 -1.54754 1.73649 0
M  V30 24800 C 2366.9 -1.58309 0.602882 0
M  V30 24801 O 2368.11 -1.62012 0.784346 0
M  V30 24802 H 2364.48 -0.514201 0.548727 0
M  V30 24803 H 2366.45 -1.33256 2.66993 0
M  V30 24804 C 2365.2 -2.92378 1.88177 0
M  V30 24805 H 2364.53 -2.90376 2.74813 0
M  V30 24806 H 2365.97 -3.69656 2.07678 0
M  V30 24807 C 2364.43 -3.30718 0.642448 0
M  V30 24808 O 2364.95 -4.01195 -0.201292 0
M  V30 24809 N 2363.16 -2.86515 0.485539 0
M  V30 24810 H 2362.71 -2.29332 1.17322 0
M  V30 24811 H 2362.67 -3.1253 -0.342427 0
M  V30 24812 N 2366.44 -1.41713 -0.689577 0
M  V30 24813 C 2367.37 -1.39969 -1.81497 0
M  V30 24814 C 2368.38 -0.300946 -1.59994 0
M  V30 24815 O 2369.57 -0.563069 -1.69386 0
M  V30 24816 C 2366.67 -1.16184 -3.18362 0
M  V30 24817 C 2365.85 -2.38213 -3.66842 0
M  V30 24818 C 2364.9 -2.10195 -4.82395 0
M  V30 24819 O 2363.93 -2.83281 -4.93701 0
M  V30 24820 N 2365.13 -1.0959 -5.70062 0
M  V30 24821 H 2367.9 -2.36968 -1.83484 0
M  V30 24822 H 2365.46 -1.36402 -0.872125 0
M  V30 24823 H 2367.45 -0.953825 -3.93299 0
M  V30 24824 H 2366.02 -0.277614 -3.11365 0
M  V30 24825 H 2365.24 -2.74678 -2.82746 0
M  V30 24826 H 2366.53 -3.19505 -3.95973 0
M  V30 24827 H 2365.93 -0.491118 -5.63564 0
M  V30 24828 H 2364.48 -0.94777 -6.44873 0
M  V30 24829 N 2367.92 0.924431 -1.2764 0
M  V30 24830 C 2368.83 2.05883 -1.12469 0
M  V30 24831 C 2369.84 1.73916 -0.0538995 0
M  V30 24832 O 2371.02 1.99701 -0.261047 0
M  V30 24833 C 2368.08 3.37885 -0.776827 0
M  V30 24834 C 2367.14 3.83528 -1.92885 0
M  V30 24835 C 2366.38 5.09231 -1.59748 0
M  V30 24836 O 2366.6 5.68143 -0.506882 0
M  V30 24837 O 2365.53 5.50327 -2.43771 0
M  V30 24838 H 2369.36 2.21596 -2.07675 0
M  V30 24839 H 2366.95 1.04411 -1.06858 0
M  V30 24840 H 2368.83 4.1716 -0.596303 0
M  V30 24841 H 2367.5 3.23372 0.145675 0
M  V30 24842 H 2366.41 3.05127 -2.16445 0
M  V30 24843 H 2367.74 4.02588 -2.83167 0
M  V30 24844 N 2369.39 1.09715 1.13139 0
M  V30 24845 C 2370.64 0.836257 1.84755 0
M  V30 24846 C 2370.97 -0.636566 1.83471 0
M  V30 24847 O 2370.25 -1.46887 1.27493 0
M  V30 24848 C 2370.53 1.37584 3.3278 0
M  V30 24849 C 2370.38 2.91499 3.42562 0
M  V30 24850 C 2371.7 1.01206 4.28305 0
M  V30 24851 H 2368.82 0.305248 0.670815 0
M  V30 24852 H 2371.46 1.35905 1.32777 0
M  V30 24853 H 2369.61 0.931164 3.77176 0
M  V30 24854 H 2371.29 3.44438 3.06856 0
M  V30 24855 H 2369.53 3.2848 2.83343 0
M  V30 24856 H 2370.2 3.24332 4.46668 0
M  V30 24857 H 2372.68 1.39563 3.91997 0
M  V30 24858 H 2371.55 1.41662 5.30305 0
M  V30 24859 H 2371.81 -0.0794056 4.42029 0
M  V30 24860 N 2370.87 -1.30419 0.88479 0
M  V30 24861 C 2372.12 -1.95762 0.502146 0
M  V30 24862 C 2372.44 -1.70194 -0.951785 0
M  V30 24863 O 2371.71 -1.02543 -1.66918 0
M  V30 24864 H 2370.29 -0.724312 0.182707 0
M  V30 24865 H 2372.95 -1.58953 1.12782 0
M  V30 24866 H 2372.05 -3.04774 0.672242 0
M  V30 24867 N 2372.35 -0.645724 -1.43764 0
M  V30 24868 C 2373.6 -0.156306 -2.02197 0
M  V30 24869 C 2373.93 1.22391 -1.50779 0
M  V30 24870 O 2373.2 1.81552 -0.697803 0
M  V30 24871 C 2373.49 -0.158935 -3.59749 0
M  V30 24872 C 2373.34 -1.57253 -4.21416 0
M  V30 24873 C 2374.66 0.508713 -4.3715 0
M  V30 24874 H 2371.78 -0.0582732 -0.734693 0
M  V30 24875 H 2374.42 -0.824981 -1.71155 0
M  V30 24876 H 2372.57 0.410457 -3.86326 0
M  V30 24877 H 2374.24 -2.19193 -4.05897 0
M  V30 24878 H 2372.49 -2.12207 -3.78353 0
M  V30 24879 H 2373.16 -1.52628 -5.3048 0
M  V30 24880 H 2375.63 0.0243389 -4.16093 0
M  V30 24881 H 2374.51 0.476117 -5.46831 0
M  V30 24882 H 2374.77 1.58158 -4.12842 0
M  V30 24883 N 2373.83 1.5277 -0.38717 0
M  V30 24884 C 2374.76 2.29307 0.440511 0
M  V30 24885 C 2375.74 1.32607 1.06533 0
M  V30 24886 O 2376.92 1.61499 1.0785 0
M  V30 24887 C 2374.05 3.09831 1.56914 0
M  V30 24888 C 2373.01 4.14397 1.07047 0
M  V30 24889 C 2372.33 4.83133 2.291 0
M  V30 24890 C 2373.63 5.22113 0.139923 0
M  V30 24891 H 2375.33 2.98744 -0.198079 0
M  V30 24892 H 2372.87 1.43675 -0.0967052 0
M  V30 24893 H 2374.83 3.62131 2.15497 0
M  V30 24894 H 2373.55 2.38123 2.23528 0
M  V30 24895 H 2372.21 3.63075 0.507183 0
M  V30 24896 H 2371.86 4.07975 2.94219 0
M  V30 24897 H 2371.56 5.53807 1.96396 0
M  V30 24898 H 2373.08 5.38236 2.8833 0
M  V30 24899 H 2374.5 5.69785 0.633878 0
M  V30 24900 H 2372.89 6.00021 -0.097254 0
M  V30 24901 H 2373.96 4.78056 -0.811795 0
M  V30 24902 N 2375.31 0.116931 1.57166 0
M  V30 24903 C 2376.58 -0.585016 1.86647 0
M  V30 24904 C 2376.96 -1.84947 1.01773 0
M  V30 24905 O 2376.31 -2.28298 0.096078 0
M  V30 24906 C 2376.52 -0.879447 3.37738 0
M  V30 24907 C 2377.87 -1.23341 4.06291 0
M  V30 24908 O 2378.89 -0.969775 3.42745 0
M  V30 24909 O 2377.75 -1.72811 5.18458 0
M  V30 24910 H 2374.85 -0.294994 0.772598 0
M  V30 24911 H 2377.39 0.151279 1.69024 0
M  V30 24912 H 2376.16 0.0166824 3.91296 0
M  V30 24913 H 2375.79 -1.67097 3.60783 0
M  V30 24914 N 2376.78 -1.56818 -0.156836 0
M  V30 24915 C 2377.75 -1.96624 -1.17777 0
M  V30 24916 C 2378.75 -0.851579 -1.36399 0
M  V30 24917 O 2379.94 -1.11838 -1.33559 0
M  V30 24918 C 2377.07 -2.27365 -2.54004 0
M  V30 24919 H 2378.26 -2.87997 -0.836513 0
M  V30 24920 H 2375.82 -1.511 -0.399823 0
M  V30 24921 H 2376.55 -1.38753 -2.93118 0
M  V30 24922 H 2376.34 -3.08627 -2.4185 0
M  V30 24923 H 2377.83 -2.59034 -3.27553 0
M  V30 24924 N 2378.26 0.425871 -1.51737 0
M  V30 24925 C 2379.21 1.51773 -1.73878 0
M  V30 24926 C 2380.18 1.55617 -0.580729 0
M  V30 24927 O 2381.36 1.7245 -0.816441 0
M  V30 24928 C 2378.5 2.89385 -1.88017 0
M  V30 24929 C 2377.62 2.94981 -3.15611 0
M  V30 24930 C 2376.75 4.23787 -3.20278 0
M  V30 24931 C 2375.79 4.23294 -4.42141 0
M  V30 24932 N 2374.93 5.43643 -4.44293 0
M  V30 24933 H 2379.77 1.32196 -2.67073 0
M  V30 24934 H 2377.31 0.641985 -1.32352 0
M  V30 24935 H 2379.26 3.69247 -1.94197 0
M  V30 24936 H 2377.89 3.07495 -0.982185 0
M  V30 24937 H 2376.95 2.07712 -3.18685 0
M  V30 24938 H 2378.26 2.90479 -4.05491 0
M  V30 24939 H 2377.41 5.12031 -3.25437 0
M  V30 24940 H 2376.15 4.30961 -2.28307 0
M  V30 24941 H 2375.16 3.33442 -4.37146 0
M  V30 24942 H 2376.38 4.17774 -5.35389 0
M  V30 24943 H 2374.33 5.51517 -3.55198 0
M  V30 24944 H 2374.24 5.41068 -5.27997 0
M  V30 24945 H 2375.51 6.33887 -4.5366 0
M  V30 24946 N 2379.74 1.42077 0.682052 0
M  V30 24947 C 2380.65 1.47374 1.82532 0
M  V30 24948 C 2381.67 0.363109 1.70169 0
M  V30 24949 O 2382.84 0.612908 1.91847 0
M  V30 24950 C 2379.91 1.36679 3.18622 0
M  V30 24951 C 2378.97 2.58173 3.42995 0
M  V30 24952 C 2378.2 2.47979 4.72591 0
M  V30 24953 O 2378.42 1.5117 5.50004 0
M  V30 24954 O 2377.36 3.37982 4.98048 0
M  V30 24955 H 2381.18 2.43856 1.81019 0
M  V30 24956 H 2378.77 1.23762 0.836865 0
M  V30 24957 H 2380.65 1.3305 3.99845 0
M  V30 24958 H 2379.33 0.433195 3.20788 0
M  V30 24959 H 2378.23 2.67378 2.61648 0
M  V30 24960 H 2379.57 3.50407 3.45653 0
M  V30 24961 N 2381.22 -0.917649 1.28129 0
M  V30 24962 C 2382.15 -2.03639 1.14251 0
M  V30 24963 C 2383.13 -1.7005 0.0413047 0
M  V30 24964 O 2384.32 -1.92977 0.217599 0
M  V30 24965 C 2381.45 -3.37973 0.799491 0
M  V30 24966 C 2380.4 -3.8571 1.85504 0
M  V30 24967 C 2379.73 -5.16964 1.36575 0
M  V30 24968 C 2381.03 -4.07997 3.26092 0
M  V30 24969 H 2382.72 -2.15508 2.07839 0
M  V30 24970 H 2380.27 -1.03551 1.00066 0
M  V30 24971 H 2382.22 -4.15726 0.689187 0
M  V30 24972 H 2380.94 -3.26146 -0.172088 0
M  V30 24973 H 2379.6 -3.10158 1.95442 0
M  V30 24974 H 2379.25 -5.01537 0.383341 0
M  V30 24975 H 2378.95 -5.49874 2.07153 0
M  V30 24976 H 2380.47 -5.97277 1.26859 0
M  V30 24977 H 2381.89 -4.76287 3.19098 0
M  V30 24978 H 2380.28 -4.52231 3.9447 0
M  V30 24979 H 2381.35 -3.12941 3.70399 0
M  V30 24980 N 2382.7 -1.10314 -1.12555 0
M  V30 24981 C 2383.94 -0.846043 -1.84309 0
M  V30 24982 C 2384.28 0.626827 -1.83806 0
M  V30 24983 O 2383.55 1.46209 -1.2827 0
M  V30 24984 C 2383.83 -1.39347 -3.32046 0
M  V30 24985 C 2383.69 -2.93311 -3.41011 0
M  V30 24986 C 2385.01 -1.03476 -4.27762 0
M  V30 24987 H 2382.13 -0.308801 -0.669187 0
M  V30 24988 H 2384.77 -1.36607 -1.32055 0
M  V30 24989 H 2382.92 -0.951153 -3.76677 0
M  V30 24990 H 2384.59 -3.4606 -3.05025 0
M  V30 24991 H 2382.83 -3.29978 -2.81598 0
M  V30 24992 H 2383.5 -3.26696 -4.44942 0
M  V30 24993 H 2385.98 -1.4164 -3.91251 0
M  V30 24994 H 2384.86 -1.44472 -5.29546 0
M  V30 24995 H 2385.12 0.0559627 -4.42065 0
M  V30 24996 N 2384.18 1.29948 -0.891694 0
M  V30 24997 C 2385.45 1.90739 -0.43334 0
M  V30 24998 C 2385.83 1.80997 1.08643 0
M  V30 24999 O 2385.18 1.23151 1.92474 0
M  V30 25000 C 2385.39 3.36132 -0.938955 0
M  V30 25001 C 2386.74 4.13185 -0.977902 0
M  V30 25002 O 2387.76 3.45003 -0.886076 0
M  V30 25003 O 2386.62 5.35013 -1.11462 0
M  V30 25004 H 2383.72 0.816119 -0.133713 0
M  V30 25005 H 2386.26 1.38469 -0.981035 0
M  V30 25006 H 2385.03 3.3734 -1.98287 0
M  V30 25007 H 2384.66 3.95867 -0.370809 0
M  V30 25008 N 2385.65 0.653339 1.4342 0
M  V30 25009 C 2386.6 -0.0381866 2.30768 0
M  V30 25010 C 2387.57 -0.814551 1.44756 0
M  V30 25011 O 2388.76 -0.791131 1.73625 0
M  V30 25012 C 2385.9 -0.998541 3.30338 0
M  V30 25013 C 2385.01 -0.218266 4.31448 0
M  V30 25014 C 2384.14 -1.17243 5.181 0
M  V30 25015 C 2383.18 -0.382595 6.10903 0
M  V30 25016 N 2382.32 -1.28836 6.90178 0
M  V30 25017 H 2387.16 0.712562 2.89355 0
M  V30 25018 H 2384.7 0.363153 1.42547 0
M  V30 25019 H 2386.65 -1.56894 3.86575 0
M  V30 25020 H 2385.28 -1.71616 2.734 0
M  V30 25021 H 2384.34 0.468427 3.77505 0
M  V30 25022 H 2385.65 0.395899 4.97226 0
M  V30 25023 H 2384.8 -1.81346 5.78963 0
M  V30 25024 H 2383.54 -1.8205 4.52448 0
M  V30 25025 H 2382.55 0.271787 5.49128 0
M  V30 25026 H 2383.77 0.261076 6.78598 0
M  V30 25027 H 2381.72 -1.92323 6.27175 0
M  V30 25028 H 2381.63 -0.728755 7.52479 0
M  V30 25029 H 2382.9 -1.91753 7.55547 0
M  V30 25030 N 2387.13 -1.52563 0.395266 0
M  V30 25031 C 2388.41 -1.94086 -0.242873 0
M  V30 25032 C 2388.79 -1.33116 -1.63839 0
M  V30 25033 O 2388.14 -0.501568 -2.22927 0
M  V30 25034 C 2388.35 -3.48006 -0.263209 0
M  V30 25035 C 2389.69 -4.21772 -0.48928 0
M  V30 25036 O 2390.72 -3.54543 -0.343163 0
M  V30 25037 O 2389.58 -5.40961 -0.776074 0
M  V30 25038 H 2386.67 -0.812814 -0.152522 0
M  V30 25039 H 2389.22 -1.63619 0.450206 0
M  V30 25040 H 2387.99 -3.8473 0.714052 0
M  V30 25041 H 2387.61 -3.84794 -1.00096 0
M  V30 25042 N 2388.61 -0.125265 -1.57101 0
M  V30 25043 C 2389.86 0.530164 -1.95022 0
M  V30 25044 C 2390.18 1.66814 -1.00985 0
M  V30 25045 O 2389.45 1.95784 -0.0673037 0
M  V30 25046 H 2388.03 0.19884 -0.72005 0
M  V30 25047 H 2390.69 -0.195674 -1.93915 0
M  V30 25048 H 2389.79 0.920629 -2.98213 0
M  V30 25049 N 2390.09 1.56899 0.148518 0
M  V30 25050 C 2391.32 1.87424 0.876356 0
M  V30 25051 C 2391.73 0.713287 1.74807 0
M  V30 25052 O 2391.09 -0.316994 1.79726 0
M  V30 25053 C 2391.14 3.17181 1.73432 0
M  V30 25054 O 2390.86 4.28803 0.897734 0
M  V30 25055 C 2392.36 3.6121 2.56987 0
M  V30 25056 H 2389.58 0.621281 0.253478 0
M  V30 25057 H 2392.12 2.04008 0.141762 0
M  V30 25058 H 2390.28 3.02355 2.42199 0
M  V30 25059 H 2390.69 5.02991 1.48663 0
M  V30 25060 H 2392.17 4.54843 3.12765 0
M  V30 25061 H 2392.64 2.86425 3.32952 0
M  V30 25062 H 2393.25 3.78725 1.93513 0
M  V30 25063 N 2391.57 -0.417818 1.51961 0
M  V30 25064 C 2392.51 -1.52904 1.7528 0
M  V30 25065 C 2393.51 -1.57661 0.619639 0
M  V30 25066 O 2394.71 -1.61171 0.801486 0
M  V30 25067 H 2391.09 -0.508352 0.55415 0
M  V30 25068 H 2393.06 -1.30417 2.68391 0
M  V30 25069 C 2391.81 -2.90365 1.91267 0
M  V30 25070 H 2391.13 -2.87445 2.77877 0
M  V30 25071 H 2392.57 -3.67433 2.11587 0
M  V30 25072 C 2391.03 -3.30018 0.677489 0
M  V30 25073 O 2391.56 -4.01386 -0.158728 0
M  V30 25074 N 2389.77 -2.85984 0.515901 0
M  V30 25075 H 2389.31 -2.28075 1.19748 0
M  V30 25076 H 2389.27 -3.12875 -0.30926 0
M  V30 25077 N 2393.04 -1.42436 -0.674508 0
M  V30 25078 C 2393.97 -1.48727 -1.80007 0
M  V30 25079 C 2394.95 -0.343822 -1.66589 0
M  V30 25080 O 2396.14 -0.558169 -1.86006 0
M  V30 25081 C 2393.27 -1.38925 -3.18304 0
M  V30 25082 C 2392.22 -2.513 -3.46457 0
M  V30 25083 C 2391.55 -2.26555 -4.84331 0
M  V30 25084 C 2392.85 -3.93609 -3.43321 0
M  V30 25085 H 2394.54 -2.42931 -1.74999 0
M  V30 25086 H 2392.09 -1.16925 -0.840512 0
M  V30 25087 H 2394.04 -1.41934 -3.96778 0
M  V30 25088 H 2392.77 -0.412151 -3.23989 0
M  V30 25089 H 2391.43 -2.47608 -2.70344 0
M  V30 25090 H 2391.07 -1.27138 -4.86667 0
M  V30 25091 H 2390.77 -3.0187 -5.04131 0
M  V30 25092 H 2392.3 -2.31314 -5.6509 0
M  V30 25093 H 2393.71 -3.98902 -4.11765 0
M  V30 25094 H 2392.11 -4.68778 -3.74656 0
M  V30 25095 H 2393.18 -4.20259 -2.41889 0
M  V30 25096 N 2394.52 0.910841 -1.28614 0
M  V30 25097 C 2395.43 2.04678 -1.14647 0
M  V30 25098 C 2396.45 1.7385 -0.0723427 0
M  V30 25099 O 2397.62 1.99413 -0.282213 0
M  V30 25100 C 2394.69 3.37042 -0.812621 0
M  V30 25101 C 2393.75 3.81461 -1.96941 0
M  V30 25102 C 2392.98 5.07508 -1.6514 0
M  V30 25103 O 2393.21 5.67574 -0.567113 0
M  V30 25104 O 2392.14 5.4771 -2.49594 0
M  V30 25105 H 2395.97 2.19381 -2.10014 0
M  V30 25106 H 2393.55 1.03272 -1.0796 0
M  V30 25107 H 2395.43 4.16504 -0.640515 0
M  V30 25108 H 2394.11 3.23508 0.111369 0
M  V30 25109 H 2393.01 3.02814 -2.19669 0
M  V30 25110 H 2394.35 3.99562 -2.87421 0
M  V30 25111 N 2396 1.10909 1.11969 0
M  V30 25112 C 2396.93 0.784511 2.19927 0
M  V30 25113 C 2397.91 -0.244697 1.68331 0
M  V30 25114 O 2399.1 -0.109384 1.93892 0
M  V30 25115 C 2396.23 0.220888 3.46597 0
M  V30 25116 C 2395.18 1.18134 4.11374 0
M  V30 25117 C 2394.51 0.478688 5.32553 0
M  V30 25118 C 2395.81 2.52987 4.56941 0
M  V30 25119 H 2397.5 1.68719 2.47334 0
M  V30 25120 H 2395.05 0.812663 1.18877 0
M  V30 25121 H 2397 -0.0183538 4.21396 0
M  V30 25122 H 2395.72 -0.717057 3.18631 0
M  V30 25123 H 2394.38 1.40612 3.38561 0
M  V30 25124 H 2394.03 -0.463888 5.00856 0
M  V30 25125 H 2393.73 1.11922 5.76842 0
M  V30 25126 H 2395.25 0.248107 6.10096 0
M  V30 25127 H 2396.67 2.3463 5.23089 0
M  V30 25128 H 2395.07 3.12971 5.12025 0
M  V30 25129 H 2396.14 3.1262 3.70671 0
M  V30 25130 N 2397.48 -1.29474 0.898573 0
M  V30 25131 C 2398.71 -1.99748 0.539296 0
M  V30 25132 C 2399.12 -1.67264 -0.875687 0
M  V30 25133 O 2398.48 -0.917077 -1.57784 0
M  V30 25134 C 2398.53 -3.54244 0.720673 0
M  V30 25135 O 2398.25 -3.85577 2.07996 0
M  V30 25136 C 2399.75 -4.41785 0.366195 0
M  V30 25137 H 2396.97 -0.638254 0.207058 0
M  V30 25138 H 2399.52 -1.65036 1.20761 0
M  V30 25139 H 2397.67 -3.87272 0.0995543 0
M  V30 25140 H 2398.08 -4.80253 2.10849 0
M  V30 25141 H 2399.56 -5.49313 0.543945 0
M  V30 25142 H 2400.04 -4.33639 -0.696686 0
M  V30 25143 H 2400.64 -4.14226 0.964208 0
M  V30 25144 N 2398.96 -0.660936 -1.43071 0
M  V30 25145 C 2399.89 0.0122419 -2.33497 0
M  V30 25146 C 2400.87 0.803899 -1.49905 0
M  V30 25147 O 2402.05 0.763833 -1.78548 0
M  V30 25148 C 2399.18 0.973936 -3.33364 0
M  V30 25149 C 2398.14 0.291852 -4.27004 0
M  V30 25150 C 2397.46 1.36553 -5.16969 0
M  V30 25151 C 2398.76 -0.820552 -5.15814 0
M  V30 25152 H 2400.46 -0.742924 -2.90036 0
M  V30 25153 H 2398 -0.358713 -1.39461 0
M  V30 25154 H 2399.96 1.45385 -3.95527 0
M  V30 25155 H 2398.68 1.76036 -2.75098 0
M  V30 25156 H 2397.34 -0.167687 -3.66216 0
M  V30 25157 H 2396.99 2.14358 -4.55038 0
M  V30 25158 H 2396.69 0.914352 -5.80442 0
M  V30 25159 H 2398.21 1.84665 -5.82006 0
M  V30 25160 H 2399.62 -0.422467 -5.71741 0
M  V30 25161 H 2398.02 -1.19667 -5.88048 0
M  V30 25162 H 2399.09 -1.67526 -4.55042 0
M  V30 25163 N 2400.43 1.52351 -0.403352 0
M  V30 25164 C 2401.36 2.29761 0.416165 0
M  V30 25165 C 2402.35 1.3373 1.0512 0
M  V30 25166 O 2403.53 1.62634 1.06131 0
M  V30 25167 C 2400.66 3.11478 1.53619 0
M  V30 25168 C 2399.61 4.15509 1.02645 0
M  V30 25169 C 2398.94 4.85535 2.23963 0
M  V30 25170 C 2400.24 5.22232 0.0845382 0
M  V30 25171 H 2401.93 2.98517 -0.229754 0
M  V30 25172 H 2399.48 1.43564 -0.111938 0
M  V30 25173 H 2401.43 3.64397 2.11644 0
M  V30 25174 H 2400.16 2.40481 2.2099 0
M  V30 25175 H 2398.82 3.63592 0.468646 0
M  V30 25176 H 2398.46 4.11073 2.89876 0
M  V30 25177 H 2398.16 5.55859 1.90511 0
M  V30 25178 H 2399.69 5.41264 2.82605 0
M  V30 25179 H 2401.1 5.70425 0.573409 0
M  V30 25180 H 2399.5 5.99884 -0.160889 0
M  V30 25181 H 2400.57 4.77168 -0.862454 0
M  V30 25182 N 2401.91 0.133594 1.57033 0
M  V30 25183 C 2402.86 -0.81117 2.16076 0
M  V30 25184 C 2403.83 -1.25348 1.08982 0
M  V30 25185 O 2405.01 -1.3284 1.3696 0
M  V30 25186 C 2402.15 -2.05019 2.77599 0
M  V30 25187 C 2401.27 -1.65491 3.99045 0
M  V30 25188 C 2400.4 -2.84471 4.48608 0
M  V30 25189 C 2399.44 -2.41252 5.62551 0
M  V30 25190 N 2398.58 -3.53195 6.06793 0
M  V30 25191 H 2403.42 -0.300854 2.96477 0
M  V30 25192 H 2400.96 -0.136796 1.46463 0
M  V30 25193 H 2402.91 -2.77636 3.11406 0
M  V30 25194 H 2401.54 -2.53485 1.99863 0
M  V30 25195 H 2400.6 -0.826916 3.71303 0
M  V30 25196 H 2401.91 -1.2974 4.81632 0
M  V30 25197 H 2401.06 -3.65295 4.84401 0
M  V30 25198 H 2399.8 -3.23459 3.65001 0
M  V30 25199 H 2398.81 -1.58865 5.26348 0
M  V30 25200 H 2400.03 -2.03366 6.47935 0
M  V30 25201 H 2397.98 -3.91829 5.26124 0
M  V30 25202 H 2397.89 -3.21415 6.84272 0
M  V30 25203 H 2399.16 -4.34415 6.47228 0
M  V30 25204 N 2403.39 -1.56975 -0.140195 0
M  V30 25205 C 2404.32 -2.0181 -1.17452 0
M  V30 25206 C 2405.3 -0.898819 -1.44413 0
M  V30 25207 O 2406.49 -1.1671 -1.55218 0
M  V30 25208 C 2403.62 -2.40449 -2.50603 0
M  V30 25209 C 2402.57 -3.55625 -2.38149 0
M  V30 25210 C 2401.9 -3.80098 -3.76072 0
M  V30 25211 C 2403.2 -4.88065 -1.85983 0
M  V30 25212 H 2404.89 -2.88467 -0.801692 0
M  V30 25213 H 2402.44 -1.3878 -0.384196 0
M  V30 25214 H 2404.39 -2.70416 -3.23193 0
M  V30 25215 H 2403.11 -1.50737 -2.89734 0
M  V30 25216 H 2401.77 -3.25834 -1.6801 0
M  V30 25217 H 2401.42 -2.87625 -4.12651 0
M  V30 25218 H 2401.12 -4.57613 -3.68598 0
M  V30 25219 H 2402.64 -4.12496 -4.50199 0
M  V30 25220 H 2404.06 -5.16706 -2.48371 0
M  V30 25221 H 2402.46 -5.69433 -1.89383 0
M  V30 25222 H 2403.53 -4.77986 -0.815938 0
M  V30 25223 N 2404.87 0.409753 -1.5218 0
M  V30 25224 C 2405.82 1.51972 -1.76089 0
M  V30 25225 C 2406.81 1.5733 -0.627991 0
M  V30 25226 O 2408.02 1.60744 -0.810022 0
M  V30 25227 H 2404.39 0.505406 -0.556838 0
M  V30 25228 H 2406.36 1.28992 -2.69079 0
M  V30 25229 C 2405.11 2.89347 -1.92805 0
M  V30 25230 H 2404.43 2.85967 -2.79397 0
M  V30 25231 H 2405.87 3.66305 -2.13533 0
M  V30 25232 C 2404.33 3.29654 -0.694981 0
M  V30 25233 O 2404.86 4.01465 0.13744 0
M  V30 25234 N 2403.07 2.85706 -0.53106 0
M  V30 25235 H 2402.62 2.27437 -1.20956 0
M  V30 25236 H 2402.57 3.13035 0.292663 0
M  V30 25237 N 2406.35 1.42792 0.666944 0
M  V30 25238 C 2407.76 1.25891 0.981005 0
M  V30 25239 C 2407.96 0.16873 2.00792 0
M  V30 25240 O 2407.02 -0.457426 2.48322 0
M  V30 25241 C 2408.33 2.61851 1.47833 0
M  V30 25242 C 2409.88 2.6927 1.5957 0
M  V30 25243 C 2410.35 4.05616 2.12697 0
M  V30 25244 N 2411.85 4.0761 2.20019 0
M  V30 25245 C 2412.58 5.09931 2.62218 0
M  V30 25246 N 2412.08 6.22631 3.03813 0
M  V30 25247 N 2413.87 4.97286 2.62036 0
M  V30 25248 H 2406.02 2.12396 -0.0128264 0
M  V30 25249 H 2408.28 0.946296 0.0568091 0
M  V30 25250 H 2407.99 3.42522 0.798239 0
M  V30 25251 H 2407.86 2.86309 2.45574 0
M  V30 25252 H 2410.25 1.8894 2.26684 0
M  V30 25253 H 2410.33 2.48592 0.602976 0
M  V30 25254 H 2409.98 4.86406 1.46189 0
M  V30 25255 H 2409.91 4.2365 3.12775 0
M  V30 25256 H 2412.4 3.26253 1.90702 0
M  V30 25257 H 2412.71 6.96549 3.34722 0
M  V30 25258 H 2411.05 6.26124 3.01651 0
M  V30 25259 H 2414.25 4.08312 2.28908 0
M  V30 25260 H 2414.42 5.7716 2.94603 0
M  V30 25261 N 2407.82 -0.904008 1.29095 0
M  V30 25262 C 2408.77 -2.02899 1.13731 0
M  V30 25263 C 2409.77 -1.69314 0.054015 0
M  V30 25264 O 2410.97 -1.78729 0.213501 0
M  V30 25265 H 2407.35 -0.664963 0.351182 0
M  V30 25266 H 2409.32 -2.12997 2.08985 0
M  V30 25267 C 2408.07 -3.37743 0.826126 0
M  V30 25268 H 2407.39 -3.64086 1.6517 0
M  V30 25269 H 2408.83 -4.17158 0.758633 0
M  V30 25270 C 2407.29 -3.33599 -0.470483 0
M  V30 25271 O 2407.82 -3.7273 -1.49785 0
M  V30 25272 N 2406.03 -2.86696 -0.474762 0
M  V30 25273 H 2405.57 -2.55047 0.361737 0
M  V30 25274 H 2405.53 -2.84305 -1.34231 0
M  V30 25275 N 2409.3 -1.11501 -1.11379 0
M  V30 25276 C 2410.21 -0.786667 -2.21017 0
M  V30 25277 C 2411.23 0.220477 -1.72598 0
M  V30 25278 O 2412.4 0.0564897 -2.01321 0
M  V30 25279 C 2409.47 -0.235394 -3.459 0
M  V30 25280 C 2408.53 -1.30122 -4.09105 0
M  V30 25281 C 2407.76 -0.776161 -5.28026 0
M  V30 25282 O 2407.99 0.393561 -5.69041 0
M  V30 25283 O 2406.92 -1.54125 -5.81833 0
M  V30 25284 H 2410.75 -1.70213 -2.51518 0
M  V30 25285 H 2408.33 -0.890949 -1.19927 0
M  V30 25286 H 2410.21 0.067641 -4.21346 0
M  V30 25287 H 2408.89 0.652773 -3.1705 0
M  V30 25288 H 2407.8 -1.65728 -3.35388 0
M  V30 25289 H 2409.13 -2.1628 -4.42135 0
M  V30 25290 N 2410.78 1.28995 -0.905426 0
M  V30 25291 C 2411.73 2.2755 -0.385932 0
M  V30 25292 C 2412.7 1.57245 0.535085 0
M  V30 25293 O 2413.88 1.85195 0.459087 0
M  V30 25294 C 2411.02 3.43052 0.3754 0
M  V30 25295 C 2410.14 4.28127 -0.577167 0
M  V30 25296 C 2409.27 5.30817 0.201785 0
M  V30 25297 C 2408.31 6.0755 -0.744936 0
M  V30 25298 N 2407.45 7.021 -2.91531e-05 0
M  V30 25299 H 2412.29 2.71366 -1.23144 0
M  V30 25300 H 2409.82 1.33462 -0.618566 0
M  V30 25301 H 2411.78 4.08801 0.83292 0
M  V30 25302 H 2410.41 3.0025 1.18532 0
M  V30 25303 H 2409.46 3.62499 -1.15321 0
M  V30 25304 H 2410.78 4.81518 -1.30161 0
M  V30 25305 H 2409.93 6.0241 0.720245 0
M  V30 25306 H 2408.67 4.78172 0.959329 0
M  V30 25307 H 2407.67 5.34816 -1.27485 0
M  V30 25308 H 2408.9 6.62284 -1.5019 0
M  V30 25309 H 2406.85 6.51817 0.739676 0
M  V30 25310 H 2406.76 7.53074 -0.664453 0
M  V30 25311 H 2408.03 7.77904 0.498507 0
M  V30 25312 N 2412.26 0.668514 1.42719 0
M  V30 25313 C 2413.51 0.188176 2.01624 0
M  V30 25314 C 2413.83 -1.20315 1.52822 0
M  V30 25315 O 2413.09 -1.82039 0.718355 0
M  V30 25316 C 2413.39 0.164562 3.57021 0
M  V30 25317 C 2413.05 1.4997 4.25229 0
M  V30 25318 C 2411.72 1.86528 4.43577 0
M  V30 25319 C 2414.07 2.37929 4.63723 0
M  V30 25320 C 2411.4 3.10682 4.97688 0
M  V30 25321 C 2413.75 3.6139 5.19211 0
M  V30 25322 C 2412.41 3.98125 5.35773 0
M  V30 25323 H 2411.68 0.0688583 0.737794 0
M  V30 25324 H 2414.33 0.862255 1.7099 0
M  V30 25325 H 2412.63 -0.593011 3.87286 0
M  V30 25326 H 2414.33 -0.224201 4.00373 0
M  V30 25327 H 2410.92 1.20529 4.11304 0
M  V30 25328 H 2415.11 2.10972 4.49227 0
M  V30 25329 H 2410.36 3.39173 5.08696 0
M  V30 25330 H 2414.54 4.29753 5.47983 0
M  V30 25331 H 2412.16 4.94405 5.77467 0
M  V30 25332 N 2413.74 -1.52135 0.411426 0
M  V30 25333 C 2415.15 -1.59478 0.0624145 0
M  V30 25334 C 2415.35 -1.42413 -1.42551 0
M  V30 25335 O 2414.41 -1.25224 -2.19261 0
M  V30 25336 C 2415.72 -2.95451 0.559383 0
M  V30 25337 C 2417.27 -3.08691 0.517558 0
M  V30 25338 C 2417.75 -4.47148 0.991073 0
M  V30 25339 N 2419.24 -4.53395 0.947987 0
M  V30 25340 C 2419.97 -5.58804 1.28553 0
M  V30 25341 N 2419.47 -6.71754 1.69465 0
M  V30 25342 N 2421.26 -5.49024 1.20536 0
M  V30 25343 H 2413.41 -1.61475 1.37985 0
M  V30 25344 H 2415.67 -0.759754 0.56699 0
M  V30 25345 H 2415.38 -3.13227 1.59944 0
M  V30 25346 H 2415.25 -3.77188 -0.0297351 0
M  V30 25347 H 2417.64 -2.90599 -0.513454 0
M  V30 25348 H 2417.72 -2.28855 1.14276 0
M  V30 25349 H 2417.37 -4.65984 2.02042 0
M  V30 25350 H 2417.3 -5.25484 0.342663 0
M  V30 25351 H 2419.79 -3.72316 0.647223 0
M  V30 25352 H 2420.1 -7.48176 1.93527 0
M  V30 25353 H 2418.45 -6.73029 1.73371 0
M  V30 25354 H 2421.64 -4.59666 0.884585 0
M  V30 25355 H 2421.81 -6.31066 1.47172 0
M  V30 25356 N 2415.22 -0.14192 -1.5696 0
M  V30 25357 C 2416.49 0.555248 -1.87554 0
M  V30 25358 C 2416.87 1.83305 -1.04703 0
M  V30 25359 O 2416.22 2.28116 -0.132386 0
M  V30 25360 C 2416.43 0.825605 -3.39094 0
M  V30 25361 C 2417.78 1.16862 -4.08202 0
M  V30 25362 O 2418.8 0.915125 -3.44244 0
M  V30 25363 O 2417.66 1.64541 -5.21141 0
M  V30 25364 H 2414.76 0.282665 -0.777193 0
M  V30 25365 H 2417.3 -0.17815 -1.68762 0
M  V30 25366 H 2416.07 -0.0789321 -3.9122 0
M  V30 25367 H 2415.7 1.61336 -3.63396 0
M  V30 25368 N 2416.69 1.57047 0.131868 0
M  V30 25369 C 2417.94 1.83358 0.840408 0
M  V30 25370 C 2418.26 0.725567 1.81645 0
M  V30 25371 O 2419.46 0.874704 2.57024 0
M  V30 25372 C 2417.92 3.2504 1.54522 0
M  V30 25373 C 2417.53 4.43816 0.610823 0
M  V30 25374 C 2419.27 3.6061 2.23965 0
M  V30 25375 C 2417.18 5.76523 1.31813 0
M  V30 25376 H 2416.11 0.683853 0.317587 0
M  V30 25377 H 2418.76 1.83264 0.0931239 0
M  V30 25378 H 2417.14 3.19565 2.33867 0
M  V30 25379 H 2418.31 4.60561 -0.148488 0
M  V30 25380 H 2416.63 4.16393 0.0240284 0
M  V30 25381 H 2419.23 4.57023 2.7755 0
M  V30 25382 H 2419.57 2.87409 3.01168 0
M  V30 25383 H 2420.1 3.67812 1.51522 0
M  V30 25384 H 2416.84 6.52861 0.587656 0
M  V30 25385 H 2416.36 5.63688 2.04977 0
M  V30 25386 H 2418.04 6.19841 1.85489 0
M  V30 25387 N 2418.17 -0.401677 1.52395 0
M  V30 25388 C 2419.59 -0.740839 1.41364 0
M  V30 25389 C 2419.79 -1.94567 0.524017 0
M  V30 25390 O 2418.84 -2.52499 -0.00736765 0
M  V30 25391 C 2420.16 -0.987797 2.84012 0
M  V30 25392 C 2421.7 -1.09005 2.93406 0
M  V30 25393 C 2422.18 -1.36972 4.37038 0
M  V30 25394 N 2423.67 -1.43821 4.40306 0
M  V30 25395 C 2424.41 -1.67102 5.48511 0
M  V30 25396 N 2423.9 -1.87937 6.66822 0
M  V30 25397 N 2425.69 -1.69178 5.36037 0
M  V30 25398 H 2417.85 0.391299 2.08764 0
M  V30 25399 H 2420.11 0.112815 0.941263 0
M  V30 25400 H 2419.81 -0.174773 3.51265 0
M  V30 25401 H 2419.69 -1.90594 3.25505 0
M  V30 25402 H 2422.08 -1.89366 2.26328 0
M  V30 25403 H 2422.16 -0.150105 2.55359 0
M  V30 25404 H 2421.8 -0.571264 5.04677 0
M  V30 25405 H 2421.73 -2.32231 4.72627 0
M  V30 25406 H 2424.22 -1.2948 3.55026 0
M  V30 25407 H 2424.53 -2.05172 7.45067 0
M  V30 25408 H 2422.88 -1.85187 6.69874 0
M  V30 25409 H 2426.07 -1.52443 4.42582 0
M  V30 25410 H 2426.24 -1.86982 6.20437 0
M  V30 25411 N 2419.65 -1.43144 -0.659362 0
M  V30 25412 C 2420.9 -1.4415 -1.41652 0
M  V30 25413 C 2421.22 -0.0646081 -1.94893 0
M  V30 25414 O 2420.49 0.899168 -1.74045 0
M  V30 25415 H 2419.07 -0.530707 -0.525699 0
M  V30 25416 H 2421.73 -1.78696 -0.778065 0
M  V30 25417 H 2420.83 -2.15044 -2.26192 0
M  V30 25418 N 2421.13 0.897149 -1.29572 0
M  V30 25419 C 2422.37 1.64787 -1.17692 0
M  V30 25420 C 2422.7 1.92602 0.271036 0
M  V30 25421 O 2421.96 1.5366 1.2119 0
M  V30 25422 C 2422.26 3.00278 -1.93825 0
M  V30 25423 C 2421.92 2.92062 -3.43527 0
M  V30 25424 C 2420.58 2.89528 -3.84353 0
M  V30 25425 C 2422.94 2.81081 -4.38911 0
M  V30 25426 C 2420.26 2.73837 -5.18874 0
M  V30 25427 C 2422.62 2.66929 -5.73526 0
M  V30 25428 C 2421.28 2.62763 -6.13606 0
M  V30 25429 H 2420.55 0.603 -0.430665 0
M  V30 25430 H 2423.2 1.04402 -1.60538 0
M  V30 25431 H 2421.5 3.64545 -1.43577 0
M  V30 25432 H 2423.2 3.57302 -1.82034 0
M  V30 25433 H 2419.79 2.94837 -3.11077 0
M  V30 25434 H 2423.97 2.82114 -4.0832 0
M  V30 25435 H 2419.23 2.69018 -5.49035 0
M  V30 25436 H 2423.4 2.57404 -6.47083 0
M  V30 25437 H 2421.03 2.50362 -7.1779 0
M  V30 25438 N 2422.61 1.1209 1.10786 0
M  V30 25439 C 2423.54 0.807793 2.19082 0
M  V30 25440 C 2424.52 -0.226829 1.68581 0
M  V30 25441 O 2425.7 -0.0888134 1.93997 0
M  V30 25442 C 2422.83 0.257637 3.46343 0
M  V30 25443 C 2421.79 1.22491 4.10098 0
M  V30 25444 C 2421.11 0.535145 5.32015 0
M  V30 25445 C 2422.41 2.57819 4.54232 0
M  V30 25446 H 2424.11 1.71333 2.45531 0
M  V30 25447 H 2421.65 0.825225 1.18009 0
M  V30 25448 H 2423.6 0.0263419 4.21392 0
M  V30 25449 H 2422.33 -0.683222 3.19374 0
M  V30 25450 H 2420.99 1.44195 3.37051 0
M  V30 25451 H 2420.64 -0.410739 5.0132 0
M  V30 25452 H 2420.34 1.18034 5.75623 0
M  V30 25453 H 2421.86 0.312802 6.09798 0
M  V30 25454 H 2423.27 2.40164 5.20571 0
M  V30 25455 H 2421.67 3.18384 5.08676 0
M  V30 25456 H 2422.74 3.16534 3.67334 0
M  V30 25457 N 2424.08 -1.28513 0.912254 0
M  V30 25458 C 2425.05 -2.25607 0.404263 0
M  V30 25459 C 2426.05 -1.53821 -0.468575 0
M  V30 25460 O 2427.24 -1.72066 -0.271843 0
M  V30 25461 C 2424.37 -3.38295 -0.420594 0
M  V30 25462 H 2425.56 -2.72058 1.26193 0
M  V30 25463 H 2423.11 -1.4017 0.691519 0
M  V30 25464 H 2423.85 -2.97203 -1.29772 0
M  V30 25465 H 2423.63 -3.91564 0.205004 0
M  V30 25466 H 2425.12 -4.10498 -0.766899 0
M  V30 25467 N 2425.56 -0.676073 -1.42362 0
M  V30 25468 C 2426.51 0.00146847 -2.308 0
M  V30 25469 C 2427.48 0.791418 -1.46034 0
M  V30 25470 O 2428.66 0.763409 -1.74862 0
M  V30 25471 C 2425.8 0.945861 -3.31885 0
M  V30 25472 C 2424.92 0.149599 -4.31741 0
M  V30 25473 C 2424.05 1.08986 -5.199 0
M  V30 25474 C 2423.09 0.285357 -6.11434 0
M  V30 25475 N 2422.23 1.17839 -6.9214 0
M  V30 25476 H 2427.07 -0.758505 -2.88185 0
M  V30 25477 H 2424.61 -0.385785 -1.41951 0
M  V30 25478 H 2426.56 1.50724 -3.89022 0
M  V30 25479 H 2425.19 1.67245 -2.76096 0
M  V30 25480 H 2424.25 -0.528425 -3.76712 0
M  V30 25481 H 2425.56 -0.474954 -4.96534 0
M  V30 25482 H 2424.71 1.72113 -5.81775 0
M  V30 25483 H 2423.45 1.74829 -4.55287 0
M  V30 25484 H 2422.46 -0.359114 -5.48626 0
M  V30 25485 H 2423.68 -0.369002 -6.78097 0
M  V30 25486 H 2421.63 1.82321 -6.30155 0
M  V30 25487 H 2421.54 0.60895 -7.53543 0
M  V30 25488 H 2422.81 1.79709 -7.58502 0
M  V30 25489 N 2427.04 1.51915 -0.419488 0
M  V30 25490 C 2427.95 2.31034 0.407487 0
M  V30 25491 C 2428.97 1.39192 1.04411 0
M  V30 25492 O 2430.14 1.72266 1.04337 0
M  V30 25493 C 2427.21 3.12399 1.50359 0
M  V30 25494 C 2426.27 4.19995 0.888955 0
M  V30 25495 C 2425.5 4.97471 1.93283 0
M  V30 25496 O 2425.72 4.75367 3.1525 0
M  V30 25497 O 2424.66 5.82043 1.53329 0
M  V30 25498 H 2428.48 3.02767 -0.237918 0
M  V30 25499 H 2426.07 1.48282 -0.182439 0
M  V30 25500 H 2427.95 3.63036 2.13969 0
M  V30 25501 H 2426.63 2.43449 2.13341 0
M  V30 25502 H 2425.53 3.7348 0.215287 0
M  V30 25503 H 2426.87 4.91267 0.302905 0
M  V30 25504 N 2428.52 0.150242 1.56882 0
M  V30 25505 C 2429.43 -0.801184 2.20495 0
M  V30 25506 C 2430.44 -1.26925 1.19021 0
M  V30 25507 O 2431.62 -1.32576 1.5161 0
M  V30 25508 C 2428.69 -2.02156 2.81662 0
M  V30 25509 C 2427.75 -1.60242 3.98273 0
M  V30 25510 C 2426.98 -2.76462 4.56513 0
M  V30 25511 O 2427.2 -3.92764 4.13634 0
M  V30 25512 O 2426.14 -2.51748 5.46724 0
M  V30 25513 H 2429.96 -0.289664 3.02315 0
M  V30 25514 H 2427.55 -0.0769422 1.49202 0
M  V30 25515 H 2429.43 -2.7357 3.20527 0
M  V30 25516 H 2428.1 -2.52254 2.02853 0
M  V30 25517 H 2427.01 -0.858413 3.64118 0
M  V30 25518 H 2428.34 -1.14856 4.78611 0
M  V30 25519 N 2430 -1.57115 -0.123538 0
M  V30 25520 C 2431.24 -1.84887 -0.833354 0
M  V30 25521 C 2431.58 -0.735324 -1.7974 0
M  V30 25522 O 2430.85 0.259216 -1.92765 0
M  V30 25523 C 2431.13 -3.23231 -1.58725 0
M  V30 25524 C 2430.99 -4.45179 -0.643104 0
M  V30 25525 C 2432.31 -3.59089 -2.54447 0
M  V30 25526 H 2429.42 -0.672505 -0.301507 0
M  V30 25527 H 2432.07 -1.89748 -0.0977447 0
M  V30 25528 H 2430.22 -3.19218 -2.21433 0
M  V30 25529 H 2431.89 -4.61293 -0.0252204 0
M  V30 25530 H 2430.13 -4.33776 0.0456901 0
M  V30 25531 H 2430.8 -5.38639 -1.20714 0
M  V30 25532 H 2433.28 -3.63864 -2.01846 0
M  V30 25533 H 2432.15 -4.56875 -3.0423 0
M  V30 25534 H 2432.42 -2.8627 -3.36901 0
M  V30 25535 N 2431.47 0.393589 -1.52606 0
M  V30 25536 C 2432.38 1.50489 -1.79973 0
M  V30 25537 C 2433.4 1.59897 -0.686209 0
M  V30 25538 O 2434.58 1.7632 -0.973305 0
M  V30 25539 C 2431.64 2.86068 -1.95872 0
M  V30 25540 C 2430.7 2.86419 -3.19786 0
M  V30 25541 C 2429.94 4.15532 -3.34916 0
M  V30 25542 O 2430.16 5.10248 -2.54957 0
M  V30 25543 O 2429.09 4.23052 -4.28148 0
M  V30 25544 H 2432.92 1.30294 -2.7433 0
M  V30 25545 H 2430.5 0.58098 -1.37641 0
M  V30 25546 H 2432.39 3.66453 -2.08062 0
M  V30 25547 H 2431.06 3.06298 -1.04704 0
M  V30 25548 H 2429.97 2.04831 -3.13041 0
M  V30 25549 H 2431.3 2.7114 -4.10784 0
M  V30 25550 N 2432.95 1.43492 0.651762 0
M  V30 25551 C 2433.92 1.48432 1.74644 0
M  V30 25552 C 2434.92 0.368845 1.56513 0
M  V30 25553 O 2436.11 0.630651 1.62384 0
M  V30 25554 C 2433.24 1.33833 3.13531 0
M  V30 25555 H 2434.43 2.45923 1.71644 0
M  V30 25556 H 2431.98 1.30279 0.86355 0
M  V30 25557 H 2432.72 0.373546 3.22141 0
M  V30 25558 H 2432.5 2.14697 3.28097 0
M  V30 25559 H 2433.99 1.40225 3.93353 0
M  V30 25560 N 2434.43 -0.890264 1.30046 0
M  V30 25561 C 2435.38 -2.01681 1.15877 0
M  V30 25562 C 2436.37 -1.69247 0.07197 0
M  V30 25563 O 2437.58 -1.78493 0.232446 0
M  V30 25564 H 2433.95 -0.661201 0.358215 0
M  V30 25565 H 2435.92 -2.10768 2.11233 0
M  V30 25566 C 2434.67 -3.36848 0.861901 0
M  V30 25567 H 2434 -3.62314 1.69023 0
M  V30 25568 H 2435.44 -4.1633 0.802835 0
M  V30 25569 C 2433.9 -3.34079 -0.435074 0
M  V30 25570 O 2434.43 -3.74297 -1.45823 0
M  V30 25571 N 2432.63 -2.87183 -0.444327 0
M  V30 25572 H 2432.18 -2.54649 0.388768 0
M  V30 25573 H 2432.14 -2.85713 -1.31208 0
M  V30 25574 N 2435.91 -1.12676 -1.1019 0
M  V30 25575 C 2436.84 -0.754739 -2.16417 0
M  V30 25576 C 2437.85 0.219832 -1.61309 0
M  V30 25577 O 2439.04 0.000795465 -1.785 0
M  V30 25578 C 2436.14 -0.0967576 -3.38762 0
M  V30 25579 C 2435.32 -1.10144 -4.23305 0
M  V30 25580 C 2434.37 -0.470605 -5.24091 0
M  V30 25581 O 2433.4 -1.12834 -5.57904 0
M  V30 25582 N 2434.6 0.760847 -5.75492 0
M  V30 25583 H 2437.37 -1.66879 -2.4894 0
M  V30 25584 H 2434.93 -1.01871 -1.25833 0
M  V30 25585 H 2436.92 0.337313 -4.03292 0
M  V30 25586 H 2435.49 0.720099 -3.04193 0
M  V30 25587 H 2434.71 -1.71305 -3.55033 0
M  V30 25588 H 2436 -1.78072 -4.76621 0
M  V30 25589 H 2435.4 1.31414 -5.50224 0
M  V30 25590 H 2433.95 1.1377 -6.41794 0
M  V30 25591 N 2437.39 1.28028 -0.919057 0
M  V30 25592 C 2438.35 2.25389 -0.416221 0
M  V30 25593 C 2439.35 1.54068 0.460411 0
M  V30 25594 O 2440.54 1.72208 0.262714 0
M  V30 25595 C 2437.67 3.38514 0.402647 0
M  V30 25596 H 2438.86 2.71385 -1.27634 0
M  V30 25597 H 2436.42 1.39802 -0.698943 0
M  V30 25598 H 2437.15 2.97887 1.28194 0
M  V30 25599 H 2436.94 3.91449 -0.225767 0
M  V30 25600 H 2438.43 4.10899 0.745118 0
M  V30 25601 N 2438.86 0.683613 1.42002 0
M  V30 25602 C 2440.11 0.20986 2.01711 0
M  V30 25603 C 2440.44 -1.1835 1.53971 0
M  V30 25604 O 2439.72 -1.79638 0.745692 0
M  V30 25605 C 2440 0.25426 3.59201 0
M  V30 25606 C 2439.85 1.68371 4.17099 0
M  V30 25607 C 2441.17 -0.392632 4.38345 0
M  V30 25608 H 2438.29 0.0777317 0.732889 0
M  V30 25609 H 2440.93 0.87007 1.68908 0
M  V30 25610 H 2439.08 -0.307885 3.87278 0
M  V30 25611 H 2440.76 2.29878 3.99942 0
M  V30 25612 H 2439 2.22164 3.72593 0
M  V30 25613 H 2439.67 1.66639 5.26246 0
M  V30 25614 H 2442.15 0.0859893 4.16011 0
M  V30 25615 H 2441.02 -0.330967 5.47901 0
M  V30 25616 H 2441.28 -1.47157 4.1689 0
M  V30 25617 N 2440.34 -1.5169 0.427538 0
M  V30 25618 C 2441.27 -2.30394 -0.379559 0
M  V30 25619 C 2442.25 -1.35385 -1.0298 0
M  V30 25620 O 2443.44 -1.64302 -1.03531 0
M  V30 25621 C 2440.57 -3.13883 -1.48644 0
M  V30 25622 C 2439.52 -4.1709 -0.960221 0
M  V30 25623 C 2438.85 -4.89037 -2.1621 0
M  V30 25624 C 2440.15 -5.223 -0.00144499 0
M  V30 25625 H 2441.84 -2.98114 0.277216 0
M  V30 25626 H 2439.39 -1.43368 0.134764 0
M  V30 25627 H 2441.34 -3.67718 -2.0582 0
M  V30 25628 H 2440.07 -2.43966 -2.17136 0
M  V30 25629 H 2438.73 -3.64292 -0.410742 0
M  V30 25630 H 2438.37 -4.15633 -2.83299 0
M  V30 25631 H 2438.07 -5.58819 -1.81644 0
M  V30 25632 H 2439.6 -5.45692 -2.73958 0
M  V30 25633 H 2441.01 -5.71265 -0.482586 0
M  V30 25634 H 2439.41 -5.99552 0.256305 0
M  V30 25635 H 2440.48 -4.75736 0.938258 0
M  V30 25636 N 2441.82 -0.15856 -1.568 0
M  V30 25637 C 2442.78 0.762667 -2.16139 0
M  V30 25638 C 2443.78 1.16711 -1.10612 0
M  V30 25639 O 2444.97 1.08615 -1.36193 0
M  V30 25640 C 2442.11 2.03644 -2.7339 0
M  V30 25641 H 2443.3 0.246301 -2.98887 0
M  V30 25642 H 2440.85 0.090947 -1.56035 0
M  V30 25643 H 2441.59 2.5962 -1.9434 0
M  V30 25644 H 2441.37 1.75553 -3.50604 0
M  V30 25645 H 2442.86 2.69415 -3.1907 0
M  V30 25646 N 2443.3 1.57178 0.115204 0
M  V30 25647 C 2444.55 1.84239 0.820913 0
M  V30 25648 C 2444.86 0.744792 1.80865 0
M  V30 25649 O 2446.07 0.901916 2.56081 0
M  V30 25650 C 2444.52 3.2666 1.51066 0
M  V30 25651 C 2444.13 4.44439 0.563716 0
M  V30 25652 C 2445.88 3.62965 2.20128 0
M  V30 25653 C 2443.78 5.77889 1.25691 0
M  V30 25654 H 2442.71 0.687183 0.310315 0
M  V30 25655 H 2445.36 1.83352 0.0736811 0
M  V30 25656 H 2443.75 3.22028 2.30465 0
M  V30 25657 H 2444.92 4.60377 -0.197328 0
M  V30 25658 H 2443.23 4.16395 -0.020137 0
M  V30 25659 H 2445.83 4.59941 2.72687 0
M  V30 25660 H 2446.17 2.90587 2.98102 0
M  V30 25661 H 2446.71 3.69399 1.47613 0
M  V30 25662 H 2443.45 6.53447 0.518378 0
M  V30 25663 H 2442.97 5.65831 1.98987 0
M  V30 25664 H 2444.65 6.21774 1.78904 0
M  V30 25665 N 2444.78 -0.38549 1.52813 0
M  V30 25666 C 2445.73 -1.49151 1.78484 0
M  V30 25667 C 2446.72 -1.56311 0.652942 0
M  V30 25668 O 2447.93 -1.59435 0.835492 0
M  V30 25669 H 2444.3 -0.496483 0.564808 0
M  V30 25670 H 2446.27 -1.24695 2.71097 0
M  V30 25671 C 2445.02 -2.86243 1.97383 0
M  V30 25672 H 2444.34 -2.81486 2.83912 0
M  V30 25673 H 2445.78 -3.62862 2.19334 0
M  V30 25674 C 2444.24 -3.28506 0.747338 0
M  V30 25675 O 2444.77 -4.01633 -0.0735526 0
M  V30 25676 N 2442.98 -2.84825 0.576446 0
M  V30 25677 H 2442.53 -2.25484 1.24559 0
M  V30 25678 H 2442.48 -3.13461 -0.242825 0
M  V30 25679 N 2446.26 -1.43835 -0.644143 0
M  V30 25680 C 2447.48 -1.4939 -1.43144 0
M  V30 25681 C 2447.9 -0.114616 -1.88452 0
M  V30 25682 O 2447.26 0.876961 -1.60049 0
M  V30 25683 C 2447.31 -2.44753 -2.66042 0
M  V30 25684 O 2447.03 -3.77318 -2.22627 0
M  V30 25685 C 2448.53 -2.59641 -3.59307 0
M  V30 25686 H 2445.75 -0.507085 -0.439438 0
M  V30 25687 H 2448.29 -1.8867 -0.788917 0
M  V30 25688 H 2446.45 -2.08644 -3.26415 0
M  V30 25689 H 2446.86 -4.28685 -3.02208 0
M  V30 25690 H 2448.34 -3.30424 -4.42181 0
M  V30 25691 H 2448.81 -1.64435 -4.07257 0
M  V30 25692 H 2449.42 -2.96599 -3.0481 0
M  V30 25693 N 2447.73 0.883355 -1.30517 0
M  V30 25694 C 2448.96 1.67365 -1.2249 0
M  V30 25695 C 2449.38 1.86938 0.208734 0
M  V30 25696 O 2448.74 1.4015 1.15012 0
M  V30 25697 C 2448.79 3.02652 -1.96047 0
M  V30 25698 O 2447.89 3.91749 -1.28866 0
M  V30 25699 H 2447.23 0.511345 -0.423582 0
M  V30 25700 H 2449.76 1.10236 -1.72364 0
M  V30 25701 H 2449.77 3.52683 -2.05131 0
M  V30 25702 H 2448.45 2.87724 -3.00312 0
M  V30 25703 H 2447.03 3.5019 -1.28147 0
M  V30 25704 N 2449.21 1.13259 1.09591 0
M  V30 25705 C 2450.16 0.808419 2.16179 0
M  V30 25706 C 2451.13 -0.228725 1.64518 0
M  V30 25707 O 2452.31 -0.101348 1.90531 0
M  V30 25708 C 2449.45 0.278736 3.43972 0
M  V30 25709 C 2448.57 1.37474 4.09542 0
M  V30 25710 C 2447.7 0.803571 5.25087 0
M  V30 25711 C 2446.74 1.87809 5.82576 0
M  V30 25712 N 2445.88 1.325 6.89484 0
M  V30 25713 H 2450.72 1.72142 2.43251 0
M  V30 25714 H 2448.25 0.859315 1.19391 0
M  V30 25715 H 2450.21 -0.046485 4.17174 0
M  V30 25716 H 2448.84 -0.597404 3.17224 0
M  V30 25717 H 2447.89 1.81658 3.34222 0
M  V30 25718 H 2449.21 2.18692 4.48303 0
M  V30 25719 H 2448.36 0.429534 6.05178 0
M  V30 25720 H 2447.1 -0.0397099 4.87684 0
M  V30 25721 H 2446.1 2.26122 5.01148 0
M  V30 25722 H 2447.33 2.72474 6.22041 0
M  V30 25723 H 2445.28 0.50369 6.54063 0
M  V30 25724 H 2445.19 2.07368 7.27004 0
M  V30 25725 H 2446.46 0.978472 7.73334 0
M  V30 25726 N 2450.69 -1.27539 0.925834 0
M  V30 25727 C 2451.94 -1.9445 0.565289 0
M  V30 25728 C 2452.26 -1.72781 -0.89313 0
M  V30 25729 O 2451.52 -1.04898 -1.65212 0
M  V30 25730 C 2451.82 -3.475 0.835357 0
M  V30 25731 C 2451.48 -3.89287 2.27522 0
M  V30 25732 C 2450.15 -4.00406 2.66886 0
M  V30 25733 C 2452.5 -4.1049 3.21166 0
M  V30 25734 C 2449.83 -4.30115 3.99021 0
M  V30 25735 C 2452.18 -4.41682 4.52879 0
M  V30 25736 C 2450.84 -4.51014 4.9208 0
M  V30 25737 H 2450.11 -0.711542 0.206854 0
M  V30 25738 H 2452.76 -1.51645 1.16944 0
M  V30 25739 H 2451.06 -3.91518 0.148511 0
M  V30 25740 H 2452.76 -3.9741 0.535391 0
M  V30 25741 H 2449.35 -3.81168 1.95982 0
M  V30 25742 H 2453.54 -4.01341 2.91957 0
M  V30 25743 H 2448.79 -4.35549 4.29077 0
M  V30 25744 H 2452.97 -4.57036 5.25444 0
M  V30 25745 H 2450.59 -4.73789 5.94498 0
M  V30 25746 N 2452.17 -0.691135 -1.41637 0
M  V30 25747 C 2453.58 -0.295549 -1.84346 0
M  V30 25748 C 2453.93 1.16544 -1.57835 0
M  V30 25749 O 2453.05 1.89412 -1.04652 0
M  V30 25750 C 2453.65 -0.529634 -3.34635 0
M  V30 25751 C 2452.21 -0.18801 -3.7593 0
M  V30 25752 C 2451.36 -0.814099 -2.65081 0
M  V30 25753 H 2454.31 -0.892115 -1.31252 0
M  V30 25754 H 2454.33 0.213082 -3.79903 0
M  V30 25755 H 2453.84 -1.59304 -3.53898 0
M  V30 25756 H 2451.94 0.871304 -3.62269 0
M  V30 25757 H 2452.05 -0.639933 -4.74807 0
M  V30 25758 H 2450.42 -0.244061 -2.53528 0
M  V30 25759 H 2451.2 -1.88128 -2.87163 0
M  V30 25760 N 2453.65 1.51461 -0.435577 0
M  V30 25761 C 2454.59 2.29287 0.391164 0
M  V30 25762 C 2455.59 1.35064 1.02245 0
M  V30 25763 O 2456.79 1.52413 0.957619 0
M  V30 25764 H 2453.17 0.737897 0.144955 0
M  V30 25765 H 2455.14 2.97025 -0.286103 0
M  V30 25766 C 2453.89 3.14586 1.48091 0
M  V30 25767 H 2453.21 3.86975 1.0045 0
M  V30 25768 H 2454.65 3.721 2.03267 0
M  V30 25769 C 2453.11 2.29847 2.46317 0
M  V30 25770 O 2453.64 1.95688 3.50812 0
M  V30 25771 N 2451.85 1.93103 2.17162 0
M  V30 25772 H 2451.39 2.21082 1.32215 0
M  V30 25773 H 2451.35 1.36703 2.83125 0
M  V30 25774 N 2455.12 0.166873 1.56714 0
M  V30 25775 C 2456.06 -0.803713 2.13578 0
M  V30 25776 C 2457.04 -1.22898 1.06466 0
M  V30 25777 O 2458.22 -1.32154 1.34415 0
M  V30 25778 C 2455.35 -2.08175 2.67172 0
M  V30 25779 C 2454.39 -1.80086 3.86615 0
M  V30 25780 S 2455.23 -0.974068 5.26566 0
M  V30 25781 C 2456.38 -2.26287 5.83562 0
M  V30 25782 H 2456.61 -0.320215 2.9557 0
M  V30 25783 H 2454.15 -0.0477283 1.54326 0
M  V30 25784 H 2456.11 -2.81585 2.98697 0
M  V30 25785 H 2454.77 -2.53639 1.85273 0
M  V30 25786 H 2453.96 -2.74903 4.22427 0
M  V30 25787 H 2453.56 -1.14775 3.55953 0
M  V30 25788 H 2455.85 -3.21784 5.96205 0
M  V30 25789 H 2456.8 -1.9495 6.80735 0
M  V30 25790 H 2457.2 -2.37844 5.11948 0
M  V30 25791 N 2456.6 -1.57237 -0.106866 0
M  V30 25792 C 2457.83 -1.89406 -0.825157 0
M  V30 25793 C 2458.24 -0.757526 -1.73373 0
M  V30 25794 O 2457.58 0.280083 -1.81552 0
M  V30 25795 C 2457.65 -3.16713 -1.70097 0
M  V30 25796 C 2457.31 -4.46686 -0.965444 0
M  V30 25797 C 2458.31 -5.1903 -0.30065 0
M  V30 25798 C 2455.99 -4.93368 -0.943018 0
M  V30 25799 C 2457.99 -6.36286 0.376734 0
M  V30 25800 C 2455.67 -6.10539 -0.261842 0
M  V30 25801 C 2456.67 -6.81846 0.396867 0
M  V30 25802 O 2456.36 -7.96786 1.06715 0
M  V30 25803 H 2456.09 -0.63126 -0.241841 0
M  V30 25804 H 2458.64 -2.05193 -0.092113 0
M  V30 25805 H 2456.87 -2.97041 -2.47596 0
M  V30 25806 H 2458.56 -3.34806 -2.29477 0
M  V30 25807 H 2459.33 -4.84011 -0.309514 0
M  V30 25808 H 2455.21 -4.37762 -1.44517 0
M  V30 25809 H 2458.75 -6.91881 0.891455 0
M  V30 25810 H 2454.65 -6.45013 -0.250783 0
M  V30 25811 H 2455.42 -8.12698 0.97285 0
M  V30 25812 N 2458.08 0.377381 -1.53015 0
M  V30 25813 C 2459.33 1.1185 -1.67847 0
M  V30 25814 C 2459.64 1.908 -0.430659 0
M  V30 25815 O 2460.85 2.67587 -0.459308 0
M  V30 25816 C 2459.3 2.0375 -2.96671 0
M  V30 25817 C 2458.91 1.30168 -4.28673 0
M  V30 25818 C 2460.66 2.77926 -3.2087 0
M  V30 25819 C 2458.56 2.20902 -5.48595 0
M  V30 25820 H 2457.49 0.421252 -0.62535 0
M  V30 25821 H 2460.14 0.380378 -1.79514 0
M  V30 25822 H 2458.53 2.81245 -2.78778 0
M  V30 25823 H 2459.7 0.578179 -4.57158 0
M  V30 25824 H 2458.02 0.679035 -4.10826 0
M  V30 25825 H 2460.61 3.46017 -4.07648 0
M  V30 25826 H 2460.96 3.42646 -2.3643 0
M  V30 25827 H 2461.49 2.07519 -3.39383 0
M  V30 25828 H 2458.23 1.60778 -6.35477 0
M  V30 25829 H 2457.75 2.91134 -5.24405 0
M  V30 25830 H 2459.43 2.80726 -5.82925 0
M  V30 25831 N 2459.56 1.44175 0.636506 0
M  V30 25832 C 2460.97 1.41495 1.21803 0
M  V30 25833 C 2461.32 0.127535 1.95785 0
M  V30 25834 O 2460.45 -0.772341 2.02148 0
M  V30 25835 C 2461.04 2.56325 2.21547 0
M  V30 25836 C 2459.6 2.56857 2.75139 0
M  V30 25837 C 2458.75 2.33197 1.50048 0
M  V30 25838 H 2461.7 1.52834 0.427504 0
M  V30 25839 H 2461.72 2.28771 3.04046 0
M  V30 25840 H 2461.23 3.50011 1.67673 0
M  V30 25841 H 2459.33 1.67098 3.3303 0
M  V30 25842 H 2459.44 3.55171 3.21544 0
M  V30 25843 H 2457.81 1.82186 1.7799 0
M  V30 25844 H 2458.59 3.2899 0.980845 0
M  V30 25845 N 2461.04 -0.876421 1.30983 0
M  V30 25846 C 2462.28 -1.63136 1.20477 0
M  V30 25847 C 2462.62 -1.92735 -0.238063 0
M  V30 25848 O 2461.89 -1.55437 -1.16917 0
M  V30 25849 C 2462.17 -2.96571 2.04249 0
M  V30 25850 C 2462.03 -2.7389 3.56797 0
M  V30 25851 C 2463.35 -3.97597 1.88691 0
M  V30 25852 H 2460.46 -0.591978 0.439012 0
M  V30 25853 H 2463.11 -1.01358 1.60706 0
M  V30 25854 H 2461.26 -3.49297 1.70069 0
M  V30 25855 H 2462.93 -2.27885 4.01081 0
M  V30 25856 H 2461.17 -2.08238 3.80551 0
M  V30 25857 H 2461.84 -3.68807 4.10713 0
M  V30 25858 H 2464.32 -3.54059 2.1859 0
M  V30 25859 H 2463.19 -4.88858 2.49619 0
M  V30 25860 H 2463.46 -4.33883 0.848419 0
M  V30 25861 N 2462.51 -1.13839 -1.08989 0
M  V30 25862 C 2463.76 -0.90113 -1.80898 0
M  V30 25863 C 2464.08 0.574101 -1.86357 0
M  V30 25864 O 2463.35 1.41731 -1.35237 0
M  V30 25865 H 2461.93 -0.330398 -0.66996 0
M  V30 25866 H 2464.6 -1.43581 -1.31798 0
M  V30 25867 H 2463.69 -1.29583 -2.83927 0
M  V30 25868 N 2463.99 1.27046 -0.932584 0
M  V30 25869 C 2464.92 2.25809 -0.392774 0
M  V30 25870 C 2465.94 1.55587 0.479213 0
M  V30 25871 O 2467.13 1.76111 0.291047 0
M  V30 25872 C 2464.23 3.35826 0.455397 0
M  V30 25873 C 2463.4 4.35582 -0.398431 0
M  V30 25874 C 2462.46 5.24768 0.387893 0
M  V30 25875 O 2461.48 5.68827 -0.206103 0
M  V30 25876 N 2462.69 5.5546 1.68654 0
M  V30 25877 H 2465.45 2.72764 -1.24178 0
M  V30 25878 H 2463.01 1.40723 -0.800536 0
M  V30 25879 H 2465 3.92439 0.988623 0
M  V30 25880 H 2463.57 2.88434 1.20517 0
M  V30 25881 H 2462.79 3.78163 -1.11293 0
M  V30 25882 H 2464.08 4.99234 -0.981977 0
M  V30 25883 H 2463.48 5.21531 2.19138 0
M  V30 25884 H 2462.04 6.14752 2.16619 0
M  V30 25885 N 2465.47 0.698636 1.41269 0
M  V30 25886 C 2466.72 0.231243 2.01477 0
M  V30 25887 C 2467.05 -1.1671 1.55217 0
M  V30 25888 O 2466.32 -1.78837 0.764703 0
M  V30 25889 C 2466.61 0.292344 3.58911 0
M  V30 25890 C 2466.46 1.72785 4.15289 0
M  V30 25891 C 2467.78 -0.346117 4.38737 0
M  V30 25892 H 2464.9 0.0855006 0.732024 0
M  V30 25893 H 2467.54 0.887936 1.67975 0
M  V30 25894 H 2465.69 -0.266792 3.87583 0
M  V30 25895 H 2467.36 2.34107 3.97482 0
M  V30 25896 H 2465.61 2.26103 3.70216 0
M  V30 25897 H 2466.28 1.72211 5.24449 0
M  V30 25898 H 2468.75 0.130108 4.15897 0
M  V30 25899 H 2467.63 -0.272836 5.48222 0
M  V30 25900 H 2467.89 -1.42727 4.18427 0
M  V30 25901 N 2466.95 -1.51228 0.443603 0
M  V30 25902 C 2468.18 -2.06556 -0.119253 0
M  V30 25903 C 2468.59 -1.3104 -1.35919 0
M  V30 25904 O 2467.95 -0.371736 -1.78674 0
M  V30 25905 C 2468 -3.58871 -0.435165 0
M  V30 25906 O 2467.72 -4.31535 0.755562 0
M  V30 25907 C 2469.22 -4.30734 -1.04801 0
M  V30 25908 H 2466.44 -0.67098 -0.0051466 0
M  V30 25909 H 2468.99 -1.94732 0.624487 0
M  V30 25910 H 2467.14 -3.7059 -1.12881 0
M  V30 25911 H 2467.55 -5.22266 0.483582 0
M  V30 25912 H 2469.03 -5.38372 -1.21901 0
M  V30 25913 H 2469.51 -3.89432 -2.03074 0
M  V30 25914 H 2470.11 -4.23475 -0.393562 0
M  V30 25915 N 2468.43 -0.175182 -1.56623 0
M  V30 25916 C 2469.7 0.51534 -1.88689 0
M  V30 25917 C 2470.08 1.81042 -1.08567 0
M  V30 25918 O 2469.43 2.27784 -0.180743 0
M  V30 25919 C 2469.64 0.753492 -3.40769 0
M  V30 25920 C 2470.99 1.08177 -4.10588 0
M  V30 25921 O 2472.01 0.8419 -3.46108 0
M  V30 25922 O 2470.87 1.5345 -5.24514 0
M  V30 25923 H 2467.97 0.266116 -0.783014 0
M  V30 25924 H 2470.51 -0.213907 -1.68346 0
M  V30 25925 H 2469.28 -0.161898 -3.90965 0
M  V30 25926 H 2468.91 1.53592 -3.66736 0
M  V30 25927 N 2469.91 1.57292 0.0985263 0
M  V30 25928 C 2471.14 1.89841 0.815101 0
M  V30 25929 C 2471.54 0.76671 1.72969 0
M  V30 25930 O 2470.89 -0.270451 1.81698 0
M  V30 25931 C 2470.95 3.17611 1.68415 0
M  V30 25932 C 2470.61 4.47191 0.941742 0
M  V30 25933 C 2471.61 5.19182 0.273121 0
M  V30 25934 C 2469.29 4.93862 0.91684 0
M  V30 25935 C 2471.29 6.36077 -0.410472 0
M  V30 25936 C 2468.98 6.10669 0.22946 0
M  V30 25937 C 2469.97 6.81626 -0.433022 0
M  V30 25938 O 2469.66 7.96208 -1.10939 0
M  V30 25939 H 2469.39 0.632533 0.23849 0
M  V30 25940 H 2471.95 2.05239 0.0812299 0
M  V30 25941 H 2470.18 2.9835 2.46017 0
M  V30 25942 H 2471.87 3.36019 2.27698 0
M  V30 25943 H 2472.63 4.84169 0.283841 0
M  V30 25944 H 2468.51 4.38523 1.42193 0
M  V30 25945 H 2472.06 6.91398 -0.928135 0
M  V30 25946 H 2467.95 6.45137 0.216573 0
M  V30 25947 H 2468.72 8.12171 -1.01594 0
M  V30 25948 N 2471.38 -0.369261 1.53213 0
M  V30 25949 C 2472.63 -1.11009 1.68883 0
M  V30 25950 C 2472.95 -1.8994 0.441319 0
M  V30 25951 O 2472.22 -1.88178 -0.54459 0
M  V30 25952 H 2470.8 -0.412805 0.622576 0
M  V30 25953 H 2473.46 -0.416768 1.90392 0
M  V30 25954 H 2472.56 -1.80196 2.54825 0
M  V30 25955 N 2472.86 -1.4451 -0.628851 0
M  V30 25956 C 2474.11 -1.47413 -1.38837 0
M  V30 25957 C 2474.44 -0.107604 -1.94202 0
M  V30 25958 O 2473.69 0.890916 -1.74245 0
M  V30 25959 C 2473.99 -2.48375 -2.56991 0
M  V30 25960 C 2473.66 -3.93643 -2.19901 0
M  V30 25961 C 2472.32 -4.33202 -2.09498 0
M  V30 25962 C 2474.67 -4.85086 -1.90632 0
M  V30 25963 C 2472 -5.62127 -1.68018 0
M  V30 25964 C 2474.35 -6.14401 -1.50644 0
M  V30 25965 C 2473.01 -6.52913 -1.38785 0
M  V30 25966 H 2472.28 -0.539423 -0.508039 0
M  V30 25967 H 2474.93 -1.77736 -0.712881 0
M  V30 25968 H 2473.24 -2.11544 -3.29782 0
M  V30 25969 H 2474.93 -2.47867 -3.15219 0
M  V30 25970 H 2471.52 -3.62347 -2.28916 0
M  V30 25971 H 2475.71 -4.55277 -1.97577 0
M  V30 25972 H 2470.96 -5.90781 -1.57442 0
M  V30 25973 H 2475.14 -6.84715 -1.27036 0
M  V30 25974 H 2472.76 -7.52715 -1.06416 0
M  V30 25975 N 2474.34 0.869463 -1.31446 0
M  V30 25976 C 2475.27 1.99259 -1.2173 0
M  V30 25977 C 2476.25 1.69779 -0.104389 0
M  V30 25978 O 2477.44 1.92036 -0.289072 0
M  V30 25979 C 2474.57 3.34772 -0.924376 0
M  V30 25980 C 2473.52 3.78559 -1.99692 0
M  V30 25981 C 2472.85 5.11539 -1.55667 0
M  V30 25982 C 2474.15 3.95613 -3.4101 0
M  V30 25983 H 2475.84 2.07645 -2.15694 0
M  V30 25984 H 2473.39 0.997657 -1.0384 0
M  V30 25985 H 2475.34 4.12882 -0.843006 0
M  V30 25986 H 2474.06 3.2656 0.0509219 0
M  V30 25987 H 2472.72 3.02691 -2.06819 0
M  V30 25988 H 2472.37 4.99769 -0.569219 0
M  V30 25989 H 2472.07 5.41807 -2.27419 0
M  V30 25990 H 2473.59 5.92157 -1.48939 0
M  V30 25991 H 2475.01 4.64116 -3.36555 0
M  V30 25992 H 2473.4 4.37279 -4.10983 0
M  V30 25993 H 2474.47 2.98979 -3.81759 0
M  V30 25994 N 2475.82 1.14415 1.08383 0
M  V30 25995 C 2476.77 0.826926 2.17404 0
M  V30 25996 C 2477.76 -0.195283 1.68271 0
M  V30 25997 O 2478.97 -0.0513575 1.79927 0
M  V30 25998 H 2475.34 0.249693 0.709336 0
M  V30 25999 H 2477.31 1.7543 2.41385 0
M  V30 26000 C 2476.06 0.32104 3.46215 0
M  V30 26001 H 2475.38 1.09897 3.84399 0
M  V30 26002 H 2476.82 0.137624 4.23777 0
M  V30 26003 C 2475.28 -0.955415 3.23069 0
M  V30 26004 O 2475.81 -2.02912 3.46684 0
M  V30 26005 N 2474.02 -0.89075 2.76612 0
M  V30 26006 H 2473.57 -0.0168362 2.57594 0
M  V30 26007 H 2473.52 -1.74537 2.61504 0
M  V30 26008 N 2477.3 -1.26549 0.939309 0
M  V30 26009 C 2478.23 -2.28821 0.465084 0
M  V30 26010 C 2479.21 -1.63168 -0.480663 0
M  V30 26011 O 2480.39 -1.90387 -0.382921 0
M  V30 26012 C 2477.52 -3.46231 -0.27228 0
M  V30 26013 C 2476.48 -4.23959 0.586734 0
M  V30 26014 C 2475.8 -5.33964 -0.280479 0
M  V30 26015 C 2477.1 -4.88168 1.85713 0
M  V30 26016 H 2478.8 -2.68739 1.31984 0
M  V30 26017 H 2476.34 -1.2919 0.636084 0
M  V30 26018 H 2478.29 -4.16887 -0.61506 0
M  V30 26019 H 2477.02 -3.05262 -1.16116 0
M  V30 26020 H 2475.68 -3.55065 0.912383 0
M  V30 26021 H 2475.33 -4.89236 -1.16865 0
M  V30 26022 H 2475.03 -5.8688 0.290863 0
M  V30 26023 H 2476.55 -6.07459 -0.618571 0
M  V30 26024 H 2477.96 -5.51049 1.5817 0
M  V30 26025 H 2476.36 -5.51193 2.37289 0
M  V30 26026 H 2477.43 -4.11215 2.56964 0
M  V30 26027 N 2478.77 -0.706118 -1.40896 0
M  V30 26028 C 2480.02 -0.241089 -2.00657 0
M  V30 26029 C 2480.34 1.16676 -1.56243 0
M  V30 26030 O 2479.61 1.78924 -0.797681 0
M  V30 26031 H 2478.19 -0.0861438 -0.742016 0
M  V30 26032 H 2480.85 -0.909635 -1.72371 0
M  V30 26033 H 2479.95 -0.266759 -3.10958 0
M  V30 26034 N 2480.25 1.50991 -0.451617 0
M  V30 26035 C 2481.5 2.01801 0.109821 0
M  V30 26036 C 2481.82 1.33692 1.41956 0
M  V30 26037 O 2481.09 0.475984 1.90029 0
M  V30 26038 H 2479.67 0.745728 0.0435753 0
M  V30 26039 H 2482.33 1.85512 -0.59759 0
M  V30 26040 H 2481.43 3.10882 0.275434 0
M  V30 26041 N 2481.73 0.183486 1.56528 0
M  V30 26042 C 2482.96 -0.46425 2.01624 0
M  V30 26043 C 2483.37 -1.55985 1.06368 0
M  V30 26044 O 2482.73 -1.82379 0.0665718 0
M  V30 26045 C 2482.78 -1.03133 3.46476 0
M  V30 26046 O 2482.5 0.0205445 4.38095 0
M  V30 26047 C 2484 -1.75609 4.07033 0
M  V30 26048 H 2481.22 -0.117692 0.660598 0
M  V30 26049 H 2483.77 0.288786 2.02451 0
M  V30 26050 H 2481.92 -1.7348 3.46386 0
M  V30 26051 H 2482.34 -0.39986 5.22974 0
M  V30 26052 H 2483.81 -2.10533 5.10274 0
M  V30 26053 H 2484.29 -2.65557 3.49823 0
M  V30 26054 H 2484.89 -1.09875 4.10862 0
M  V30 26055 N 2483.21 -1.57342 -0.0901833 0
M  V30 26056 C 2484.62 -1.75236 -0.644142 0
M  V30 26057 C 2484.97 -0.806367 -1.78864 0
M  V30 26058 O 2484.09 0.0139747 -2.16395 0
M  V30 26059 C 2484.69 -3.17762 -1.17527 0
M  V30 26060 C 2483.25 -3.37064 -1.67525 0
M  V30 26061 C 2482.4 -2.71018 -0.586882 0
M  V30 26062 H 2485.35 -1.58117 0.135912 0
M  V30 26063 H 2485.37 -3.20906 -2.0445 0
M  V30 26064 H 2484.88 -3.8659 -0.34207 0
M  V30 26065 H 2482.98 -2.73324 -2.53229 0
M  V30 26066 H 2483.09 -4.45409 -1.76486 0
M  V30 26067 H 2481.46 -2.33054 -1.02752 0
M  V30 26068 H 2482.24 -3.42489 0.235818 0
M  V30 26069 N 2484.69 0.36113 -1.53407 0
M  V30 26070 C 2485.91 1.1238 -1.73719 0
M  V30 26071 C 2486.33 1.82903 -0.468193 0
M  V30 26072 O 2485.69 1.73723 0.559167 0
M  V30 26073 C 2485.74 2.15073 -2.90561 0
M  V30 26074 O 2485.46 1.47421 -4.12551 0
M  V30 26075 C 2486.96 3.03852 -3.22783 0
M  V30 26076 H 2484.18 0.335848 -0.580902 0
M  V30 26077 H 2486.72 0.418693 -2.00168 0
M  V30 26078 H 2484.88 2.81175 -2.66494 0
M  V30 26079 H 2485.29 2.15879 -4.78013 0
M  V30 26080 H 2486.77 3.7188 -4.07933 0
M  V30 26081 H 2487.24 3.68908 -2.38335 0
M  V30 26082 H 2487.85 2.43361 -3.48792 0
M  V30 26083 N 2486.16 1.44842 0.621179 0
M  V30 26084 C 2487.11 1.52473 1.73265 0
M  V30 26085 C 2488.08 0.37164 1.61889 0
M  V30 26086 O 2489.27 0.583242 1.81667 0
M  V30 26087 C 2486.41 1.48443 3.11542 0
M  V30 26088 C 2485.52 2.74202 3.33822 0
M  V30 26089 C 2484.65 2.61937 4.62128 0
M  V30 26090 C 2483.69 3.82812 4.7762 0
M  V30 26091 N 2482.83 3.69164 5.97212 0
M  V30 26092 H 2487.67 2.47431 1.66078 0
M  V30 26093 H 2485.21 1.2279 0.810005 0
M  V30 26094 H 2487.17 1.44097 3.91525 0
M  V30 26095 H 2485.8 0.570458 3.17719 0
M  V30 26096 H 2484.85 2.88694 2.4771 0
M  V30 26097 H 2486.16 3.63896 3.41146 0
M  V30 26098 H 2485.31 2.5548 5.50286 0
M  V30 26099 H 2484.05 1.69819 4.57179 0
M  V30 26100 H 2483.06 3.89644 3.87889 0
M  V30 26101 H 2484.28 4.75979 4.84376 0
M  V30 26102 H 2482.23 2.79805 5.93334 0
M  V30 26103 H 2482.15 4.52483 6.05636 0
M  V30 26104 H 2483.41 3.66615 6.87905 0
M  V30 26105 N 2487.64 -0.862479 1.31905 0
M  V30 26106 C 2489.06 -1.14943 1.10726 0
M  V30 26107 C 2489.26 -2.01158 -0.117386 0
M  V30 26108 O 2488.31 -2.39339 -0.804553 0
M  V30 26109 C 2489.63 -1.83433 2.38271 0
M  V30 26110 C 2491.18 -1.96102 2.43953 0
M  V30 26111 C 2491.65 -2.68006 3.71398 0
M  V30 26112 N 2493.14 -2.75537 3.72335 0
M  V30 26113 C 2493.88 -3.31804 4.67647 0
M  V30 26114 N 2493.37 -3.88943 5.7332 0
M  V30 26115 N 2495.17 -3.29833 4.55156 0
M  V30 26116 H 2487.32 -0.288154 2.10436 0
M  V30 26117 H 2489.58 -0.190275 0.928708 0
M  V30 26118 H 2489.29 -1.27536 3.27761 0
M  V30 26119 H 2489.16 -2.83653 2.48638 0
M  V30 26120 H 2491.55 -2.51161 1.54926 0
M  V30 26121 H 2491.63 -0.949017 2.37544 0
M  V30 26122 H 2491.27 -2.13613 4.60795 0
M  V30 26123 H 2491.2 -3.69629 3.75076 0
M  V30 26124 H 2493.69 -2.34992 2.95951 0
M  V30 26125 H 2494.01 -4.30011 6.42114 0
M  V30 26126 H 2492.35 -3.87297 5.77084 0
M  V30 26127 H 2495.54 -2.84436 3.71771 0
M  V30 26128 H 2495.71 -3.73385 5.29611 0
M  V30 26129 N 2489.12 -1.14988 -1.07775 0
M  V30 26130 C 2490.05 -0.78628 -2.14226 0
M  V30 26131 C 2491.03 0.235319 -1.60888 0
M  V30 26132 O 2492.22 0.122876 -1.88099 0
M  V30 26133 C 2489.34 -0.168493 -3.38281 0
M  V30 26134 C 2488.39 -1.1613 -4.10385 0
M  V30 26135 S 2489.22 -2.70143 -4.62367 0
M  V30 26136 C 2490.38 -2.09772 -5.897 0
M  V30 26137 H 2490.61 -1.68791 -2.44738 0
M  V30 26138 H 2488.14 -0.971778 -1.19983 0
M  V30 26139 H 2490.1 0.181515 -4.10098 0
M  V30 26140 H 2488.76 0.710671 -3.05955 0
M  V30 26141 H 2487.96 -0.677174 -4.9943 0
M  V30 26142 H 2487.56 -1.45562 -3.44511 0
M  V30 26143 H 2489.85 -1.45713 -6.61645 0
M  V30 26144 H 2490.79 -2.96966 -6.42819 0
M  V30 26145 H 2491.2 -1.54248 -5.43017 0
M  V30 26146 N 2490.6 1.26049 -0.946007 0
M  V30 26147 C 2491.53 2.28572 -0.477212 0
M  V30 26148 C 2492.51 1.6342 0.472003 0
M  V30 26149 O 2493.69 1.90588 0.372819 0
M  V30 26150 C 2490.82 3.46371 0.253914 0
M  V30 26151 C 2489.78 4.23642 -0.60921 0
M  V30 26152 C 2489.1 5.34105 0.252158 0
M  V30 26153 C 2490.4 4.87176 -1.88299 0
M  V30 26154 H 2492.1 2.68035 -1.33407 0
M  V30 26155 H 2489.64 1.28851 -0.642926 0
M  V30 26156 H 2491.6 4.17208 0.592942 0
M  V30 26157 H 2490.32 3.05873 1.14495 0
M  V30 26158 H 2488.98 3.54576 -0.9312 0
M  V30 26159 H 2488.63 4.89848 1.14269 0
M  V30 26160 H 2488.33 5.86717 -0.321983 0
M  V30 26161 H 2489.85 6.07778 0.586347 0
M  V30 26162 H 2491.27 5.50202 -1.61091 0
M  V30 26163 H 2489.66 5.49927 -2.40209 0
M  V30 26164 H 2490.73 4.09846 -2.59141 0
M  V30 26165 N 2492.08 0.71358 1.4052 0
M  V30 26166 C 2493.01 0.00885434 2.28198 0
M  V30 26167 C 2493.99 -0.76971 1.43228 0
M  V30 26168 O 2495.17 -0.756769 1.72642 0
M  V30 26169 C 2492.3 -0.994842 3.2376 0
M  V30 26170 C 2491.34 -0.307325 4.25391 0
M  V30 26171 S 2492.18 0.96334 5.26764 0
M  V30 26172 C 2493.33 -0.0383043 6.25888 0
M  V30 26173 H 2493.57 0.752457 2.8762 0
M  V30 26174 H 2491.1 0.504527 1.45924 0
M  V30 26175 H 2493.06 -1.56872 3.79343 0
M  V30 26176 H 2491.72 -1.71114 2.63399 0
M  V30 26177 H 2490.91 -1.06601 4.92597 0
M  V30 26178 H 2490.51 0.193944 3.73497 0
M  V30 26179 H 2492.81 -0.885794 6.71684 0
M  V30 26180 H 2493.75 0.600314 7.05551 0
M  V30 26181 H 2494.16 -0.401134 5.63073 0
M  V30 26182 N 2493.55 -1.50749 0.459618 0
M  V30 26183 C 2494.78 -2.0716 -0.0996455 0
M  V30 26184 C 2495.2 -1.32251 -1.33758 0
M  V30 26185 O 2494.56 -0.366818 -1.7755 0
M  V30 26186 C 2494.61 -3.58612 -0.378163 0
M  V30 26187 O 2493.71 -3.85663 -1.46074 0
M  V30 26188 H 2493.06 -0.663953 0.00792559 0
M  V30 26189 H 2495.59 -1.94089 0.647363 0
M  V30 26190 H 2495.6 -4.0323 -0.622064 0
M  V30 26191 H 2494.27 -4.12554 0.526512 0
M  V30 26192 H 2492.85 -3.52892 -1.20505 0
M  V30 26193 N 2495.03 -0.191784 -1.56429 0
M  V30 26194 C 2495.98 0.747135 -2.20274 0
M  V30 26195 C 2496.97 1.22227 -1.1729 0
M  V30 26196 O 2498.18 1.18555 -1.35443 0
M  V30 26197 H 2494.56 0.259277 -0.705889 0
M  V30 26198 H 2496.53 0.184911 -2.97827 0
M  V30 26199 C 2495.28 1.95754 -2.8736 0
M  V30 26200 H 2494.6 1.601 -3.66344 0
M  V30 26201 H 2496.04 2.59294 -3.35474 0
M  V30 26202 C 2494.5 2.7942 -1.88218 0
M  V30 26203 O 2495.03 3.77237 -1.3804 0
M  V30 26204 N 2493.23 2.44846 -1.56521 0
M  V30 26205 H 2492.78 1.6536 -1.97519 0
M  V30 26206 H 2492.74 3.01111 -0.904422 0
M  V30 26207 N 2496.51 1.57387 0.0818378 0
M  V30 26208 C 2497.76 1.86754 0.782882 0
M  V30 26209 C 2498.09 0.782149 1.78081 0
M  V30 26210 O 2497.34 -0.222916 1.94426 0
M  V30 26211 C 2497.64 3.22754 1.53507 0
M  V30 26212 C 2497.31 4.45773 0.678056 0
M  V30 26213 C 2495.97 4.79167 0.441845 0
M  V30 26214 C 2498.32 5.21134 0.0831327 0
M  V30 26215 C 2495.65 5.85342 -0.398936 0
M  V30 26216 C 2498 6.28197 -0.745045 0
M  V30 26217 C 2496.66 6.60099 -0.991223 0
M  V30 26218 H 2495.93 0.683383 0.286477 0
M  V30 26219 H 2498.58 1.9145 0.0439472 0
M  V30 26220 H 2496.89 3.13804 2.34594 0
M  V30 26221 H 2498.58 3.42708 2.08212 0
M  V30 26222 H 2495.17 4.1963 0.872283 0
M  V30 26223 H 2499.36 4.95656 0.25276 0
M  V30 26224 H 2494.61 6.08463 -0.598512 0
M  V30 26225 H 2498.79 6.85758 -1.21283 0
M  V30 26226 H 2496.41 7.42199 -1.6445 0
M  V30 26227 N 2497.99 -0.35299 1.53596 0
M  V30 26228 C 2499.4 -0.929124 1.61939 0
M  V30 26229 C 2499.75 -1.8986 0.494719 0
M  V30 26230 O 2498.88 -2.13091 -0.376979 0
M  V30 26231 C 2499.47 -1.69193 2.93529 0
M  V30 26232 C 2498.03 -2.21722 3.04165 0
M  V30 26233 C 2497.18 -1.03344 2.57323 0
M  V30 26234 H 2500.13 -0.131403 1.58155 0
M  V30 26235 H 2500.15 -2.55411 2.82038 0
M  V30 26236 H 2499.66 -0.986078 3.75364 0
M  V30 26237 H 2497.76 -2.95512 2.26944 0
M  V30 26238 H 2497.87 -2.48741 4.09469 0
M  V30 26239 H 2496.24 -1.4041 2.12502 0
M  V30 26240 H 2497.02 -0.342368 3.41589 0
M  V30 26241 N 2499.47 -1.45169 -0.613489 0
M  V30 26242 C 2500.7 -1.52393 -1.39943 0
M  V30 26243 C 2501.11 -0.154564 -1.88166 0
M  V30 26244 O 2500.47 0.842815 -1.61873 0
M  V30 26245 C 2500.52 -2.50341 -2.6079 0
M  V30 26246 O 2500.24 -3.81956 -2.14573 0
M  V30 26247 C 2501.74 -2.67204 -3.53718 0
M  V30 26248 H 2498.96 -0.516292 -0.428584 0
M  V30 26249 H 2501.5 -1.90301 -0.74872 0
M  V30 26250 H 2499.66 -2.15521 -3.21915 0
M  V30 26251 H 2500.07 -4.34998 -2.93047 0
M  V30 26252 H 2501.55 -3.39729 -4.35073 0
M  V30 26253 H 2502.02 -1.73036 -4.03677 0
M  V30 26254 H 2502.63 -3.02997 -2.9845 0
M  V30 26255 N 2500.95 0.855472 -1.32361 0
M  V30 26256 C 2502.36 1.14355 -1.11334 0
M  V30 26257 C 2502.56 2.01217 0.106716 0
M  V30 26258 O 2501.62 2.39762 0.791849 0
M  V30 26259 C 2502.93 1.82167 -2.3924 0
M  V30 26260 C 2504.48 1.94805 -2.44989 0
M  V30 26261 C 2504.95 2.66033 -3.72814 0
M  V30 26262 N 2506.44 2.73558 -3.73791 0
M  V30 26263 C 2507.18 3.29319 -4.694 0
M  V30 26264 N 2506.68 3.85897 -5.75374 0
M  V30 26265 N 2508.47 3.27415 -4.56898 0
M  V30 26266 H 2500.62 0.27699 -2.10586 0
M  V30 26267 H 2502.88 0.185348 -0.929704 0
M  V30 26268 H 2502.59 1.25796 -3.28433 0
M  V30 26269 H 2502.46 2.8233 -2.50139 0
M  V30 26270 H 2504.85 2.50336 -1.56256 0
M  V30 26271 H 2504.93 0.936406 -2.38044 0
M  V30 26272 H 2504.57 2.11166 -4.61921 0
M  V30 26273 H 2504.5 3.67635 -3.7703 0
M  V30 26274 H 2507 2.33419 -2.97193 0
M  V30 26275 H 2507.31 4.26599 -6.44386 0
M  V30 26276 H 2505.65 3.84232 -5.7913 0
M  V30 26277 H 2508.84 2.82461 -3.73274 0
M  V30 26278 H 2509.02 3.70571 -5.31584 0
M  V30 26279 N 2502.42 1.15558 1.07164 0
M  V30 26280 C 2503.39 0.856682 2.12588 0
M  V30 26281 C 2504.39 -0.144411 1.6015 0
M  V30 26282 O 2505.58 0.0854469 1.7399 0
M  V30 26283 C 2502.71 0.279465 3.39753 0
M  V30 26284 H 2503.9 1.79116 2.40536 0
M  V30 26285 H 2501.45 0.96332 1.23085 0
M  V30 26286 H 2502.19 -0.663119 3.17448 0
M  V30 26287 H 2501.97 1.0007 3.79115 0
M  V30 26288 H 2503.46 0.0879847 4.17507 0
M  V30 26289 N 2503.9 -1.25546 0.952678 0
M  V30 26290 C 2505.15 -1.92825 0.605209 0
M  V30 26291 C 2505.47 -1.75 -0.860231 0
M  V30 26292 O 2504.74 -1.11247 -1.61248 0
M  V30 26293 H 2503.32 -0.713608 0.220844 0
M  V30 26294 H 2505.98 -1.52751 1.2105 0
M  V30 26295 H 2505.08 -3.00782 0.832851 0
M  V30 26296 N 2505.38 -0.721022 -1.40139 0
M  V30 26297 C 2506.31 -0.0325072 -2.29177 0
M  V30 26298 C 2507.32 0.7181 -1.46107 0
M  V30 26299 O 2508.51 0.564578 -1.69336 0
M  V30 26300 C 2505.61 0.978235 -3.24475 0
M  V30 26301 C 2504.79 0.292039 -4.36424 0
M  V30 26302 C 2503.85 1.20892 -5.12124 0
M  V30 26303 O 2502.87 0.691667 -5.64982 0
M  V30 26304 N 2504.07 2.53969 -5.21996 0
M  V30 26305 H 2506.84 -0.797035 -2.88907 0
M  V30 26306 H 2504.4 -0.569094 -1.51568 0
M  V30 26307 H 2506.39 1.59391 -3.7199 0
M  V30 26308 H 2504.96 1.64408 -2.65874 0
M  V30 26309 H 2504.18 -0.503916 -3.90966 0
M  V30 26310 H 2505.47 -0.184061 -5.08467 0
M  V30 26311 H 2504.87 2.98484 -4.80545 0
M  V30 26312 H 2503.42 3.10667 -5.73 0
M  V30 26313 N 2506.86 1.50503 -0.467606 0
M  V30 26314 C 2508.1 2.04213 0.0873755 0
M  V30 26315 C 2508.46 1.34213 1.37298 0
M  V30 26316 O 2509.66 1.78459 2.01012 0
M  V30 26317 C 2507.93 3.56375 0.270508 0
M  V30 26318 S 2509.49 4.31729 0.784547 0
M  V30 26319 H 2506.31 0.710782 0.0176028 0
M  V30 26320 H 2508.91 1.84936 -0.633947 0
M  V30 26321 H 2507.62 4.04877 -0.671013 0
M  V30 26322 H 2507.15 3.79999 1.01805 0
M  V30 26323 H 2509.16 4.51491 2.05841 0
M  V30 26324 N 2508.34 0.200077 1.56325 0
M  V30 26325 C 2509.58 -0.436513 1.9733 0
M  V30 26326 C 2509.9 -1.61806 1.08829 0
M  V30 26327 O 2509.17 -1.9524 0.160638 0
M  V30 26328 H 2507.75 -0.164259 0.728717 0
M  V30 26329 H 2510.42 0.287971 1.92761 0
M  V30 26330 H 2509.51 -0.777299 3.02266 0
M  V30 26331 N 2509.81 -1.57429 -0.0734901 0
M  V30 26332 C 2511.06 -1.86797 -0.77144 0
M  V30 26333 C 2511.38 -0.791835 -1.78199 0
M  V30 26334 O 2510.65 0.179684 -1.95074 0
M  V30 26335 H 2509.23 -0.689292 -0.287898 0
M  V30 26336 H 2511.89 -1.94836 -0.0499818 0
M  V30 26337 H 2510.99 -2.84252 -1.28869 0
M  V30 26338 N 2511.29 0.344839 -1.53781 0
M  V30 26339 C 2512.54 1.08684 -1.71218 0
M  V30 26340 C 2512.87 1.88344 -0.473314 0
M  V30 26341 O 2512.15 1.8715 0.529647 0
M  V30 26342 C 2512.43 2.02909 -2.97489 0
M  V30 26343 C 2512.28 1.2672 -4.31581 0
M  V30 26344 C 2513.6 3.02745 -3.19427 0
M  V30 26345 H 2510.72 0.393724 -0.623017 0
M  V30 26346 H 2513.36 0.36553 -1.86451 0
M  V30 26347 H 2511.51 2.64416 -2.84634 0
M  V30 26348 H 2513.18 0.67837 -4.56285 0
M  V30 26349 H 2511.43 0.569197 -4.3005 0
M  V30 26350 H 2512.1 1.95793 -5.16109 0
M  V30 26351 H 2514.57 2.51351 -3.31605 0
M  V30 26352 H 2513.45 3.65878 -4.09176 0
M  V30 26353 H 2513.71 3.74053 -2.35663 0
M  V30 26354 N 2512.77 1.45492 0.605781 0
M  V30 26355 C 2513.7 1.57146 1.72706 0
M  V30 26356 C 2514.68 0.422913 1.64759 0
M  V30 26357 O 2515.87 0.646279 1.83131 0
M  V30 26358 C 2513 1.53953 3.11313 0
M  V30 26359 C 2511.95 2.67543 3.34073 0
M  V30 26360 C 2511.28 2.49405 4.72971 0
M  V30 26361 C 2512.58 4.09541 3.24151 0
M  V30 26362 H 2514.27 2.51004 1.6321 0
M  V30 26363 H 2511.82 1.20802 0.783769 0
M  V30 26364 H 2513.77 1.60703 3.89554 0
M  V30 26365 H 2512.49 0.566261 3.21654 0
M  V30 26366 H 2511.15 2.60225 2.58222 0
M  V30 26367 H 2510.8 1.50213 4.80047 0
M  V30 26368 H 2510.5 3.25579 4.89154 0
M  V30 26369 H 2512.02 2.58011 5.5341 0
M  V30 26370 H 2513.44 4.18093 3.92264 0
M  V30 26371 H 2511.83 4.86119 3.51863 0
M  V30 26372 H 2512.9 4.31321 2.21563 0
M  V30 26373 N 2514.25 -0.848441 1.32813 0
M  V30 26374 C 2515.18 -1.9616 1.16604 0
M  V30 26375 C 2516.16 -1.62474 0.063914 0
M  V30 26376 O 2517.34 -1.8716 0.22438 0
M  V30 26377 C 2514.47 -3.29444 0.786391 0
M  V30 26378 C 2513.52 -3.82106 1.89465 0
M  V30 26379 S 2514.35 -4.04943 3.50402 0
M  V30 26380 C 2515.51 -5.41192 3.14423 0
M  V30 26381 H 2515.74 -2.09608 2.10836 0
M  V30 26382 H 2513.27 -1.00113 1.17545 0
M  V30 26383 H 2515.23 -4.06465 0.574116 0
M  V30 26384 H 2513.89 -3.138 -0.137163 0
M  V30 26385 H 2513.08 -4.78523 1.58215 0
M  V30 26386 H 2512.69 -3.11949 2.0631 0
M  V30 26387 H 2514.98 -6.23671 2.64653 0
M  V30 26388 H 2515.92 -5.77409 4.09884 0
M  V30 26389 H 2516.33 -5.05491 2.51275 0
M  V30 26390 N 2515.73 -1.16125 -1.06549 0
M  V30 26391 C 2516.95 -0.965767 -1.83542 0
M  V30 26392 C 2517.38 0.48107 -1.81844 0
M  V30 26393 O 2516.73 1.34352 -1.21735 0
M  V30 26394 C 2516.78 -1.49462 -3.28167 0
M  V30 26395 O 2515.89 -0.699228 -4.06429 0
M  V30 26396 H 2515.23 -0.343874 -0.56802 0
M  V30 26397 H 2517.76 -1.54301 -1.34359 0
M  V30 26398 H 2517.77 -1.51098 -3.7899 0
M  V30 26399 H 2516.44 -2.5479 -3.28717 0
M  V30 26400 H 2515.02 -0.753164 -3.65215 0
M  V30 26401 N 2517.2 1.25039 -0.959323 0
M  V30 26402 C 2518.43 1.96947 -0.633984 0
M  V30 26403 C 2518.85 1.71251 0.794886 0
M  V30 26404 O 2518.2 0.991314 1.53229 0
M  V30 26405 C 2518.26 3.50402 -0.888866 0
M  V30 26406 O 2517.98 3.75214 -2.26156 0
M  V30 26407 C 2519.48 4.39535 -0.57656 0
M  V30 26408 H 2516.7 0.627648 -0.237274 0
M  V30 26409 H 2519.24 1.59087 -1.28498 0
M  V30 26410 H 2517.4 3.86356 -0.284213 0
M  V30 26411 H 2517.81 4.69646 -2.33523 0
M  V30 26412 H 2519.28 5.46093 -0.80541 0
M  V30 26413 H 2519.76 4.36469 0.488998 0
M  V30 26414 H 2520.37 4.09154 -1.16074 0
M  V30 26415 N 2518.68 0.728444 1.39755 0
M  V30 26416 C 2519.93 0.272982 2.00248 0
M  V30 26417 C 2520.25 -1.14175 1.58079 0
M  V30 26418 O 2519.52 -1.77632 0.826046 0
M  V30 26419 H 2518.1 0.0979377 0.740552 0
M  V30 26420 H 2520.76 0.936942 1.70902 0
M  V30 26421 H 2519.86 0.316196 3.10494 0
M  V30 26422 N 2520.16 -1.50253 0.475581 0
M  V30 26423 C 2521.11 -2.28623 -0.316253 0
M  V30 26424 C 2522.08 -1.33874 -0.983203 0
M  V30 26425 O 2523.26 -1.62815 -0.994776 0
M  V30 26426 C 2520.4 -3.15882 -1.38969 0
M  V30 26427 C 2519.52 -4.25666 -0.737071 0
M  V30 26428 C 2518.65 -5.00176 -1.78879 0
M  V30 26429 C 2517.69 -6.01828 -1.11665 0
M  V30 26430 N 2516.83 -6.696 -2.11142 0
M  V30 26431 H 2521.67 -2.95838 0.358349 0
M  V30 26432 H 2519.2 -1.45886 0.188566 0
M  V30 26433 H 2521.16 -3.64828 -2.02376 0
M  V30 26434 H 2519.79 -2.50704 -2.0334 0
M  V30 26435 H 2518.84 -3.80399 0.00967337 0
M  V30 26436 H 2520.16 -4.98371 -0.206729 0
M  V30 26437 H 2519.31 -5.52863 -2.49855 0
M  V30 26438 H 2518.05 -4.27186 -2.35294 0
M  V30 26439 H 2517.05 -5.48397 -0.392537 0
M  V30 26440 H 2518.28 -6.76793 -0.559331 0
M  V30 26441 H 2516.22 -5.99398 -2.66566 0
M  V30 26442 H 2516.14 -7.38196 -1.63105 0
M  V30 26443 H 2517.41 -7.26902 -2.81485 0
M  V30 26444 N 2521.64 -0.208365 -1.56217 0
M  V30 26445 C 2522.88 0.427517 -1.98243 0
M  V30 26446 C 2523.22 1.60346 -1.09557 0
M  V30 26447 O 2522.49 1.93918 -0.150384 0
M  V30 26448 C 2522.78 0.874845 -3.49311 0
M  V30 26449 C 2522.63 -0.30383 -4.48773 0
M  V30 26450 C 2523.95 1.7357 -4.04427 0
M  V30 26451 H 2521.07 0.153924 -0.720747 0
M  V30 26452 H 2523.71 -0.301953 -1.87585 0
M  V30 26453 H 2521.86 1.49642 -3.58524 0
M  V30 26454 H 2523.53 -0.941762 -4.51584 0
M  V30 26455 H 2521.77 -0.953449 -4.23192 0
M  V30 26456 H 2522.44 0.0518912 -5.51976 0
M  V30 26457 H 2524.92 1.21136 -3.98077 0
M  V30 26458 H 2523.8 2.01762 -5.10474 0
M  V30 26459 H 2524.06 2.6945 -3.50499 0
M  V30 26460 N 2523.12 1.57465 0.0651402 0
M  V30 26461 C 2524.05 2.07184 1.0769 0
M  V30 26462 C 2525.03 0.966697 1.39961 0
M  V30 26463 O 2526.21 1.23982 1.49472 0
M  V30 26464 C 2523.34 2.52131 2.38845 0
M  V30 26465 C 2522.3 3.66582 2.2091 0
M  V30 26466 C 2521.62 3.97608 3.57508 0
M  V30 26467 C 2522.92 4.96383 1.62485 0
M  V30 26468 H 2524.62 2.91964 0.663148 0
M  V30 26469 H 2522.16 1.40455 0.317544 0
M  V30 26470 H 2524.12 2.85528 3.09923 0
M  V30 26471 H 2522.84 1.64389 2.82213 0
M  V30 26472 H 2521.5 3.33479 1.52273 0
M  V30 26473 H 2521.15 3.06986 3.98458 0
M  V30 26474 H 2520.85 4.74678 3.46345 0
M  V30 26475 H 2522.37 4.33506 4.30006 0
M  V30 26476 H 2523.78 5.27967 2.23435 0
M  V30 26477 H 2522.18 5.7782 1.61999 0
M  V30 26478 H 2523.25 4.81334 0.586956 0
M  V30 26479 N 2524.59 -0.336679 1.53962 0
M  V30 26480 C 2525.84 -1.07402 1.71199 0
M  V30 26481 C 2526.16 -1.88962 0.481509 0
M  V30 26482 O 2525.43 -1.89291 -0.504552 0
M  V30 26483 H 2524.01 -0.399506 0.631192 0
M  V30 26484 H 2526.68 -0.37629 1.91233 0
M  V30 26485 H 2525.77 -1.74751 2.5859 0
M  V30 26486 N 2526.07 -1.45812 -0.598057 0
M  V30 26487 C 2527.32 -1.49596 -1.35292 0
M  V30 26488 C 2527.63 -0.145713 -1.95056 0
M  V30 26489 O 2528.84 -0.0612576 -2.71431 0
M  V30 26490 C 2527.3 -2.63523 -2.45119 0
M  V30 26491 C 2526.9 -4.04902 -1.91725 0
M  V30 26492 C 2528.65 -2.76563 -3.22045 0
M  V30 26493 C 2526.56 -5.10195 -2.99091 0
M  V30 26494 H 2525.49 -0.556687 -0.508542 0
M  V30 26495 H 2528.14 -1.71979 -0.639947 0
M  V30 26496 H 2526.52 -2.3444 -3.19145 0
M  V30 26497 H 2527.69 -4.43706 -1.24344 0
M  V30 26498 H 2526.01 -3.96395 -1.27515 0
M  V30 26499 H 2528.6 -3.52398 -4.02144 0
M  V30 26500 H 2528.95 -1.83533 -3.73659 0
M  V30 26501 H 2529.48 -3.05218 -2.55121 0
M  V30 26502 H 2526.22 -6.04966 -2.52382 0
M  V30 26503 H 2525.74 -4.75951 -3.65008 0
M  V30 26504 H 2527.42 -5.35365 -3.63309 0
M  V30 26505 N 2527.55 0.841385 -1.33261 0
M  V30 26506 C 2528.5 1.93943 -1.19876 0
M  V30 26507 C 2529.48 1.60574 -0.102297 0
M  V30 26508 O 2530.68 1.73894 -0.330144 0
M  V30 26509 C 2527.81 3.30249 -0.937575 0
M  V30 26510 C 2526.89 3.69795 -2.07636 0
M  V30 26511 N 2527.28 3.81056 -3.32611 0
M  V30 26512 C 2525.58 3.99516 -1.98249 0
M  V30 26513 C 2526.28 4.15326 -4.07283 0
M  V30 26514 N 2525.26 4.2756 -3.35699 0
M  V30 26515 H 2529.06 2.00801 -2.14607 0
M  V30 26516 H 2526.57 1.03396 -1.25232 0
M  V30 26517 H 2528.57 4.08704 -0.822617 0
M  V30 26518 H 2527.23 3.247 0.0012309 0
M  V30 26519 H 2528.24 3.65028 -3.67389 0
M  V30 26520 H 2524.92 4.02193 -1.12012 0
M  V30 26521 H 2526.31 4.31397 -5.15118 0
M  V30 26522 N 2529.03 1.16688 1.05932 0
M  V30 26523 C 2530.28 0.952062 1.79063 0
M  V30 26524 C 2530.61 -0.518597 1.87148 0
M  V30 26525 O 2529.88 -1.38481 1.36577 0
M  V30 26526 C 2530.17 1.58469 3.23357 0
M  V30 26527 C 2530.02 3.12694 3.2333 0
M  V30 26528 C 2531.34 1.2824 4.21002 0
M  V30 26529 H 2528.46 0.347292 0.650044 0
M  V30 26530 H 2531.1 1.44074 1.23866 0
M  V30 26531 H 2529.25 1.16915 3.7049 0
M  V30 26532 H 2530.92 3.63255 2.84329 0
M  V30 26533 H 2529.16 3.45834 2.6188 0
M  V30 26534 H 2529.84 3.52082 4.25138 0
M  V30 26535 H 2532.31 1.6421 3.82327 0
M  V30 26536 H 2531.19 1.75101 5.20222 0
M  V30 26537 H 2531.45 0.201869 4.41639 0
M  V30 26538 N 2530.51 -1.24529 0.96594 0
M  V30 26539 C 2531.76 -1.92173 0.625627 0
M  V30 26540 C 2532.08 -1.75903 -0.841621 0
M  V30 26541 O 2531.35 -1.12951 -1.60059 0
M  V30 26542 H 2529.93 -0.711226 0.228401 0
M  V30 26543 H 2532.59 -1.51459 1.22663 0
M  V30 26544 H 2531.68 -2.99882 0.864706 0
M  V30 26545 N 2531.99 -0.735845 -1.39367 0
M  V30 26546 C 2533.23 -0.283597 -2.001 0
M  V30 26547 C 2533.55 1.13335 -1.58682 0
M  V30 26548 O 2532.82 1.77192 -0.835454 0
M  V30 26549 H 2531.4 -0.101864 -0.740022 0
M  V30 26550 H 2534.07 -0.945992 -1.70402 0
M  V30 26551 H 2533.16 -0.332658 -3.10322 0
M  V30 26552 N 2533.46 1.49999 -0.483543 0
M  V30 26553 C 2534.41 2.30416 0.31802 0
M  V30 26554 C 2535.41 1.38249 0.978963 0
M  V30 26555 O 2536.61 1.55382 0.908645 0
M  V30 26556 H 2532.99 0.742135 0.121406 0
M  V30 26557 H 2534.96 2.95965 -0.380455 0
M  V30 26558 C 2533.71 3.19138 1.38008 0
M  V30 26559 H 2533.03 3.89975 0.880883 0
M  V30 26560 H 2534.47 3.78379 1.91326 0
M  V30 26561 C 2532.93 2.37567 2.3888 0
M  V30 26562 O 2533.46 2.0675 3.44409 0
M  V30 26563 N 2531.66 1.99914 2.10909 0
M  V30 26564 H 2531.21 2.25176 1.25114 0
M  V30 26565 H 2531.17 1.45641 2.78632 0
M  V30 26566 N 2534.94 0.216646 1.56104 0
M  V30 26567 C 2536.19 -0.415559 1.97781 0
M  V30 26568 C 2536.51 -1.60643 1.10539 0
M  V30 26569 O 2535.78 -1.95059 0.181337 0
M  V30 26570 H 2534.36 -0.156521 0.730418 0
M  V30 26571 H 2537.02 0.308399 1.92445 0
M  V30 26572 H 2536.12 -0.745196 3.03073 0
M  V30 26573 N 2536.42 -1.57498 -0.0567885 0
M  V30 26574 C 2537.37 -2.01167 -1.07311 0
M  V30 26575 C 2538.35 -0.896194 -1.33631 0
M  V30 26576 O 2539.55 -1.16012 -1.3368 0
M  V30 26577 C 2536.67 -2.47165 -2.38253 0
M  V30 26578 C 2535.76 -3.65478 -2.15143 0
M  V30 26579 N 2536.15 -4.79153 -1.62005 0
M  V30 26580 C 2534.45 -3.72317 -2.45552 0
M  V30 26581 C 2535.15 -5.60928 -1.54059 0
M  V30 26582 N 2534.13 -5.05216 -2.00643 0
M  V30 26583 H 2537.93 -2.86489 -0.655827 0
M  V30 26584 H 2535.44 -1.60246 -0.263607 0
M  V30 26585 H 2537.44 -2.76697 -3.11841 0
M  V30 26586 H 2536.1 -1.63237 -2.80685 0
M  V30 26587 H 2537.11 -5.01147 -1.30659 0
M  V30 26588 H 2533.79 -2.99134 -2.91248 0
M  V30 26589 H 2535.18 -6.6221 -1.13701 0
M  V30 26590 N 2537.9 0.328509 -1.54138 0
M  V30 26591 C 2538.83 1.42507 -1.79512 0
M  V30 26592 C 2539.84 1.4806 -0.676906 0
M  V30 26593 O 2541.03 1.50873 -0.953925 0
M  V30 26594 C 2538.13 2.81075 -1.89342 0
M  V30 26595 C 2537.3 2.98783 -3.19448 0
M  V30 26596 C 2536.36 4.17682 -3.20043 0
M  V30 26597 O 2535.39 4.11079 -3.93704 0
M  V30 26598 N 2536.59 5.26972 -2.43476 0
M  V30 26599 H 2539.36 1.21106 -2.74141 0
M  V30 26600 H 2536.92 0.518472 -1.53374 0
M  V30 26601 H 2538.91 3.58815 -1.87173 0
M  V30 26602 H 2537.48 2.95549 -1.01831 0
M  V30 26603 H 2536.7 2.08386 -3.34618 0
M  V30 26604 H 2537.99 3.07507 -4.0536 0
M  V30 26605 H 2537.39 5.35211 -1.8321 0
M  V30 26606 H 2535.94 6.0315 -2.4709 0
M  V30 26607 N 2539.38 1.46127 0.590316 0
M  V30 26608 C 2540.62 1.50744 1.34613 0
M  V30 26609 C 2540.94 0.15752 1.94363 0
M  V30 26610 O 2540.21 -0.815104 1.78137 0
M  V30 26611 H 2538.79 0.555184 0.49978 0
M  V30 26612 H 2541.46 1.82204 0.691921 0
M  V30 26613 H 2540.55 2.25591 2.15674 0
M  V30 26614 N 2540.85 -0.834306 1.33705 0
M  V30 26615 C 2542.1 -1.58985 1.2542 0
M  V30 26616 C 2542.43 -1.93676 -0.178835 0
M  V30 26617 O 2541.68 -1.59267 -1.13721 0
M  V30 26618 C 2541.98 -2.90688 2.07931 0
M  V30 26619 C 2541.65 -2.75339 3.5707 0
M  V30 26620 C 2540.31 -2.7086 3.97729 0
M  V30 26621 C 2542.66 -2.5982 4.51822 0
M  V30 26622 C 2539.99 -2.48769 5.31348 0
M  V30 26623 C 2542.34 -2.39262 5.85608 0
M  V30 26624 C 2541.01 -2.33188 6.25444 0
M  V30 26625 H 2540.28 -0.581766 0.458944 0
M  V30 26626 H 2542.92 -0.966232 1.65337 0
M  V30 26627 H 2541.23 -3.5728 1.60806 0
M  V30 26628 H 2542.93 -3.4821 1.98874 0
M  V30 26629 H 2539.52 -2.79659 3.2479 0
M  V30 26630 H 2543.7 -2.62311 4.21315 0
M  V30 26631 H 2538.96 -2.42516 5.61245 0
M  V30 26632 H 2543.13 -2.26238 6.58627 0
M  V30 26633 H 2540.76 -2.1583 7.28918 0
M  V30 26634 N 2542.33 -1.17248 -1.05312 0
M  V30 26635 C 2543.56 -0.98518 -1.82507 0
M  V30 26636 C 2543.98 0.461756 -1.82344 0
M  V30 26637 O 2543.34 1.33053 -1.23153 0
M  V30 26638 C 2543.39 -1.52935 -3.26563 0
M  V30 26639 O 2542.49 -0.742296 -4.05665 0
M  V30 26640 H 2541.83 -0.349879 -0.564341 0
M  V30 26641 H 2544.36 -1.55718 -1.32715 0
M  V30 26642 H 2544.37 -1.5511 -3.77366 0
M  V30 26643 H 2543.05 -2.58262 -3.25996 0
M  V30 26644 H 2541.62 -0.791858 -3.64395 0
M  V30 26645 N 2543.81 1.24015 -0.972531 0
M  V30 26646 C 2544.77 2.23421 -0.511442 0
M  V30 26647 C 2545.77 1.55882 0.394651 0
M  V30 26648 O 2546.96 1.73167 0.189438 0
M  V30 26649 C 2544.1 3.39917 0.258709 0
M  V30 26650 H 2545.29 2.65727 -1.39029 0
M  V30 26651 H 2542.84 1.36711 -0.757609 0
M  V30 26652 H 2543.58 3.03056 1.15445 0
M  V30 26653 H 2543.36 3.9014 -0.391591 0
M  V30 26654 H 2544.85 4.13689 0.570172 0
M  V30 26655 N 2545.29 0.743226 1.38974 0
M  V30 26656 C 2546.25 0.117055 2.28901 0
M  V30 26657 C 2547.25 -0.658477 1.46699 0
M  V30 26658 O 2548.44 -0.486276 1.67275 0
M  V30 26659 C 2545.57 -0.843092 3.3031 0
M  V30 26660 H 2546.77 0.909423 2.85779 0
M  V30 26661 H 2544.32 0.509573 1.4776 0
M  V30 26662 H 2545.05 -1.66152 2.78503 0
M  V30 26663 H 2544.84 -0.289525 3.9103 0
M  V30 26664 H 2546.33 -1.27753 3.97579 0
M  V30 26665 N 2546.77 -1.4974 0.491491 0
M  V30 26666 C 2547.7 -2.31797 -0.2815 0
M  V30 26667 C 2548.68 -1.39631 -0.971448 0
M  V30 26668 O 2549.86 -1.68545 -0.964689 0
M  V30 26669 C 2546.99 -3.19905 -1.35197 0
M  V30 26670 C 2545.95 -4.20787 -0.782455 0
M  V30 26671 C 2545.27 -4.97767 -1.95274 0
M  V30 26672 C 2546.57 -5.21836 0.220082 0
M  V30 26673 H 2548.27 -2.9667 0.403407 0
M  V30 26674 H 2545.81 -1.42667 0.19545 0
M  V30 26675 H 2547.77 -3.76116 -1.90038 0
M  V30 26676 H 2546.49 -2.52956 -2.06593 0
M  V30 26677 H 2545.15 -3.65706 -0.255864 0
M  V30 26678 H 2544.8 -4.27274 -2.65416 0
M  V30 26679 H 2544.5 -5.66021 -1.57779 0
M  V30 26680 H 2546.02 -5.5682 -2.50567 0
M  V30 26681 H 2547.43 -5.72798 -0.239859 0
M  V30 26682 H 2545.83 -5.97926 0.510365 0
M  V30 26683 H 2546.9 -4.71328 1.13919 0
M  V30 26684 N 2548.24 -0.224922 -1.55987 0
M  V30 26685 C 2549.17 0.678418 -2.23427 0
M  V30 26686 C 2550.16 1.19845 -1.20712 0
M  V30 26687 O 2551.34 1.24183 -1.49306 0
M  V30 26688 C 2548.47 1.88522 -2.91679 0
M  V30 26689 C 2547.42 1.49889 -4.00895 0
M  V30 26690 C 2546.75 2.78475 -4.5646 0
M  V30 26691 C 2548.05 0.68637 -5.1777 0
M  V30 26692 H 2549.74 0.116121 -2.99175 0
M  V30 26693 H 2547.29 0.0544107 -1.43897 0
M  V30 26694 H 2549.24 2.52264 -3.37551 0
M  V30 26695 H 2547.97 2.47254 -2.13384 0
M  V30 26696 H 2546.63 0.884922 -3.55759 0
M  V30 26697 H 2546.27 3.35358 -3.74892 0
M  V30 26698 H 2545.97 2.53358 -5.30173 0
M  V30 26699 H 2547.5 3.43153 -5.05053 0
M  V30 26700 H 2548.91 1.22757 -5.60003 0
M  V30 26701 H 2547.31 0.532154 -5.97736 0
M  V30 26702 H 2548.38 -0.306281 -4.83932 0
M  V30 26703 N 2549.72 1.57526 0.0484352 0
M  V30 26704 C 2550.67 2.05276 1.055 0
M  V30 26705 C 2551.64 0.937951 1.37083 0
M  V30 26706 O 2552.82 1.20723 1.47752 0
M  V30 26707 C 2549.96 2.52097 2.35672 0
M  V30 26708 C 2549.08 3.77292 2.10417 0
M  V30 26709 C 2548.21 4.128 3.3432 0
M  V30 26710 C 2547.25 5.30968 3.04532 0
M  V30 26711 N 2546.39 5.62001 4.20831 0
M  V30 26712 H 2551.23 2.91028 0.640834 0
M  V30 26713 H 2548.77 1.43907 0.304828 0
M  V30 26714 H 2550.72 2.77302 3.11704 0
M  V30 26715 H 2549.35 1.6929 2.74847 0
M  V30 26716 H 2548.41 3.59286 1.2497 0
M  V30 26717 H 2549.72 4.63451 1.8443 0
M  V30 26718 H 2548.87 4.39031 4.18732 0
M  V30 26719 H 2547.61 3.25254 3.63403 0
M  V30 26720 H 2546.62 5.04509 2.18519 0
M  V30 26721 H 2547.84 6.20151 2.76748 0
M  V30 26722 H 2545.79 4.77414 4.49902 0
M  V30 26723 H 2545.7 6.42629 3.98201 0
M  V30 26724 H 2546.97 5.92797 5.06173 0
M  V30 26725 N 2551.2 -0.32033 1.5431 0
M  V30 26726 C 2552.15 -1.39553 1.80302 0
M  V30 26727 C 2553.13 -1.46777 0.659192 0
M  V30 26728 O 2554.33 -1.51255 0.919287 0
M  V30 26729 C 2551.46 -2.76358 2.0367 0
M  V30 26730 C 2550.54 -2.73434 3.24183 0
M  V30 26731 N 2550.93 -2.40129 4.45165 0
M  V30 26732 C 2549.23 -3.04559 3.25822 0
M  V30 26733 C 2549.93 -2.46021 5.27113 0
M  V30 26734 N 2548.91 -2.82593 4.64373 0
M  V30 26735 H 2552.71 -1.12737 2.71418 0
M  V30 26736 H 2550.22 -0.528829 1.53549 0
M  V30 26737 H 2552.22 -3.53858 2.20431 0
M  V30 26738 H 2550.88 -3.04101 1.1381 0
M  V30 26739 H 2551.89 -2.12919 4.72108 0
M  V30 26740 H 2548.57 -3.37323 2.46007 0
M  V30 26741 H 2549.96 -2.23235 6.33732 0
M  V30 26742 N 2552.68 -1.46438 -0.582558 0
M  V30 26743 C 2553.91 -1.55101 -1.36481 0
M  V30 26744 C 2554.32 -0.191089 -1.88233 0
M  V30 26745 O 2553.66 0.821829 -1.64291 0
M  V30 26746 C 2553.72 -2.4953 -2.58796 0
M  V30 26747 C 2553.39 -3.95768 -2.2851 0
M  V30 26748 C 2554.38 -4.84975 -1.87337 0
M  V30 26749 C 2552.07 -4.409 -2.4065 0
M  V30 26750 C 2554.06 -6.17328 -1.58699 0
M  V30 26751 C 2551.75 -5.73287 -2.11625 0
M  V30 26752 C 2552.75 -6.61321 -1.70714 0
M  V30 26753 O 2552.43 -7.91251 -1.42043 0
M  V30 26754 H 2552.17 -0.527071 -0.423288 0
M  V30 26755 H 2554.72 -1.92548 -0.715155 0
M  V30 26756 H 2552.95 -2.07101 -3.26567 0
M  V30 26757 H 2554.64 -2.48598 -3.20864 0
M  V30 26758 H 2555.41 -4.51363 -1.77473 0
M  V30 26759 H 2551.28 -3.72602 -2.71456 0
M  V30 26760 H 2554.83 -6.85999 -1.26692 0
M  V30 26761 H 2550.73 -6.06448 -2.21113 0
M  V30 26762 H 2551.49 -8.03518 -1.55887 0
M  V30 26763 N 2554.16 0.827204 -1.34146 0
M  V30 26764 C 2555.4 1.58317 -1.26261 0
M  V30 26765 C 2555.73 1.93768 0.168561 0
M  V30 26766 O 2554.99 1.59868 1.12874 0
M  V30 26767 C 2555.29 2.89581 -2.09469 0
M  V30 26768 C 2554.95 2.73441 -3.58526 0
M  V30 26769 C 2553.61 2.68747 -3.9916 0
M  V30 26770 C 2555.97 2.5742 -4.53193 0
M  V30 26771 C 2553.29 2.45947 -5.3266 0
M  V30 26772 C 2555.65 2.36153 -5.86869 0
M  V30 26773 C 2554.31 2.29868 -6.26671 0
M  V30 26774 H 2553.58 0.579324 -0.462023 0
M  V30 26775 H 2556.23 0.95745 -1.65847 0
M  V30 26776 H 2554.53 3.56422 -1.62698 0
M  V30 26777 H 2556.23 3.4715 -2.00718 0
M  V30 26778 H 2552.82 2.77933 -3.26269 0
M  V30 26779 H 2557 2.60073 -4.227 0
M  V30 26780 H 2552.26 2.39536 -5.62523 0
M  V30 26781 H 2556.43 2.22742 -6.59817 0
M  V30 26782 H 2554.06 2.11962 -7.30052 0
M  V30 26783 N 2555.63 1.17805 1.04688 0
M  V30 26784 C 2556.58 0.895673 2.14664 0
M  V30 26785 C 2557.58 -0.14165 1.68807 0
M  V30 26786 O 2558.78 0.00591078 1.79999 0
M  V30 26787 H 2555.16 0.272134 0.701033 0
M  V30 26788 H 2557.13 1.83021 2.35682 0
M  V30 26789 C 2555.88 0.431023 3.45018 0
M  V30 26790 H 2555.2 1.2207 3.80708 0
M  V30 26791 H 2556.64 0.272376 4.23124 0
M  V30 26792 C 2555.1 -0.85215 3.25945 0
M  V30 26793 O 2555.63 -1.9178 3.52964 0
M  V30 26794 N 2553.84 -0.802297 2.79305 0
M  V30 26795 H 2553.38 0.0651241 2.57518 0
M  V30 26796 H 2553.34 -1.66129 2.66924 0
M  V30 26797 N 2557.11 -1.23497 0.979094 0
M  V30 26798 C 2558.39 -1.87301 0.563707 0
M  V30 26799 C 2558.77 -1.88051 -0.959166 0
M  V30 26800 O 2558.12 -1.36117 -1.83533 0
M  V30 26801 C 2558.33 -3.28865 1.16828 0
M  V30 26802 C 2559.68 -4.05467 1.26021 0
M  V30 26803 O 2560.7 -3.3808 1.12164 0
M  V30 26804 O 2559.56 -5.26063 1.48053 0
M  V30 26805 H 2556.65 -0.804969 0.189616 0
M  V30 26806 H 2559.2 -1.31382 1.07409 0
M  V30 26807 H 2557.97 -3.22879 2.21054 0
M  V30 26808 H 2557.59 -3.92372 0.642633 0
M  V30 26809 N 2558.59 -0.750586 -1.38578 0
M  V30 26810 C 2559.5 -0.122866 -2.34278 0
M  V30 26811 C 2560.52 0.704103 -1.59118 0
M  V30 26812 O 2561.69 0.628954 -1.91327 0
M  V30 26813 C 2558.76 0.762027 -3.38222 0
M  V30 26814 C 2557.82 -0.0789714 -4.29227 0
M  V30 26815 C 2557.05 0.763781 -5.28206 0
M  V30 26816 O 2557.28 2.00192 -5.34116 0
M  V30 26817 O 2556.21 0.184174 -6.01618 0
M  V30 26818 H 2560.04 -0.913139 -2.89647 0
M  V30 26819 H 2557.62 -0.511442 -1.40373 0
M  V30 26820 H 2559.5 1.26786 -4.01875 0
M  V30 26821 H 2558.18 1.53085 -2.85214 0
M  V30 26822 H 2557.08 -0.630686 -3.68745 0
M  V30 26823 H 2558.42 -0.810375 -4.85483 0
M  V30 26824 N 2560.07 1.49477 -0.499425 0
M  V30 26825 C 2561 2.27004 0.316535 0
M  V30 26826 C 2562.01 1.33481 0.932024 0
M  V30 26827 O 2563.2 1.58776 0.81563 0
M  V30 26828 C 2560.3 3.05815 1.4605 0
M  V30 26829 C 2559.48 4.26901 0.952604 0
M  V30 26830 C 2558.54 4.87771 1.97398 0
M  V30 26831 O 2557.56 5.47882 1.54316 0
M  V30 26832 N 2558.76 4.77282 3.30428 0
M  V30 26833 H 2561.53 2.9767 -0.348221 0
M  V30 26834 H 2559.09 1.58462 -0.331878 0
M  V30 26835 H 2561.08 3.4341 2.14129 0
M  V30 26836 H 2559.65 2.37766 2.02944 0
M  V30 26837 H 2558.87 3.94081 0.0967555 0
M  V30 26838 H 2560.16 5.05348 0.591651 0
M  V30 26839 H 2559.56 4.29541 3.68119 0
M  V30 26840 H 2558.11 5.19066 3.94226 0
M  V30 26841 N 2561.55 0.233191 1.55865 0
M  V30 26842 C 2562.8 -0.394558 1.98211 0
M  V30 26843 C 2563.12 -1.59461 1.12237 0
M  V30 26844 O 2562.39 -1.94856 0.202016 0
M  V30 26845 H 2560.97 -0.148765 0.732037 0
M  V30 26846 H 2563.63 0.328793 1.92107 0
M  V30 26847 H 2562.72 -0.71301 3.03846 0
M  V30 26848 N 2563.03 -1.57549 -0.0400806 0
M  V30 26849 C 2563.94 -2.09222 -1.06129 0
M  V30 26850 C 2564.95 -1.02843 -1.40354 0
M  V30 26851 O 2566.13 -1.34512 -1.49895 0
M  V30 26852 C 2563.19 -2.55223 -2.34654 0
M  V30 26853 C 2562.25 -3.76037 -2.0711 0
M  V30 26854 C 2561.49 -4.19834 -3.29507 0
M  V30 26855 O 2561.71 -3.6324 -4.39787 0
M  V30 26856 O 2560.64 -5.12367 -3.15854 0
M  V30 26857 H 2564.47 -2.96614 -0.652192 0
M  V30 26858 H 2562.05 -1.47184 -0.256343 0
M  V30 26859 H 2563.94 -2.85189 -3.10234 0
M  V30 26860 H 2562.61 -1.70946 -2.7488 0
M  V30 26861 H 2561.52 -3.51106 -1.29133 0
M  V30 26862 H 2562.85 -4.61264 -1.71746 0
M  V30 26863 N 2564.5 0.312142 -1.54478 0
M  V30 26864 C 2565.75 1.0463 -1.7244 0
M  V30 26865 C 2566.07 1.88802 -0.511196 0
M  V30 26866 O 2567.27 2.65398 -0.572388 0
M  V30 26867 C 2565.73 1.90984 -3.05046 0
M  V30 26868 C 2565.34 1.11869 -4.33808 0
M  V30 26869 C 2567.08 2.64067 -3.32369 0
M  V30 26870 C 2564.99 1.97435 -5.5747 0
M  V30 26871 H 2563.92 0.394349 -0.642654 0
M  V30 26872 H 2566.57 0.303898 -1.80966 0
M  V30 26873 H 2564.95 2.69168 -2.90455 0
M  V30 26874 H 2566.12 0.383762 -4.59199 0
M  V30 26875 H 2564.44 0.504179 -4.13336 0
M  V30 26876 H 2567.04 3.28415 -4.21957 0
M  V30 26877 H 2567.38 3.3231 -2.5075 0
M  V30 26878 H 2567.91 1.92938 -3.47879 0
M  V30 26879 H 2564.65 1.33681 -6.41724 0
M  V30 26880 H 2564.17 2.68631 -5.36281 0
M  V30 26881 H 2565.85 2.55749 -5.94307 0
M  V30 26882 N 2565.98 1.46745 0.574784 0
M  V30 26883 C 2566.89 1.60508 1.71098 0
M  V30 26884 C 2567.91 0.488336 1.67007 0
M  V30 26885 O 2569.08 0.753528 1.86772 0
M  V30 26886 C 2566.15 1.59937 3.07605 0
M  V30 26887 C 2565.21 2.82904 3.22899 0
M  V30 26888 C 2564.44 2.82351 4.52895 0
M  V30 26889 O 2564.67 1.91551 5.37275 0
M  V30 26890 O 2563.6 3.73995 4.71605 0
M  V30 26891 H 2567.43 2.56612 1.62432 0
M  V30 26892 H 2565.01 1.29628 0.742756 0
M  V30 26893 H 2566.89 1.62343 3.88874 0
M  V30 26894 H 2565.57 0.669954 3.16691 0
M  V30 26895 H 2564.47 2.8605 2.41094 0
M  V30 26896 H 2565.81 3.75081 3.18708 0
M  V30 26897 N 2567.46 -0.820078 1.34583 0
M  V30 26898 C 2568.71 -1.57645 1.27099 0
M  V30 26899 C 2569.03 -1.93855 -0.158283 0
M  V30 26900 O 2568.29 -1.60465 -1.12025 0
M  V30 26901 C 2568.59 -2.88466 2.11002 0
M  V30 26902 C 2568.25 -2.71536 3.59971 0
M  V30 26903 C 2566.92 -2.66627 4.00579 0
M  V30 26904 C 2569.27 -2.55013 4.54552 0
M  V30 26905 C 2566.6 -2.43119 5.33957 0
M  V30 26906 C 2568.95 -2.33037 5.88113 0
M  V30 26907 C 2567.61 -2.26541 6.27882 0
M  V30 26908 H 2566.88 -0.576865 0.465089 0
M  V30 26909 H 2569.53 -0.948642 1.66352 0
M  V30 26910 H 2567.83 -3.55554 1.64586 0
M  V30 26911 H 2569.53 -3.46081 2.02556 0
M  V30 26912 H 2566.12 -2.76199 3.27738 0
M  V30 26913 H 2570.31 -2.57828 4.24074 0
M  V30 26914 H 2565.56 -2.3655 5.63786 0
M  V30 26915 H 2569.74 -2.1924 6.60989 0
M  V30 26916 H 2567.36 -2.08087 7.31166 0
M  V30 26917 N 2568.94 -1.18359 -1.04062 0
M  V30 26918 C 2570.19 -0.973344 -1.7666 0
M  V30 26919 C 2570.5 0.497958 -1.89155 0
M  V30 26920 O 2571.71 0.826716 -2.58607 0
M  V30 26921 C 2570.16 -1.69247 -3.17622 0
M  V30 26922 C 2569.77 -3.20308 -3.1322 0
M  V30 26923 C 2571.51 -1.56504 -3.94597 0
M  V30 26924 C 2569.42 -3.8486 -4.49039 0
M  V30 26925 H 2568.35 -0.360552 -0.662207 0
M  V30 26926 H 2571 -1.41733 -1.16551 0
M  V30 26927 H 2569.38 -1.17626 -3.78127 0
M  V30 26928 H 2570.56 -3.78954 -2.62165 0
M  V30 26929 H 2568.87 -3.33193 -2.49743 0
M  V30 26930 H 2571.47 -2.02093 -4.95038 0
M  V30 26931 H 2571.81 -0.517315 -4.13073 0
M  V30 26932 H 2572.35 -2.05405 -3.40666 0
M  V30 26933 H 2569.08 -4.8968 -4.35768 0
M  V30 26934 H 2568.6 -3.31003 -5.00197 0
M  V30 26935 H 2570.28 -3.87727 -5.17955 0
M  V30 26936 N 2570.42 1.22976 -0.98563 0
M  V30 26937 C 2571.33 2.28334 -0.538588 0
M  V30 26938 C 2572.34 1.69122 0.409134 0
M  V30 26939 O 2573.52 1.99475 0.277762 0
M  V30 26940 C 2570.58 3.46389 0.146807 0
M  V30 26941 C 2569.64 4.20942 -0.84297 0
M  V30 26942 C 2568.88 5.33361 -0.190188 0
M  V30 26943 O 2569.1 5.6125 1.01757 0
M  V30 26944 O 2568.03 5.95263 -0.891393 0
M  V30 26945 H 2571.86 2.68726 -1.41492 0
M  V30 26946 H 2569.44 1.29006 -0.753517 0
M  V30 26947 H 2571.33 4.1804 0.531051 0
M  V30 26948 H 2570 3.07937 0.997817 0
M  V30 26949 H 2568.91 3.51593 -1.27801 0
M  V30 26950 H 2570.24 4.63257 -1.66295 0
M  V30 26951 N 2571.89 0.757924 1.38178 0
M  V30 26952 C 2573.12 0.325715 2.04826 0
M  V30 26953 C 2573.54 -1.03916 1.5679 0
M  V30 26954 O 2572.9 -1.6631 0.721841 0
M  V30 26955 C 2572.95 0.36251 3.58773 0
M  V30 26956 O 2572.05 -0.641961 4.07373 0
M  V30 26957 H 2571.39 0.143413 0.648328 0
M  V30 26958 H 2573.92 1.03026 1.76768 0
M  V30 26959 H 2573.93 0.214915 4.07434 0
M  V30 26960 H 2572.61 1.35831 3.93094 0
M  V30 26961 H 2571.19 -0.458623 3.70069 0
M  V30 26962 N 2573.37 -1.4921 0.507345 0
M  V30 26963 C 2574.6 -2.07373 -0.0336885 0
M  V30 26964 C 2575.02 -1.3644 -1.29483 0
M  V30 26965 O 2574.38 -0.423118 -1.76294 0
M  V30 26966 C 2574.43 -3.59633 -0.263882 0
M  V30 26967 O 2573.53 -3.90115 -1.33731 0
M  V30 26968 H 2572.87 -0.663364 0.0290447 0
M  V30 26969 H 2575.4 -1.91931 0.708783 0
M  V30 26970 H 2575.41 -4.05005 -0.493464 0
M  V30 26971 H 2574.09 -4.1067 0.657496 0
M  V30 26972 H 2572.67 -3.56547 -1.09217 0
M  V30 26973 N 2574.85 -0.241454 -1.55739 0
M  V30 26974 C 2575.8 0.660393 -2.2115 0
M  V30 26975 C 2576.77 1.17543 -1.17358 0
M  V30 26976 O 2577.95 1.2309 -1.45786 0
M  V30 26977 C 2575.09 1.85409 -2.91063 0
M  V30 26978 C 2574.21 1.37609 -4.09497 0
M  V30 26979 C 2573.34 2.52892 -4.67139 0
M  V30 26980 C 2572.38 2.01926 -5.77834 0
M  V30 26981 N 2571.52 3.10555 -6.29682 0
M  V30 26982 H 2576.36 0.0959026 -2.97846 0
M  V30 26983 H 2573.89 0.0355766 -1.47057 0
M  V30 26984 H 2575.85 2.55525 -3.29792 0
M  V30 26985 H 2574.48 2.39114 -2.1685 0
M  V30 26986 H 2573.53 0.569168 -3.76118 0
M  V30 26987 H 2574.85 0.962532 -4.89425 0
M  V30 26988 H 2574 3.31058 -5.08415 0
M  V30 26989 H 2572.74 2.97546 -3.86416 0
M  V30 26990 H 2571.74 1.22228 -5.36041 0
M  V30 26991 H 2572.97 1.58248 -6.60405 0
M  V30 26992 H 2570.91 3.54654 -5.51866 0
M  V30 26993 H 2570.83 2.73514 -7.04788 0
M  V30 26994 H 2572.1 3.88797 -6.75616 0
M  V30 26995 N 2576.33 1.57568 0.0317248 0
M  V30 26996 C 2577.61 1.80302 0.758334 0
M  V30 26997 C 2577.99 0.838879 1.93716 0
M  V30 26998 O 2577.33 -0.119531 2.28187 0
M  V30 26999 C 2577.54 3.27945 1.19387 0
M  V30 27000 C 2578.89 3.92856 1.61087 0
M  V30 27001 O 2579.92 3.32078 1.28851 0
M  V30 27002 O 2578.77 4.99861 2.20909 0
M  V30 27003 H 2575.87 0.741354 0.366501 0
M  V30 27004 H 2578.41 1.69698 0.00870782 0
M  V30 27005 H 2577.19 3.89712 0.352207 0
M  V30 27006 H 2576.81 3.43427 2.00359 0
M  V30 27007 N 2577.81 -0.303946 1.54641 0
M  V30 27008 C 2578.77 -1.35786 1.84648 0
M  V30 27009 C 2579.77 -1.43819 0.719225 0
M  V30 27010 O 2580.96 -1.43505 0.987516 0
M  V30 27011 C 2578.09 -2.74303 2.02412 0
M  V30 27012 H 2579.28 -1.10424 2.78831 0
M  V30 27013 H 2576.84 -0.540462 1.46658 0
M  V30 27014 H 2577.57 -3.04891 1.10507 0
M  V30 27015 H 2577.36 -2.69863 2.84458 0
M  V30 27016 H 2578.85 -3.5051 2.27008 0
M  V30 27017 N 2579.28 -1.47047 -0.566994 0
M  V30 27018 C 2580.53 -1.52867 -1.32198 0
M  V30 27019 C 2580.85 -0.188422 -1.94088 0
M  V30 27020 O 2580.12 0.786661 -1.79411 0
M  V30 27021 H 2578.7 -0.563065 -0.490884 0
M  V30 27022 H 2581.37 -1.83282 -0.662847 0
M  V30 27023 H 2580.46 -2.28993 -2.12058 0
M  V30 27024 N 2580.76 0.812929 -1.35016 0
M  V30 27025 C 2582.01 1.56969 -1.27933 0
M  V30 27026 C 2582.34 1.93936 0.148 0
M  V30 27027 O 2581.59 1.61056 1.11172 0
M  V30 27028 C 2581.89 2.87343 -2.12529 0
M  V30 27029 C 2581.56 2.69623 -3.61406 0
M  V30 27030 C 2580.22 2.64498 -4.01988 0
M  V30 27031 C 2582.57 2.52599 -4.55898 0
M  V30 27032 C 2579.9 2.40284 -5.35239 0
M  V30 27033 C 2582.25 2.29915 -5.8934 0
M  V30 27034 C 2580.92 2.23208 -6.29074 0
M  V30 27035 H 2580.19 0.574391 -0.468141 0
M  V30 27036 H 2582.83 0.939806 -1.66853 0
M  V30 27037 H 2581.14 3.54676 -1.6647 0
M  V30 27038 H 2582.83 3.45002 -2.04389 0
M  V30 27039 H 2579.42 2.74457 -3.29198 0
M  V30 27040 H 2583.61 2.55575 -4.25435 0
M  V30 27041 H 2578.86 2.33556 -5.65032 0
M  V30 27042 H 2583.04 2.15731 -6.62143 0
M  V30 27043 H 2580.67 2.04207 -7.32259 0
M  V30 27044 N 2582.24 1.18909 1.03433 0
M  V30 27045 C 2583.65 0.991551 1.58193 0
M  V30 27046 C 2584 -0.457047 1.90802 0
M  V30 27047 O 2583.13 -1.3355 1.70274 0
M  V30 27048 C 2583.72 1.7936 2.87429 0
M  V30 27049 C 2582.28 1.64023 3.38782 0
M  V30 27050 C 2581.43 1.78406 2.12289 0
M  V30 27051 H 2584.38 1.3336 0.860275 0
M  V30 27052 H 2584.4 1.28645 3.58093 0
M  V30 27053 H 2583.91 2.84786 2.63664 0
M  V30 27054 H 2582.01 0.611601 3.67546 0
M  V30 27055 H 2582.13 2.4422 4.12181 0
M  V30 27056 H 2580.49 1.21414 2.23899 0
M  V30 27057 H 2581.27 2.8528 1.90972 0
M  V30 27058 N 2583.72 -1.22452 0.992137 0
M  V30 27059 C 2584.97 -1.90491 0.663026 0
M  V30 27060 C 2585.28 -1.78114 -0.808376 0
M  V30 27061 O 2586.49 -2.41063 -1.24904 0
M  V30 27062 C 2584.94 -3.41523 1.13536 0
M  V30 27063 C 2584.55 -3.62538 2.63193 0
M  V30 27064 C 2586.29 -4.15267 0.880538 0
M  V30 27065 C 2584.2 -5.07265 3.04033 0
M  V30 27066 H 2583.13 -0.713329 0.24429 0
M  V30 27067 H 2585.78 -1.38686 1.2016 0
M  V30 27068 H 2584.16 -3.92506 0.524919 0
M  V30 27069 H 2585.34 -3.2205 3.29576 0
M  V30 27070 H 2583.65 -3.02124 2.86549 0
M  V30 27071 H 2586.25 -5.21935 1.16138 0
M  V30 27072 H 2586.59 -4.15896 -0.183335 0
M  V30 27073 H 2587.13 -3.70309 1.45313 0
M  V30 27074 H 2583.87 -5.11775 4.09593 0
M  V30 27075 H 2583.39 -5.48658 2.42353 0
M  V30 27076 H 2585.06 -5.75684 2.95292 0
M  V30 27077 N 2585.2 -0.765242 -1.37774 0
M  V30 27078 C 2586.45 -0.323342 -1.99091 0
M  V30 27079 C 2586.76 1.10444 -1.61436 0
M  V30 27080 O 2587.96 1.64739 -2.15808 0
M  V30 27081 C 2586.42 -0.52716 -3.56018 0
M  V30 27082 C 2586.03 -1.96478 -4.02617 0
M  V30 27083 C 2587.77 -0.148557 -4.2424 0
M  V30 27084 C 2585.68 -2.11654 -5.52229 0
M  V30 27085 H 2584.61 -0.11715 -0.744844 0
M  V30 27086 H 2587.26 -0.943444 -1.57389 0
M  V30 27087 H 2585.64 0.162303 -3.95667 0
M  V30 27088 H 2586.82 -2.68866 -3.74229 0
M  V30 27089 H 2585.13 -2.29937 -3.47157 0
M  V30 27090 H 2587.73 -0.24055 -5.34159 0
M  V30 27091 H 2588.07 0.900351 -4.06447 0
M  V30 27092 H 2588.6 -0.790318 -3.8987 0
M  V30 27093 H 2585.34 -3.1484 -5.7494 0
M  V30 27094 H 2584.86 -1.43741 -5.82322 0
M  V30 27095 H 2586.54 -1.91203 -6.18102 0
M  V30 27096 N 2586.67 1.48939 -0.515251 0
M  V30 27097 C 2587.62 2.31038 0.269074 0
M  V30 27098 C 2588.62 1.40294 0.949419 0
M  V30 27099 O 2589.82 1.57275 0.875482 0
M  V30 27100 H 2586.2 0.744543 0.105637 0
M  V30 27101 H 2588.17 2.95091 -0.443148 0
M  V30 27102 C 2586.92 3.21994 1.31207 0
M  V30 27103 H 2586.24 3.91756 0.797966 0
M  V30 27104 H 2587.68 3.82352 1.83257 0
M  V30 27105 C 2586.14 2.4258 2.33787 0
M  V30 27106 O 2586.67 2.14009 3.39946 0
M  V30 27107 N 2584.88 2.04343 2.06621 0
M  V30 27108 H 2584.42 2.27779 1.2031 0
M  V30 27109 H 2584.38 1.51519 2.7548 0
M  V30 27110 N 2588.15 0.249709 1.55609 0
M  V30 27111 C 2589.38 -0.378316 2.03412 0
M  V30 27112 C 2589.8 -1.51333 1.12889 0
M  V30 27113 O 2589.15 -1.81932 0.143865 0
M  V30 27114 C 2589.2 -0.883448 3.50539 0
M  V30 27115 O 2588.93 0.206337 4.37614 0
M  V30 27116 C 2590.43 -1.58188 4.14115 0
M  V30 27117 H 2587.65 -0.0895683 0.664995 0
M  V30 27118 H 2590.19 0.374393 2.01044 0
M  V30 27119 H 2588.35 -1.58633 3.53432 0
M  V30 27120 H 2588.76 -0.17769 5.24199 0
M  V30 27121 H 2590.23 -1.88701 5.18745 0
M  V30 27122 H 2590.71 -2.50481 3.60772 0
M  V30 27123 H 2591.32 -0.9235 4.15152 0
M  V30 27124 N 2589.63 -1.57583 -0.0233682 0
M  V30 27125 C 2591.04 -1.7781 -0.569239 0
M  V30 27126 C 2591.39 -0.881503 -1.75283 0
M  V30 27127 O 2590.52 -0.0778186 -2.1626 0
M  V30 27128 C 2591.11 -3.22461 -1.03944 0
M  V30 27129 C 2589.67 -3.43866 -1.53078 0
M  V30 27130 C 2588.82 -2.73264 -0.471406 0
M  V30 27131 H 2591.77 -1.57398 0.202852 0
M  V30 27132 H 2591.79 -3.29289 -1.90655 0
M  V30 27133 H 2591.3 -3.87693 -0.177796 0
M  V30 27134 H 2589.4 -2.83818 -2.41409 0
M  V30 27135 H 2589.52 -4.52494 -1.57436 0
M  V30 27136 H 2587.88 -2.37202 -0.927746 0
M  V30 27137 H 2588.66 -3.41181 0.380868 0
M  V30 27138 N 2591.11 0.29574 -1.548 0
M  V30 27139 C 2592.33 1.05343 -1.78655 0
M  V30 27140 C 2592.76 1.79973 -0.546926 0
M  V30 27141 O 2592.12 1.7419 0.502732 0
M  V30 27142 C 2592.17 2.00555 -2.99683 0
M  V30 27143 O 2591.27 3.08948 -2.73176 0
M  V30 27144 H 2590.61 0.302356 -0.591166 0
M  V30 27145 H 2593.14 0.331562 -2.01896 0
M  V30 27146 H 2593.15 2.42926 -3.27797 0
M  V30 27147 H 2591.83 1.45643 -3.89565 0
M  V30 27148 H 2590.4 2.71055 -2.56093 0
M  V30 27149 N 2592.59 1.47346 0.559187 0
M  V30 27150 C 2593.53 1.59684 1.66642 0
M  V30 27151 C 2594.5 0.439968 1.60167 0
M  V30 27152 O 2595.69 0.659768 1.7903 0
M  V30 27153 C 2592.83 1.61523 3.04966 0
M  V30 27154 C 2591.94 2.88114 3.21892 0
M  V30 27155 C 2591.08 2.81302 4.50603 0
M  V30 27156 C 2590.12 4.02725 4.60954 0
M  V30 27157 N 2589.25 3.94161 5.81017 0
M  V30 27158 H 2594.09 2.54252 1.55434 0
M  V30 27159 H 2591.63 1.26115 0.757196 0
M  V30 27160 H 2593.59 1.60573 3.85061 0
M  V30 27161 H 2592.22 0.7047 3.15014 0
M  V30 27162 H 2591.27 2.9894 2.35242 0
M  V30 27163 H 2592.58 3.78038 3.25405 0
M  V30 27164 H 2591.74 2.78589 5.38955 0
M  V30 27165 H 2590.48 1.89057 4.49565 0
M  V30 27166 H 2589.48 4.05745 3.71014 0
M  V30 27167 H 2590.71 4.96095 4.63753 0
M  V30 27168 H 2588.65 3.04718 5.80933 0
M  V30 27169 H 2588.57 4.77763 5.859 0
M  V30 27170 H 2589.84 3.95462 6.71737 0
M  V30 27171 N 2594.07 -0.805758 1.35445 0
M  V30 27172 C 2595.29 -1.59421 1.31881 0
M  V30 27173 C 2595.71 -1.88516 -0.103529 0
M  V30 27174 O 2595.07 -1.48865 -1.05572 0
M  V30 27175 C 2595.12 -2.92498 2.12431 0
M  V30 27176 O 2594.84 -2.64664 3.4912 0
M  V30 27177 C 2596.34 -3.86858 2.16462 0
M  V30 27178 H 2593.56 -0.494998 0.45301 0
M  V30 27179 H 2596.1 -1.00128 1.7831 0
M  V30 27180 H 2594.26 -3.48303 1.69599 0
M  V30 27181 H 2594.67 -3.4964 3.90963 0
M  V30 27182 H 2596.15 -4.77344 2.77213 0
M  V30 27183 H 2596.62 -4.23506 1.1636 0
M  V30 27184 H 2597.23 -3.36988 2.59459 0
M  V30 27185 N 2595.54 -1.19456 -1.02801 0
M  V30 27186 C 2596.49 -0.933083 -2.11098 0
M  V30 27187 C 2597.46 0.132418 -1.65571 0
M  V30 27188 O 2598.65 -0.0099093 -1.90797 0
M  V30 27189 C 2595.79 -0.478807 -3.41762 0
M  V30 27190 C 2594.9 -1.61117 -4.00831 0
M  V30 27191 C 2594.03 -1.10834 -5.19509 0
M  V30 27192 C 2593.07 -2.21455 -5.70635 0
M  V30 27193 N 2592.21 -1.72473 -6.80586 0
M  V30 27194 H 2597.05 -1.86032 -2.32801 0
M  V30 27195 H 2594.59 -0.927461 -1.14178 0
M  V30 27196 H 2596.54 -0.196819 -4.16735 0
M  V30 27197 H 2595.17 0.411437 -3.20167 0
M  V30 27198 H 2594.23 -2.00835 -3.23063 0
M  V30 27199 H 2595.54 -2.44457 -4.3479 0
M  V30 27200 H 2594.69 -0.781639 -6.01644 0
M  V30 27201 H 2593.43 -0.244691 -4.87086 0
M  V30 27202 H 2592.44 -2.54955 -4.87112 0
M  V30 27203 H 2593.66 -3.08278 -6.05097 0
M  V30 27204 H 2591.61 -0.884171 -6.50014 0
M  V30 27205 H 2591.52 -2.49401 -7.13677 0
M  V30 27206 H 2592.79 -1.42768 -7.66314 0
M  V30 27207 N 2597.02 1.21924 -0.998617 0
M  V30 27208 C 2597.95 2.26342 -0.573728 0
M  V30 27209 C 2598.93 1.65275 0.402267 0
M  V30 27210 O 2600.12 1.91998 0.291649 0
M  V30 27211 C 2597.25 3.47136 0.106778 0
M  V30 27212 C 2596.2 4.20677 -0.788342 0
M  V30 27213 C 2595.53 5.34694 0.0253987 0
M  V30 27214 C 2596.83 4.78752 -2.08792 0
M  V30 27215 H 2598.52 2.62136 -1.44655 0
M  V30 27216 H 2596.07 1.26008 -0.696998 0
M  V30 27217 H 2598.02 4.19347 0.415457 0
M  V30 27218 H 2596.74 3.10454 1.01419 0
M  V30 27219 H 2595.4 3.50308 -1.08075 0
M  V30 27220 H 2595.05 4.94254 0.933902 0
M  V30 27221 H 2594.75 5.84824 -0.57054 0
M  V30 27222 H 2596.28 6.09718 0.32804 0
M  V30 27223 H 2597.69 5.42875 -1.84282 0
M  V30 27224 H 2596.09 5.39244 -2.63317 0
M  V30 27225 H 2597.16 3.98486 -2.76291 0
M  V30 27226 N 2598.5 0.772537 1.37367 0
M  V30 27227 C 2599.41 0.160122 2.34053 0
M  V30 27228 C 2600.43 -0.6787 1.60218 0
M  V30 27229 O 2601.6 -0.598436 1.92304 0
M  V30 27230 C 2598.67 -0.708122 3.39391 0
M  V30 27231 C 2597.73 0.147248 4.29047 0
M  V30 27232 C 2596.96 -0.679651 5.29355 0
M  V30 27233 O 2597.18 -1.91669 5.37233 0
M  V30 27234 O 2596.12 -0.0884386 6.01835 0
M  V30 27235 H 2599.94 0.959103 2.88158 0
M  V30 27236 H 2597.53 0.53371 1.39542 0
M  V30 27237 H 2599.41 -1.20377 4.03841 0
M  V30 27238 H 2598.09 -1.48528 2.87613 0
M  V30 27239 H 2596.99 0.68927 3.67695 0
M  V30 27240 H 2598.33 0.887508 4.84132 0
M  V30 27241 N 2599.98 -1.48664 0.523142 0
M  V30 27242 C 2601.39 -1.86525 0.0809325 0
M  V30 27243 C 2601.74 -1.43338 -1.33972 0
M  V30 27244 O 2600.86 -0.821044 -2.00219 0
M  V30 27245 C 2601.46 -3.3851 0.140096 0
M  V30 27246 C 2600.02 -3.75589 -0.246882 0
M  V30 27247 C 2599.17 -2.72702 0.502893 0
M  V30 27248 H 2602.12 -1.40666 0.734761 0
M  V30 27249 H 2602.14 -3.74909 -0.649879 0
M  V30 27250 H 2601.65 -3.69912 1.17418 0
M  V30 27251 H 2599.75 -3.49801 -1.28337 0
M  V30 27252 H 2599.86 -4.79019 0.0879701 0
M  V30 27253 H 2598.23 -2.54651 -0.0500134 0
M  V30 27254 H 2599.01 -3.06947 1.53748 0
M  V30 27255 N 2601.46 -0.257958 -1.55475 0
M  V30 27256 C 2602.68 0.370453 -2.04065 0
M  V30 27257 C 2603.11 1.49946 -1.13568 0
M  V30 27258 O 2602.46 1.80827 -0.130812 0
M  V30 27259 C 2602.51 0.845176 -3.50555 0
M  V30 27260 O 2601.62 1.95388 -3.63177 0
M  V30 27261 H 2600.96 0.0792128 -0.659258 0
M  V30 27262 H 2603.49 -0.387247 -2.00902 0
M  V30 27263 H 2603.5 1.14548 -3.9159 0
M  V30 27264 H 2602.17 0.0190528 -4.15896 0
M  V30 27265 H 2600.75 1.65742 -3.34042 0
M  V30 27266 N 2602.93 1.57593 0.0150108 0
M  V30 27267 C 2604.18 1.90188 0.70401 0
M  V30 27268 C 2604.51 0.857396 1.74248 0
M  V30 27269 O 2603.79 -0.125809 1.94093 0
M  V30 27270 C 2604.07 3.33398 1.36081 0
M  V30 27271 C 2603.92 4.48551 0.334902 0
M  V30 27272 C 2605.24 3.75764 2.29105 0
M  V30 27273 H 2602.36 0.691677 0.254463 0
M  V30 27274 H 2605 1.89971 -0.0332012 0
M  V30 27275 H 2603.15 3.33713 1.98916 0
M  V30 27276 H 2604.83 4.60371 -0.292615 0
M  V30 27277 H 2603.07 4.32431 -0.344401 0
M  V30 27278 H 2603.74 5.45675 0.83322 0
M  V30 27279 H 2606.22 3.76905 1.76301 0
M  V30 27280 H 2605.09 4.76748 2.72035 0
M  V30 27281 H 2605.35 3.08798 3.1638 0
M  V30 27282 N 2604.41 -0.287527 1.54955 0
M  V30 27283 C 2605.66 -1.02103 1.74875 0
M  V30 27284 C 2605.99 -1.868 0.541862 0
M  V30 27285 O 2605.24 -1.89824 -0.475959 0
M  V30 27286 C 2605.54 -1.94507 2.99836 0
M  V30 27287 C 2605.21 -1.25678 4.33031 0
M  V30 27288 C 2603.87 -1.0664 4.69235 0
M  V30 27289 C 2606.22 -0.765823 5.15543 0
M  V30 27290 C 2603.55 -0.37212 5.85519 0
M  V30 27291 C 2605.9 -0.0851989 6.32543 0
M  V30 27292 C 2604.57 0.117017 6.67397 0
M  V30 27293 H 2603.84 -0.373621 0.639913 0
M  V30 27294 H 2606.48 -0.294632 1.8922 0
M  V30 27295 H 2604.79 -2.7372 2.8033 0
M  V30 27296 H 2606.48 -2.51356 3.12444 0
M  V30 27297 H 2603.07 -1.41505 4.04567 0
M  V30 27298 H 2607.26 -0.900574 4.88061 0
M  V30 27299 H 2602.51 -0.204588 6.11058 0
M  V30 27300 H 2606.69 0.303058 6.9574 0
M  V30 27301 H 2604.32 0.656992 7.57356 0
M  V30 27302 N 2605.89 -1.47641 -0.551365 0
M  V30 27303 C 2606.84 -1.56972 -1.65359 0
M  V30 27304 C 2607.82 -0.428216 -1.55097 0
M  V30 27305 O 2609.02 -0.67847 -1.6348 0
M  V30 27306 C 2606.15 -1.59254 -3.04127 0
M  V30 27307 C 2605.23 -2.7881 -3.19571 0
M  V30 27308 N 2605.62 -4.0345 -3.0506 0
M  V30 27309 C 2603.92 -2.75694 -3.50584 0
M  V30 27310 C 2604.62 -4.83548 -3.23351 0
M  V30 27311 N 2603.6 -4.15974 -3.49952 0
M  V30 27312 H 2607.4 -2.51107 -1.52718 0
M  V30 27313 H 2604.91 -1.43716 -0.756278 0
M  V30 27314 H 2606.91 -1.6403 -3.83275 0
M  V30 27315 H 2605.57 -0.662204 -3.17876 0
M  V30 27316 H 2606.58 -4.3422 -2.82265 0
M  V30 27317 H 2603.26 -1.91823 -3.70823 0
M  V30 27318 H 2604.65 -5.92392 -3.1705 0
M  V30 27319 N 2607.37 0.798563 -1.3587 0
M  V30 27320 C 2608.3 1.91913 -1.25308 0
M  V30 27321 C 2609.31 1.61861 -0.174577 0
M  V30 27322 O 2610.5 1.7328 -0.428529 0
M  V30 27323 C 2607.6 3.26491 -0.908657 0
M  V30 27324 C 2606.78 3.8439 -2.08718 0
M  V30 27325 C 2605.83 4.9739 -1.71726 0
M  V30 27326 O 2604.86 5.14391 -2.43701 0
M  V30 27327 N 2606.06 5.76899 -0.645574 0
M  V30 27328 H 2608.83 2.01498 -2.21853 0
M  V30 27329 H 2606.39 0.976385 -1.29145 0
M  V30 27330 H 2608.38 3.99567 -0.642525 0
M  V30 27331 H 2606.95 3.12583 -0.0326365 0
M  V30 27332 H 2606.17 3.03412 -2.51664 0
M  V30 27333 H 2607.46 4.19804 -2.87475 0
M  V30 27334 H 2606.86 5.6568 -0.0477474 0
M  V30 27335 H 2605.41 6.50318 -0.439244 0
M  V30 27336 N 2608.85 1.19999 1.02166 0
M  V30 27337 C 2610.09 1.00855 1.75944 0
M  V30 27338 C 2610.43 -0.458794 1.88703 0
M  V30 27339 O 2609.7 -1.34066 1.40913 0
M  V30 27340 C 2609.98 1.68677 3.18151 0
M  V30 27341 C 2609.84 3.22822 3.13218 0
M  V30 27342 C 2611.16 1.41569 4.16709 0
M  V30 27343 H 2608.27 0.367796 0.638666 0
M  V30 27344 H 2610.92 1.47942 1.19219 0
M  V30 27345 H 2609.07 1.28643 3.66583 0
M  V30 27346 H 2610.74 3.72117 2.72629 0
M  V30 27347 H 2608.98 3.53991 2.50745 0
M  V30 27348 H 2609.65 3.65429 4.13721 0
M  V30 27349 H 2612.13 1.76291 3.7691 0
M  V30 27350 H 2611 1.91563 5.14388 0
M  V30 27351 H 2611.27 0.342271 4.40773 0
M  V30 27352 N 2610.32 -1.21392 1.00507 0
M  V30 27353 C 2611.57 -1.90461 0.687807 0
M  V30 27354 C 2611.9 -1.78112 -0.781439 0
M  V30 27355 O 2611.15 -1.15193 -1.58206 0
M  V30 27356 C 2611.45 -3.41484 1.05466 0
M  V30 27357 C 2611.12 -3.74029 2.51819 0
M  V30 27358 C 2609.78 -3.82623 2.9181 0
M  V30 27359 C 2612.13 -3.89234 3.46621 0
M  V30 27360 C 2609.46 -4.03868 4.25567 0
M  V30 27361 C 2611.81 -4.11987 4.80052 0
M  V30 27362 C 2610.48 -4.18807 5.19766 0
M  V30 27363 H 2609.75 -0.696947 0.251687 0
M  V30 27364 H 2612.39 -1.43901 1.26352 0
M  V30 27365 H 2610.7 -3.89781 0.397202 0
M  V30 27366 H 2612.4 -3.932 0.787045 0
M  V30 27367 H 2608.99 -3.67932 2.19827 0
M  V30 27368 H 2613.17 -3.81962 3.1689 0
M  V30 27369 H 2608.43 -4.07379 4.55908 0
M  V30 27370 H 2612.6 -4.22694 5.53446 0
M  V30 27371 H 2610.23 -4.35022 6.23426 0
M  V30 27372 N 2611.8 -0.779811 -1.36955 0
M  V30 27373 C 2612.71 -0.172532 -2.33965 0
M  V30 27374 C 2613.73 0.670193 -1.60575 0
M  V30 27375 O 2614.9 0.588229 -1.92618 0
M  V30 27376 C 2611.97 0.690113 -3.39762 0
M  V30 27377 C 2611.03 -0.169999 -4.28963 0
M  V30 27378 C 2610.26 0.651569 -5.29708 0
M  V30 27379 O 2610.49 1.88817 -5.38242 0
M  V30 27380 O 2609.42 0.0565206 -6.01873 0
M  V30 27381 H 2613.25 -0.974372 -2.87645 0
M  V30 27382 H 2610.83 -0.541102 -1.39257 0
M  V30 27383 H 2612.71 1.18233 -4.04474 0
M  V30 27384 H 2611.39 1.47 -2.88397 0
M  V30 27385 H 2610.3 -0.70876 -3.67325 0
M  V30 27386 H 2611.63 -0.91317 -4.83655 0
M  V30 27387 N 2613.28 1.48384 -0.531019 0
M  V30 27388 C 2614.53 2.021 0.00269637 0
M  V30 27389 C 2614.85 1.41029 1.34669 0
M  V30 27390 O 2614.12 0.576045 1.87239 0
M  V30 27391 H 2612.7 0.746989 0.00398461 0
M  V30 27392 H 2615.36 1.82084 -0.695086 0
M  V30 27393 H 2614.46 3.11905 0.110255 0
M  V30 27394 N 2614.76 0.2662 1.55336 0
M  V30 27395 C 2616.04 -0.404452 1.91373 0
M  V30 27396 C 2616.42 -1.74405 1.18938 0
M  V30 27397 O 2615.76 -2.26343 0.31324 0
M  V30 27398 C 2615.97 -0.553532 3.44582 0
M  V30 27399 C 2617.32 -0.840545 4.16197 0
M  V30 27400 O 2618.35 -0.638677 3.50427 0
M  V30 27401 O 2617.2 -1.22608 5.32569 0
M  V30 27402 H 2614.3 -0.220011 0.797198 0
M  V30 27403 H 2616.84 0.311694 1.66813 0
M  V30 27404 H 2615.62 0.389566 3.89356 0
M  V30 27405 H 2615.24 -1.31949 3.75067 0
M  V30 27406 N 2616.24 -1.57599 -0.0066531 0
M  V30 27407 C 2617.18 -2.08001 -1.0002 0
M  V30 27408 C 2618.15 -0.973967 -1.34548 0
M  V30 27409 O 2619.34 -1.24598 -1.44499 0
M  V30 27410 C 2616.48 -2.58256 -2.28905 0
M  V30 27411 C 2615.59 -3.82738 -2.00339 0
M  V30 27412 C 2614.73 -4.21519 -3.23257 0
M  V30 27413 C 2613.77 -5.38855 -2.90347 0
M  V30 27414 N 2612.9 -5.72961 -4.05783 0
M  V30 27415 H 2617.74 -2.92625 -0.563448 0
M  V30 27416 H 2615.28 -1.44665 -0.266567 0
M  V30 27417 H 2617.24 -2.85469 -3.04242 0
M  V30 27418 H 2615.87 -1.76517 -2.70262 0
M  V30 27419 H 2614.92 -3.62473 -1.154 0
M  V30 27420 H 2616.23 -4.68178 -1.72078 0
M  V30 27421 H 2615.39 -4.49979 -4.06945 0
M  V30 27422 H 2614.12 -3.34774 -3.54651 0
M  V30 27423 H 2613.13 -5.10126 -2.05066 0
M  V30 27424 H 2614.35 -6.27271 -2.60208 0
M  V30 27425 H 2612.3 -4.89175 -4.37086 0
M  V30 27426 H 2612.22 -6.52961 -3.81023 0
M  V30 27427 H 2613.49 -6.06009 -4.90278 0
M  V30 27428 N 2617.72 0.279305 -1.55105 0
M  V30 27429 C 2618.63 1.36724 -1.9064 0
M  V30 27430 C 2619.64 1.54367 -0.802926 0
M  V30 27431 O 2620.82 1.68615 -1.10141 0
M  V30 27432 C 2617.88 2.70751 -2.16552 0
M  V30 27433 C 2616.94 2.61909 -3.40151 0
M  V30 27434 C 2616.18 3.89544 -3.64817 0
M  V30 27435 O 2616.4 4.8993 -2.92103 0
M  V30 27436 O 2615.33 3.90127 -4.5835 0
M  V30 27437 H 2619.16 1.09586 -2.83239 0
M  V30 27438 H 2616.74 0.477281 -1.41571 0
M  V30 27439 H 2618.63 3.5001 -2.34671 0
M  V30 27440 H 2617.3 2.97688 -1.27136 0
M  V30 27441 H 2616.21 1.81046 -3.27373 0
M  V30 27442 H 2617.54 2.39922 -4.29765 0
M  V30 27443 N 2619.19 1.47931 0.543528 0
M  V30 27444 C 2620.6 1.48955 1.12558 0
M  V30 27445 C 2620.96 0.251788 1.94578 0
M  V30 27446 O 2620.08 -0.642219 2.06651 0
M  V30 27447 C 2620.68 2.69896 2.04797 0
M  V30 27448 C 2619.23 2.73835 2.58246 0
M  V30 27449 C 2618.38 2.42268 1.34914 0
M  V30 27450 H 2621.33 1.55243 0.329443 0
M  V30 27451 H 2621.35 2.47644 2.88882 0
M  V30 27452 H 2620.87 3.59965 1.45074 0
M  V30 27453 H 2618.97 1.8794 3.21729 0
M  V30 27454 H 2619.08 3.74901 2.98306 0
M  V30 27455 H 2617.44 1.93137 1.66043 0
M  V30 27456 H 2618.23 3.34562 0.769634 0
M  V30 27457 N 2620.67 -0.791347 1.36292 0
M  V30 27458 C 2621.63 -1.88551 1.30312 0
M  V30 27459 C 2622.63 -1.59407 0.211232 0
M  V30 27460 O 2623.82 -1.67854 0.465895 0
M  V30 27461 C 2620.96 -3.25295 1.01961 0
M  V30 27462 H 2622.15 -1.95269 2.27618 0
M  V30 27463 H 2619.7 -0.988932 1.21037 0
M  V30 27464 H 2620.44 -3.2426 0.051055 0
M  V30 27465 H 2620.22 -3.47837 1.80974 0
M  V30 27466 H 2621.71 -4.05357 1.00377 0
M  V30 27467 N 2622.15 -1.2054 -1.01528 0
M  V30 27468 C 2623.4 -1.01786 -1.75406 0
M  V30 27469 C 2623.73 0.448781 -1.88943 0
M  V30 27470 O 2623 1.33317 -1.41622 0
M  V30 27471 C 2623.29 -1.70361 -3.17252 0
M  V30 27472 C 2623.14 -3.24479 -3.11502 0
M  V30 27473 C 2624.46 -1.43777 -4.15952 0
M  V30 27474 H 2621.58 -0.371178 -0.636707 0
M  V30 27475 H 2624.22 -1.48572 -1.18433 0
M  V30 27476 H 2622.37 -1.30585 -3.65896 0
M  V30 27477 H 2624.04 -3.73558 -2.70652 0
M  V30 27478 H 2622.28 -3.55316 -2.48864 0
M  V30 27479 H 2622.96 -3.67618 -4.11778 0
M  V30 27480 H 2625.43 -1.78287 -3.75969 0
M  V30 27481 H 2624.31 -1.94288 -5.13365 0
M  V30 27482 H 2624.57 -0.365641 -4.40585 0
M  V30 27483 N 2623.63 1.20858 -1.01149 0
M  V30 27484 C 2624.56 2.25721 -0.597702 0
M  V30 27485 C 2625.54 1.65692 0.384714 0
M  V30 27486 O 2626.72 1.92296 0.271269 0
M  V30 27487 C 2623.85 3.4723 0.0699539 0
M  V30 27488 C 2622.81 4.19817 -0.832917 0
M  V30 27489 C 2622.13 5.34691 -0.0313142 0
M  V30 27490 C 2623.43 4.7651 -2.13858 0
M  V30 27491 H 2625.13 2.60587 -1.47428 0
M  V30 27492 H 2622.67 1.25261 -0.710323 0
M  V30 27493 H 2624.63 4.19764 0.370956 0
M  V30 27494 H 2623.35 3.11512 0.981205 0
M  V30 27495 H 2622.01 3.49142 -1.11784 0
M  V30 27496 H 2621.66 4.95217 0.881428 0
M  V30 27497 H 2621.36 5.84186 -0.632536 0
M  V30 27498 H 2622.88 6.10032 0.263353 0
M  V30 27499 H 2624.3 5.4089 -1.90029 0
M  V30 27500 H 2622.69 5.36421 -2.69022 0
M  V30 27501 H 2623.76 3.95533 -2.80502 0
M  V30 27502 N 2625.11 0.787064 1.3654 0
M  V30 27503 C 2626.52 0.468467 1.5257 0
M  V30 27504 C 2626.72 -1.01358 1.74152 0
M  V30 27505 O 2625.78 -1.79912 1.77166 0
M  V30 27506 C 2627.09 1.29686 2.71297 0
M  V30 27507 C 2628.64 1.29032 2.85166 0
M  V30 27508 C 2629.11 2.1024 4.06895 0
M  V30 27509 N 2630.6 2.07673 4.14036 0
M  V30 27510 C 2631.34 2.6728 5.07296 0
M  V30 27511 N 2630.84 3.35735 6.06015 0
M  V30 27512 N 2632.63 2.57026 4.99894 0
M  V30 27513 H 2624.78 1.74714 1.20785 0
M  V30 27514 H 2627.04 0.742543 0.589351 0
M  V30 27515 H 2626.75 2.34777 2.61864 0
M  V30 27516 H 2626.62 0.936543 3.65388 0
M  V30 27517 H 2629.01 0.247336 2.94062 0
M  V30 27518 H 2629.09 1.69038 1.91989 0
M  V30 27519 H 2628.73 3.14567 3.9876 0
M  V30 27520 H 2628.66 1.67605 4.99215 0
M  V30 27521 H 2631.16 1.57849 3.43354 0
M  V30 27522 H 2631.47 3.78553 6.73734 0
M  V30 27523 H 2629.81 3.39837 6.06247 0
M  V30 27524 H 2633 2.03149 4.2172 0
M  V30 27525 H 2633.18 3.03772 5.72387 0
M  V30 27526 N 2626.58 -1.48101 0.53888 0
M  V30 27527 C 2627.53 -2.31437 -0.232284 0
M  V30 27528 C 2628.53 -1.41787 -0.926979 0
M  V30 27529 O 2629.73 -1.58648 -0.85035 0
M  V30 27530 H 2626.11 -0.74613 -0.0937785 0
M  V30 27531 H 2628.08 -2.94349 0.490038 0
M  V30 27532 C 2626.83 -3.2404 -1.26068 0
M  V30 27533 H 2626.15 -3.92976 -0.73554 0
M  V30 27534 H 2627.59 -3.85219 -1.7715 0
M  V30 27535 C 2626.05 -2.46269 -2.29898 0
M  V30 27536 O 2626.58 -2.1939 -3.36498 0
M  V30 27537 N 2624.78 -2.07604 -2.03344 0
M  V30 27538 H 2624.33 -2.29664 -1.16671 0
M  V30 27539 H 2624.29 -1.55882 -2.73035 0
M  V30 27540 N 2628.06 -0.274434 -1.55192 0
M  V30 27541 C 2629.31 0.341867 -1.99188 0
M  V30 27542 C 2629.63 1.56429 -1.16425 0
M  V30 27543 O 2628.9 1.94251 -0.253607 0
M  V30 27544 H 2627.48 0.129304 -0.735724 0
M  V30 27545 H 2630.14 -0.379611 -1.91167 0
M  V30 27546 H 2629.24 0.632199 -3.0563 0
M  V30 27547 N 2629.54 1.576 -0.00170483 0
M  V30 27548 C 2630.82 1.8187 0.719919 0
M  V30 27549 C 2631.2 0.87978 1.91893 0
M  V30 27550 O 2630.54 -0.0711021 2.28389 0
M  V30 27551 C 2630.75 3.30403 1.12403 0
M  V30 27552 C 2632.1 3.96185 1.52717 0
M  V30 27553 O 2633.13 3.34736 1.21778 0
M  V30 27554 O 2631.99 5.04435 2.10256 0
M  V30 27555 H 2629.08 0.748961 0.350694 0
M  V30 27556 H 2631.63 1.69678 -0.0272895 0
M  V30 27557 H 2630.4 3.90371 0.269464 0
M  V30 27558 H 2630.02 3.476 1.93029 0
M  V30 27559 N 2631.02 -0.271076 1.55251 0
M  V30 27560 C 2632.43 -0.841978 1.66636 0
M  V30 27561 C 2632.78 -1.86971 0.594664 0
M  V30 27562 O 2631.9 -2.1479 -0.263494 0
M  V30 27563 C 2632.5 -1.53396 3.02085 0
M  V30 27564 C 2631.06 -2.05287 3.1549 0
M  V30 27565 C 2630.21 -0.895585 2.6244 0
M  V30 27566 H 2633.16 -0.0473838 1.58629 0
M  V30 27567 H 2633.18 -2.40102 2.9518 0
M  V30 27568 H 2632.69 -0.785719 3.80063 0
M  V30 27569 H 2630.79 -2.83067 2.42289 0
M  V30 27570 H 2630.9 -2.26686 4.22079 0
M  V30 27571 H 2629.27 -1.28949 2.19646 0
M  V30 27572 H 2630.05 -0.160818 3.42923 0
M  V30 27573 N 2632.5 -1.48217 -0.535675 0
M  V30 27574 C 2633.91 -1.34212 -0.863677 0
M  V30 27575 C 2634.11 -0.348825 -1.98458 0
M  V30 27576 O 2633.17 0.231996 -2.51432 0
M  V30 27577 C 2634.48 -2.74097 -1.23658 0
M  V30 27578 C 2636.03 -2.82543 -1.34678 0
M  V30 27579 C 2636.5 -4.23118 -1.75314 0
M  V30 27580 N 2638 -4.25764 -1.82427 0
M  V30 27581 C 2638.73 -5.31468 -2.15242 0
M  V30 27582 N 2638.23 -6.47456 -2.46521 0
M  V30 27583 N 2640.02 -5.18858 -2.162 0
M  V30 27584 H 2632.17 -2.11418 0.204002 0
M  V30 27585 H 2634.43 -0.947568 0.0286199 0
M  V30 27586 H 2634.14 -3.48317 -0.486613 0
M  V30 27587 H 2634.01 -3.07257 -2.188 0
M  V30 27588 H 2636.4 -2.08582 -2.08752 0
M  V30 27589 H 2636.48 -2.53011 -0.376712 0
M  V30 27590 H 2636.13 -4.97593 -1.01803 0
M  V30 27591 H 2636.06 -4.5009 -2.73362 0
M  V30 27592 H 2638.55 -3.42098 -1.60554 0
M  V30 27593 H 2638.86 -7.23857 -2.7065 0
M  V30 27594 H 2637.2 -6.5074 -2.44054 0
M  V30 27595 H 2640.4 -4.27263 -1.91217 0
M  V30 27596 H 2640.57 -6.0134 -2.41443 0
M  V30 27597 N 2633.97 0.784108 -1.3671 0
M  V30 27598 C 2634.9 1.91114 -1.34156 0
M  V30 27599 C 2635.89 1.68772 -0.212151 0
M  V30 27600 O 2637.07 1.89809 -0.410615 0
M  V30 27601 C 2634.2 3.28216 -1.13541 0
M  V30 27602 C 2633.15 3.65094 -2.23362 0
M  V30 27603 C 2632.48 5.00603 -1.87884 0
M  V30 27604 C 2633.78 3.73125 -3.65479 0
M  V30 27605 H 2635.47 1.93508 -2.28463 0
M  V30 27606 H 2633.02 0.929599 -1.09975 0
M  V30 27607 H 2634.97 4.06685 -1.10388 0
M  V30 27608 H 2633.7 3.26223 -0.156861 0
M  V30 27609 H 2632.36 2.88925 -2.2565 0
M  V30 27610 H 2632 4.95137 -0.885902 0
M  V30 27611 H 2631.7 5.26247 -2.61415 0
M  V30 27612 H 2633.23 5.81486 -1.86296 0
M  V30 27613 H 2634.64 4.41773 -3.6539 0
M  V30 27614 H 2633.04 4.10257 -4.3796 0
M  V30 27615 H 2634.11 2.74095 -4 0
M  V30 27616 N 2635.45 1.21076 1.00888 0
M  V30 27617 C 2636.4 0.966548 2.09586 0
M  V30 27618 C 2637.37 -0.10606 1.65761 0
M  V30 27619 O 2638.55 0.0402623 1.90758 0
M  V30 27620 C 2635.69 0.533118 3.40957 0
M  V30 27621 C 2634.81 1.67474 3.98217 0
M  V30 27622 C 2633.94 1.19085 5.1768 0
M  V30 27623 C 2632.98 2.30506 5.67039 0
M  V30 27624 N 2632.12 1.83279 6.77756 0
M  V30 27625 H 2636.96 1.89712 2.29812 0
M  V30 27626 H 2634.5 0.945509 1.12688 0
M  V30 27627 H 2636.45 0.263093 4.1637 0
M  V30 27628 H 2635.08 -0.360449 3.20781 0
M  V30 27629 H 2634.14 2.05949 3.19827 0
M  V30 27630 H 2635.45 2.51343 4.30846 0
M  V30 27631 H 2634.6 0.877256 6.00324 0
M  V30 27632 H 2633.34 0.322151 4.86635 0
M  V30 27633 H 2632.35 2.62673 4.82994 0
M  V30 27634 H 2633.57 3.17865 6.00115 0
M  V30 27635 H 2631.52 0.98747 6.48525 0
M  V30 27636 H 2631.43 2.60724 7.09619 0
M  V30 27637 H 2632.7 1.54942 7.63946 0
M  V30 27638 N 2636.93 -1.2032 1.01789 0
M  V30 27639 C 2637.89 -2.21369 0.594011 0
M  V30 27640 C 2638.89 -1.57239 -0.336525 0
M  V30 27641 O 2640.08 -1.73751 -0.125038 0
M  V30 27642 C 2637.22 -3.40643 -0.132373 0
M  V30 27643 H 2638.41 -2.60384 1.48796 0
M  V30 27644 H 2635.96 -1.33805 0.807826 0
M  V30 27645 H 2636.7 -3.07132 -1.04117 0
M  V30 27646 H 2636.48 -3.88418 0.536119 0
M  V30 27647 H 2637.97 -4.1552 -0.416241 0
M  V30 27648 N 2638.41 -0.794293 -1.3612 0
M  V30 27649 C 2639.36 -0.184064 -2.31871 0
M  V30 27650 C 2640.35 0.659338 -1.56042 0
M  V30 27651 O 2641.56 0.553876 -1.71267 0
M  V30 27652 H 2637.93 -0.0407505 -0.750895 0
M  V30 27653 H 2639.9 -1.00698 -2.80896 0
M  V30 27654 C 2638.65 0.662753 -3.41325 0
M  V30 27655 H 2637.97 0.0231242 -3.99793 0
M  V30 27656 H 2639.41 1.05632 -4.10631 0
M  V30 27657 C 2637.87 1.82308 -2.83312 0
M  V30 27658 O 2638.4 2.91992 -2.75869 0
M  V30 27659 N 2636.61 1.63072 -2.40532 0
M  V30 27660 H 2636.16 0.738548 -2.46786 0
M  V30 27661 H 2636.11 2.40868 -2.02064 0
M  V30 27662 N 2639.89 1.47813 -0.546727 0
M  V30 27663 C 2641.13 2.02491 -0.0187763 0
M  V30 27664 C 2641.46 1.42217 1.32682 0
M  V30 27665 O 2640.72 0.563487 1.87412 0
M  V30 27666 C 2641.02 3.57146 0.134807 0
M  V30 27667 C 2640.68 4.36288 -1.13856 0
M  V30 27668 C 2639.34 4.57632 -1.48751 0
M  V30 27669 C 2641.7 4.82009 -1.98285 0
M  V30 27670 C 2639.02 5.21943 -2.67941 0
M  V30 27671 C 2641.38 5.47634 -3.16669 0
M  V30 27672 C 2640.04 5.67213 -3.51889 0
M  V30 27673 H 2639.31 0.740968 -0.00687072 0
M  V30 27674 H 2641.96 1.77606 -0.716128 0
M  V30 27675 H 2640.26 3.80965 0.915051 0
M  V30 27676 H 2641.96 3.97092 0.558486 0
M  V30 27677 H 2638.55 4.19948 -0.856841 0
M  V30 27678 H 2642.73 4.65307 -1.72636 0
M  V30 27679 H 2637.99 5.35297 -2.9541 0
M  V30 27680 H 2642.16 5.82027 -3.82385 0
M  V30 27681 H 2639.79 6.16818 -4.44342 0
M  V30 27682 N 2641.36 0.28266 1.55044 0
M  V30 27683 C 2642.27 -0.61143 2.26492 0
M  V30 27684 C 2643.29 -1.16381 1.2935 0
M  V30 27685 O 2644.47 -1.1925 1.623 0
M  V30 27686 C 2641.53 -1.77558 2.97782 0
M  V30 27687 C 2640.59 -1.25911 4.1042 0
M  V30 27688 C 2639.83 -2.36778 4.78301 0
M  V30 27689 O 2640.05 -3.56295 4.45432 0
M  V30 27690 O 2638.98 -2.04507 5.66092 0
M  V30 27691 H 2642.81 -0.0324082 3.03683 0
M  V30 27692 H 2640.39 0.0497838 1.49317 0
M  V30 27693 H 2642.28 -2.45421 3.42559 0
M  V30 27694 H 2640.95 -2.34155 2.23502 0
M  V30 27695 H 2639.86 -0.546732 3.70083 0
M  V30 27696 H 2641.19 -0.738801 4.86624 0
M  V30 27697 N 2642.84 -1.57597 0.0100627 0
M  V30 27698 C 2643.75 -2.12492 -0.994189 0
M  V30 27699 C 2644.77 -1.07256 -1.37011 0
M  V30 27700 O 2645.94 -1.39212 -1.4554 0
M  V30 27701 C 2643.01 -2.62559 -2.26415 0
M  V30 27702 C 2642.07 -3.82436 -1.95042 0
M  V30 27703 C 2641.3 -4.30105 -3.15983 0
M  V30 27704 O 2641.53 -3.77048 -4.28009 0
M  V30 27705 O 2640.46 -5.22156 -2.99393 0
M  V30 27706 H 2644.29 -2.98539 -0.557496 0
M  V30 27707 H 2641.87 -1.47925 -0.209387 0
M  V30 27708 H 2643.75 -2.94915 -3.01004 0
M  V30 27709 H 2642.43 -1.79605 -2.69303 0
M  V30 27710 H 2641.34 -3.55037 -1.17898 0
M  V30 27711 H 2642.67 -4.66494 -1.56984 0
M  V30 27712 N 2644.32 0.262839 -1.55393 0
M  V30 27713 C 2645.28 1.30842 -1.88183 0
M  V30 27714 C 2646.28 1.41861 -0.757104 0
M  V30 27715 O 2647.47 1.40837 -1.02522 0
M  V30 27716 C 2644.61 2.6884 -2.09614 0
M  V30 27717 H 2645.8 1.02992 -2.8166 0
M  V30 27718 H 2643.35 0.501388 -1.4804 0
M  V30 27719 H 2644.09 3.01854 -1.18552 0
M  V30 27720 H 2643.87 2.62226 -2.91513 0
M  V30 27721 H 2645.36 3.44368 -2.36221 0
M  V30 27722 N 2645.8 1.48499 0.527807 0
M  V30 27723 C 2647.05 1.55881 1.28001 0
M  V30 27724 C 2647.36 0.238611 1.94139 0
M  V30 27725 O 2648.57 0.190691 2.7083 0
M  V30 27726 C 2647.02 2.74918 2.32267 0
M  V30 27727 C 2646.63 4.13588 1.72188 0
M  V30 27728 C 2648.37 2.91613 3.08483 0
M  V30 27729 C 2646.28 5.23884 2.74408 0
M  V30 27730 H 2645.21 0.580317 0.481403 0
M  V30 27731 H 2647.86 1.74837 0.557165 0
M  V30 27732 H 2646.24 2.494 3.07596 0
M  V30 27733 H 2647.42 4.49133 1.03033 0
M  V30 27734 H 2645.73 4.02027 1.08457 0
M  V30 27735 H 2648.33 3.71183 3.84873 0
M  V30 27736 H 2648.67 2.01152 3.64477 0
M  V30 27737 H 2649.21 3.17042 2.40269 0
M  V30 27738 H 2645.95 6.16318 2.23231 0
M  V30 27739 H 2645.47 4.92824 3.41884 0
M  V30 27740 H 2647.14 5.52089 3.37352 0
M  V30 27741 N 2647.28 -0.776847 1.37123 0
M  V30 27742 C 2648.52 -1.53522 1.3205 0
M  V30 27743 C 2648.85 -1.9426 -0.096529 0
M  V30 27744 O 2648.11 -1.63947 -1.06863 0
M  V30 27745 C 2648.41 -2.81607 2.20073 0
M  V30 27746 C 2648.07 -2.59947 3.68427 0
M  V30 27747 C 2646.73 -2.53747 4.08859 0
M  V30 27748 C 2649.09 -2.40423 4.62435 0
M  V30 27749 C 2646.41 -2.26008 5.41421 0
M  V30 27750 C 2648.77 -2.14209 5.95229 0
M  V30 27751 C 2647.43 -2.06451 6.34771 0
M  V30 27752 H 2646.7 -0.561777 0.483206 0
M  V30 27753 H 2649.35 -0.895238 1.69286 0
M  V30 27754 H 2647.65 -3.50138 1.75815 0
M  V30 27755 H 2649.35 -3.39461 2.13464 0
M  V30 27756 H 2645.94 -2.65632 3.36359 0
M  V30 27757 H 2650.12 -2.44206 4.32062 0
M  V30 27758 H 2645.38 -2.18494 5.71026 0
M  V30 27759 H 2649.55 -1.981 6.6763 0
M  V30 27760 H 2647.18 -1.8472 7.37416 0
M  V30 27761 N 2648.76 -1.2161 -1.00244 0
M  V30 27762 C 2649.98 -1.0617 -1.78165 0
M  V30 27763 C 2650.41 0.384002 -1.84139 0
M  V30 27764 O 2649.76 1.2771 -1.28685 0
M  V30 27765 C 2649.81 -1.66648 -3.19783 0
M  V30 27766 O 2648.92 -0.913684 -4.02151 0
M  V30 27767 H 2648.26 -0.3735 -0.548993 0
M  V30 27768 H 2650.79 -1.61206 -1.25991 0
M  V30 27769 H 2650.8 -1.70975 -3.70448 0
M  V30 27770 H 2649.47 -2.71856 -3.14749 0
M  V30 27771 H 2648.05 -0.945698 -3.60709 0
M  V30 27772 N 2650.23 1.19778 -1.02425 0
M  V30 27773 C 2651.18 2.22836 -0.601062 0
M  V30 27774 C 2652.15 1.61629 0.382772 0
M  V30 27775 O 2653.34 1.88727 0.280481 0
M  V30 27776 C 2650.48 3.45068 0.0467148 0
M  V30 27777 C 2649.59 4.20677 -0.982604 0
M  V30 27778 C 2648.72 5.30323 -0.305075 0
M  V30 27779 C 2647.76 5.97684 -1.32062 0
M  V30 27780 N 2646.9 6.98903 -0.669228 0
M  V30 27781 H 2651.74 2.58393 -1.48448 0
M  V30 27782 H 2649.28 1.26959 -0.742958 0
M  V30 27783 H 2651.23 4.14879 0.439484 0
M  V30 27784 H 2649.86 3.10181 0.893742 0
M  V30 27785 H 2648.92 3.49857 -1.49347 0
M  V30 27786 H 2650.23 4.6692 -1.75464 0
M  V30 27787 H 2649.38 6.06532 0.142786 0
M  V30 27788 H 2648.12 4.85138 0.499197 0
M  V30 27789 H 2647.13 5.2023 -1.7788 0
M  V30 27790 H 2648.35 6.44953 -2.12631 0
M  V30 27791 H 2646.3 6.55899 0.115037 0
M  V30 27792 H 2646.21 7.43313 -1.37921 0
M  V30 27793 H 2647.48 7.79114 -0.245213 0
M  V30 27794 N 2651.71 0.801501 1.35697 0
M  V30 27795 C 2652.94 0.391236 2.02862 0
M  V30 27796 C 2653.35 -1.00096 1.60553 0
M  V30 27797 O 2652.69 -1.65546 0.796244 0
M  V30 27798 C 2652.75 0.389362 3.57385 0
M  V30 27799 C 2652.42 1.7312 4.2294 0
M  V30 27800 C 2653.42 2.68867 4.44979 0
M  V30 27801 C 2651.1 2.01381 4.60164 0
M  V30 27802 C 2653.09 3.91062 5.03338 0
M  V30 27803 C 2650.78 3.23841 5.18238 0
M  V30 27804 C 2651.78 4.18499 5.39766 0
M  V30 27805 O 2651.47 5.38798 5.96617 0
M  V30 27806 H 2651.2 0.157743 0.657338 0
M  V30 27807 H 2653.75 1.08499 1.74405 0
M  V30 27808 H 2651.98 -0.360964 3.85012 0
M  V30 27809 H 2653.67 0.00210785 4.059 0
M  V30 27810 H 2654.44 2.48323 4.16606 0
M  V30 27811 H 2650.32 1.28516 4.42724 0
M  V30 27812 H 2653.86 4.64958 5.20057 0
M  V30 27813 H 2649.76 3.44257 5.46038 0
M  V30 27814 H 2650.53 5.40026 6.15073 0
M  V30 27815 N 2653.19 -1.47521 0.554558 0
M  V30 27816 C 2654.44 -2.01681 0.0273812 0
M  V30 27817 C 2654.75 -1.43461 -1.32959 0
M  V30 27818 O 2655.96 -1.89268 -1.94653 0
M  V30 27819 C 2654.41 -3.599 -0.00152731 0
M  V30 27820 C 2654.02 -4.27111 1.35204 0
M  V30 27821 C 2655.77 -4.2182 -0.476237 0
M  V30 27822 C 2653.67 -5.77329 1.28239 0
M  V30 27823 H 2652.6 -0.753972 0.00646594 0
M  V30 27824 H 2655.25 -1.69541 0.702015 0
M  V30 27825 H 2653.64 -3.88991 -0.741753 0
M  V30 27826 H 2654.81 -4.09665 2.10977 0
M  V30 27827 H 2653.12 -3.77167 1.76447 0
M  V30 27828 H 2655.72 -5.31898 -0.546706 0
M  V30 27829 H 2656.06 -3.88813 -1.48763 0
M  V30 27830 H 2656.6 -3.9725 0.20905 0
M  V30 27831 H 2653.34 -6.14951 2.2697 0
M  V30 27832 H 2652.86 -5.9712 0.566419 0
M  V30 27833 H 2654.54 -6.39484 0.983339 0
M  V30 27834 N 2654.67 -0.290879 -1.54892 0
M  V30 27835 C 2655.92 0.320721 -1.99539 0
M  V30 27836 C 2656.24 1.55186 -1.18078 0
M  V30 27837 O 2655.51 1.93972 -0.274196 0
M  V30 27838 H 2654.09 0.121494 -0.737054 0
M  V30 27839 H 2656.75 -0.399866 -1.90754 0
M  V30 27840 H 2655.84 0.599748 -3.06283 0
M  V30 27841 N 2656.15 1.57589 -0.0184203 0
M  V30 27842 C 2657.09 2.10711 0.985074 0
M  V30 27843 C 2658.09 1.03122 1.34395 0
M  V30 27844 O 2659.29 1.21569 1.32744 0
M  V30 27845 H 2655.67 0.673058 0.335406 0
M  V30 27846 H 2657.64 2.93981 0.511638 0
M  V30 27847 C 2656.39 2.64065 2.26197 0
M  V30 27848 H 2655.71 3.46494 1.99454 0
M  V30 27849 H 2657.15 3.04892 2.94647 0
M  V30 27850 C 2655.61 1.56315 2.98441 0
M  V30 27851 O 2656.14 0.956742 3.9014 0
M  V30 27852 N 2654.35 1.28617 2.60588 0
M  V30 27853 H 2653.89 1.78116 1.86098 0
M  V30 27854 H 2653.85 0.567461 3.09237 0
M  V30 27855 N 2657.62 -0.254594 1.5553 0
M  V30 27856 C 2658.87 -0.985162 1.77264 0
M  V30 27857 C 2659.2 -1.85264 0.582319 0
M  V30 27858 O 2658.48 -1.89919 -0.419632 0
M  V30 27859 C 2658.76 -1.85219 3.08814 0
M  V30 27860 C 2658.61 -1.01342 4.38235 0
M  V30 27861 C 2659.93 -2.83606 3.36535 0
M  V30 27862 H 2657.05 -0.356731 0.644913 0
M  V30 27863 H 2659.69 -0.256202 1.88265 0
M  V30 27864 H 2657.84 -2.47371 2.99566 0
M  V30 27865 H 2659.52 -0.411189 4.59464 0
M  V30 27866 H 2657.76 -0.317498 4.32637 0
M  V30 27867 H 2658.43 -1.6537 5.26647 0
M  V30 27868 H 2660.91 -2.3159 3.45695 0
M  V30 27869 H 2659.78 -3.41399 4.29811 0
M  V30 27870 H 2660.04 -3.59677 2.5707 0
M  V30 27871 N 2659.1 -1.48777 -0.519925 0
M  V30 27872 C 2660.05 -1.64506 -1.6444 0
M  V30 27873 C 2661.04 -0.511277 -1.615 0
M  V30 27874 O 2662.25 -0.690324 -1.66236 0
M  V30 27875 H 2658.62 -0.518394 -0.544767 0
M  V30 27876 H 2660.6 -2.58928 -1.48321 0
M  V30 27877 C 2659.34 -1.71132 -3.0267 0
M  V30 27878 H 2658.67 -2.57741 -3.0563 0
M  V30 27879 H 2660.11 -1.86179 -3.80938 0
M  V30 27880 C 2658.57 -0.45209 -3.33853 0
M  V30 27881 O 2659.1 0.430608 -3.99385 0
M  V30 27882 N 2657.3 -0.320741 -2.88825 0
M  V30 27883 H 2656.85 -1.04003 -2.35672 0
M  V30 27884 H 2656.81 0.520759 -3.10057 0
M  V30 27885 N 2660.58 0.769564 -1.37534 0
M  V30 27886 C 2661.81 1.55868 -1.36061 0
M  V30 27887 C 2662.22 1.88724 0.0535109 0
M  V30 27888 O 2661.58 1.51611 1.01588 0
M  V30 27889 C 2661.63 2.86763 -2.20112 0
M  V30 27890 O 2661.35 2.55315 -3.56014 0
M  V30 27891 C 2662.85 3.80983 -2.26643 0
M  V30 27892 H 2660.07 0.482813 -0.465975 0
M  V30 27893 H 2662.62 0.953654 -1.80902 0
M  V30 27894 H 2660.77 3.43684 -1.78774 0
M  V30 27895 H 2661.19 3.39151 -4.00096 0
M  V30 27896 H 2662.66 4.69826 -2.89771 0
M  V30 27897 H 2663.14 4.20272 -1.27547 0
M  V30 27898 H 2663.74 3.29991 -2.68302 0
M  V30 27899 N 2662.06 1.22139 0.995977 0
M  V30 27900 C 2663.01 0.956078 2.06986 0
M  V30 27901 C 2663.99 -0.0921293 1.60636 0
M  V30 27902 O 2665.18 0.117989 1.76606 0
M  V30 27903 C 2662.31 0.532395 3.39147 0
M  V30 27904 C 2661.4 1.61516 3.92139 0
M  V30 27905 N 2661.79 2.84221 4.18392 0
M  V30 27906 C 2660.09 1.48613 4.20512 0
M  V30 27907 C 2660.79 3.54214 4.61419 0
M  V30 27908 N 2659.77 2.81677 4.64929 0
M  V30 27909 H 2663.57 1.8882 2.2522 0
M  V30 27910 H 2661.08 1.11847 1.17746 0
M  V30 27911 H 2663.08 0.323647 4.15642 0
M  V30 27912 H 2661.74 -0.392864 3.22315 0
M  V30 27913 H 2662.75 3.20678 4.06677 0
M  V30 27914 H 2659.43 0.626835 4.12768 0
M  V30 27915 H 2660.82 4.59324 4.90379 0
M  V30 27916 N 2663.54 -1.19233 1.03059 0
M  V30 27917 C 2664.78 -1.89239 0.729131 0
M  V30 27918 C 2665.12 -1.79526 -0.740541 0
M  V30 27919 O 2664.39 -1.18876 -1.53944 0
M  V30 27920 C 2664.67 -3.4011 1.1831 0
M  V30 27921 C 2664.53 -3.58686 2.71412 0
M  V30 27922 C 2665.85 -4.33396 0.765237 0
M  V30 27923 H 2662.96 -0.687188 0.26635 0
M  V30 27924 H 2665.61 -1.40339 1.28082 0
M  V30 27925 H 2663.76 -3.81887 0.71374 0
M  V30 27926 H 2665.43 -3.26068 3.26308 0
M  V30 27927 H 2663.67 -3.01681 3.11722 0
M  V30 27928 H 2664.34 -4.64501 2.98233 0
M  V30 27929 H 2666.82 -3.99343 1.16896 0
M  V30 27930 H 2665.69 -5.37544 1.11075 0
M  V30 27931 H 2665.96 -4.40849 -0.332295 0
M  V30 27932 N 2665.01 -0.808686 -1.3527 0
M  V30 27933 C 2666.29 -0.313215 -1.93076 0
M  V30 27934 C 2666.67 1.19749 -1.73849 0
M  V30 27935 O 2666.02 1.99798 -1.10874 0
M  V30 27936 C 2666.23 -0.726919 -3.41346 0
M  V30 27937 C 2667.58 -0.717606 -4.18492 0
M  V30 27938 O 2668.6 -0.668596 -3.49869 0
M  V30 27939 O 2667.46 -0.777874 -5.40936 0
M  V30 27940 H 2664.55 -0.0824162 -0.822883 0
M  V30 27941 H 2667.1 -0.892524 -1.44333 0
M  V30 27942 H 2665.87 -1.76804 -3.49079 0
M  V30 27943 H 2665.5 -0.122531 -3.97411 0
M  V30 27944 N 2666.49 1.47225 -0.562374 0
M  V30 27945 C 2667.4 2.33866 0.185425 0
M  V30 27946 C 2668.42 1.4851 0.906687 0
M  V30 27947 O 2669.59 1.81427 0.874426 0
M  V30 27948 C 2666.66 3.25308 1.19899 0
M  V30 27949 C 2665.72 4.26556 0.484594 0
M  V30 27950 C 2664.95 5.13629 1.44987 0
M  V30 27951 O 2665.18 5.0325 2.68506 0
M  V30 27952 O 2664.11 5.94007 0.971538 0
M  V30 27953 H 2667.94 2.99121 -0.525413 0
M  V30 27954 H 2665.52 1.45868 -0.322942 0
M  V30 27955 H 2667.4 3.81778 1.78393 0
M  V30 27956 H 2666.08 2.62675 1.89165 0
M  V30 27957 H 2664.99 3.73832 -0.141671 0
M  V30 27958 H 2666.32 4.91918 -0.16672 0
M  V30 27959 N 2667.97 0.299089 1.54736 0
M  V30 27960 C 2669.2 -0.312956 2.04216 0
M  V30 27961 C 2669.61 -1.48213 1.17599 0
M  V30 27962 O 2668.95 -1.82674 0.193867 0
M  V30 27963 C 2669.01 -0.8338 3.49697 0
M  V30 27964 C 2668.68 0.20985 4.56518 0
M  V30 27965 C 2669.67 1.03765 5.0944 0
M  V30 27966 C 2667.36 0.350998 5.01072 0
M  V30 27967 C 2669.35 1.99255 6.05455 0
M  V30 27968 C 2667.04 1.30935 5.96908 0
M  V30 27969 C 2668.04 2.12861 6.48983 0
M  V30 27970 O 2667.73 3.07072 7.42942 0
M  V30 27971 H 2667.46 -0.0722376 0.672129 0
M  V30 27972 H 2670.01 0.436079 2.00717 0
M  V30 27973 H 2668.24 -1.63333 3.50513 0
M  V30 27974 H 2669.93 -1.36152 3.82384 0
M  V30 27975 H 2670.7 0.939459 4.75814 0
M  V30 27976 H 2666.58 -0.276732 4.60169 0
M  V30 27977 H 2670.12 2.63241 6.46026 0
M  V30 27978 H 2666.02 1.40826 6.29951 0
M  V30 27979 H 2666.79 3.02028 7.60737 0
M  V30 27980 N 2669.45 -1.57577 0.0267774 0
M  V30 27981 C 2670.38 -2.0558 -0.990553 0
M  V30 27982 C 2671.36 -0.951088 -1.31883 0
M  V30 27983 O 2672.54 -1.22124 -1.4359 0
M  V30 27984 C 2669.67 -2.4759 -2.31121 0
M  V30 27985 C 2668.72 -3.69059 -2.1377 0
M  V30 27986 S 2669.55 -5.15811 -1.43871 0
M  V30 27987 C 2670.71 -5.61115 -2.77311 0
M  V30 27988 H 2670.94 -2.91549 -0.581925 0
M  V30 27989 H 2668.47 -1.53289 -0.184849 0
M  V30 27990 H 2670.43 -2.72459 -3.07044 0
M  V30 27991 H 2669.09 -1.61972 -2.69117 0
M  V30 27992 H 2668.28 -3.96292 -3.11398 0
M  V30 27993 H 2667.89 -3.4433 -1.4599 0
M  V30 27994 H 2670.18 -5.65211 -3.73555 0
M  V30 27995 H 2671.12 -6.6069 -2.54745 0
M  V30 27996 H 2671.53 -4.88756 -2.8245 0
M  V30 27997 N 2670.93 0.246342 -1.55663 0
M  V30 27998 C 2671.86 1.3087 -1.93379 0
M  V30 27999 C 2672.84 1.50177 -0.798799 0
M  V30 28000 O 2674.02 1.62776 -1.05913 0
M  V30 28001 C 2671.15 2.66334 -2.22897 0
M  V30 28002 C 2670.11 2.61721 -3.38653 0
M  V30 28003 C 2669.43 4.00986 -3.53715 0
M  V30 28004 C 2670.73 2.18658 -4.74327 0
M  V30 28005 H 2672.43 0.995502 -2.82365 0
M  V30 28006 H 2669.97 0.47744 -1.35855 0
M  V30 28007 H 2671.93 3.4079 -2.47872 0
M  V30 28008 H 2670.65 2.99291 -1.30738 0
M  V30 28009 H 2669.31 1.89723 -3.13689 0
M  V30 28010 H 2668.96 4.31209 -2.58975 0
M  V30 28011 H 2668.66 3.98787 -4.31558 0
M  V30 28012 H 2670.18 4.7714 -3.81011 0
M  V30 28013 H 2671.59 2.82845 -4.9867 0
M  V30 28014 H 2669.99 2.27569 -5.55277 0
M  V30 28015 H 2671.06 1.13826 -4.71351 0
M  V30 28016 N 2672.4 1.4905 0.512027 0
M  V30 28017 C 2673.31 1.6762 1.64136 0
M  V30 28018 C 2674.33 0.55873 1.64785 0
M  V30 28019 O 2675.51 0.832066 1.83408 0
M  V30 28020 C 2672.57 1.7284 3.00545 0
M  V30 28021 C 2671.63 2.96345 3.10609 0
M  V30 28022 C 2670.87 3.01306 4.40512 0
M  V30 28023 O 2671.09 2.14166 5.28667 0
M  V30 28024 O 2670.02 3.93661 4.55318 0
M  V30 28025 H 2673.85 2.6327 1.51402 0
M  V30 28026 H 2671.43 1.32662 0.687108 0
M  V30 28027 H 2673.32 1.7869 3.81638 0
M  V30 28028 H 2671.99 0.803671 3.13565 0
M  V30 28029 H 2670.9 2.96018 2.28745 0
M  V30 28030 H 2672.23 3.88261 3.02513 0
M  V30 28031 N 2673.88 -0.762259 1.3794 0
M  V30 28032 C 2674.85 -1.85744 1.34282 0
M  V30 28033 C 2675.85 -1.58923 0.244997 0
M  V30 28034 O 2677.04 -1.66828 0.501394 0
M  V30 28035 C 2674.17 -3.23059 1.08838 0
M  V30 28036 H 2675.36 -1.90397 2.31709 0
M  V30 28037 H 2672.91 -0.963035 1.23107 0
M  V30 28038 H 2673.65 -3.24079 0.119824 0
M  V30 28039 H 2673.43 -3.4392 1.88312 0
M  V30 28040 H 2674.92 -4.03137 1.08953 0
M  V30 28041 N 2675.36 -1.22666 -0.989486 0
M  V30 28042 C 2676.61 -1.05484 -1.73208 0
M  V30 28043 C 2676.94 0.408602 -1.89853 0
M  V30 28044 O 2676.21 1.30283 -1.44418 0
M  V30 28045 C 2676.5 -1.77052 -3.13567 0
M  V30 28046 C 2676.35 -3.31013 -3.04549 0
M  V30 28047 C 2677.67 -1.52567 -4.12809 0
M  V30 28048 H 2674.79 -0.3846 -0.62869 0
M  V30 28049 H 2677.43 -1.51051 -1.15255 0
M  V30 28050 H 2675.58 -1.38317 -3.63044 0
M  V30 28051 H 2677.25 -3.79215 -2.62667 0
M  V30 28052 H 2675.5 -3.60514 -2.41271 0
M  V30 28053 H 2676.17 -3.7627 -4.03887 0
M  V30 28054 H 2678.64 -1.86222 -3.72103 0
M  V30 28055 H 2677.52 -2.05133 -5.09128 0
M  V30 28056 H 2677.78 -0.459014 -4.39711 0
M  V30 28057 N 2676.84 1.18685 -1.0369 0
M  V30 28058 C 2678.12 1.84398 -0.652429 0
M  V30 28059 C 2678.5 1.92413 0.868352 0
M  V30 28060 O 2677.84 1.44719 1.7683 0
M  V30 28061 C 2678.05 3.22917 -1.32385 0
M  V30 28062 C 2679.4 3.98993 -1.45223 0
M  V30 28063 O 2680.43 3.32343 -1.28166 0
M  V30 28064 O 2679.29 5.184 -1.72984 0
M  V30 28065 H 2676.38 0.795005 -0.227806 0
M  V30 28066 H 2678.93 1.26108 -1.13555 0
M  V30 28067 H 2677.7 3.11964 -2.36208 0
M  V30 28068 H 2677.32 3.88859 -0.829107 0
M  V30 28069 N 2678.32 0.815849 1.34839 0
M  V30 28070 C 2679.27 0.205209 2.27075 0
M  V30 28071 C 2680.25 -0.626388 1.48207 0
M  V30 28072 O 2681.44 -0.482127 1.70307 0
M  V30 28073 C 2678.57 -0.637812 3.37323 0
M  V30 28074 C 2677.66 0.204023 4.23609 0
M  V30 28075 N 2678.05 1.27158 4.89555 0
M  V30 28076 C 2676.35 -0.0128187 4.45998 0
M  V30 28077 C 2677.05 1.7863 5.53594 0
M  V30 28078 N 2676.02 1.09129 5.32533 0
M  V30 28079 H 2679.83 1.02191 2.75561 0
M  V30 28080 H 2677.34 0.657938 1.48475 0
M  V30 28081 H 2679.34 -1.09139 4.02361 0
M  V30 28082 H 2678 -1.45276 2.90388 0
M  V30 28083 H 2679.01 1.65432 4.90767 0
M  V30 28084 H 2675.69 -0.796168 4.09838 0
M  V30 28085 H 2677.08 2.67903 6.1618 0
M  V30 28086 N 2679.8 -1.46924 0.570174 0
M  V30 28087 C 2681.03 -2.06524 0.0561514 0
M  V30 28088 C 2681.43 -1.4214 -1.24872 0
M  V30 28089 O 2680.78 -0.516448 -1.76291 0
M  V30 28090 C 2680.84 -3.5896 -0.196971 0
M  V30 28091 C 2680.5 -4.45462 1.02041 0
M  V30 28092 C 2681.5 -4.82778 1.9293 0
M  V30 28093 C 2679.18 -4.86786 1.23873 0
M  V30 28094 C 2681.18 -5.6023 3.04008 0
M  V30 28095 C 2678.87 -5.64 2.35259 0
M  V30 28096 C 2679.86 -6.00635 3.25157 0
M  V30 28097 O 2679.55 -6.76291 4.3461 0
M  V30 28098 H 2679.28 -0.67424 0.0487528 0
M  V30 28099 H 2681.84 -1.89727 0.786948 0
M  V30 28100 H 2680.07 -3.74017 -0.982234 0
M  V30 28101 H 2681.76 -4.00532 -0.657962 0
M  V30 28102 H 2682.52 -4.51441 1.77273 0
M  V30 28103 H 2678.4 -4.5773 0.54813 0
M  V30 28104 H 2681.95 -5.88743 3.74202 0
M  V30 28105 H 2677.84 -5.9475 2.50883 0
M  V30 28106 H 2678.61 -6.94701 4.3282 0
M  V30 28107 N 2681.27 -0.307291 -1.54575 0
M  V30 28108 C 2682.24 0.553185 -2.22424 0
M  V30 28109 C 2683.24 1.05637 -1.21233 0
M  V30 28110 O 2684.43 0.951394 -1.45925 0
M  V30 28111 C 2681.56 1.76659 -2.91555 0
M  V30 28112 H 2682.75 -0.0397011 -2.99874 0
M  V30 28113 H 2680.3 -0.0581903 -1.56192 0
M  V30 28114 H 2681.04 2.39915 -2.18201 0
M  V30 28115 H 2680.82 1.41337 -3.65741 0
M  V30 28116 H 2682.31 2.37777 -3.43296 0
M  V30 28117 N 2682.75 1.57561 -0.0351337 0
M  V30 28118 C 2684 1.91668 0.640926 0
M  V30 28119 C 2684.32 0.912712 1.72321 0
M  V30 28120 O 2683.59 -0.0448745 1.95849 0
M  V30 28121 H 2682.17 0.707487 0.23973 0
M  V30 28122 H 2684.83 1.94717 -0.0843552 0
M  V30 28123 H 2683.93 2.92454 1.08982 0
M  V30 28124 N 2684.23 -0.238084 1.55791 0
M  V30 28125 C 2685.16 -1.31798 1.87515 0
M  V30 28126 C 2686.17 -1.43862 0.762078 0
M  V30 28127 O 2687.36 -1.45054 1.04027 0
M  V30 28128 C 2684.46 -2.69557 2.05407 0
M  V30 28129 C 2683.64 -2.7965 3.36325 0
M  V30 28130 C 2682.7 -3.98313 3.43851 0
M  V30 28131 O 2681.72 -3.87426 4.17001 0
M  V30 28132 N 2682.92 -5.1188 2.73786 0
M  V30 28133 H 2685.69 -1.04917 2.80736 0
M  V30 28134 H 2683.25 -0.428168 1.56136 0
M  V30 28135 H 2685.24 -3.47292 2.07775 0
M  V30 28136 H 2683.81 -2.89109 1.1889 0
M  V30 28137 H 2683.03 -1.88522 3.46198 0
M  V30 28138 H 2684.32 -2.83351 4.22599 0
M  V30 28139 H 2683.72 -5.23619 2.14103 0
M  V30 28140 H 2682.27 -5.87718 2.81835 0
M  V30 28141 N 2685.71 -1.4932 -0.504115 0
M  V30 28142 C 2686.64 -1.6867 -1.6147 0
M  V30 28143 C 2687.62 -0.535407 -1.61454 0
M  V30 28144 O 2688.8 -0.770899 -1.78244 0
M  V30 28145 C 2685.93 -1.75033 -2.99968 0
M  V30 28146 C 2684.89 -2.89921 -3.14849 0
M  V30 28147 C 2684.21 -2.81395 -4.54666 0
M  V30 28148 C 2685.51 -4.30898 -2.95168 0
M  V30 28149 H 2687.21 -2.61651 -1.45531 0
M  V30 28150 H 2684.75 -1.25914 -0.698689 0
M  V30 28151 H 2686.71 -1.87157 -3.77558 0
M  V30 28152 H 2685.43 -0.786496 -3.16989 0
M  V30 28153 H 2684.09 -2.77395 -2.39682 0
M  V30 28154 H 2683.74 -1.82926 -4.68559 0
M  V30 28155 H 2683.44 -3.58503 -4.65564 0
M  V30 28156 H 2684.96 -2.95522 -5.34321 0
M  V30 28157 H 2686.38 -4.44122 -3.62531 0
M  V30 28158 H 2684.77 -5.09204 -3.1754 0
M  V30 28159 H 2685.84 -4.45559 -1.91324 0
M  V30 28160 N 2687.19 0.754933 -1.38342 0
M  V30 28161 C 2688.15 1.8503 -1.35265 0
M  V30 28162 C 2689.15 1.5879 -0.253421 0
M  V30 28163 O 2690.34 1.6656 -0.510235 0
M  V30 28164 C 2687.47 3.22477 -1.1055 0
M  V30 28165 H 2688.66 1.89166 -2.32715 0
M  V30 28166 H 2686.22 0.956493 -1.23616 0
M  V30 28167 H 2686.95 3.2401 -0.137009 0
M  V30 28168 H 2686.74 3.42917 -1.90133 0
M  V30 28169 H 2688.23 4.02553 -1.11089 0
M  V30 28170 N 2688.66 1.23189 0.982967 0
M  V30 28171 C 2689.89 1.08904 1.75919 0
M  V30 28172 C 2690.31 -0.359686 1.85342 0
M  V30 28173 O 2689.66 -1.2489 1.33074 0
M  V30 28174 C 2689.71 1.70551 3.18739 0
M  V30 28175 O 2689.44 3.09758 3.09809 0
M  V30 28176 C 2690.94 1.61674 4.12767 0
M  V30 28177 H 2688.16 0.381262 0.55216 0
M  V30 28178 H 2690.7 1.62987 1.23513 0
M  V30 28179 H 2688.86 1.20508 3.6818 0
M  V30 28180 H 2689.27 3.39621 3.99697 0
M  V30 28181 H 2690.74 2.09515 5.10693 0
M  V30 28182 H 2691.22 0.575086 4.35419 0
M  V30 28183 H 2691.83 2.11071 3.69228 0
M  V30 28184 N 2690.14 -1.18133 1.04318 0
M  V30 28185 C 2691.07 -2.24057 0.657338 0
M  V30 28186 C 2692.05 -1.66654 -0.340649 0
M  V30 28187 O 2693.24 -1.92948 -0.22019 0
M  V30 28188 C 2690.37 -3.47293 0.0221325 0
M  V30 28189 C 2689.32 -4.17461 0.943931 0
M  V30 28190 C 2688.65 -5.3442 0.173067 0
M  V30 28191 C 2689.95 -4.70673 2.26417 0
M  V30 28192 H 2691.64 -2.56586 1.54285 0
M  V30 28193 H 2689.19 -1.23334 0.743284 0
M  V30 28194 H 2691.14 -4.206 -0.259533 0
M  V30 28195 H 2689.86 -3.14004 -0.898268 0
M  V30 28196 H 2688.52 -3.46055 1.21002 0
M  V30 28197 H 2688.17 -4.9738 -0.74982 0
M  V30 28198 H 2687.87 -5.82303 0.7872 0
M  V30 28199 H 2689.4 -6.10516 -0.101521 0
M  V30 28200 H 2690.81 -5.35661 2.04303 0
M  V30 28201 H 2689.21 -5.291 2.83149 0
M  V30 28202 H 2690.28 -3.87957 2.9089 0
M  V30 28203 N 2691.62 -0.822988 -1.34405 0
M  V30 28204 C 2692.9 -0.333675 -1.92733 0
M  V30 28205 C 2693.28 1.17898 -1.75109 0
M  V30 28206 O 2692.63 1.98611 -1.12986 0
M  V30 28207 C 2692.84 -0.763083 -3.40555 0
M  V30 28208 C 2694.18 -0.761952 -4.17707 0
M  V30 28209 O 2695.21 -0.705667 -3.4914 0
M  V30 28210 O 2694.07 -0.835204 -5.4008 0
M  V30 28211 H 2691.16 -0.0911394 -0.821963 0
M  V30 28212 H 2693.71 -0.907782 -1.43379 0
M  V30 28213 H 2692.48 -1.80496 -3.47184 0
M  V30 28214 H 2692.1 -0.164675 -3.97259 0
M  V30 28215 N 2693.1 1.4662 -0.577957 0
M  V30 28216 C 2694.35 2.01612 -0.0594635 0
M  V30 28217 C 2694.66 1.45558 1.3066 0
M  V30 28218 O 2695.87 1.92341 1.91618 0
M  V30 28219 C 2694.32 3.59857 -0.0557298 0
M  V30 28220 C 2693.93 4.24906 -1.41982 0
M  V30 28221 C 2695.67 4.22524 0.409069 0
M  V30 28222 C 2693.58 5.75216 -1.37407 0
M  V30 28223 H 2692.51 0.753774 -0.0184602 0
M  V30 28224 H 2695.16 1.68402 -0.728898 0
M  V30 28225 H 2693.54 3.90122 0.679774 0
M  V30 28226 H 2694.72 4.06256 -2.17468 0
M  V30 28227 H 2693.03 3.74313 -1.82425 0
M  V30 28228 H 2695.63 5.327 0.462017 0
M  V30 28229 H 2695.97 3.9113 1.42559 0
M  V30 28230 H 2696.51 3.96867 -0.272222 0
M  V30 28231 H 2693.25 6.11262 -2.36724 0
M  V30 28232 H 2692.77 5.96143 -0.661344 0
M  V30 28233 H 2694.44 6.37838 -1.08495 0
M  V30 28234 N 2694.58 0.315484 1.5441 0
M  V30 28235 C 2695.8 -0.29446 2.05299 0
M  V30 28236 C 2696.23 -1.45628 1.19055 0
M  V30 28237 O 2695.58 -1.80217 0.197835 0
M  V30 28238 C 2695.63 -0.714487 3.53451 0
M  V30 28239 O 2694.74 -1.81774 3.70178 0
M  V30 28240 H 2694.08 -0.0546902 0.661744 0
M  V30 28241 H 2696.61 0.461543 1.99326 0
M  V30 28242 H 2696.62 -0.999357 3.95572 0
M  V30 28243 H 2695.29 0.135317 4.1568 0
M  V30 28244 H 2693.87 -1.5323 3.39963 0
M  V30 28245 N 2696.05 -1.5754 0.0434891 0
M  V30 28246 C 2697.28 -1.96694 -0.641801 0
M  V30 28247 C 2697.7 -0.920681 -1.6483 0
M  V30 28248 O 2697.05 0.0959609 -1.82248 0
M  V30 28249 C 2697.11 -3.35926 -1.33551 0
M  V30 28250 O 2696.83 -4.3654 -0.369326 0
M  V30 28251 C 2698.33 -3.89795 -2.11128 0
M  V30 28252 H 2695.55 -0.647506 -0.176001 0
M  V30 28253 H 2698.09 -2.04217 0.107513 0
M  V30 28254 H 2696.25 -3.29577 -2.03611 0
M  V30 28255 H 2696.66 -5.17342 -0.863583 0
M  V30 28256 H 2698.13 -4.89519 -2.55099 0
M  V30 28257 H 2698.61 -3.24808 -2.95629 0
M  V30 28258 H 2699.22 -3.99457 -1.45995 0
M  V30 28259 N 2697.53 0.229818 -1.55915 0
M  V30 28260 C 2698.44 1.3059 -1.94894 0
M  V30 28261 C 2699.46 1.51734 -0.851631 0
M  V30 28262 O 2700.63 1.65025 -1.1545 0
M  V30 28263 C 2697.7 2.63725 -2.25056 0
M  V30 28264 C 2696.76 2.50954 -3.48311 0
M  V30 28265 C 2695.99 3.7774 -3.77025 0
M  V30 28266 O 2696.22 4.80389 -3.07542 0
M  V30 28267 O 2695.15 3.75348 -4.70529 0
M  V30 28268 H 2698.98 1.0052 -2.86582 0
M  V30 28269 H 2696.56 0.432 -1.43018 0
M  V30 28270 H 2698.44 3.42367 -2.45688 0
M  V30 28271 H 2697.12 2.93492 -1.36543 0
M  V30 28272 H 2696.03 1.7054 -3.32967 0
M  V30 28273 H 2697.36 2.26128 -4.37181 0
M  V30 28274 N 2699.01 1.49585 0.49619 0
M  V30 28275 C 2700.42 1.5246 1.07762 0
M  V30 28276 C 2700.77 0.313564 1.93678 0
M  V30 28277 O 2699.9 -0.576149 2.08589 0
M  V30 28278 C 2700.49 2.76275 1.96107 0
M  V30 28279 C 2699.05 2.81913 2.49404 0
M  V30 28280 C 2698.2 2.46437 1.27138 0
M  V30 28281 H 2701.15 1.56212 0.279886 0
M  V30 28282 H 2701.17 2.56709 2.80857 0
M  V30 28283 H 2700.68 3.64399 1.33549 0
M  V30 28284 H 2698.78 1.9808 3.15587 0
M  V30 28285 H 2698.9 3.84201 2.86227 0
M  V30 28286 H 2697.26 1.98321 1.59815 0
M  V30 28287 H 2698.04 3.36841 0.662807 0
M  V30 28288 N 2700.49 -0.747586 1.3874 0
M  V30 28289 C 2701.42 -1.8697 1.30834 0
M  V30 28290 C 2702.4 -1.61553 0.184257 0
M  V30 28291 O 2703.58 -1.8498 0.362593 0
M  V30 28292 C 2700.71 -3.22703 1.0286 0
M  V30 28293 C 2699.76 -3.66999 2.17287 0
M  V30 28294 S 2700.59 -3.77835 3.79475 0
M  V30 28295 C 2701.75 -5.16378 3.53701 0
M  V30 28296 H 2701.98 -1.93391 2.25803 0
M  V30 28297 H 2699.51 -0.911177 1.24647 0
M  V30 28298 H 2701.47 -4.01087 0.87404 0
M  V30 28299 H 2700.13 -3.13953 0.0959847 0
M  V30 28300 H 2699.32 -4.65468 1.93275 0
M  V30 28301 H 2698.93 -2.95786 2.28881 0
M  V30 28302 H 2701.22 -6.02321 3.10186 0
M  V30 28303 H 2702.16 -5.45414 4.51585 0
M  V30 28304 H 2702.57 -4.85459 2.88079 0
M  V30 28305 N 2701.97 -1.23709 -0.97642 0
M  V30 28306 C 2703.38 -1.0006 -1.24339 0
M  V30 28307 C 2703.58 0.295897 -1.99316 0
M  V30 28308 O 2702.64 1.01431 -2.31231 0
M  V30 28309 C 2703.95 -2.21005 -2.03905 0
M  V30 28310 C 2705.5 -2.25537 -2.1703 0
M  V30 28311 C 2705.97 -3.4608 -2.99988 0
M  V30 28312 N 2707.47 -3.46343 -3.07572 0
M  V30 28313 C 2708.2 -4.36271 -3.72096 0
M  V30 28314 N 2707.7 -5.3644 -4.38411 0
M  V30 28315 N 2709.49 -4.24004 -3.69022 0
M  V30 28316 H 2701.64 -2.07038 -0.474244 0
M  V30 28317 H 2703.9 -0.908096 -0.272151 0
M  V30 28318 H 2703.61 -3.15114 -1.56192 0
M  V30 28319 H 2703.48 -2.22414 -3.0465 0
M  V30 28320 H 2705.87 -1.31965 -2.63949 0
M  V30 28321 H 2705.95 -2.28158 -1.1566 0
M  V30 28322 H 2705.6 -4.39961 -2.53764 0
M  V30 28323 H 2705.53 -3.40701 -4.01535 0
M  V30 28324 H 2708.02 -2.7387 -2.60392 0
M  V30 28325 H 2708.33 -6.01308 -4.85436 0
M  V30 28326 H 2706.67 -5.40336 -4.37107 0
M  V30 28327 H 2709.87 -3.44989 -3.16386 0
M  V30 28328 H 2710.04 -4.94289 -4.19025 0
M  V30 28329 N 2703.44 1.17579 -1.04943 0
M  V30 28330 C 2704.37 2.23705 -0.669211 0
M  V30 28331 C 2705.36 1.66832 0.331806 0
M  V30 28332 O 2706.54 1.93062 0.209954 0
M  V30 28333 C 2703.67 3.47276 -0.04055 0
M  V30 28334 C 2702.62 4.16955 -0.966057 0
M  V30 28335 C 2701.95 5.34321 -0.201406 0
M  V30 28336 C 2703.25 4.69465 -2.2891 0
M  V30 28337 H 2704.94 2.55765 -1.55643 0
M  V30 28338 H 2702.49 1.22938 -0.749815 0
M  V30 28339 H 2704.44 4.20732 0.237224 0
M  V30 28340 H 2703.17 3.14476 0.881603 0
M  V30 28341 H 2701.83 3.45408 -1.22835 0
M  V30 28342 H 2701.47 4.9777 0.723432 0
M  V30 28343 H 2701.17 5.81877 -0.81807 0
M  V30 28344 H 2702.7 6.10561 0.0691426 0
M  V30 28345 H 2704.11 5.3457 -2.07141 0
M  V30 28346 H 2702.51 5.27591 -2.85951 0
M  V30 28347 H 2703.58 3.86409 -2.92944 0
M  V30 28348 N 2704.92 0.830104 1.33967 0
M  V30 28349 C 2705.83 0.259248 2.33163 0
M  V30 28350 C 2706.85 -0.610135 1.62952 0
M  V30 28351 O 2708.02 -0.516335 1.94669 0
M  V30 28352 C 2705.09 -0.563537 3.42089 0
M  V30 28353 C 2704.15 0.329089 4.28037 0
M  V30 28354 C 2703.38 -0.454522 5.31761 0
M  V30 28355 O 2703.61 -1.68711 5.44879 0
M  V30 28356 O 2702.54 0.1669 6.01669 0
M  V30 28357 H 2706.37 1.08046 2.83831 0
M  V30 28358 H 2703.95 0.592414 1.37153 0
M  V30 28359 H 2705.83 -1.0314 4.08583 0
M  V30 28360 H 2704.51 -1.36196 2.93654 0
M  V30 28361 H 2703.42 0.844602 3.64441 0
M  V30 28362 H 2704.75 1.09205 4.79932 0
M  V30 28363 N 2706.4 -1.46311 0.585725 0
M  V30 28364 C 2707.68 -1.95599 0.00545469 0
M  V30 28365 C 2708.06 -1.52837 -1.45617 0
M  V30 28366 O 2707.41 -0.780484 -2.14757 0
M  V30 28367 C 2707.62 -3.48532 0.180662 0
M  V30 28368 C 2708.96 -4.2457 0.0500537 0
M  V30 28369 O 2709.99 -3.56031 0.109652 0
M  V30 28370 O 2708.85 -5.46437 -0.0831265 0
M  V30 28371 H 2705.94 -0.825599 -0.0481136 0
M  V30 28372 H 2708.49 -1.56581 0.654255 0
M  V30 28373 H 2707.26 -3.72554 1.19663 0
M  V30 28374 H 2706.88 -3.94387 -0.504429 0
M  V30 28375 N 2707.88 -0.323668 -1.54241 0
M  V30 28376 C 2708.84 0.529563 -2.22998 0
M  V30 28377 C 2709.84 1.04345 -1.22347 0
M  V30 28378 O 2711.03 0.935863 -1.46926 0
M  V30 28379 C 2708.16 1.73557 -2.93412 0
M  V30 28380 H 2709.36 -0.0715045 -2.99815 0
M  V30 28381 H 2706.91 -0.0747533 -1.56121 0
M  V30 28382 H 2707.65 2.37587 -2.20733 0
M  V30 28383 H 2707.43 1.37449 -3.67219 0
M  V30 28384 H 2708.92 2.34122 -3.45799 0
M  V30 28385 N 2709.36 1.57515 -0.0518432 0
M  V30 28386 C 2710.6 1.93003 0.622711 0
M  V30 28387 C 2710.94 0.930529 1.70455 0
M  V30 28388 O 2710.21 -0.0433744 1.94452 0
M  V30 28389 C 2710.49 3.38869 1.21818 0
M  V30 28390 C 2710.35 4.49568 0.144355 0
M  V30 28391 C 2711.67 3.85143 2.12962 0
M  V30 28392 H 2708.79 0.701848 0.224897 0
M  V30 28393 H 2711.43 1.89659 -0.113745 0
M  V30 28394 H 2709.58 3.4185 1.84584 0
M  V30 28395 H 2711.25 4.58716 -0.48761 0
M  V30 28396 H 2709.49 4.30581 -0.527499 0
M  V30 28397 H 2710.16 5.48718 0.601031 0
M  V30 28398 H 2712.64 3.84043 1.60157 0
M  V30 28399 H 2711.52 4.87857 2.51569 0
M  V30 28400 H 2711.78 3.21939 3.02998 0
M  V30 28401 N 2710.84 -0.221546 1.56035 0
M  V30 28402 C 2712.07 -0.961436 1.82866 0
M  V30 28403 C 2712.47 -1.78448 0.628735 0
M  V30 28404 O 2711.82 -1.79018 -0.412077 0
M  V30 28405 C 2711.88 -1.92798 3.03429 0
M  V30 28406 C 2711.54 -1.28946 4.38431 0
M  V30 28407 C 2712.54 -0.679341 5.15442 0
M  V30 28408 C 2710.22 -1.30123 4.85153 0
M  V30 28409 C 2712.22 -0.0895028 6.37337 0
M  V30 28410 C 2709.91 -0.707544 6.0699 0
M  V30 28411 C 2710.9 -0.102735 6.82923 0
M  V30 28412 O 2710.59 0.481711 8.02455 0
M  V30 28413 H 2710.32 -0.287349 0.611888 0
M  V30 28414 H 2712.88 -0.241896 2.03971 0
M  V30 28415 H 2711.11 -2.68651 2.78143 0
M  V30 28416 H 2712.8 -2.53342 3.17132 0
M  V30 28417 H 2713.56 -0.662577 4.80453 0
M  V30 28418 H 2709.44 -1.76137 4.26024 0
M  V30 28419 H 2712.99 0.383192 6.96547 0
M  V30 28420 H 2708.88 -0.721721 6.41453 0
M  V30 28421 H 2709.65 0.376031 8.17636 0
M  V30 28422 N 2712.31 -1.49846 -0.48825 0
M  V30 28423 C 2713.56 -1.59659 -1.23909 0
M  V30 28424 C 2713.88 -0.291039 -1.92816 0
M  V30 28425 O 2713.15 0.690453 -1.83329 0
M  V30 28426 H 2711.73 -0.588294 -0.460347 0
M  V30 28427 H 2714.39 -1.86538 -0.564761 0
M  V30 28428 H 2713.49 -2.39912 -1.99621 0
M  V30 28429 N 2713.79 0.740218 -1.39135 0
M  V30 28430 C 2715.02 1.52947 -1.39337 0
M  V30 28431 C 2715.43 1.88795 0.0134676 0
M  V30 28432 O 2714.79 1.53732 0.983497 0
M  V30 28433 C 2714.84 2.8203 -2.26145 0
M  V30 28434 O 2714.56 2.47706 -3.61349 0
M  V30 28435 C 2716.06 3.7609 -2.34673 0
M  V30 28436 H 2713.28 0.47282 -0.476111 0
M  V30 28437 H 2715.83 0.915068 -1.82885 0
M  V30 28438 H 2713.98 3.39814 -1.86024 0
M  V30 28439 H 2714.4 3.30588 -4.072 0
M  V30 28440 H 2715.87 4.63574 -2.99672 0
M  V30 28441 H 2716.35 4.17472 -1.36433 0
M  V30 28442 H 2716.95 3.24226 -2.75242 0
M  V30 28443 N 2715.27 1.24225 0.969846 0
M  V30 28444 C 2716.18 1.04974 2.09804 0
M  V30 28445 C 2717.2 -0.00883396 1.73998 0
M  V30 28446 O 2718.37 0.188883 2.00512 0
M  V30 28447 C 2715.44 0.654512 3.40466 0
M  V30 28448 C 2714.5 1.78933 3.90233 0
M  V30 28449 C 2713.73 1.41286 5.14659 0
M  V30 28450 O 2713.95 0.301732 5.69601 0
M  V30 28451 O 2712.89 2.23773 5.58757 0
M  V30 28452 H 2716.71 1.99552 2.28939 0
M  V30 28453 H 2714.3 1.03025 1.08195 0
M  V30 28454 H 2716.18 0.445525 4.19038 0
M  V30 28455 H 2714.86 -0.262159 3.22637 0
M  V30 28456 H 2713.76 2.05304 3.12731 0
M  V30 28457 H 2715.1 2.68469 4.12535 0
M  V30 28458 N 2716.75 -1.1702 1.05565 0
M  V30 28459 C 2718 -1.87002 0.766452 0
M  V30 28460 C 2718.32 -1.81661 -0.708822 0
M  V30 28461 O 2717.59 -1.24513 -1.5124 0
M  V30 28462 H 2716.17 -0.692324 0.280528 0
M  V30 28463 H 2718.83 -1.41943 1.3356 0
M  V30 28464 H 2717.92 -2.92642 1.08477 0
M  V30 28465 N 2718.23 -0.837197 -1.33524 0
M  V30 28466 C 2719.16 -0.284246 -2.31763 0
M  V30 28467 C 2720.14 0.607114 -1.58897 0
M  V30 28468 O 2721.32 0.531015 -1.86799 0
M  V30 28469 C 2718.45 0.542901 -3.4303 0
M  V30 28470 C 2717.41 -0.252526 -4.27254 0
M  V30 28471 C 2716.73 0.698266 -5.30121 0
M  V30 28472 C 2718.03 -1.46866 -5.01226 0
M  V30 28473 H 2719.73 -1.10507 -2.7826 0
M  V30 28474 H 2717.27 -0.532836 -1.33779 0
M  V30 28475 H 2719.22 0.940024 -4.10782 0
M  V30 28476 H 2717.95 1.39692 -2.95218 0
M  V30 28477 H 2716.61 -0.631188 -3.61125 0
M  V30 28478 H 2716.26 1.54864 -4.78567 0
M  V30 28479 H 2715.96 0.170171 -5.87354 0
M  V30 28480 H 2717.48 1.09294 -6.00739 0
M  V30 28481 H 2718.89 -1.14479 -5.61754 0
M  V30 28482 H 2717.29 -1.93343 -5.68101 0
M  V30 28483 H 2718.36 -2.23932 -4.30096 0
M  V30 28484 N 2719.7 1.45999 -0.593476 0
M  V30 28485 C 2720.61 2.34207 0.135776 0
M  V30 28486 C 2721.63 1.504 0.874982 0
M  V30 28487 O 2722.81 1.83241 0.835746 0
M  V30 28488 C 2719.87 3.27778 1.12971 0
M  V30 28489 C 2718.93 4.27488 0.394006 0
M  V30 28490 C 2718.16 5.16589 1.34059 0
M  V30 28491 O 2718.39 5.08832 2.57771 0
M  V30 28492 O 2717.32 5.95934 0.845322 0
M  V30 28493 H 2721.15 2.97939 -0.588743 0
M  V30 28494 H 2718.73 1.4515 -0.35381 0
M  V30 28495 H 2720.61 3.85476 1.70254 0
M  V30 28496 H 2719.29 2.66628 1.83551 0
M  V30 28497 H 2718.2 3.73447 -0.220934 0
M  V30 28498 H 2719.53 4.91453 -0.271026 0
M  V30 28499 N 2721.18 0.331843 1.54067 0
M  V30 28500 C 2722.15 -0.517729 2.23276 0
M  V30 28501 C 2723.15 -1.03695 1.22898 0
M  V30 28502 O 2724.34 -0.928058 1.4742 0
M  V30 28503 C 2721.47 -1.71998 2.94329 0
M  V30 28504 H 2722.66 0.0874034 2.99773 0
M  V30 28505 H 2720.21 0.0830317 1.56079 0
M  V30 28506 H 2720.95 -2.36413 2.2199 0
M  V30 28507 H 2720.73 -1.355 3.67943 0
M  V30 28508 H 2722.22 -2.32285 3.47035 0
M  V30 28509 N 2722.66 -1.57485 0.0601958 0
M  V30 28510 C 2723.59 -2.15086 -0.908852 0
M  V30 28511 C 2724.57 -1.07486 -1.31836 0
M  V30 28512 O 2725.76 -1.35468 -1.39147 0
M  V30 28513 C 2722.89 -2.70314 -2.18054 0
M  V30 28514 C 2721.84 -3.82978 -1.91081 0
M  V30 28515 C 2721.17 -4.2476 -3.24782 0
M  V30 28516 C 2722.47 -5.07725 -1.22526 0
M  V30 28517 H 2724.16 -2.9631 -0.429041 0
M  V30 28518 H 2721.71 -1.42534 -0.204927 0
M  V30 28519 H 2723.66 -3.09253 -2.86253 0
M  V30 28520 H 2722.38 -1.86295 -2.68257 0
M  V30 28521 H 2721.04 -3.44525 -1.25291 0
M  V30 28522 H 2720.69 -3.37679 -3.72803 0
M  V30 28523 H 2720.39 -5.00699 -3.07529 0
M  V30 28524 H 2721.91 -4.66306 -3.94197 0
M  V30 28525 H 2723.33 -5.44053 -1.80774 0
M  V30 28526 H 2721.73 -5.88866 -1.1557 0
M  V30 28527 H 2722.8 -4.84477 -0.202607 0
M  V30 28528 N 2724.14 0.213268 -1.5615 0
M  V30 28529 C 2725.42 0.961251 -1.70351 0
M  V30 28530 C 2725.8 2.021 -0.609827 0
M  V30 28531 O 2725.14 2.25285 0.381948 0
M  V30 28532 C 2725.35 1.56418 -3.11985 0
M  V30 28533 C 2726.7 2.05328 -3.71653 0
M  V30 28534 O 2727.73 1.66296 -3.14998 0
M  V30 28535 O 2726.58 2.77094 -4.71043 0
M  V30 28536 H 2723.68 0.44957 -0.694129 0
M  V30 28537 H 2726.22 0.204397 -1.68465 0
M  V30 28538 H 2725 0.799389 -3.83048 0
M  V30 28539 H 2724.62 2.38636 -3.18023 0
M  V30 28540 N 2725.62 1.50103 0.480296 0
M  V30 28541 C 2726.55 1.71218 1.58766 0
M  V30 28542 C 2727.53 0.561025 1.60582 0
M  V30 28543 O 2728.71 0.799158 1.76995 0
M  V30 28544 C 2725.84 1.79783 2.97145 0
M  V30 28545 C 2724.8 2.94894 3.10196 0
M  V30 28546 C 2724.12 2.88592 4.50132 0
M  V30 28547 C 2725.42 4.35539 2.88276 0
M  V30 28548 H 2727.12 2.63933 1.4135 0
M  V30 28549 H 2724.66 1.2701 0.678569 0
M  V30 28550 H 2726.62 1.9314 3.74533 0
M  V30 28551 H 2725.34 0.836827 3.15697 0
M  V30 28552 H 2724 2.81173 2.35239 0
M  V30 28553 H 2723.65 1.90357 4.65589 0
M  V30 28554 H 2723.35 3.65864 4.59801 0
M  V30 28555 H 2724.87 3.03985 5.29552 0
M  V30 28556 H 2726.28 4.49834 3.55419 0
M  V30 28557 H 2724.68 5.14191 3.09399 0
M  V30 28558 H 2725.75 4.48547 1.84211 0
M  V30 28559 N 2727.09 -0.732829 1.39526 0
M  V30 28560 C 2728.32 -1.52206 1.40146 0
M  V30 28561 C 2728.74 -1.888 -0.00345517 0
M  V30 28562 O 2728.09 -1.54252 -0.97533 0
M  V30 28563 C 2728.15 -2.80826 2.27637 0
M  V30 28564 O 2727.87 -2.45786 3.62658 0
M  V30 28565 C 2729.37 -3.7484 2.36664 0
M  V30 28566 H 2726.59 -0.470289 0.478612 0
M  V30 28567 H 2729.13 -0.905356 1.83367 0
M  V30 28568 H 2727.29 -3.38823 1.87824 0
M  V30 28569 H 2727.7 -3.28424 4.08947 0
M  V30 28570 H 2729.17 -4.61978 3.02126 0
M  V30 28571 H 2729.65 -4.16742 1.38645 0
M  V30 28572 H 2730.26 -3.22761 2.76957 0
M  V30 28573 N 2728.57 -1.24737 -0.963244 0
M  V30 28574 C 2729.8 -1.11689 -1.74164 0
M  V30 28575 C 2730.22 0.330155 -1.85891 0
M  V30 28576 O 2729.57 1.22757 -1.35044 0
M  V30 28577 C 2729.62 -1.756 -3.15985 0
M  V30 28578 O 2729.34 -3.14648 -3.04842 0
M  V30 28579 C 2730.85 -1.6822 -4.10142 0
M  V30 28580 H 2728.07 -0.389998 -0.546024 0
M  V30 28581 H 2730.61 -1.64931 -1.20904 0
M  V30 28582 H 2728.76 -1.2635 -3.66216 0
M  V30 28583 H 2729.18 -3.45936 -3.94244 0
M  V30 28584 H 2730.65 -2.17613 -5.07295 0
M  V30 28585 H 2731.13 -0.644284 -4.34449 0
M  V30 28586 H 2731.74 -2.16918 -3.65823 0
M  V30 28587 N 2730.05 1.16459 -1.06184 0
M  V30 28588 C 2731.28 1.91407 -0.798633 0
M  V30 28589 C 2731.7 1.76843 0.640956 0
M  V30 28590 O 2731.06 1.09298 1.4465 0
M  V30 28591 C 2731.11 3.40163 -1.19671 0
M  V30 28592 O 2730.21 4.11038 -0.33484 0
M  V30 28593 H 2729.55 0.596363 -0.291972 0
M  V30 28594 H 2732.08 1.47555 -1.41735 0
M  V30 28595 H 2732.09 3.90931 -1.16779 0
M  V30 28596 H 2730.77 3.50083 -2.24532 0
M  V30 28597 H 2729.34 3.70468 -0.425233 0
M  V30 28598 N 2731.53 0.844266 1.33079 0
M  V30 28599 C 2732.49 0.286525 2.27402 0
M  V30 28600 C 2733.49 -0.547845 1.5118 0
M  V30 28601 O 2734.68 -0.360856 1.70421 0
M  V30 28602 C 2731.81 -0.595754 3.35654 0
M  V30 28603 H 2733.01 1.1189 2.78246 0
M  V30 28604 H 2730.56 0.617774 1.43573 0
M  V30 28605 H 2731.29 -1.45035 2.90061 0
M  V30 28606 H 2731.08 0.00132887 3.921 0
M  V30 28607 H 2732.57 -0.979097 4.0596 0
M  V30 28608 N 2733.01 -1.45682 0.60121 0
M  V30 28609 C 2734.25 -2.01883 0.0937311 0
M  V30 28610 C 2734.58 -1.47294 -1.27787 0
M  V30 28611 O 2733.85 -0.664724 -1.84278 0
M  V30 28612 H 2732.43 -0.746329 0.0316598 0
M  V30 28613 H 2735.09 -1.7856 0.781169 0
M  V30 28614 H 2734.18 -3.12076 0.0386845 0
M  V30 28615 N 2734.48 -0.340009 -1.53889 0
M  V30 28616 C 2735.71 0.258702 -2.04974 0
M  V30 28617 C 2736.12 1.45043 -1.21487 0
M  V30 28618 O 2735.47 1.82096 -0.242232 0
M  V30 28619 C 2735.53 0.740791 -3.51785 0
M  V30 28620 C 2735.19 -0.330814 -4.55801 0
M  V30 28621 C 2736.19 -1.17235 -5.0651 0
M  V30 28622 C 2733.87 -0.483725 -4.99965 0
M  V30 28623 C 2735.87 -2.15238 -5.9996 0
M  V30 28624 C 2733.55 -1.46715 -5.93227 0
M  V30 28625 C 2734.55 -2.29993 -6.43111 0
M  V30 28626 O 2734.24 -3.26662 -7.34539 0
M  V30 28627 H 2733.97 0.0543919 -0.673808 0
M  V30 28628 H 2736.53 -0.489142 -1.99491 0
M  V30 28629 H 2734.76 1.53982 -3.5472 0
M  V30 28630 H 2736.45 1.25966 -3.85859 0
M  V30 28631 H 2737.21 -1.06528 -4.73156 0
M  V30 28632 H 2733.09 0.154629 -4.60741 0
M  V30 28633 H 2736.63 -2.80276 -6.3882 0
M  V30 28634 H 2732.53 -1.57479 -6.25996 0
M  V30 28635 H 2733.3 -3.22092 -7.52462 0
M  V30 28636 N 2735.96 1.57451 -0.0685468 0
M  V30 28637 C 2737.37 1.80827 0.464602 0
M  V30 28638 C 2737.73 0.982198 1.69845 0
M  V30 28639 O 2736.85 0.203772 2.15438 0
M  V30 28640 C 2737.45 3.27973 0.849663 0
M  V30 28641 C 2736 3.52206 1.32769 0
M  V30 28642 C 2735.15 2.75547 0.311283 0
M  V30 28643 H 2738.1 1.55948 -0.294275 0
M  V30 28644 H 2738.12 3.39844 1.71132 0
M  V30 28645 H 2737.64 3.8807 -0.0485419 0
M  V30 28646 H 2735.74 2.9741 2.24451 0
M  V30 28647 H 2735.85 4.60903 1.30786 0
M  V30 28648 H 2734.21 2.42208 0.787873 0
M  V30 28649 H 2735 3.3838 -0.579138 0
M  V30 28650 N 2737.44 -0.204984 1.56261 0
M  V30 28651 C 2738.67 -0.941986 1.83875 0
M  V30 28652 C 2739.08 -1.77771 0.647626 0
M  V30 28653 O 2738.42 -1.79445 -0.393067 0
M  V30 28654 C 2738.48 -1.89569 3.05457 0
M  V30 28655 C 2738.15 -1.24289 4.39774 0
M  V30 28656 C 2739.15 -0.624633 5.16134 0
M  V30 28657 C 2736.83 -1.2497 4.86506 0
M  V30 28658 C 2738.82 -0.0218996 6.37396 0
M  V30 28659 C 2736.51 -0.643125 6.07706 0
M  V30 28660 C 2737.51 -0.0302963 6.82993 0
M  V30 28661 O 2737.2 0.566795 8.01899 0
M  V30 28662 H 2736.93 -0.280843 0.614901 0
M  V30 28663 H 2739.48 -0.220249 2.04216 0
M  V30 28664 H 2737.71 -2.65686 2.80976 0
M  V30 28665 H 2739.4 -2.49964 3.19801 0
M  V30 28666 H 2740.17 -0.611581 4.81129 0
M  V30 28667 H 2736.05 -1.71609 4.27868 0
M  V30 28668 H 2739.59 0.457048 6.96101 0
M  V30 28669 H 2735.49 -0.653646 6.42182 0
M  V30 28670 H 2736.26 0.462731 8.17191 0
M  V30 28671 N 2738.92 -1.50356 -0.472329 0
M  V30 28672 C 2740.17 -1.61522 -1.22632 0
M  V30 28673 C 2740.5 -0.314029 -1.91644 0
M  V30 28674 O 2739.77 0.684414 -1.8206 0
M  V30 28675 C 2740.06 -2.79464 -2.27094 0
M  V30 28676 C 2739.91 -4.19462 -1.62394 0
M  V30 28677 C 2741.23 -2.9297 -3.28415 0
M  V30 28678 H 2738.35 -0.587881 -0.444483 0
M  V30 28679 H 2740.99 -1.82738 -0.520289 0
M  V30 28680 H 2739.14 -2.61506 -2.87309 0
M  V30 28681 H 2740.81 -4.49007 -1.05786 0
M  V30 28682 H 2739.05 -4.23777 -0.927109 0
M  V30 28683 H 2739.73 -4.97913 -2.383 0
M  V30 28684 H 2742.2 -3.09406 -2.78221 0
M  V30 28685 H 2741.08 -3.7712 -3.98838 0
M  V30 28686 H 2741.34 -2.03532 -3.92463 0
M  V30 28687 N 2740.4 0.725419 -1.39912 0
M  V30 28688 C 2741.36 1.82119 -1.3916 0
M  V30 28689 C 2742.36 1.58217 -0.287046 0
M  V30 28690 O 2743.55 1.6544 -0.54545 0
M  V30 28691 C 2740.68 3.2006 -1.17366 0
M  V30 28692 H 2741.88 1.84187 -2.36675 0
M  V30 28693 H 2739.43 0.930057 -1.25617 0
M  V30 28694 H 2740.16 3.23647 -0.205705 0
M  V30 28695 H 2739.95 3.38806 -1.97364 0
M  V30 28696 H 2741.44 4.00106 -1.19603 0
M  V30 28697 N 2741.88 1.25246 0.956615 0
M  V30 28698 C 2742.81 1.07935 2.07056 0
M  V30 28699 C 2743.79 -0.0110062 1.70096 0
M  V30 28700 O 2744.97 0.158155 1.93555 0
M  V30 28701 C 2742.1 0.695184 3.40271 0
M  V30 28702 C 2741.06 1.73555 3.91232 0
M  V30 28703 C 2740.38 1.20613 5.20919 0
M  V30 28704 C 2741.68 3.13392 4.17831 0
M  V30 28705 H 2743.38 2.01113 2.21797 0
M  V30 28706 H 2740.92 0.968345 1.06579 0
M  V30 28707 H 2742.87 0.561023 4.17649 0
M  V30 28708 H 2741.6 -0.272298 3.25463 0
M  V30 28709 H 2740.26 1.85812 3.16021 0
M  V30 28710 H 2739.91 0.228934 5.02479 0
M  V30 28711 H 2739.61 1.90146 5.55984 0
M  V30 28712 H 2741.13 1.08432 6.00895 0
M  V30 28713 H 2742.54 3.043 4.85875 0
M  V30 28714 H 2740.94 3.80377 4.64148 0
M  V30 28715 H 2742.01 3.60601 3.24183 0
M  V30 28716 N 2743.35 -1.15894 1.068 0
M  V30 28717 C 2744.6 -1.86179 0.786243 0
M  V30 28718 C 2744.92 -1.82403 -0.689515 0
M  V30 28719 O 2744.19 -1.2611 -1.49911 0
M  V30 28720 H 2742.77 -0.68931 0.287856 0
M  V30 28721 H 2745.43 -1.40518 1.35058 0
M  V30 28722 H 2744.53 -2.91475 1.11575 0
M  V30 28723 N 2744.83 -0.851312 -1.32629 0
M  V30 28724 C 2746.08 -0.449302 -1.96632 0
M  V30 28725 C 2746.39 0.999533 -1.68133 0
M  V30 28726 O 2747.6 1.50681 -2.25848 0
M  V30 28727 C 2746.06 -0.752507 -3.51945 0
M  V30 28728 C 2745.66 -2.21685 -3.89307 0
M  V30 28729 C 2747.41 -0.418057 -4.22436 0
M  V30 28730 C 2745.31 -2.46345 -5.37651 0
M  V30 28731 H 2744.24 -0.164282 -0.735886 0
M  V30 28732 H 2746.9 -1.04163 -1.51071 0
M  V30 28733 H 2745.28 -0.0896554 -3.95898 0
M  V30 28734 H 2746.45 -2.92121 -3.56373 0
M  V30 28735 H 2744.77 -2.51549 -3.31831 0
M  V30 28736 H 2747.36 -0.579768 -5.31548 0
M  V30 28737 H 2747.71 0.640043 -4.1135 0
M  V30 28738 H 2748.24 -1.03666 -3.84055 0
M  V30 28739 H 2744.98 -3.50767 -5.53753 0
M  V30 28740 H 2744.5 -1.80483 -5.72002 0
M  V30 28741 H 2746.18 -2.30125 -6.04691 0
M  V30 28742 N 2746.31 1.45361 -0.608928 0
M  V30 28743 C 2747.26 2.30542 0.109131 0
M  V30 28744 C 2748.23 1.42183 0.858679 0
M  V30 28745 O 2749.41 1.7111 0.844148 0
M  V30 28746 C 2746.55 3.27111 1.09965 0
M  V30 28747 C 2745.66 4.30573 0.350836 0
M  V30 28748 C 2744.8 5.1425 1.33119 0
M  V30 28749 C 2743.84 6.09438 0.57027 0
M  V30 28750 N 2742.98 6.8589 1.49998 0
M  V30 28751 H 2747.82 2.9141 -0.623246 0
M  V30 28752 H 2745.35 1.43596 -0.319147 0
M  V30 28753 H 2747.31 3.81567 1.68708 0
M  V30 28754 H 2745.94 2.67994 1.79942 0
M  V30 28755 H 2744.99 3.78767 -0.35212 0
M  V30 28756 H 2746.3 4.98209 -0.242812 0
M  V30 28757 H 2745.46 5.73113 1.99064 0
M  V30 28758 H 2744.2 4.46636 1.95877 0
M  V30 28759 H 2743.2 5.49704 -0.102798 0
M  V30 28760 H 2744.43 6.7908 -0.05228 0
M  V30 28761 H 2742.37 6.20964 2.11518 0
M  V30 28762 H 2742.29 7.49883 0.959802 0
M  V30 28763 H 2743.56 7.49293 2.14896 0
M  V30 28764 N 2747.79 0.348166 1.53706 0
M  V30 28765 C 2748.73 -0.506478 2.25174 0
M  V30 28766 C 2749.7 -1.09179 1.25176 0
M  V30 28767 O 2750.89 -1.12755 1.53919 0
M  V30 28768 C 2748.03 -1.64918 3.03144 0
M  V30 28769 C 2747.14 -1.09073 4.18004 0
M  V30 28770 C 2746.28 -2.20111 4.83451 0
M  V30 28771 C 2745.32 -1.61641 5.90372 0
M  V30 28772 N 2744.45 -2.6644 6.4958 0
M  V30 28773 H 2749.29 0.109505 2.97799 0
M  V30 28774 H 2746.83 0.0658124 1.46953 0
M  V30 28775 H 2748.79 -2.32199 3.46612 0
M  V30 28776 H 2747.42 -2.23608 2.32807 0
M  V30 28777 H 2746.47 -0.308717 3.79145 0
M  V30 28778 H 2747.78 -0.623091 4.94893 0
M  V30 28779 H 2746.94 -2.95248 5.30013 0
M  V30 28780 H 2745.68 -2.7022 4.05996 0
M  V30 28781 H 2744.68 -0.850114 5.43188 0
M  V30 28782 H 2745.91 -1.12378 6.69737 0
M  V30 28783 H 2743.85 -3.15795 5.74987 0
M  V30 28784 H 2743.77 -2.24312 7.21956 0
M  V30 28785 H 2745.04 -3.41332 7.00795 0
M  V30 28786 N 2749.27 -1.57412 0.0768958 0
M  V30 28787 C 2750.68 -1.57129 -0.279745 0
M  V30 28788 C 2750.88 -1.08669 -1.69686 0
M  V30 28789 O 2749.94 -0.754886 -2.40952 0
M  V30 28790 C 2751.25 -3.00581 -0.0847526 0
M  V30 28791 C 2752.8 -3.12621 -0.153899 0
M  V30 28792 C 2753.27 -4.57998 0.0128751 0
M  V30 28793 N 2754.76 -4.6318 -0.0425621 0
M  V30 28794 C 2755.5 -5.73366 0.06199 0
M  V30 28795 N 2755 -6.92449 0.220351 0
M  V30 28796 N 2756.79 -5.621 0.00455952 0
M  V30 28797 H 2748.94 -1.87226 1.003 0
M  V30 28798 H 2751.2 -0.863347 0.391581 0
M  V30 28799 H 2750.91 -3.40166 0.89331 0
M  V30 28800 H 2750.78 -3.67844 -0.834896 0
M  V30 28801 H 2753.17 -2.72919 -1.12245 0
M  V30 28802 H 2753.25 -2.47986 0.627433 0
M  V30 28803 H 2752.89 -4.98391 0.978216 0
M  V30 28804 H 2752.82 -5.20672 -0.787924 0
M  V30 28805 H 2755.32 -3.77548 -0.16316 0
M  V30 28806 H 2755.63 -7.72248 0.292135 0
M  V30 28807 H 2753.97 -6.94529 0.25578 0
M  V30 28808 H 2757.16 -4.67952 -0.117897 0
M  V30 28809 H 2757.34 -6.47938 0.0894935 0
M  V30 28810 N 2750.74 0.196695 -1.56368 0
M  V30 28811 C 2752.02 0.943129 -1.71361 0
M  V30 28812 C 2752.4 2.01442 -0.631228 0
M  V30 28813 O 2751.75 2.25678 0.358032 0
M  V30 28814 C 2751.96 1.531 -3.13626 0
M  V30 28815 C 2753.31 2.01374 -3.7381 0
M  V30 28816 O 2754.33 1.62946 -3.16744 0
M  V30 28817 O 2753.19 2.72082 -4.73955 0
M  V30 28818 H 2750.28 0.442183 -0.698859 0
M  V30 28819 H 2752.83 0.186517 -1.68672 0
M  V30 28820 H 2751.6 0.758717 -3.83874 0
M  V30 28821 H 2751.23 2.35249 -3.20536 0
M  V30 28822 N 2752.22 1.50604 0.464349 0
M  V30 28823 C 2753.47 1.61169 1.21274 0
M  V30 28824 C 2753.78 0.320738 1.92952 0
M  V30 28825 O 2754.99 0.305388 2.69777 0
M  V30 28826 C 2753.45 2.84522 2.20398 0
M  V30 28827 C 2753.05 4.20519 1.54492 0
M  V30 28828 C 2754.8 3.04435 2.95837 0
M  V30 28829 C 2752.71 5.35051 2.51941 0
M  V30 28830 H 2751.64 0.600212 0.456356 0
M  V30 28831 H 2754.29 1.77043 0.482509 0
M  V30 28832 H 2752.67 2.62222 2.96742 0
M  V30 28833 H 2753.84 4.53099 0.83891 0
M  V30 28834 H 2752.16 4.06266 0.913081 0
M  V30 28835 H 2754.75 3.87173 3.68783 0
M  V30 28836 H 2755.1 2.16429 3.55618 0
M  V30 28837 H 2755.63 3.26948 2.26606 0
M  V30 28838 H 2752.37 6.25232 1.9689 0
M  V30 28839 H 2751.89 5.06881 3.20674 0
M  V30 28840 H 2753.57 5.65901 3.13633 0
M  V30 28841 N 2753.7 -0.717989 1.40295 0
M  V30 28842 C 2754.63 -1.84495 1.43122 0
M  V30 28843 C 2755.61 -1.67567 0.292433 0
M  V30 28844 O 2756.8 -1.87634 0.500707 0
M  V30 28845 C 2753.93 -3.22425 1.29071 0
M  V30 28846 C 2752.88 -3.54021 2.40527 0
M  V30 28847 C 2752.21 -4.91069 2.11555 0
M  V30 28848 C 2753.51 -3.55262 3.82865 0
M  V30 28849 H 2755.2 -1.82387 2.37435 0
M  V30 28850 H 2752.75 -0.87607 1.14285 0
M  V30 28851 H 2754.7 -4.00955 1.29665 0
M  V30 28852 H 2753.42 -3.25103 0.312328 0
M  V30 28853 H 2752.08 -2.7783 2.39178 0
M  V30 28854 H 2751.73 -4.90347 1.12113 0
M  V30 28855 H 2751.43 -5.13175 2.86225 0
M  V30 28856 H 2752.95 -5.71935 2.13827 0
M  V30 28857 H 2754.37 -4.23837 3.86051 0
M  V30 28858 H 2752.77 -3.88894 4.57035 0
M  V30 28859 H 2753.84 -2.54698 4.12622 0
M  V30 28860 N 2755.18 -1.25752 -0.94996 0
M  V30 28861 C 2756.4 -1.13631 -1.73501 0
M  V30 28862 C 2756.83 0.305557 -1.85602 0
M  V30 28863 O 2756.19 1.22137 -1.33986 0
M  V30 28864 C 2756.23 -1.80061 -3.12427 0
M  V30 28865 O 2755.34 -1.08343 -3.97914 0
M  V30 28866 H 2754.68 -0.396449 -0.532658 0
M  V30 28867 H 2757.21 -1.66405 -1.1904 0
M  V30 28868 H 2757.22 -1.86533 -3.62863 0
M  V30 28869 H 2755.89 -2.84961 -3.02936 0
M  V30 28870 H 2754.47 -1.09784 -3.56373 0
M  V30 28871 N 2756.66 1.15326 -1.07413 0
M  V30 28872 C 2758.07 1.38115 -0.799783 0
M  V30 28873 C 2758.27 1.92494 0.595687 0
M  V30 28874 O 2757.33 2.13108 1.35429 0
M  V30 28875 C 2758.64 2.35155 -1.87411 0
M  V30 28876 C 2760.19 2.48816 -1.89894 0
M  V30 28877 C 2760.66 3.49148 -2.96412 0
M  V30 28878 N 2762.16 3.56684 -2.95518 0
M  V30 28879 C 2762.89 4.34138 -3.74582 0
M  V30 28880 N 2762.39 5.1492 -4.63497 0
M  V30 28881 N 2764.18 4.29233 -3.62926 0
M  V30 28882 H 2756.33 0.783705 -1.97413 0
M  V30 28883 H 2758.59 0.407139 -0.85612 0
M  V30 28884 H 2758.3 2.02315 -2.87683 0
M  V30 28885 H 2758.17 3.34941 -1.73476 0
M  V30 28886 H 2760.56 2.80953 -0.902726 0
M  V30 28887 H 2760.64 1.49026 -2.07906 0
M  V30 28888 H 2760.29 3.17745 -3.96233 0
M  V30 28889 H 2760.22 4.48695 -2.75646 0
M  V30 28890 H 2762.71 2.99026 -2.31066 0
M  V30 28891 H 2763.02 5.71267 -5.20455 0
M  V30 28892 H 2761.36 5.14224 -4.67546 0
M  V30 28893 H 2764.56 3.65189 -2.92839 0
M  V30 28894 H 2764.73 4.89348 -4.24786 0
M  V30 28895 N 2758.13 0.858334 1.32176 0
M  V30 28896 C 2759.55 0.548682 1.49872 0
M  V30 28897 C 2759.75 -0.919842 1.7928 0
M  V30 28898 O 2758.81 -1.70268 1.86454 0
M  V30 28899 C 2760.12 1.43885 2.64041 0
M  V30 28900 C 2761.67 1.43966 2.77926 0
M  V30 28901 C 2762.14 2.31513 3.95178 0
M  V30 28902 N 2763.63 2.29329 4.02446 0
M  V30 28903 C 2764.37 2.93795 4.92415 0
M  V30 28904 N 2763.86 3.67387 5.87366 0
M  V30 28905 N 2765.66 2.83163 4.85567 0
M  V30 28906 H 2757.81 1.8087 1.11354 0
M  V30 28907 H 2760.07 0.772739 0.549162 0
M  V30 28908 H 2759.78 2.48328 2.4905 0
M  V30 28909 H 2759.65 1.12891 3.5991 0
M  V30 28910 H 2762.04 0.402864 2.92337 0
M  V30 28911 H 2762.12 1.78977 1.82759 0
M  V30 28912 H 2761.76 3.35262 3.81525 0
M  V30 28913 H 2761.69 1.93832 4.89629 0
M  V30 28914 H 2764.18 1.75827 3.34504 0
M  V30 28915 H 2764.5 4.13734 6.52721 0
M  V30 28916 H 2762.84 3.71495 5.87381 0
M  V30 28917 H 2766.03 2.25218 4.10359 0
M  V30 28918 H 2766.21 3.33685 5.5548 0
M  V30 28919 N 2759.61 -1.45036 0.616628 0
M  V30 28920 C 2760.84 -2.0654 0.122004 0
M  V30 28921 C 2761.26 -1.45971 -1.19741 0
M  V30 28922 O 2760.61 -0.577198 -1.73132 0
M  V30 28923 C 2760.66 -3.61497 -0.0144536 0
M  V30 28924 O 2760.38 -4.19806 1.25276 0
M  V30 28925 C 2761.89 -4.40005 -0.539478 0
M  V30 28926 H 2759.11 -0.667018 0.0729954 0
M  V30 28927 H 2761.65 -1.86138 0.846924 0
M  V30 28928 H 2759.8 -3.8121 -0.689742 0
M  V30 28929 H 2760.22 -5.13086 1.08825 0
M  V30 28930 H 2761.69 -5.48902 -0.584015 0
M  V30 28931 H 2762.17 -4.10424 -1.56361 0
M  V30 28932 H 2762.78 -4.25178 0.10207 0
M  V30 28933 N 2761.09 -0.356312 -1.53519 0
M  V30 28934 C 2762.51 -0.00488072 -1.59599 0
M  V30 28935 C 2762.71 1.47593 -1.37181 0
M  V30 28936 O 2761.76 2.23632 -1.17238 0
M  V30 28937 C 2763.08 -0.452506 -2.97276 0
M  V30 28938 C 2764.62 -0.405935 -3.10357 0
M  V30 28939 C 2765.1 -0.829228 -4.50431 0
M  V30 28940 N 2766.59 -0.783918 -4.56518 0
M  V30 28941 C 2767.32 -1.08324 -5.63075 0
M  V30 28942 N 2766.82 -1.45138 -6.77427 0
M  V30 28943 N 2768.61 -1.00665 -5.53013 0
M  V30 28944 H 2760.76 -1.32074 -1.66344 0
M  V30 28945 H 2763.03 -0.539232 -0.779701 0
M  V30 28946 H 2762.73 -1.48547 -3.18789 0
M  V30 28947 H 2762.61 0.165696 -3.76836 0
M  V30 28948 H 2764.99 0.617883 -2.88559 0
M  V30 28949 H 2765.08 -1.05951 -2.32826 0
M  V30 28950 H 2764.72 -1.85112 -4.72965 0
M  V30 28951 H 2764.65 -0.152998 -5.26378 0
M  V30 28952 H 2767.14 -0.512579 -3.74408 0
M  V30 28953 H 2767.45 -1.66428 -7.54666 0
M  V30 28954 H 2765.8 -1.48995 -6.78841 0
M  V30 28955 H 2768.99 -0.718297 -4.62556 0
M  V30 28956 H 2769.16 -1.24326 -6.35962 0
M  V30 28957 N 2762.57 1.57369 -0.0852427 0
M  V30 28958 C 2763.85 1.8543 0.622502 0
M  V30 28959 C 2764.23 0.980262 1.8696 0
M  V30 28960 O 2763.57 0.0500621 2.28445 0
M  V30 28961 C 2763.78 3.35897 0.947314 0
M  V30 28962 C 2765.13 4.03723 1.31502 0
M  V30 28963 O 2766.16 3.40721 1.03863 0
M  V30 28964 O 2765.01 5.14871 1.83222 0
M  V30 28965 H 2762.11 0.766498 0.3105 0
M  V30 28966 H 2764.65 1.69295 -0.117194 0
M  V30 28967 H 2763.43 3.91251 0.0621576 0
M  V30 28968 H 2763.05 3.57343 1.74332 0
M  V30 28969 N 2764.05 -0.188399 1.5647 0
M  V30 28970 C 2764.98 -1.23602 1.98103 0
M  V30 28971 C 2765.96 -1.47109 0.853986 0
M  V30 28972 O 2767.14 -1.58733 1.11881 0
M  V30 28973 C 2764.27 -2.57878 2.32629 0
M  V30 28974 C 2763.23 -2.48972 3.48134 0
M  V30 28975 C 2762.55 -3.87582 3.68354 0
M  V30 28976 C 2763.85 -2.00903 4.82115 0
M  V30 28977 H 2765.55 -0.890018 2.85865 0
M  V30 28978 H 2763.09 -0.42669 1.37533 0
M  V30 28979 H 2765.05 -3.31355 2.60349 0
M  V30 28980 H 2763.77 -2.94233 1.41756 0
M  V30 28981 H 2762.43 -1.7795 3.20514 0
M  V30 28982 H 2762.08 -4.213 2.748 0
M  V30 28983 H 2761.78 -3.82496 4.46062 0
M  V30 28984 H 2763.3 -4.62671 3.98457 0
M  V30 28985 H 2764.71 -2.64142 5.08824 0
M  V30 28986 H 2763.11 -2.06804 5.6334 0
M  V30 28987 H 2764.18 -0.962536 4.75251 0
M  V30 28988 N 2765.53 -1.50848 -0.456355 0
M  V30 28989 C 2766.75 -1.66351 -1.23024 0
M  V30 28990 C 2767.17 -0.3529 -1.85473 0
M  V30 28991 O 2766.53 0.666709 -1.69886 0
M  V30 28992 C 2766.58 -2.76543 -2.32822 0
M  V30 28993 O 2766.3 -4.02525 -1.72931 0
M  V30 28994 C 2767.8 -3.0315 -3.23443 0
M  V30 28995 H 2765.02 -0.558763 -0.371517 0
M  V30 28996 H 2767.56 -1.97158 -0.543047 0
M  V30 28997 H 2765.72 -2.4839 -2.9729 0
M  V30 28998 H 2766.13 -4.63578 -2.45349 0
M  V30 28999 H 2767.61 -3.83879 -3.96662 0
M  V30 29000 H 2768.08 -2.148 -3.8309 0
M  V30 29001 H 2768.69 -3.32891 -2.64696 0
M  V30 29002 N 2767 0.710538 -1.40674 0
M  V30 29003 C 2767.95 1.8246 -1.4134 0
M  V30 29004 C 2768.92 1.63896 -0.269676 0
M  V30 29005 O 2770.11 1.84959 -0.468496 0
M  V30 29006 C 2767.25 3.20215 -1.28671 0
M  V30 29007 C 2766.36 3.50316 -2.5279 0
M  V30 29008 C 2765.49 4.77604 -2.32526 0
M  V30 29009 C 2764.53 5.00624 -3.52196 0
M  V30 29010 N 2763.67 6.19129 -3.31095 0
M  V30 29011 H 2768.51 1.81226 -2.36561 0
M  V30 29012 H 2766.05 0.885205 -1.17484 0
M  V30 29013 H 2768 3.9977 -1.19331 0
M  V30 29014 H 2766.63 3.20665 -0.370658 0
M  V30 29015 H 2765.69 2.65278 -2.72638 0
M  V30 29016 H 2767 3.63235 -3.41851 0
M  V30 29017 H 2766.15 5.65186 -2.20568 0
M  V30 29018 H 2764.89 4.66904 -1.40898 0
M  V30 29019 H 2763.9 4.11496 -3.64625 0
M  V30 29020 H 2765.12 5.13193 -4.44758 0
M  V30 29021 H 2763.07 6.0967 -2.42154 0
M  V30 29022 H 2762.98 6.32747 -4.13724 0
M  V30 29023 H 2764.25 7.09485 -3.2288 0
M  V30 29024 N 2768.48 1.26254 0.943277 0
M  V30 29025 C 2769.41 1.10125 2.059 0
M  V30 29026 C 2770.39 0.00703542 1.70099 0
M  V30 29027 O 2771.58 0.178675 1.93376 0
M  V30 29028 C 2768.71 0.731235 3.39515 0
M  V30 29029 C 2767.66 1.77695 3.89369 0
M  V30 29030 C 2766.99 1.26131 5.1961 0
M  V30 29031 C 2768.29 3.17806 4.14484 0
M  V30 29032 H 2769.98 2.03454 2.19651 0
M  V30 29033 H 2767.53 0.979594 1.05546 0
M  V30 29034 H 2769.48 0.605288 4.1703 0
M  V30 29035 H 2768.2 -0.237763 3.25733 0
M  V30 29036 H 2766.86 1.89153 3.14033 0
M  V30 29037 H 2766.51 0.282216 5.02208 0
M  V30 29038 H 2766.21 1.96032 5.53936 0
M  V30 29039 H 2767.74 1.14799 5.99711 0
M  V30 29040 H 2769.15 3.09437 4.8262 0
M  V30 29041 H 2767.55 3.85279 4.60087 0
M  V30 29042 H 2768.62 3.64019 3.2034 0
M  V30 29043 N 2769.96 -1.14755 1.08024 0
M  V30 29044 C 2770.91 -2.19714 0.706696 0
M  V30 29045 C 2771.88 -1.63272 -0.305221 0
M  V30 29046 O 2773.06 -1.8985 -0.190117 0
M  V30 29047 C 2770.2 -3.44898 0.117975 0
M  V30 29048 C 2769.31 -4.1551 1.1822 0
M  V30 29049 C 2768.45 -5.28264 0.557752 0
M  V30 29050 C 2767.49 -5.90702 1.60428 0
M  V30 29051 N 2766.63 -6.94914 1.00192 0
M  V30 29052 H 2771.47 -2.51016 1.60608 0
M  V30 29053 H 2769 -1.2327 0.802685 0
M  V30 29054 H 2770.96 -4.16503 -0.241039 0
M  V30 29055 H 2769.59 -3.14092 -0.744733 0
M  V30 29056 H 2768.64 -3.42333 1.65869 0
M  V30 29057 H 2769.95 -4.58016 1.97541 0
M  V30 29058 H 2769.11 -6.06522 0.146761 0
M  V30 29059 H 2767.85 -4.86968 -0.267163 0
M  V30 29060 H 2766.85 -5.1115 2.02498 0
M  V30 29061 H 2768.08 -6.34074 2.43161 0
M  V30 29062 H 2766.02 -6.55701 0.198032 0
M  V30 29063 H 2765.94 -7.35886 1.73229 0
M  V30 29064 H 2767.21 -7.77057 0.61666 0
M  V30 29065 N 2771.44 -0.865331 -1.31719 0
M  V30 29066 C 2772.35 -0.320976 -2.32394 0
M  V30 29067 C 2773.36 0.566717 -1.64512 0
M  V30 29068 O 2774.54 0.46454 -1.95969 0
M  V30 29069 C 2771.6 0.47264 -3.43463 0
M  V30 29070 C 2770.67 -0.44246 -4.27014 0
M  V30 29071 C 2769.9 0.313375 -5.32779 0
M  V30 29072 O 2770.12 1.54205 -5.4916 0
M  V30 29073 O 2769.06 -0.326363 -6.01015 0
M  V30 29074 H 2772.88 -1.15533 -2.80866 0
M  V30 29075 H 2770.47 -0.628569 -1.35534 0
M  V30 29076 H 2772.35 0.922709 -4.11174 0
M  V30 29077 H 2771.02 1.28362 -2.97161 0
M  V30 29078 H 2769.93 -0.94093 -3.62074 0
M  V30 29079 H 2771.26 -1.21891 -4.76868 0
M  V30 29080 N 2772.92 1.44707 -0.624311 0
M  V30 29081 C 2774.16 2.03991 -0.129309 0
M  V30 29082 C 2774.52 1.47994 1.22318 0
M  V30 29083 O 2775.72 1.98737 1.80989 0
M  V30 29084 C 2773.99 3.57236 -0.108294 0
M  V30 29085 S 2775.55 4.37609 0.323081 0
M  V30 29086 H 2772.37 0.708651 -0.0577442 0
M  V30 29087 H 2774.97 1.77185 -0.82617 0
M  V30 29088 H 2773.67 3.95498 -1.09587 0
M  V30 29089 H 2773.21 3.88641 0.610032 0
M  V30 29090 H 2775.22 4.70745 1.56886 0
M  V30 29091 N 2774.39 0.364449 1.53328 0
M  V30 29092 C 2775.33 -0.526106 2.22053 0
M  V30 29093 C 2776.3 -1.08389 1.21205 0
M  V30 29094 O 2777.49 -1.14023 1.50103 0
M  V30 29095 C 2774.62 -1.72578 2.91435 0
M  V30 29096 C 2773.66 -1.29554 4.06347 0
M  V30 29097 S 2774.49 -0.297791 5.34671 0
M  V30 29098 C 2775.65 -1.50382 6.07566 0
M  V30 29099 H 2775.88 0.0575577 2.97244 0
M  V30 29100 H 2773.42 0.148552 1.53684 0
M  V30 29101 H 2775.37 -2.41392 3.32024 0
M  V30 29102 H 2774.04 -2.28069 2.1597 0
M  V30 29103 H 2773.23 -2.19059 4.53905 0
M  V30 29104 H 2772.83 -0.686632 3.67643 0
M  V30 29105 H 2775.12 -2.43502 6.32229 0
M  V30 29106 H 2776.07 -1.06964 6.99974 0
M  V30 29107 H 2776.47 -1.70936 5.37997 0
M  V30 29108 N 2775.87 -1.57322 0.0935872 0
M  V30 29109 C 2777.15 -1.85757 -0.612659 0
M  V30 29110 C 2777.53 -0.990163 -1.86438 0
M  V30 29111 O 2776.88 -0.0621764 -2.28415 0
M  V30 29112 C 2777.09 -3.36395 -0.929488 0
M  V30 29113 C 2778.43 -4.04415 -1.29359 0
M  V30 29114 O 2779.46 -3.41267 -1.02055 0
M  V30 29115 O 2778.32 -5.15835 -1.80489 0
M  V30 29116 H 2775.41 -0.768134 -0.30643 0
M  V30 29117 H 2777.96 -1.6923 0.12617 0
M  V30 29118 H 2776.73 -3.91278 -0.0414078 0
M  V30 29119 H 2776.35 -3.58263 -1.72435 0
M  V30 29120 N 2777.35 0.180099 -1.56568 0
M  V30 29121 C 2778.3 1.22309 -1.95727 0
M  V30 29122 C 2779.27 1.44452 -0.819936 0
M  V30 29123 O 2780.45 1.57337 -1.07934 0
M  V30 29124 C 2777.59 2.55943 -2.31489 0
M  V30 29125 C 2776.7 2.41254 -3.58358 0
M  V30 29126 C 2775.84 3.67694 -3.83373 0
M  V30 29127 C 2774.88 3.47901 -5.03619 0
M  V30 29128 N 2774.02 4.66389 -5.2481 0
M  V30 29129 H 2778.86 0.882148 -2.84644 0
M  V30 29130 H 2776.39 0.424195 -1.40851 0
M  V30 29131 H 2778.35 3.33818 -2.50243 0
M  V30 29132 H 2776.98 2.88051 -1.45694 0
M  V30 29133 H 2776.03 1.546 -3.47567 0
M  V30 29134 H 2777.34 2.2257 -4.4639 0
M  V30 29135 H 2776.5 4.54006 -4.02447 0
M  V30 29136 H 2775.24 3.89348 -2.93699 0
M  V30 29137 H 2774.24 2.59975 -4.84451 0
M  V30 29138 H 2775.47 3.27677 -5.94815 0
M  V30 29139 H 2773.41 4.88278 -4.38087 0
M  V30 29140 H 2773.33 4.50585 -6.07049 0
M  V30 29141 H 2774.6 5.54009 -5.48356 0
M  V30 29142 N 2778.83 1.51088 0.448349 0
M  V30 29143 C 2780.06 1.66759 1.21963 0
M  V30 29144 C 2780.47 0.359786 1.85748 0
M  V30 29145 O 2779.81 -0.670574 1.71023 0
M  V30 29146 C 2779.87 2.71816 2.35279 0
M  V30 29147 C 2779.53 4.14734 1.9195 0
M  V30 29148 C 2780.53 4.99872 1.42912 0
M  V30 29149 C 2778.22 4.60776 1.99977 0
M  V30 29150 C 2780.21 6.29109 1.02474 0
M  V30 29151 C 2777.9 5.90012 1.5915 0
M  V30 29152 C 2778.9 6.74005 1.10479 0
M  V30 29153 O 2778.58 8.00827 0.702272 0
M  V30 29154 H 2778.32 0.56304 0.374115 0
M  V30 29155 H 2780.87 1.98205 0.538893 0
M  V30 29156 H 2779.1 2.35662 3.06595 0
M  V30 29157 H 2780.79 2.76477 2.97179 0
M  V30 29158 H 2781.55 4.65508 1.36115 0
M  V30 29159 H 2777.43 3.95529 2.36807 0
M  V30 29160 H 2780.98 6.9462 0.644149 0
M  V30 29161 H 2776.87 6.23893 1.65615 0
M  V30 29162 H 2777.64 8.1429 0.829105 0
M  V30 29163 N 2780.31 -0.703068 1.41049 0
M  V30 29164 C 2781.55 -1.46018 1.39726 0
M  V30 29165 C 2781.88 -1.94999 0.00464685 0
M  V30 29166 O 2781.15 -1.71198 -0.952262 0
M  V30 29167 H 2779.73 -0.54177 0.51429 0
M  V30 29168 H 2782.39 -0.832647 1.76219 0
M  V30 29169 H 2781.48 -2.32697 2.07986 0
M  V30 29170 N 2781.78 -1.26752 -0.936569 0
M  V30 29171 C 2782.71 -1.11216 -2.05313 0
M  V30 29172 C 2783.7 -0.0160561 -1.70092 0
M  V30 29173 O 2784.88 -0.188928 -1.93279 0
M  V30 29174 C 2782.01 -0.74923 -3.39122 0
M  V30 29175 C 2780.96 -1.79758 -3.88421 0
M  V30 29176 C 2780.29 -1.28885 -5.18934 0
M  V30 29177 C 2781.59 -3.2 -4.12792 0
M  V30 29178 H 2783.28 -2.04616 -2.18569 0
M  V30 29179 H 2780.83 -0.985178 -1.05025 0
M  V30 29180 H 2782.78 -0.627396 -4.16703 0
M  V30 29181 H 2781.51 0.220485 -3.25855 0
M  V30 29182 H 2780.17 -1.90816 -3.13025 0
M  V30 29183 H 2779.81 -0.308845 -5.02051 0
M  V30 29184 H 2779.51 -1.98967 -5.52889 0
M  V30 29185 H 2781.04 -1.17978 -5.99094 0
M  V30 29186 H 2782.45 -3.11992 -4.80972 0
M  V30 29187 H 2780.85 -3.87713 -4.58037 0
M  V30 29188 H 2781.92 -3.65713 -3.18405 0
M  V30 29189 N 2783.26 1.1418 -1.08631 0
M  V30 29190 C 2784.21 2.21406 -0.712879 0
M  V30 29191 C 2785.2 1.67029 0.282427 0
M  V30 29192 O 2786.41 1.79417 0.144751 0
M  V30 29193 H 2782.79 0.721349 -0.21251 0
M  V30 29194 H 2784.76 2.50172 -1.62655 0
M  V30 29195 C 2783.51 3.47415 -0.140765 0
M  V30 29196 H 2782.83 3.89589 -0.897807 0
M  V30 29197 H 2784.27 4.23919 0.0826932 0
M  V30 29198 C 2782.73 3.1767 1.12194 0
M  V30 29199 O 2783.26 3.35675 2.20646 0
M  V30 29200 N 2781.46 2.71611 1.03323 0
M  V30 29201 H 2781.01 2.57159 0.150621 0
M  V30 29202 H 2780.97 2.52084 1.87885 0
M  V30 29203 N 2784.74 0.872304 1.31258 0
M  V30 29204 C 2785.67 0.345595 2.30928 0
M  V30 29205 C 2786.65 -0.564772 1.6045 0
M  V30 29206 O 2787.84 -0.481301 1.88141 0
M  V30 29207 C 2784.97 -0.451762 3.44349 0
M  V30 29208 C 2783.92 0.365716 4.26435 0
M  V30 29209 C 2783.25 -0.557469 5.31786 0
M  V30 29210 C 2784.55 1.60104 4.97156 0
M  V30 29211 H 2786.24 1.17846 2.75232 0
M  V30 29212 H 2783.79 0.568117 1.32319 0
M  V30 29213 H 2785.74 -0.830782 4.13129 0
M  V30 29214 H 2784.46 -1.31816 2.98818 0
M  V30 29215 H 2783.12 0.726712 3.59325 0
M  V30 29216 H 2782.77 -1.42121 4.82505 0
M  V30 29217 H 2782.47 -0.0143845 5.87598 0
M  V30 29218 H 2783.99 -0.933281 6.03425 0
M  V30 29219 H 2785.41 1.29333 5.58521 0
M  V30 29220 H 2783.81 2.08337 5.62775 0
M  V30 29221 H 2784.88 2.35257 4.24007 0
M  V30 29222 N 2786.22 -1.44374 0.631976 0
M  V30 29223 C 2787.63 -1.8541 0.219069 0
M  V30 29224 C 2787.98 -1.52881 -1.22971 0
M  V30 29225 O 2787.11 -0.9673 -1.93578 0
M  V30 29226 C 2787.7 -3.36538 0.390809 0
M  V30 29227 C 2786.26 -3.76386 0.0324013 0
M  V30 29228 C 2785.41 -2.6822 0.703791 0
M  V30 29229 H 2788.36 -1.34828 0.837079 0
M  V30 29230 H 2788.38 -3.78697 -0.36999 0
M  V30 29231 H 2787.89 -3.60183 1.44534 0
M  V30 29232 H 2785.99 -3.58357 -1.02036 0
M  V30 29233 H 2786.1 -4.77047 0.443052 0
M  V30 29234 H 2784.47 -2.5432 0.139018 0
M  V30 29235 H 2785.25 -2.94697 1.76093 0
M  V30 29236 N 2787.7 -0.372575 -1.53133 0
M  V30 29237 C 2788.63 0.514322 -2.22329 0
M  V30 29238 C 2789.61 1.07745 -1.21778 0
M  V30 29239 O 2790.79 1.13226 -1.50706 0
M  V30 29240 C 2787.92 1.7103 -2.92346 0
M  V30 29241 C 2786.96 1.27398 -4.07028 0
M  V30 29242 S 2787.8 0.269432 -5.34822 0
M  V30 29243 C 2788.95 1.47158 -6.08355 0
M  V30 29244 H 2789.19 -0.0733205 -2.9721 0
M  V30 29245 H 2786.72 -0.1567 -1.53603 0
M  V30 29246 H 2788.68 2.39628 -3.333 0
M  V30 29247 H 2787.34 2.26921 -2.17177 0
M  V30 29248 H 2786.53 2.16648 -4.5506 0
M  V30 29249 H 2786.13 0.667125 -3.68002 0
M  V30 29250 H 2788.43 2.40146 -6.33511 0
M  V30 29251 H 2789.37 1.03251 -7.00532 0
M  V30 29252 H 2789.78 1.6808 -5.38896 0
M  V30 29253 N 2789.17 1.5727 -0.101929 0
M  V30 29254 C 2790.42 1.94886 0.560993 0
M  V30 29255 C 2790.75 0.984287 1.67408 0
M  V30 29256 O 2790.03 0.0185108 1.94491 0
M  V30 29257 C 2790.31 3.42573 1.10976 0
M  V30 29258 C 2790.16 4.498 0.00125511 0
M  V30 29259 C 2791.48 3.91724 2.00601 0
M  V30 29260 H 2788.6 0.708647 0.202455 0
M  V30 29261 H 2791.24 1.89201 -0.174026 0
M  V30 29262 H 2789.39 3.47549 1.73614 0
M  V30 29263 H 2791.07 4.56932 -0.6333 0
M  V30 29264 H 2789.31 4.28685 -0.664218 0
M  V30 29265 H 2789.98 5.50353 0.426156 0
M  V30 29266 H 2792.46 3.88944 1.47857 0
M  V30 29267 H 2791.33 4.95613 2.35921 0
M  V30 29268 H 2791.59 3.31416 2.92602 0
M  V30 29269 N 2790.65 -0.171793 1.56661 0
M  V30 29270 C 2791.88 -0.904082 1.86102 0
M  V30 29271 C 2792.3 -1.75847 0.687258 0
M  V30 29272 O 2791.65 -1.79236 -0.343639 0
M  V30 29273 C 2791.7 -1.78121 3.14571 0
M  V30 29274 O 2791.42 -0.961291 4.27423 0
M  V30 29275 C 2792.93 -2.62321 3.57355 0
M  V30 29276 H 2790.15 -0.262673 0.61745 0
M  V30 29277 H 2792.69 -0.172032 2.03775 0
M  V30 29278 H 2790.84 -2.46661 2.98726 0
M  V30 29279 H 2791.26 -1.56114 5.00728 0
M  V30 29280 H 2792.73 -3.19482 4.5015 0
M  V30 29281 H 2793.21 -3.37168 2.81451 0
M  V30 29282 H 2793.82 -1.99114 3.75811 0
M  V30 29283 N 2792.13 -1.51324 -0.44033 0
M  V30 29284 C 2793.36 -1.67404 -1.21076 0
M  V30 29285 C 2793.77 -0.369631 -1.85554 0
M  V30 29286 O 2793.11 0.661495 -1.71377 0
M  V30 29287 C 2793.17 -2.7306 -2.33834 0
M  V30 29288 C 2792.84 -4.15746 -1.89748 0
M  V30 29289 C 2793.83 -5.00623 -1.4026 0
M  V30 29290 C 2791.52 -4.6183 -1.97531 0
M  V30 29291 C 2793.51 -6.29643 -0.991363 0
M  V30 29292 C 2791.2 -5.90848 -1.56019 0
M  V30 29293 C 2792.2 -6.74582 -1.06903 0
M  V30 29294 O 2791.89 -8.01188 -0.659793 0
M  V30 29295 H 2791.62 -0.565016 -0.371123 0
M  V30 29296 H 2794.17 -1.98488 -0.528374 0
M  V30 29297 H 2792.4 -2.37285 -3.05341 0
M  V30 29298 H 2794.09 -2.78049 -2.95708 0
M  V30 29299 H 2794.86 -4.66223 -1.33644 0
M  V30 29300 H 2790.74 -3.9678 -2.34706 0
M  V30 29301 H 2794.28 -6.94952 -0.607303 0
M  V30 29302 H 2790.18 -6.24762 -1.62304 0
M  V30 29303 H 2790.95 -8.14718 -0.785909 0
M  V30 29304 N 2793.61 0.695578 -1.41419 0
M  V30 29305 C 2794.85 1.45778 -1.40985 0
M  V30 29306 C 2795.19 1.94191 -0.0188104 0
M  V30 29307 O 2794.46 1.69529 0.95343 0
M  V30 29308 C 2794.75 2.66967 -2.41662 0
M  V30 29309 C 2794.6 2.2432 -3.89873 0
M  V30 29310 C 2795.92 3.69164 -2.39595 0
M  V30 29311 H 2793.04 0.528748 -0.513415 0
M  V30 29312 H 2795.68 0.792245 -1.72695 0
M  V30 29313 H 2793.83 3.2375 -2.14752 0
M  V30 29314 H 2795.5 1.72865 -4.27686 0
M  V30 29315 H 2793.74 1.56104 -4.04739 0
M  V30 29316 H 2794.41 3.11277 -4.55862 0
M  V30 29317 H 2796.89 3.22055 -2.63476 0
M  V30 29318 H 2795.77 4.51569 -3.12052 0
M  V30 29319 H 2796.03 4.18859 -1.41454 0
M  V30 29320 N 2795.09 1.27247 0.929833 0
M  V30 29321 C 2796.03 1.09788 2.03015 0
M  V30 29322 C 2797 -0.000427548 1.661 0
M  V30 29323 O 2798.19 0.161495 1.90115 0
M  V30 29324 C 2795.33 0.748875 3.36877 0
M  V30 29325 C 2794.44 1.9246 3.8676 0
M  V30 29326 C 2793.58 1.51767 5.09058 0
M  V30 29327 C 2792.62 2.66101 5.51232 0
M  V30 29328 N 2791.75 2.26011 6.64728 0
M  V30 29329 H 2796.59 2.03943 2.17282 0
M  V30 29330 H 2794.13 1.01526 1.06447 0
M  V30 29331 H 2796.09 0.527356 4.13854 0
M  V30 29332 H 2794.72 -0.155714 3.22424 0
M  V30 29333 H 2793.77 2.25872 3.06082 0
M  V30 29334 H 2795.08 2.78235 4.13989 0
M  V30 29335 H 2794.24 1.25726 5.9353 0
M  V30 29336 H 2792.98 0.630981 4.83601 0
M  V30 29337 H 2791.98 2.92857 4.65311 0
M  V30 29338 H 2793.21 3.55387 5.78686 0
M  V30 29339 H 2791.15 1.39791 6.40933 0
M  V30 29340 H 2791.07 3.05325 6.91601 0
M  V30 29341 H 2792.34 2.03212 7.52546 0
M  V30 29342 N 2796.57 -1.13603 1.09235 0
M  V30 29343 C 2797.84 -1.81075 0.739665 0
M  V30 29344 C 2798.22 -1.96337 -0.77556 0
M  V30 29345 O 2797.57 -1.52991 -1.69723 0
M  V30 29346 C 2797.78 -3.16233 1.47641 0
M  V30 29347 C 2799.13 -3.9161 1.64094 0
M  V30 29348 O 2800.15 -3.2585 1.43877 0
M  V30 29349 O 2799.01 -5.09557 1.9752 0
M  V30 29350 H 2796.11 -0.783231 0.265478 0
M  V30 29351 H 2798.65 -1.20547 1.19443 0
M  V30 29352 H 2797.42 -3.00339 2.50823 0
M  V30 29353 H 2797.05 -3.84461 1.01369 0
M  V30 29354 N 2798.04 -0.879253 -1.30793 0
M  V30 29355 C 2798.95 -0.345606 -2.3204 0
M  V30 29356 C 2799.97 0.549236 -1.65104 0
M  V30 29357 O 2801.15 0.443729 -1.96451 0
M  V30 29358 C 2798.21 0.436185 -3.43945 0
M  V30 29359 C 2797.27 -0.487725 -4.2652 0
M  V30 29360 C 2796.5 0.256849 -5.33082 0
M  V30 29361 O 2796.73 1.48371 -5.50765 0
M  V30 29362 O 2795.66 -0.39009 -6.00635 0
M  V30 29363 H 2799.49 -1.18506 -2.79625 0
M  V30 29364 H 2797.07 -0.642909 -1.34859 0
M  V30 29365 H 2798.95 0.879047 -4.1213 0
M  V30 29366 H 2797.63 1.25203 -2.98506 0
M  V30 29367 H 2796.54 -0.97928 -3.61055 0
M  V30 29368 H 2797.87 -1.26942 -4.75549 0
M  V30 29369 N 2799.52 1.44037 -0.639624 0
M  V30 29370 C 2800.45 2.33453 0.0469033 0
M  V30 29371 C 2801.43 1.48695 0.826064 0
M  V30 29372 O 2802.62 1.77394 0.790254 0
M  V30 29373 C 2799.75 3.31882 1.02332 0
M  V30 29374 C 2798.7 4.26523 0.355209 0
M  V30 29375 C 2798.03 5.14885 1.44212 0
M  V30 29376 C 2799.33 5.16975 -0.743889 0
M  V30 29377 H 2801.02 2.91107 -0.699786 0
M  V30 29378 H 2798.57 1.39978 -0.33797 0
M  V30 29379 H 2800.52 3.93325 1.5124 0
M  V30 29380 H 2799.24 2.72455 1.801 0
M  V30 29381 H 2797.9 3.66425 -0.113304 0
M  V30 29382 H 2797.55 4.51806 2.21089 0
M  V30 29383 H 2797.25 5.79021 1.00042 0
M  V30 29384 H 2798.78 5.79201 1.93284 0
M  V30 29385 H 2800.19 5.72305 -0.337545 0
M  V30 29386 H 2798.59 5.89759 -1.10924 0
M  V30 29387 H 2799.66 4.57478 -1.60753 0
M  V30 29388 N 2801 0.380691 1.52933 0
M  V30 29389 C 2802.42 0.030271 1.59571 0
M  V30 29390 C 2802.62 -1.45391 1.39512 0
M  V30 29391 O 2801.67 -2.21739 1.20781 0
M  V30 29392 C 2802.98 0.499743 2.96518 0
M  V30 29393 C 2804.53 0.455259 3.09671 0
M  V30 29394 C 2805.01 0.900782 4.49054 0
M  V30 29395 N 2806.5 0.856447 4.55213 0
M  V30 29396 C 2807.23 1.17269 5.6128 0
M  V30 29397 N 2806.73 1.55897 6.75032 0
M  V30 29398 N 2808.52 1.0945 5.51341 0
M  V30 29399 H 2800.67 1.34703 1.64222 0
M  V30 29400 H 2802.94 0.551568 0.771023 0
M  V30 29401 H 2802.64 1.536 3.16386 0
M  V30 29402 H 2802.52 -0.105723 3.77052 0
M  V30 29403 H 2804.9 -0.571898 2.89505 0
M  V30 29404 H 2804.98 1.09642 2.31111 0
M  V30 29405 H 2804.63 1.92613 4.6996 0
M  V30 29406 H 2804.56 0.236721 5.26068 0
M  V30 29407 H 2807.05 0.572079 3.73545 0
M  V30 29408 H 2807.36 1.78413 7.51923 0
M  V30 29409 H 2805.71 1.59776 6.76385 0
M  V30 29410 H 2808.9 0.791794 4.61355 0
M  V30 29411 H 2809.07 1.34428 6.33903 0
M  V30 29412 N 2802.48 -1.57214 0.110268 0
M  V30 29413 C 2803.7 -1.99665 -0.561144 0
M  V30 29414 C 2804.13 -0.989294 -1.59983 0
M  V30 29415 O 2803.49 0.040208 -1.81255 0
M  V30 29416 C 2803.53 -3.41029 -1.17183 0
M  V30 29417 O 2802.64 -3.43144 -2.28749 0
M  V30 29418 H 2801.98 -0.648857 -0.140998 0
M  V30 29419 H 2804.51 -2.03657 0.196164 0
M  V30 29420 H 2804.52 -3.7905 -1.50947 0
M  V30 29421 H 2803.19 -4.13865 -0.410968 0
M  V30 29422 H 2801.77 -3.16933 -1.96489 0
M  V30 29423 N 2803.96 0.163482 -1.5675 0
M  V30 29424 C 2804.92 1.1861 -1.96123 0
M  V30 29425 C 2805.92 1.36759 -0.845789 0
M  V30 29426 O 2807.11 1.34031 -1.11271 0
M  V30 29427 C 2804.24 2.54965 -2.26287 0
M  V30 29428 H 2805.43 0.848714 -2.8764 0
M  V30 29429 H 2802.99 0.406225 -1.50929 0
M  V30 29430 H 2803.72 2.93704 -1.37509 0
M  V30 29431 H 2803.51 2.43156 -3.07599 0
M  V30 29432 H 2805 3.28648 -2.57643 0
M  V30 29433 N 2805.43 1.51555 0.432299 0
M  V30 29434 C 2806.71 1.55017 1.19285 0
M  V30 29435 C 2807.09 0.317412 2.087 0
M  V30 29436 O 2806.44 -0.697204 2.17604 0
M  V30 29437 C 2806.65 2.86683 1.99032 0
M  V30 29438 C 2808 3.38822 2.55901 0
M  V30 29439 O 2809.02 2.88267 2.09238 0
M  V30 29440 O 2807.88 4.27044 3.41021 0
M  V30 29441 H 2804.97 0.623451 0.543358 0
M  V30 29442 H 2807.52 1.63871 0.440959 0
M  V30 29443 H 2806.29 3.67862 1.3339 0
M  V30 29444 H 2805.91 2.81015 2.81276 0
M  V30 29445 N 2806.91 -0.688069 1.41786 0
M  V30 29446 C 2807.86 -1.80189 1.44224 0
M  V30 29447 C 2808.83 -1.63446 0.295717 0
M  V30 29448 O 2810.01 -1.8419 0.497862 0
M  V30 29449 C 2807.15 -3.18128 1.33749 0
M  V30 29450 C 2806.27 -3.4625 2.58331 0
M  V30 29451 C 2805.4 -4.73844 2.40095 0
M  V30 29452 C 2804.44 -4.94958 3.60116 0
M  V30 29453 N 2803.58 -6.13783 3.40903 0
M  V30 29454 H 2808.42 -1.7744 2.39414 0
M  V30 29455 H 2805.95 -0.866402 1.18878 0
M  V30 29456 H 2807.91 -3.97821 1.25676 0
M  V30 29457 H 2806.54 -3.20035 0.421626 0
M  V30 29458 H 2805.59 -2.60907 2.76824 0
M  V30 29459 H 2806.91 -3.5775 3.47586 0
M  V30 29460 H 2806.06 -5.61605 2.29532 0
M  V30 29461 H 2804.8 -4.64603 1.48308 0
M  V30 29462 H 2803.8 -4.05643 3.71125 0
M  V30 29463 H 2805.03 -5.06053 4.52866 0
M  V30 29464 H 2802.98 -6.05741 2.51822 0
M  V30 29465 H 2802.89 -6.26085 4.23738 0
M  V30 29466 H 2804.16 -7.04258 3.34127 0
M  V30 29467 N 2808.39 -1.27739 -0.923072 0
M  V30 29468 C 2809.64 -1.14517 -1.67373 0
M  V30 29469 C 2809.97 0.307391 -1.91752 0
M  V30 29470 O 2809.24 1.22444 -1.51121 0
M  V30 29471 C 2809.53 -1.93425 -3.03741 0
M  V30 29472 C 2809.38 -3.46691 -2.86575 0
M  V30 29473 C 2810.7 -1.74235 -4.04141 0
M  V30 29474 H 2807.82 -0.417385 -0.60742 0
M  V30 29475 H 2810.46 -1.56948 -1.07086 0
M  V30 29476 H 2808.61 -1.57366 -3.55201 0
M  V30 29477 H 2810.28 -3.92605 -2.42196 0
M  V30 29478 H 2808.52 -3.72797 -2.21822 0
M  V30 29479 H 2809.2 -3.9715 -3.83374 0
M  V30 29480 H 2811.67 -2.05684 -3.61709 0
M  V30 29481 H 2810.55 -2.31833 -4.97539 0
M  V30 29482 H 2810.81 -0.691449 -4.36659 0
M  V30 29483 N 2809.87 1.13022 -1.09836 0
M  V30 29484 C 2810.83 2.16751 -0.745096 0
M  V30 29485 C 2811.83 1.59184 0.227407 0
M  V30 29486 O 2813.02 1.74199 0.00504798 0
M  V30 29487 C 2810.15 3.40746 -0.102603 0
M  V30 29488 H 2811.35 2.49515 -1.66379 0
M  V30 29489 H 2808.9 1.27922 -0.898083 0
M  V30 29490 H 2809.63 3.13575 0.827122 0
M  V30 29491 H 2809.42 3.83802 -0.802418 0
M  V30 29492 H 2810.91 4.17401 0.129009 0
M  V30 29493 N 2811.35 0.886177 1.30325 0
M  V30 29494 C 2812.29 0.352109 2.28098 0
M  V30 29495 C 2813.26 -0.558369 1.56434 0
M  V30 29496 O 2814.45 -0.486529 1.84493 0
M  V30 29497 C 2811.59 -0.426285 3.42457 0
M  V30 29498 C 2810.7 0.513547 4.28937 0
M  V30 29499 C 2809.84 -0.280563 5.30459 0
M  V30 29500 C 2808.88 0.654663 6.08589 0
M  V30 29501 N 2808.01 -0.104198 7.02023 0
M  V30 29502 H 2812.85 1.19102 2.73164 0
M  V30 29503 H 2810.39 0.598685 1.34366 0
M  V30 29504 H 2812.35 -0.893515 4.0752 0
M  V30 29505 H 2810.98 -1.22976 2.98457 0
M  V30 29506 H 2810.03 1.09927 3.64171 0
M  V30 29507 H 2811.34 1.22998 4.83397 0
M  V30 29508 H 2810.5 -0.809594 6.01274 0
M  V30 29509 H 2809.23 -1.03021 4.76695 0
M  V30 29510 H 2808.24 1.19531 5.36649 0
M  V30 29511 H 2809.46 1.40342 6.6444 0
M  V30 29512 H 2807.41 -0.836358 6.50647 0
M  V30 29513 H 2807.33 0.552585 7.53978 0
M  V30 29514 H 2808.6 -0.613933 7.77079 0
M  V30 29515 N 2812.82 -1.43695 0.647253 0
M  V30 29516 C 2814.07 -2.01482 0.157911 0
M  V30 29517 C 2814.39 -1.51285 -1.23036 0
M  V30 29518 O 2813.66 -0.723014 -1.8207 0
M  V30 29519 H 2812.24 -0.744944 0.0553876 0
M  V30 29520 H 2814.91 -1.75985 0.837581 0
M  V30 29521 H 2814 -3.11795 0.13795 0
M  V30 29522 N 2814.3 -0.388796 -1.52729 0
M  V30 29523 C 2815.25 0.446599 -2.26438 0
M  V30 29524 C 2816.22 1.05822 -1.28027 0
M  V30 29525 O 2817.4 1.08634 -1.56854 0
M  V30 29526 C 2814.54 1.56823 -3.0741 0
M  V30 29527 C 2813.66 0.979515 -4.20749 0
M  V30 29528 C 2812.79 2.07216 -4.89117 0
M  V30 29529 C 2811.83 1.45931 -5.9445 0
M  V30 29530 N 2810.97 2.49124 -6.56416 0
M  V30 29531 H 2815.81 -0.188422 -2.97404 0
M  V30 29532 H 2813.35 -0.104751 -1.46727 0
M  V30 29533 H 2815.3 2.22927 -3.52646 0
M  V30 29534 H 2813.93 2.17357 -2.38654 0
M  V30 29535 H 2812.99 0.208085 -3.7983 0
M  V30 29536 H 2814.3 0.49166 -4.96371 0
M  V30 29537 H 2813.45 2.81091 -5.37655 0
M  V30 29538 H 2812.19 2.59361 -4.13017 0
M  V30 29539 H 2811.2 0.705798 -5.45251 0
M  V30 29540 H 2812.42 0.945814 -6.72481 0
M  V30 29541 H 2810.37 3.00439 -5.83157 0
M  V30 29542 H 2810.28 2.05092 -7.27649 0
M  V30 29543 H 2811.55 3.22631 -7.09598 0
M  V30 29544 N 2815.78 1.57153 -0.118604 0
M  V30 29545 C 2817.01 1.99959 0.550547 0
M  V30 29546 C 2817.43 0.997765 1.59456 0
M  V30 29547 O 2816.79 -0.0305951 1.81274 0
M  V30 29548 C 2816.84 3.41645 1.15373 0
M  V30 29549 O 2815.94 3.44352 2.26926 0
M  V30 29550 H 2815.28 0.649596 0.137555 0
M  V30 29551 H 2817.81 2.03551 -0.206961 0
M  V30 29552 H 2817.82 3.79845 1.48935 0
M  V30 29553 H 2816.5 4.14077 0.389014 0
M  V30 29554 H 2815.07 3.1797 1.94806 0
M  V30 29555 N 2817.26 -0.155167 1.56834 0
M  V30 29556 C 2818.67 -0.507523 1.51315 0
M  V30 29557 C 2818.87 -1.83808 0.825647 0
M  V30 29558 O 2817.93 -2.49427 0.392754 0
M  V30 29559 C 2819.24 -0.525368 2.96075 0
M  V30 29560 C 2820.79 -0.611451 3.0697 0
M  V30 29561 C 2821.27 -0.660036 4.53219 0
M  V30 29562 N 2822.76 -0.722484 4.57531 0
M  V30 29563 C 2823.49 -0.780923 5.68057 0
M  V30 29564 N 2822.99 -0.799206 6.88175 0
M  V30 29565 N 2824.78 -0.82118 5.56069 0
M  V30 29566 H 2816.93 0.717098 1.99929 0
M  V30 29567 H 2819.2 0.260512 0.911503 0
M  V30 29568 H 2818.9 0.383936 3.49598 0
M  V30 29569 H 2818.78 -1.36618 3.5159 0
M  V30 29570 H 2821.16 -1.51118 2.53471 0
M  V30 29571 H 2821.24 0.256351 2.54512 0
M  V30 29572 H 2820.89 0.235499 5.07354 0
M  V30 29573 H 2820.82 -1.54421 5.0345 0
M  V30 29574 H 2823.31 -0.715984 3.71055 0
M  V30 29575 H 2823.62 -0.845418 7.68162 0
M  V30 29576 H 2821.97 -0.767216 6.90752 0
M  V30 29577 H 2825.16 -0.80401 4.61143 0
M  V30 29578 H 2825.33 -0.863259 6.42224 0
M  V30 29579 N 2818.74 -1.51782 -0.424256 0
M  V30 29580 C 2819.67 -1.76992 -1.52302 0
M  V30 29581 C 2820.65 -0.620237 -1.58389 0
M  V30 29582 O 2821.83 -0.864298 -1.73907 0
M  V30 29583 C 2818.96 -1.90688 -2.90268 0
M  V30 29584 C 2817.92 -3.06203 -2.99038 0
M  V30 29585 C 2817.24 -3.051 -4.39111 0
M  V30 29586 C 2818.54 -4.45938 -2.71912 0
M  V30 29587 H 2820.24 -2.68997 -1.31457 0
M  V30 29588 H 2817.78 -1.29441 -0.630962 0
M  V30 29589 H 2819.74 -2.06907 -3.67107 0
M  V30 29590 H 2818.46 -0.95342 -3.12374 0
M  V30 29591 H 2817.12 -2.8971 -2.24641 0
M  V30 29592 H 2816.77 -2.07506 -4.58203 0
M  V30 29593 H 2816.47 -3.82677 -4.45906 0
M  V30 29594 H 2817.99 -3.23429 -5.17905 0
M  V30 29595 H 2819.4 -4.62715 -3.38479 0
M  V30 29596 H 2817.8 -5.2532 -2.90102 0
M  V30 29597 H 2818.87 -4.55075 -1.67437 0
M  V30 29598 N 2820.21 0.68054 -1.42149 0
M  V30 29599 C 2821.46 1.43633 -1.41606 0
M  V30 29600 C 2821.78 1.95571 -0.033823 0
M  V30 29601 O 2822.98 2.71336 0.0942111 0
M  V30 29602 C 2821.44 2.59802 -2.4906 0
M  V30 29603 C 2821.05 2.14587 -3.93264 0
M  V30 29604 C 2822.79 3.37348 -2.57676 0
M  V30 29605 C 2820.7 3.27804 -4.92238 0
M  V30 29606 H 2819.63 0.539573 -0.526666 0
M  V30 29607 H 2822.28 0.73734 -1.68034 0
M  V30 29608 H 2820.66 3.32041 -2.15788 0
M  V30 29609 H 2821.83 1.49539 -4.35861 0
M  V30 29610 H 2820.15 1.49996 -3.88446 0
M  V30 29611 H 2822.75 4.21656 -3.28801 0
M  V30 29612 H 2823.09 3.83552 -1.61844 0
M  V30 29613 H 2823.62 2.72174 -2.90114 0
M  V30 29614 H 2820.36 2.86597 -5.89527 0
M  V30 29615 H 2819.88 3.91653 -4.54277 0
M  V30 29616 H 2821.56 3.93358 -5.13691 0
M  V30 29617 N 2821.69 1.28226 0.916285 0
M  V30 29618 C 2822.6 1.13778 2.05163 0
M  V30 29619 C 2823.62 0.0649724 1.73879 0
M  V30 29620 O 2824.79 0.273757 1.99531 0
M  V30 29621 C 2821.86 0.798326 3.37384 0
M  V30 29622 C 2820.92 1.95323 3.82292 0
M  V30 29623 C 2820.15 1.62987 5.08204 0
M  V30 29624 O 2820.38 0.543048 5.67809 0
M  V30 29625 O 2819.31 2.4727 5.48763 0
M  V30 29626 H 2823.14 2.09082 2.20269 0
M  V30 29627 H 2820.72 1.07521 1.03728 0
M  V30 29628 H 2822.6 0.622853 4.16772 0
M  V30 29629 H 2821.28 -0.125082 3.23458 0
M  V30 29630 H 2820.19 2.18384 3.03742 0
M  V30 29631 H 2821.52 2.85725 4.00777 0
M  V30 29632 N 2823.17 -1.12438 1.10433 0
M  V30 29633 C 2824.13 -2.16353 0.75658 0
M  V30 29634 C 2825.13 -1.59302 -0.218962 0
M  V30 29635 O 2826.32 -1.74199 0.0041903 0
M  V30 29636 C 2823.46 -3.40686 0.120672 0
M  V30 29637 H 2824.65 -2.48629 1.677 0
M  V30 29638 H 2822.2 -1.27444 0.904854 0
M  V30 29639 H 2822.94 -3.14009 -0.810481 0
M  V30 29640 H 2822.72 -3.83371 0.82276 0
M  V30 29641 H 2824.21 -4.17463 -0.106871 0
M  V30 29642 N 2824.65 -0.893076 -1.29853 0
M  V30 29643 C 2825.87 -0.530101 -2.00511 0
M  V30 29644 C 2826.3 0.876169 -1.66448 0
M  V30 29645 O 2825.66 1.58206 -0.885474 0
M  V30 29646 C 2825.71 -0.721567 -3.53307 0
M  V30 29647 O 2824.81 0.228922 -4.11764 0
M  V30 29648 H 2824.15 -0.207902 -0.630613 0
M  V30 29649 H 2826.68 -1.20285 -1.65508 0
M  V30 29650 H 2826.69 -0.623669 -4.03205 0
M  V30 29651 H 2825.37 -1.74684 -3.77436 0
M  V30 29652 H 2823.94 0.0840379 -3.72805 0
M  V30 29653 N 2826.13 1.4335 -0.654865 0
M  V30 29654 C 2827.35 2.0666 -0.175082 0
M  V30 29655 C 2827.78 1.48772 1.15102 0
M  V30 29656 O 2827.14 0.598309 1.71143 0
M  V30 29657 C 2827.18 3.60463 -0.0992178 0
M  V30 29658 O 2826.29 4.01589 0.938099 0
M  V30 29659 H 2825.63 0.657078 -0.0956263 0
M  V30 29660 H 2828.16 1.83828 -0.898254 0
M  V30 29661 H 2828.17 4.07914 0.0835603 0
M  V30 29662 H 2826.84 4.01973 -1.06726 0
M  V30 29663 H 2825.42 3.65725 0.727976 0
M  V30 29664 N 2827.61 0.39689 1.52521 0
M  V30 29665 C 2828.54 -0.425901 2.29583 0
M  V30 29666 C 2829.52 -1.05686 1.33283 0
M  V30 29667 O 2830.7 -1.0682 1.62182 0
M  V30 29668 C 2827.83 -1.54938 3.10824 0
M  V30 29669 C 2826.79 -1.04406 4.1507 0
M  V30 29670 C 2826.11 -2.26019 4.84582 0
M  V30 29671 C 2827.41 -0.106675 5.22191 0
M  V30 29672 H 2829.11 0.217097 2.98612 0
M  V30 29673 H 2826.65 0.105852 1.4361 0
M  V30 29674 H 2828.6 -2.13186 3.63496 0
M  V30 29675 H 2827.33 -2.22007 2.39542 0
M  V30 29676 H 2825.99 -0.484054 3.6339 0
M  V30 29677 H 2825.64 -2.91616 4.09841 0
M  V30 29678 H 2825.34 -1.92866 5.55046 0
M  V30 29679 H 2826.86 -2.84897 5.40061 0
M  V30 29680 H 2828.27 -0.597584 5.70177 0
M  V30 29681 H 2826.67 0.135458 5.99947 0
M  V30 29682 H 2827.74 0.842218 4.7753 0
M  V30 29683 N 2829.08 -1.57088 0.126936 0
M  V30 29684 C 2830.03 -2.16996 -0.83758 0
M  V30 29685 C 2831.03 -1.12136 -1.26972 0
M  V30 29686 O 2832.23 -1.30425 -1.24054 0
M  V30 29687 H 2828.61 -0.694564 -0.288243 0
M  V30 29688 H 2830.58 -2.96807 -0.307905 0
M  V30 29689 C 2829.33 -2.7902 -2.07469 0
M  V30 29690 H 2828.65 -3.59411 -1.75111 0
M  V30 29691 H 2830.09 -3.24465 -2.72944 0
M  V30 29692 C 2828.55 -1.76503 -2.86964 0
M  V30 29693 O 2829.08 -1.22323 -3.82623 0
M  V30 29694 N 2827.28 -1.46262 -2.51109 0
M  V30 29695 H 2826.83 -1.90513 -1.73386 0
M  V30 29696 H 2826.79 -0.779139 -3.04593 0
M  V30 29697 N 2830.56 0.146848 -1.56914 0
M  V30 29698 C 2831.84 0.888134 -1.74274 0
M  V30 29699 C 2832.22 1.99331 -0.694995 0
M  V30 29700 O 2831.57 2.26702 0.286053 0
M  V30 29701 C 2831.78 1.43045 -3.18338 0
M  V30 29702 C 2833.12 1.8938 -3.80027 0
M  V30 29703 O 2834.15 1.52786 -3.21768 0
M  V30 29704 O 2833.01 2.56866 -4.82372 0
M  V30 29705 H 2830.1 0.419725 -0.712573 0
M  V30 29706 H 2832.65 0.132761 -1.6918 0
M  V30 29707 H 2831.42 0.636207 -3.86093 0
M  V30 29708 H 2831.04 2.24932 -3.27858 0
M  V30 29709 N 2832.04 1.52005 0.4162 0
M  V30 29710 C 2833.26 1.69846 1.19026 0
M  V30 29711 C 2833.69 0.404136 1.83707 0
M  V30 29712 O 2833.05 -0.637757 1.69713 0
M  V30 29713 C 2833.1 2.83036 2.23434 0
M  V30 29714 O 2832.2 2.48112 3.29415 0
M  V30 29715 H 2831.54 0.56564 0.347775 0
M  V30 29716 H 2834.07 1.98674 0.488836 0
M  V30 29717 H 2834.08 3.07742 2.67879 0
M  V30 29718 H 2832.76 3.76947 1.75738 0
M  V30 29719 H 2831.33 2.34053 2.90299 0
M  V30 29720 N 2833.52 -0.672992 1.42508 0
M  V30 29721 C 2834.76 -1.43516 1.43286 0
M  V30 29722 C 2835.1 -1.94136 0.0497021 0
M  V30 29723 O 2834.37 -1.71024 -0.926339 0
M  V30 29724 C 2834.65 -2.63089 2.45878 0
M  V30 29725 C 2834.51 -2.18089 3.93392 0
M  V30 29726 C 2835.83 -3.65306 2.45438 0
M  V30 29727 H 2832.95 -0.520513 0.521762 0
M  V30 29728 H 2835.59 -0.76467 1.73933 0
M  V30 29729 H 2833.74 -3.20292 2.19875 0
M  V30 29730 H 2835.41 -1.66039 4.30382 0
M  V30 29731 H 2833.65 -1.49645 4.07172 0
M  V30 29732 H 2834.32 -3.03985 4.60757 0
M  V30 29733 H 2836.8 -3.17823 2.68567 0
M  V30 29734 H 2835.68 -4.46548 3.19196 0
M  V30 29735 H 2835.94 -4.16556 1.481 0
M  V30 29736 N 2835 -1.2871 -0.909472 0
M  V30 29737 C 2835.96 -1.13019 -1.99397 0
M  V30 29738 C 2836.96 -0.0685643 -1.60654 0
M  V30 29739 O 2838.15 -0.314701 -1.71334 0
M  V30 29740 C 2835.28 -0.726144 -3.33077 0
M  V30 29741 H 2836.47 -2.09341 -2.14747 0
M  V30 29742 H 2834.03 -1.11758 -1.0927 0
M  V30 29743 H 2834.76 0.237653 -3.23428 0
M  V30 29744 H 2834.55 -1.49308 -3.6256 0
M  V30 29745 H 2836.04 -0.639131 -4.1268 0
M  V30 29746 N 2836.47 1.1185 -1.11028 0
M  V30 29747 C 2837.41 2.16922 -0.708539 0
M  V30 29748 C 2838.38 1.59935 0.293168 0
M  V30 29749 O 2839.57 1.87534 0.190608 0
M  V30 29750 C 2836.7 3.38668 -0.04643 0
M  V30 29751 C 2835.74 4.14305 -1.01259 0
M  V30 29752 S 2836.57 4.71805 -2.53299 0
M  V30 29753 C 2837.73 5.96879 -1.88377 0
M  V30 29754 H 2837.96 2.50664 -1.59859 0
M  V30 29755 H 2835.5 1.23408 -0.927891 0
M  V30 29756 H 2837.45 4.09178 0.329242 0
M  V30 29757 H 2836.12 3.03194 0.820508 0
M  V30 29758 H 2835.31 5.01547 -0.496684 0
M  V30 29759 H 2834.91 3.49534 -1.33048 0
M  V30 29760 H 2837.2 6.66468 -1.21765 0
M  V30 29761 H 2838.15 6.53107 -2.73599 0
M  V30 29762 H 2838.55 5.48225 -1.34572 0
M  V30 29763 N 2837.95 0.89995 1.29378 0
M  V30 29764 C 2839.37 0.596085 1.48051 0
M  V30 29765 C 2839.57 -0.86234 1.82115 0
M  V30 29766 O 2838.62 -1.6425 1.91777 0
M  V30 29767 C 2839.94 1.52212 2.5933 0
M  V30 29768 C 2841.48 1.52735 2.73205 0
M  V30 29769 C 2841.96 2.43968 3.87613 0
M  V30 29770 N 2843.45 2.42016 3.94946 0
M  V30 29771 C 2844.19 3.09312 4.82819 0
M  V30 29772 N 2843.68 3.85887 5.75381 0
M  V30 29773 N 2845.47 2.98468 4.76312 0
M  V30 29774 H 2837.63 1.84321 1.05543 0
M  V30 29775 H 2839.89 0.789819 0.5243 0
M  V30 29776 H 2839.59 2.56126 2.41024 0
M  V30 29777 H 2839.47 1.24284 3.56137 0
M  V30 29778 H 2841.86 0.495665 2.90907 0
M  V30 29779 H 2841.94 1.84701 1.76972 0
M  V30 29780 H 2841.58 3.47231 3.70666 0
M  V30 29781 H 2841.51 2.09311 4.83215 0
M  V30 29782 H 2844 1.8638 3.28741 0
M  V30 29783 H 2844.31 4.3429 6.39228 0
M  V30 29784 H 2842.66 3.89994 5.75265 0
M  V30 29785 H 2845.85 2.38159 4.02986 0
M  V30 29786 H 2846.02 3.51189 5.44583 0
M  V30 29787 N 2839.43 -1.43001 0.662458 0
M  V30 29788 C 2840.36 -2.29115 -0.0622857 0
M  V30 29789 C 2841.38 -1.43012 -0.777901 0
M  V30 29790 O 2842.56 -1.66857 -0.634116 0
M  V30 29791 C 2839.66 -3.20152 -1.11157 0
M  V30 29792 C 2838.84 -4.34843 -0.472251 0
M  V30 29793 C 2837.9 -5.06688 -1.41965 0
M  V30 29794 O 2836.92 -5.61639 -0.924696 0
M  V30 29795 N 2838.12 -5.11048 -2.75336 0
M  V30 29796 H 2840.89 -2.91956 0.67689 0
M  V30 29797 H 2838.45 -1.53792 0.505934 0
M  V30 29798 H 2840.44 -3.65081 -1.74637 0
M  V30 29799 H 2839.01 -2.58848 -1.75261 0
M  V30 29800 H 2838.23 -3.92715 0.34182 0
M  V30 29801 H 2839.52 -5.08793 -0.0263487 0
M  V30 29802 H 2838.92 -4.67792 -3.181 0
M  V30 29803 H 2837.48 -5.59664 -3.34095 0
M  V30 29804 N 2840.91 -0.404973 -1.52308 0
M  V30 29805 C 2842.14 0.171782 -2.06186 0
M  V30 29806 C 2842.55 1.3921 -1.27539 0
M  V30 29807 O 2841.91 1.79562 -0.326144 0
M  V30 29808 C 2841.96 0.526354 -3.57648 0
M  V30 29809 O 2841.68 -0.645494 -4.33319 0
M  V30 29810 C 2843.18 1.15729 -4.27927 0
M  V30 29811 H 2840.4 0.022221 -0.670632 0
M  V30 29812 H 2842.95 -0.574727 -1.96258 0
M  V30 29813 H 2841.1 1.22276 -3.67597 0
M  V30 29814 H 2841.51 -0.350512 -5.23327 0
M  V30 29815 H 2842.99 1.35562 -5.35095 0
M  V30 29816 H 2843.47 2.12919 -3.84138 0
M  V30 29817 H 2844.07 0.501207 -4.22336 0
M  V30 29818 N 2842.39 1.57018 -0.135265 0
M  V30 29819 C 2843.63 1.95743 0.51876 0
M  V30 29820 C 2843.96 1.01949 1.6564 0
M  V30 29821 O 2843.22 0.046436 1.95645 0
M  V30 29822 C 2843.52 3.4079 1.07688 0
M  V30 29823 C 2843.18 4.50862 0.0589128 0
M  V30 29824 C 2841.84 4.80692 -0.220957 0
M  V30 29825 C 2844.2 5.1733 -0.633947 0
M  V30 29826 C 2841.52 5.74303 -1.19969 0
M  V30 29827 C 2843.88 6.11994 -1.60142 0
M  V30 29828 C 2842.54 6.4021 -1.88911 0
M  V30 29829 H 2841.81 0.716273 0.189828 0
M  V30 29830 H 2844.46 1.90237 -0.219614 0
M  V30 29831 H 2842.76 3.4307 1.89235 0
M  V30 29832 H 2844.46 3.68074 1.59131 0
M  V30 29833 H 2841.05 4.27636 0.287229 0
M  V30 29834 H 2845.23 4.94426 -0.43091 0
M  V30 29835 H 2840.49 5.94462 -1.42916 0
M  V30 29836 H 2844.66 6.62579 -2.14388 0
M  V30 29837 H 2842.29 7.12552 -2.64904 0
M  V30 29838 N 2843.86 -0.138524 1.5699 0
M  V30 29839 C 2845.11 -0.848021 1.83448 0
M  V30 29840 C 2845.43 -1.81321 0.717472 0
M  V30 29841 O 2844.7 -1.94164 -0.260194 0
M  V30 29842 H 2843.28 -0.316154 0.676798 0
M  V30 29843 H 2845.95 -0.130504 1.94463 0
M  V30 29844 H 2845.04 -1.40513 2.7868 0
M  V30 29845 N 2845.34 -1.52224 -0.408133 0
M  V30 29846 C 2846.29 -1.7625 -1.51785 0
M  V30 29847 C 2847.28 -0.629665 -1.57263 0
M  V30 29848 O 2848.49 -0.811732 -1.60658 0
M  V30 29849 H 2844.87 -0.557376 -0.504813 0
M  V30 29850 H 2846.84 -2.69216 -1.28705 0
M  V30 29851 C 2845.59 -1.93112 -2.89142 0
M  V30 29852 H 2844.91 -2.79702 -2.85669 0
M  V30 29853 H 2846.35 -2.13923 -3.66078 0
M  V30 29854 C 2844.81 -0.698489 -3.2958 0
M  V30 29855 O 2845.34 0.133167 -4.01479 0
M  V30 29856 N 2843.54 -0.5341 -2.8565 0
M  V30 29857 H 2843.09 -1.21198 -2.27308 0
M  V30 29858 H 2843.05 0.289332 -3.13066 0
M  V30 29859 N 2846.82 0.665425 -1.42863 0
M  V30 29860 C 2847.75 1.79056 -1.4987 0
M  V30 29861 C 2848.73 1.66367 -0.354423 0
M  V30 29862 O 2849.92 1.85646 -0.570002 0
M  V30 29863 C 2847.05 3.17413 -1.40949 0
M  V30 29864 C 2846 3.4485 -2.53501 0
M  V30 29865 C 2845.33 4.82879 -2.29634 0
M  V30 29866 C 2846.63 3.40808 -3.95787 0
M  V30 29867 H 2848.32 1.73449 -2.44041 0
M  V30 29868 H 2845.87 0.83305 -1.17458 0
M  V30 29869 H 2847.82 3.95866 -1.44457 0
M  V30 29870 H 2846.54 3.2372 -0.432773 0
M  V30 29871 H 2845.2 2.68761 -2.49325 0
M  V30 29872 H 2844.85 4.85848 -1.30235 0
M  V30 29873 H 2844.55 5.02199 -3.05074 0
M  V30 29874 H 2846.07 5.63605 -2.34907 0
M  V30 29875 H 2847.49 4.09217 -4.01515 0
M  V30 29876 H 2845.89 3.71664 -4.71154 0
M  V30 29877 H 2846.96 2.39209 -4.21791 0
M  V30 29878 N 2848.3 1.29191 0.902633 0
M  V30 29879 C 2849.53 1.19698 1.68392 0
M  V30 29880 C 2849.94 -0.245351 1.87602 0
M  V30 29881 O 2849.28 -1.17645 1.41086 0
M  V30 29882 C 2849.34 1.83583 3.09091 0
M  V30 29883 C 2849.01 3.3287 3.13124 0
M  V30 29884 C 2850 4.29139 2.93489 0
M  V30 29885 C 2847.69 3.74019 3.35283 0
M  V30 29886 C 2849.68 5.64532 2.95943 0
M  V30 29887 C 2847.37 5.09535 3.37368 0
M  V30 29888 C 2848.37 6.04602 3.1772 0
M  V30 29889 O 2848.05 7.37644 3.19587 0
M  V30 29890 H 2847.79 0.416044 0.532807 0
M  V30 29891 H 2850.34 1.71035 1.13737 0
M  V30 29892 H 2848.57 1.26754 3.65336 0
M  V30 29893 H 2850.26 1.68453 3.69294 0
M  V30 29894 H 2851.03 3.98681 2.76185 0
M  V30 29895 H 2846.9 3.0048 3.49618 0
M  V30 29896 H 2850.45 6.38711 2.80525 0
M  V30 29897 H 2846.35 5.39639 3.54203 0
M  V30 29898 H 2847.11 7.46412 3.35874 0
M  V30 29899 N 2849.78 -1.1126 1.1162 0
M  V30 29900 C 2851.19 -1.35051 0.850492 0
M  V30 29901 C 2851.39 -1.94572 -0.523833 0
M  V30 29902 O 2850.45 -2.17988 -1.27427 0
M  V30 29903 C 2851.76 -2.28037 1.96009 0
M  V30 29904 C 2853.31 -2.41597 1.98998 0
M  V30 29905 C 2853.78 -3.37906 3.09166 0
M  V30 29906 N 2855.28 -3.4547 3.08553 0
M  V30 29907 C 2856.01 -4.19936 3.90437 0
M  V30 29908 N 2855.51 -4.97363 4.82288 0
M  V30 29909 N 2857.3 -4.15467 3.78607 0
M  V30 29910 H 2849.45 -0.709897 2.00185 0
M  V30 29911 H 2851.71 -0.375084 0.870641 0
M  V30 29912 H 2851.42 -1.91498 2.94994 0
M  V30 29913 H 2851.29 -3.28272 1.85788 0
M  V30 29914 H 2853.68 -2.7741 1.00638 0
M  V30 29915 H 2853.76 -1.41207 2.13294 0
M  V30 29916 H 2853.41 -3.0282 4.07753 0
M  V30 29917 H 2853.34 -4.38155 2.92109 0
M  V30 29918 H 2855.83 -2.90245 2.42005 0
M  V30 29919 H 2856.14 -5.51557 5.41299 0
M  V30 29920 H 2854.48 -4.96517 4.86309 0
M  V30 29921 H 2857.68 -3.54069 3.06191 0
M  V30 29922 H 2857.85 -4.73245 4.42655 0
M  V30 29923 N 2851.25 -0.906798 -1.28899 0
M  V30 29924 C 2852.48 -0.552004 -1.994 0
M  V30 29925 C 2852.9 0.865019 -1.67818 0
M  V30 29926 O 2852.25 1.57197 -0.927105 0
M  V30 29927 C 2852.31 -0.743214 -3.53778 0
M  V30 29928 O 2852.03 -2.10447 -3.84244 0
M  V30 29929 C 2853.53 -0.394318 -4.41543 0
M  V30 29930 H 2850.75 -0.211118 -0.636923 0
M  V30 29931 H 2853.29 -1.21809 -1.64264 0
M  V30 29932 H 2851.45 -0.124211 -3.87201 0
M  V30 29933 H 2851.86 -2.13903 -4.78901 0
M  V30 29934 H 2853.33 -0.578911 -5.48956 0
M  V30 29935 H 2853.81 0.669061 -4.34074 0
M  V30 29936 H 2854.42 -0.990564 -4.13604 0
M  V30 29937 N 2852.73 1.42648 -0.670032 0
M  V30 29938 C 2853.98 2.01604 -0.190321 0
M  V30 29939 C 2854.31 1.5295 1.20152 0
M  V30 29940 O 2853.56 0.720292 1.81962 0
M  V30 29941 C 2853.86 3.57003 -0.168361 0
M  V30 29942 C 2853.53 4.25069 -1.50422 0
M  V30 29943 C 2852.19 4.43378 -1.87 0
M  V30 29944 C 2854.54 4.6347 -2.38423 0
M  V30 29945 C 2851.87 4.97357 -3.11212 0
M  V30 29946 C 2854.22 5.18826 -3.61942 0
M  V30 29947 C 2852.89 5.35349 -3.98695 0
M  V30 29948 H 2852.16 0.73772 -0.0696434 0
M  V30 29949 H 2854.8 1.70898 -0.864074 0
M  V30 29950 H 2853.11 3.87349 0.588889 0
M  V30 29951 H 2854.8 4.00396 0.21994 0
M  V30 29952 H 2851.39 4.11175 -1.20967 0
M  V30 29953 H 2855.58 4.49002 -2.1145 0
M  V30 29954 H 2850.83 5.08335 -3.39714 0
M  V30 29955 H 2855.01 5.47525 -4.30336 0
M  V30 29956 H 2852.64 5.7694 -4.95019 0
M  V30 29957 N 2854.21 0.413044 1.52091 0
M  V30 29958 C 2855.16 -0.427954 2.23948 0
M  V30 29959 C 2856.15 -1.01025 1.25231 0
M  V30 29960 O 2857.34 -0.932417 1.50449 0
M  V30 29961 C 2854.47 -1.54195 3.06723 0
M  V30 29962 C 2853.55 -0.970234 4.12853 0
M  V30 29963 N 2853.94 -0.125522 5.05644 0
M  V30 29964 C 2852.24 -1.24034 4.28406 0
M  V30 29965 C 2852.94 0.192978 5.8138 0
M  V30 29966 N 2851.92 -0.417178 5.41997 0
M  V30 29967 H 2855.72 0.223679 2.93048 0
M  V30 29968 H 2853.23 0.223692 1.60852 0
M  V30 29969 H 2855.23 -2.15707 3.56758 0
M  V30 29970 H 2853.89 -2.19616 2.39163 0
M  V30 29971 H 2854.9 0.239086 5.17348 0
M  V30 29972 H 2851.58 -1.89385 3.72075 0
M  V30 29973 H 2852.97 0.878879 6.66127 0
M  V30 29974 N 2855.69 -1.56945 0.143591 0
M  V30 29975 C 2856.62 -2.19602 -0.793561 0
M  V30 29976 C 2857.6 -1.14323 -1.25953 0
M  V30 29977 O 2858.79 -1.42654 -1.31771 0
M  V30 29978 C 2855.92 -2.81492 -2.03419 0
M  V30 29979 C 2854.87 -3.92568 -1.70512 0
M  V30 29980 C 2854.2 -4.41379 -3.0181 0
M  V30 29981 C 2855.5 -5.13506 -0.9544 0
M  V30 29982 H 2857.19 -2.98168 -0.271371 0
M  V30 29983 H 2854.74 -1.4342 -0.129085 0
M  V30 29984 H 2856.69 -3.23991 -2.69458 0
M  V30 29985 H 2855.41 -2.00253 -2.58005 0
M  V30 29986 H 2854.07 -3.50682 -1.06853 0
M  V30 29987 H 2853.72 -3.56965 -3.54379 0
M  V30 29988 H 2853.42 -5.16296 -2.80556 0
M  V30 29989 H 2854.94 -4.86546 -3.68925 0
M  V30 29990 H 2856.36 -5.52871 -1.51681 0
M  V30 29991 H 2854.75 -5.94165 -0.84193 0
M  V30 29992 H 2855.82 -4.84869 0.0544885 0
M  V30 29993 N 2857.17 0.130197 -1.57061 0
M  V30 29994 C 2858.12 1.17929 -2.00488 0
M  V30 29995 C 2859.11 1.43517 -0.899959 0
M  V30 29996 O 2860.32 1.43611 -1.08516 0
M  V30 29997 H 2856.69 0.397351 -0.638448 0
M  V30 29998 H 2858.66 0.78645 -2.8785 0
M  V30 29999 C 2857.41 2.50079 -2.41569 0
M  V30 30000 H 2856.73 2.31225 -3.26152 0
M  V30 30001 H 2858.17 3.22073 -2.75763 0
M  V30 30002 C 2856.63 3.11846 -1.2749 0
M  V30 30003 O 2857.16 3.97421 -0.584758 0
M  V30 30004 N 2855.37 2.71551 -1.03482 0
M  V30 30005 H 2854.92 2.02058 -1.59782 0
M  V30 30006 H 2854.87 3.13208 -0.273465 0
M  V30 30007 N 2858.65 1.52438 0.400055 0
M  V30 30008 C 2860.06 1.59005 0.978482 0
M  V30 30009 C 2860.41 0.436102 1.91292 0
M  V30 30010 O 2859.53 -0.442328 2.11831 0
M  V30 30011 C 2860.13 2.88187 1.7814 0
M  V30 30012 C 2858.69 2.97203 2.3097 0
M  V30 30013 C 2857.83 2.54024 1.11208 0
M  V30 30014 H 2860.78 1.57676 0.179975 0
M  V30 30015 H 2860.81 2.74051 2.63963 0
M  V30 30016 H 2860.32 3.72154 1.10104 0
M  V30 30017 H 2858.42 2.17749 3.02351 0
M  V30 30018 H 2858.53 4.01627 2.61214 0
M  V30 30019 H 2856.9 2.08084 1.46879 0
M  V30 30020 H 2857.68 3.40374 0.447247 0
M  V30 30021 N 2860.12 -0.657839 1.43214 0
M  V30 30022 C 2861.37 -1.41498 1.44301 0
M  V30 30023 C 2861.69 -1.94886 0.0666821 0
M  V30 30024 O 2860.96 -1.74141 -0.897315 0
M  V30 30025 H 2859.54 -0.525134 0.531266 0
M  V30 30026 H 2862.2 -0.776163 1.78778 0
M  V30 30027 H 2861.3 -2.25963 2.15284 0
M  V30 30028 N 2861.6 -1.29668 -0.895769 0
M  V30 30029 C 2862.85 -1.17237 -1.64129 0
M  V30 30030 C 2863.16 0.274382 -1.93666 0
M  V30 30031 O 2864.37 0.520058 -2.66473 0
M  V30 30032 C 2862.83 -2.0507 -2.95761 0
M  V30 30033 C 2862.43 -3.54592 -2.73804 0
M  V30 30034 C 2864.18 -2.01374 -3.73696 0
M  V30 30035 C 2862.08 -4.34515 -4.01186 0
M  V30 30036 H 2861.01 -0.435186 -0.615735 0
M  V30 30037 H 2863.67 -1.54336 -0.992599 0
M  V30 30038 H 2862.05 -1.60843 -3.61864 0
M  V30 30039 H 2863.22 -4.06896 -2.1627 0
M  V30 30040 H 2861.54 -3.6 -2.09259 0
M  V30 30041 H 2864.13 -2.58345 -4.68147 0
M  V30 30042 H 2864.48 -0.994646 -4.04243 0
M  V30 30043 H 2865.01 -2.43665 -3.1444 0
M  V30 30044 H 2861.75 -5.37077 -3.75803 0
M  V30 30045 H 2861.27 -3.86979 -4.58266 0
M  V30 30046 H 2862.95 -4.45385 -4.69299 0
M  V30 30047 N 2863.08 1.10667 -1.12208 0
M  V30 30048 C 2864.33 1.82847 -0.877204 0
M  V30 30049 C 2864.66 1.84843 0.595539 0
M  V30 30050 O 2863.93 1.30734 1.4401 0
M  V30 30051 C 2864.22 3.29633 -1.44963 0
M  V30 30052 C 2864.07 3.35984 -2.99057 0
M  V30 30053 C 2865.39 4.25945 -1.10722 0
M  V30 30054 H 2862.51 0.663849 -0.320115 0
M  V30 30055 H 2865.15 1.29717 -1.38829 0
M  V30 30056 H 2863.3 3.75008 -1.01495 0
M  V30 30057 H 2864.97 2.99107 -3.51188 0
M  V30 30058 H 2863.21 2.75956 -3.3471 0
M  V30 30059 H 2863.89 4.39333 -3.34201 0
M  V30 30060 H 2866.36 3.88791 -1.4826 0
M  V30 30061 H 2865.24 5.27018 -1.5344 0
M  V30 30062 H 2865.5 4.42096 -0.0190777 0
M  V30 30063 N 2864.56 0.913621 1.28416 0
M  V30 30064 C 2865.79 0.562571 1.99105 0
M  V30 30065 C 2866.2 -0.856107 1.68274 0
M  V30 30066 O 2865.56 -1.56703 0.935429 0
M  V30 30067 C 2865.61 0.761965 3.53378 0
M  V30 30068 O 2865.33 2.12482 3.83123 0
M  V30 30069 C 2866.83 0.417729 4.41327 0
M  V30 30070 H 2864.05 0.214492 0.635794 0
M  V30 30071 H 2866.59 1.22679 1.63616 0
M  V30 30072 H 2864.75 0.144744 3.8713 0
M  V30 30073 H 2865.16 2.1644 4.77759 0
M  V30 30074 H 2866.64 0.608015 5.48641 0
M  V30 30075 H 2867.11 -0.646031 4.34423 0
M  V30 30076 H 2867.72 1.01248 4.13072 0
M  V30 30077 N 2866.04 -1.4229 0.677588 0
M  V30 30078 C 2867.28 -2.01102 0.200613 0
M  V30 30079 C 2867.6 -1.5386 -1.198 0
M  V30 30080 O 2866.87 -0.761471 -1.80495 0
M  V30 30081 H 2865.45 -0.743601 0.0711765 0
M  V30 30082 H 2868.12 -1.74168 0.874721 0
M  V30 30083 H 2867.21 -3.11432 0.204055 0
M  V30 30084 N 2867.51 -0.421104 -1.5187 0
M  V30 30085 C 2868.74 0.152334 -2.0684 0
M  V30 30086 C 2869.16 1.37081 -1.28804 0
M  V30 30087 O 2868.52 1.78426 -0.321513 0
M  V30 30088 C 2868.57 0.469305 -3.57533 0
M  V30 30089 O 2867.67 1.55842 -3.81821 0
M  V30 30090 H 2867.01 0.00897419 -0.663939 0
M  V30 30091 H 2869.54 -0.597759 -1.95673 0
M  V30 30092 H 2869.55 0.724482 -4.01516 0
M  V30 30093 H 2868.23 -0.421349 -4.1376 0
M  V30 30094 H 2866.81 1.29447 -3.49711 0
M  V30 30095 N 2868.99 1.56866 -0.151912 0
M  V30 30096 C 2869.96 2.15814 0.771823 0
M  V30 30097 C 2870.96 1.10117 1.17179 0
M  V30 30098 O 2872.15 1.35731 1.09191 0
M  V30 30099 C 2869.28 2.72524 2.04801 0
M  V30 30100 H 2870.47 2.9878 0.258969 0
M  V30 30101 H 2868.02 1.55995 0.0975606 0
M  V30 30102 H 2868.76 1.93238 2.60441 0
M  V30 30103 H 2868.54 3.49857 1.77038 0
M  V30 30104 H 2870.03 3.17925 2.70765 0
M  V30 30105 N 2870.47 -0.121866 1.57128 0
M  V30 30106 C 2871.72 -0.831386 1.84975 0
M  V30 30107 C 2872.05 -1.79662 0.737236 0
M  V30 30108 O 2871.32 -1.92792 -0.257165 0
M  V30 30109 C 2871.61 -1.58381 3.234 0
M  V30 30110 C 2871.46 -0.638367 4.45247 0
M  V30 30111 C 2872.78 -2.54064 3.5936 0
M  V30 30112 H 2869.9 -0.300791 0.672825 0
M  V30 30113 H 2872.54 -0.0957254 1.89759 0
M  V30 30114 H 2870.69 -2.21093 3.19453 0
M  V30 30115 H 2872.36 -0.0203115 4.61296 0
M  V30 30116 H 2870.61 0.0503062 4.33771 0
M  V30 30117 H 2871.28 -1.20141 5.38767 0
M  V30 30118 H 2873.75 -2.01459 3.64079 0
M  V30 30119 H 2872.63 -3.03744 4.57199 0
M  V30 30120 H 2872.89 -3.36596 2.86628 0
M  V30 30121 N 2871.95 -1.52648 -0.391965 0
M  V30 30122 C 2873.2 -1.67216 -1.13504 0
M  V30 30123 C 2873.52 -0.413073 -1.90575 0
M  V30 30124 O 2872.79 0.572465 -1.87349 0
M  V30 30125 H 2871.37 -0.616379 -0.422002 0
M  V30 30126 H 2874.03 -1.89752 -0.444986 0
M  V30 30127 H 2873.13 -2.52122 -1.8396 0
M  V30 30128 N 2873.43 0.650235 -1.43561 0
M  V30 30129 C 2874.67 1.42186 -1.46842 0
M  V30 30130 C 2875.03 1.91783 -0.091177 0
M  V30 30131 O 2876.23 2.688 0.0013282 0
M  V30 30132 C 2874.5 2.56953 -2.48415 0
M  V30 30133 S 2876.06 3.45433 -2.70595 0
M  V30 30134 H 2872.88 0.485316 -0.519605 0
M  V30 30135 H 2875.48 0.754628 -1.80349 0
M  V30 30136 H 2874.19 2.18795 -3.47213 0
M  V30 30137 H 2873.72 3.28523 -2.16417 0
M  V30 30138 H 2875.73 4.53779 -2.00746 0
M  V30 30139 N 2874.9 1.30141 0.88888 0
M  V30 30140 C 2876.18 1.09402 1.62143 0
M  V30 30141 C 2876.56 -0.358055 2.08041 0
M  V30 30142 O 2875.91 -1.34885 1.84441 0
M  V30 30143 C 2876.12 2.09138 2.79396 0
M  V30 30144 C 2877.47 2.40644 3.49822 0
M  V30 30145 O 2878.49 2.07417 2.8958 0
M  V30 30146 O 2877.35 2.97464 4.58451 0
M  V30 30147 H 2874.44 0.419903 0.712468 0
M  V30 30148 H 2876.99 1.41553 0.935999 0
M  V30 30149 H 2875.76 3.06895 2.42757 0
M  V30 30150 H 2875.39 1.77782 3.55639 0
M  V30 30151 N 2876.38 -1.1007 1.12794 0
M  V30 30152 C 2877.79 -1.6361 0.899375 0
M  V30 30153 C 2878.14 -1.87873 -0.565514 0
M  V30 30154 O 2877.27 -1.6235 -1.43078 0
M  V30 30155 C 2877.86 -2.97224 1.62613 0
M  V30 30156 C 2876.42 -3.47616 1.44362 0
M  V30 30157 C 2875.57 -2.22153 1.65962 0
M  V30 30158 H 2878.52 -0.935201 1.28217 0
M  V30 30159 H 2878.54 -3.6487 1.07936 0
M  V30 30160 H 2878.05 -2.79533 2.69226 0
M  V30 30161 H 2876.16 -3.70444 0.400213 0
M  V30 30162 H 2876.27 -4.25485 2.20226 0
M  V30 30163 H 2874.63 -2.30482 1.08399 0
M  V30 30164 H 2875.42 -2.06988 2.73881 0
M  V30 30165 N 2877.86 -0.920419 -1.2793 0
M  V30 30166 C 2879.14 -0.475721 -1.89727 0
M  V30 30167 C 2879.52 1.04584 -1.83372 0
M  V30 30168 O 2878.87 1.89683 -1.27408 0
M  V30 30169 C 2879.08 -1.0136 -3.33957 0
M  V30 30170 C 2880.42 -1.0697 -4.10905 0
M  V30 30171 O 2881.45 -0.962707 -3.42944 0
M  V30 30172 O 2880.31 -1.23352 -5.32397 0
M  V30 30173 H 2877.4 -0.151859 -0.812938 0
M  V30 30174 H 2879.95 -1.01164 -1.3625 0
M  V30 30175 H 2878.72 -2.05752 -3.32839 0
M  V30 30176 H 2878.34 -0.458898 -3.94943 0
M  V30 30177 N 2879.34 1.41929 -0.685124 0
M  V30 30178 C 2880.27 2.33484 -0.0273917 0
M  V30 30179 C 2881.25 1.51248 0.778339 0
M  V30 30180 O 2882.43 1.79818 0.733417 0
M  V30 30181 C 2879.56 3.34969 0.917213 0
M  V30 30182 C 2878.52 4.27438 0.219334 0
M  V30 30183 C 2877.84 5.19213 1.27758 0
M  V30 30184 C 2879.14 5.14347 -0.907984 0
M  V30 30185 H 2880.84 2.88733 -0.792045 0
M  V30 30186 H 2878.38 1.38832 -0.382332 0
M  V30 30187 H 2880.34 3.97937 1.3865 0
M  V30 30188 H 2879.06 2.78046 1.71341 0
M  V30 30189 H 2877.72 3.65879 -0.229822 0
M  V30 30190 H 2877.37 4.58611 2.06604 0
M  V30 30191 H 2877.07 5.81911 0.815701 0
M  V30 30192 H 2878.59 5.85057 1.7476 0
M  V30 30193 H 2880.01 5.70942 -0.519448 0
M  V30 30194 H 2878.4 5.85932 -1.29631 0
M  V30 30195 H 2879.47 4.52133 -1.75226 0
M  V30 30196 N 2880.82 0.429152 1.51644 0
M  V30 30197 C 2882.06 -0.140043 2.02015 0
M  V30 30198 C 2882.39 -1.43424 1.31376 0
M  V30 30199 O 2881.65 -1.91253 0.414813 0
M  V30 30200 C 2881.95 -0.414409 3.54989 0
M  V30 30201 C 2881.61 0.792989 4.43872 0
M  V30 30202 C 2880.27 1.12413 4.67886 0
M  V30 30203 C 2882.63 1.59884 4.96071 0
M  V30 30204 C 2879.95 2.26193 5.41344 0
M  V30 30205 C 2882.31 2.72757 5.70777 0
M  V30 30206 C 2880.97 3.06334 5.93056 0
M  V30 30207 H 2880.24 -0.0512455 0.739226 0
M  V30 30208 H 2882.89 0.574673 1.82674 0
M  V30 30209 H 2881.19 -1.21093 3.72617 0
M  V30 30210 H 2882.89 -0.868104 3.91491 0
M  V30 30211 H 2879.48 0.524946 4.25373 0
M  V30 30212 H 2883.66 1.35622 4.7741 0
M  V30 30213 H 2878.92 2.52531 5.5681 0
M  V30 30214 H 2883.09 3.35574 6.10215 0
M  V30 30215 H 2880.72 3.94613 6.49757 0
M  V30 30216 N 2882.29 -1.56783 0.160229 0
M  V30 30217 C 2883.54 -1.97611 -0.48182 0
M  V30 30218 C 2883.9 -1.04414 -1.61603 0
M  V30 30219 O 2883.19 -0.0816738 -1.91426 0
M  V30 30220 C 2883.38 -3.4246 -1.02253 0
M  V30 30221 C 2883.21 -4.49663 0.0577571 0
M  V30 30222 C 2881.98 -5.02783 0.503673 0
M  V30 30223 C 2884.18 -5.07158 0.854102 0
M  V30 30224 N 2882.16 -5.93606 1.56542 0
M  V30 30225 C 2883.53 -5.94316 1.76603 0
M  V30 30226 C 2885.59 -4.89691 0.900419 0
M  V30 30227 C 2884.29 -6.65875 2.72034 0
M  V30 30228 C 2886.32 -5.61962 1.84262 0
M  V30 30229 C 2885.68 -6.48838 2.74205 0
M  V30 30230 H 2881.78 -0.768489 -0.144735 0
M  V30 30231 H 2884.36 -1.92985 0.257887 0
M  V30 30232 H 2882.53 -3.47654 -1.73179 0
M  V30 30233 H 2884.26 -3.70322 -1.63229 0
M  V30 30234 H 2881.02 -4.73487 0.103444 0
M  V30 30235 H 2881.44 -6.43722 2.09645 0
M  V30 30236 H 2886.09 -4.22232 0.219098 0
M  V30 30237 H 2883.8 -7.32554 3.4116 0
M  V30 30238 H 2887.39 -5.50437 1.88442 0
M  V30 30239 H 2886.27 -7.0378 3.45925 0
M  V30 30240 N 2883.77 0.113531 -1.57191 0
M  V30 30241 C 2885 0.838303 -1.89703 0
M  V30 30242 C 2885.42 1.72383 -0.75271 0
M  V30 30243 O 2884.78 1.78858 0.296544 0
M  V30 30244 C 2884.83 1.64307 -3.20992 0
M  V30 30245 O 2883.93 2.75048 -3.07282 0
M  V30 30246 H 2883.27 0.231485 -0.622343 0
M  V30 30247 H 2885.8 0.0942869 -2.04383 0
M  V30 30248 H 2885.81 2.03116 -3.53847 0
M  V30 30249 H 2884.49 0.993048 -4.0387 0
M  V30 30250 H 2883.07 2.39401 -2.85905 0
M  V30 30251 N 2885.25 1.52854 0.383864 0
M  V30 30252 C 2886.2 1.77997 1.46921 0
M  V30 30253 C 2887.17 0.623423 1.53957 0
M  V30 30254 O 2888.35 0.863687 1.70133 0
M  V30 30255 C 2885.49 1.95926 2.8409 0
M  V30 30256 C 2884.61 3.23626 2.86165 0
M  V30 30257 C 2883.74 3.31843 4.14794 0
M  V30 30258 C 2882.78 4.53646 4.1094 0
M  V30 30259 N 2881.92 4.59116 5.31184 0
M  V30 30260 H 2886.76 2.70617 1.24781 0
M  V30 30261 H 2884.29 1.34072 0.605242 0
M  V30 30262 H 2886.25 2.04305 3.63751 0
M  V30 30263 H 2884.88 1.06661 3.04669 0
M  V30 30264 H 2883.93 3.24292 1.98844 0
M  V30 30265 H 2885.25 4.13348 2.79187 0
M  V30 30266 H 2884.4 3.39434 5.02861 0
M  V30 30267 H 2883.14 2.40104 4.24501 0
M  V30 30268 H 2882.14 4.46175 3.2126 0
M  V30 30269 H 2883.37 5.46707 4.02851 0
M  V30 30270 H 2881.32 3.70272 5.41512 0
M  V30 30271 H 2881.23 5.42718 5.26302 0
M  V30 30272 H 2882.5 4.70969 6.21135 0
M  V30 30273 N 2886.73 -0.642612 1.43904 0
M  V30 30274 C 2887.98 -1.39828 1.45365 0
M  V30 30275 C 2888.29 -1.95412 0.0856633 0
M  V30 30276 O 2889.5 -2.71491 -0.0222379 0
M  V30 30277 C 2887.95 -2.53107 2.55861 0
M  V30 30278 C 2887.56 -2.04085 3.98815 0
M  V30 30279 C 2889.31 -3.30397 2.66529 0
M  V30 30280 C 2887.21 -3.14638 5.00756 0
M  V30 30281 H 2886.14 -0.52542 0.540786 0
M  V30 30282 H 2888.79 -0.692529 1.6993 0
M  V30 30283 H 2887.18 -3.26203 2.24516 0
M  V30 30284 H 2888.35 -1.3793 4.39673 0
M  V30 30285 H 2886.66 -1.39644 3.92286 0
M  V30 30286 H 2889.26 -4.1279 3.39865 0
M  V30 30287 H 2889.6 -3.79126 1.71956 0
M  V30 30288 H 2890.14 -2.64386 2.97228 0
M  V30 30289 H 2886.88 -2.70866 5.96919 0
M  V30 30290 H 2886.4 -3.79471 4.64501 0
M  V30 30291 H 2888.08 -3.796 5.2394 0
M  V30 30292 N 2888.21 -1.30611 -0.881966 0
M  V30 30293 C 2889.62 -1.17666 -1.44954 0
M  V30 30294 C 2889.97 0.221497 -1.94946 0
M  V30 30295 O 2889.09 1.1184 -1.85259 0
M  V30 30296 C 2889.69 -2.13 -2.6347 0
M  V30 30297 C 2888.25 -2.04025 -3.16308 0
M  V30 30298 C 2887.4 -2.0291 -1.89004 0
M  V30 30299 H 2890.35 -1.42837 -0.69162 0
M  V30 30300 H 2890.37 -1.71259 -3.3978 0
M  V30 30301 H 2889.88 -3.1475 -2.27054 0
M  V30 30302 H 2887.98 -1.05426 -3.57374 0
M  V30 30303 H 2888.09 -2.92556 -3.79404 0
M  V30 30304 H 2886.46 -1.47754 -2.07463 0
M  V30 30305 H 2887.24 -3.06396 -1.54842 0
M  V30 30306 N 2889.69 1.0947 -1.13376 0
M  V30 30307 C 2890.93 1.81906 -0.896548 0
M  V30 30308 C 2891.26 1.85464 0.5759 0
M  V30 30309 O 2890.54 1.32254 1.42616 0
M  V30 30310 C 2890.82 3.28077 -1.48451 0
M  V30 30311 C 2890.68 3.32793 -3.02604 0
M  V30 30312 C 2891.99 4.24746 -1.15233 0
M  V30 30313 H 2889.11 0.660416 -0.327138 0
M  V30 30314 H 2891.76 1.28237 -1.40197 0
M  V30 30315 H 2889.91 3.7391 -1.05467 0
M  V30 30316 H 2891.58 2.95365 -3.5434 0
M  V30 30317 H 2889.82 2.72391 -3.37618 0
M  V30 30318 H 2890.49 4.35764 -3.38842 0
M  V30 30319 H 2892.97 3.87196 -1.52376 0
M  V30 30320 H 2891.84 5.2536 -1.59021 0
M  V30 30321 H 2892.1 4.42051 -0.0659668 0
M  V30 30322 N 2891.16 0.92719 1.2744 0
M  V30 30323 C 2892.1 0.370272 2.25176 0
M  V30 30324 C 2893.07 -0.533076 1.53613 0
M  V30 30325 O 2894.26 -0.473698 1.82451 0
M  V30 30326 C 2891.39 -0.469352 3.35432 0
M  V30 30327 C 2890.43 0.370494 4.24888 0
M  V30 30328 S 2891.26 1.78571 5.04849 0
M  V30 30329 C 2892.42 0.95376 6.18591 0
M  V30 30330 H 2892.65 1.19862 2.72067 0
M  V30 30331 H 2890.19 0.72934 1.36088 0
M  V30 30332 H 2892.14 -0.947922 3.99405 0
M  V30 30333 H 2890.81 -1.27223 2.87181 0
M  V30 30334 H 2890 -0.272138 5.03265 0
M  V30 30335 H 2889.6 0.783217 3.65707 0
M  V30 30336 H 2891.89 0.189527 6.77235 0
M  V30 30337 H 2892.84 1.71052 6.87129 0
M  V30 30338 H 2893.24 0.495996 5.62317 0
M  V30 30339 N 2892.64 -1.41564 0.692641 0
M  V30 30340 C 2893.57 -2.33466 0.0397735 0
M  V30 30341 C 2894.55 -1.51658 -0.770307 0
M  V30 30342 O 2895.74 -1.80205 -0.723871 0
M  V30 30343 C 2892.87 -3.35451 -0.899436 0
M  V30 30344 C 2891.82 -4.27548 -0.196663 0
M  V30 30345 C 2891.15 -5.19883 -1.25003 0
M  V30 30346 C 2892.45 -5.13858 0.935248 0
M  V30 30347 H 2894.14 -2.88309 0.807346 0
M  V30 30348 H 2891.69 -1.38627 0.389689 0
M  V30 30349 H 2893.64 -3.98667 -1.36538 0
M  V30 30350 H 2892.36 -2.78951 -1.69864 0
M  V30 30351 H 2891.02 -3.65752 0.249222 0
M  V30 30352 H 2890.67 -4.597 -2.04169 0
M  V30 30353 H 2890.37 -5.82335 -0.784829 0
M  V30 30354 H 2891.9 -5.85975 -1.71655 0
M  V30 30355 H 2893.31 -5.70658 0.54972 0
M  V30 30356 H 2891.71 -5.85236 1.32736 0
M  V30 30357 H 2892.78 -4.51197 1.77621 0
M  V30 30358 N 2894.12 -0.437188 -1.51415 0
M  V30 30359 C 2895.4 0.189258 -1.94682 0
M  V30 30360 C 2895.78 1.60106 -1.37584 0
M  V30 30361 O 2895.12 2.21459 -0.562854 0
M  V30 30362 C 2895.33 0.167139 -3.486 0
M  V30 30363 C 2896.68 0.372782 -4.2296 0
M  V30 30364 O 2897.71 0.24526 -3.55355 0
M  V30 30365 O 2896.57 0.626598 -5.42896 0
M  V30 30366 H 2893.66 0.130049 -0.816711 0
M  V30 30367 H 2896.21 -0.495156 -1.62315 0
M  V30 30368 H 2894.98 -0.819878 -3.82614 0
M  V30 30369 H 2894.6 0.894469 -3.87408 0
M  V30 30370 N 2895.6 1.56696 -0.168541 0
M  V30 30371 C 2896.85 1.9641 0.476181 0
M  V30 30372 C 2897.17 1.05547 1.63966 0
M  V30 30373 O 2896.44 0.12127 1.95524 0
M  V30 30374 H 2895.02 0.725259 0.178908 0
M  V30 30375 H 2897.68 1.93302 -0.249076 0
M  V30 30376 H 2896.77 3.00638 0.838041 0
M  V30 30377 N 2897.08 -0.105193 1.57249 0
M  V30 30378 C 2898.03 -1.13446 1.97772 0
M  V30 30379 C 2899.01 -1.36323 0.854678 0
M  V30 30380 O 2900.2 -1.37184 1.11846 0
M  V30 30381 C 2897.33 -2.45741 2.39721 0
M  V30 30382 C 2896.42 -2.2628 3.58689 0
M  V30 30383 N 2896.81 -1.76663 4.73945 0
M  V30 30384 C 2895.11 -2.56885 3.6459 0
M  V30 30385 C 2895.81 -1.71235 5.55926 0
M  V30 30386 N 2894.78 -2.16084 4.98807 0
M  V30 30387 H 2898.58 -0.743614 2.84337 0
M  V30 30388 H 2896.1 -0.312759 1.5936 0
M  V30 30389 H 2898.1 -3.20202 2.66977 0
M  V30 30390 H 2896.76 -2.85571 1.54528 0
M  V30 30391 H 2897.77 -1.46007 4.96893 0
M  V30 30392 H 2894.44 -3.00308 2.90036 0
M  V30 30393 H 2895.83 -1.3401 6.584 0
M  V30 30394 N 2898.55 -1.53055 -0.375752 0
M  V30 30395 C 2899.48 -1.81748 -1.46594 0
M  V30 30396 C 2900.47 -0.670314 -1.56336 0
M  V30 30397 O 2901.65 -0.919188 -1.71069 0
M  V30 30398 C 2898.78 -1.99826 -2.84054 0
M  V30 30399 C 2897.73 -3.15562 -2.89145 0
M  V30 30400 C 2897.06 -3.18915 -4.29182 0
M  V30 30401 C 2898.36 -4.54363 -2.57587 0
M  V30 30402 H 2900.05 -2.73043 -1.22832 0
M  V30 30403 H 2897.6 -1.31382 -0.589462 0
M  V30 30404 H 2899.55 -2.18482 -3.60338 0
M  V30 30405 H 2898.28 -1.05232 -3.09183 0
M  V30 30406 H 2896.94 -2.9671 -2.15311 0
M  V30 30407 H 2896.58 -2.21978 -4.5137 0
M  V30 30408 H 2896.28 -3.9667 -4.33505 0
M  V30 30409 H 2897.81 -3.39742 -5.07353 0
M  V30 30410 H 2899.22 -4.73249 -3.23587 0
M  V30 30411 H 2897.62 -5.34283 -2.73242 0
M  V30 30412 H 2898.69 -4.60171 -1.52874 0
M  V30 30413 N 2900.03 0.634971 -1.44242 0
M  V30 30414 C 2901.28 1.39055 -1.46104 0
M  V30 30415 C 2901.59 1.95364 -0.0960253 0
M  V30 30416 O 2902.8 2.71499 0.00783979 0
M  V30 30417 C 2901.26 2.51747 -2.572 0
M  V30 30418 C 2900.86 2.01967 -3.99891 0
M  V30 30419 C 2902.61 3.28979 -2.68278 0
M  V30 30420 C 2900.52 3.11978 -5.02418 0
M  V30 30421 H 2899.45 0.522545 -0.543565 0
M  V30 30422 H 2902.1 0.683508 -1.70295 0
M  V30 30423 H 2900.48 3.25008 -2.26242 0
M  V30 30424 H 2901.65 1.35596 -4.40398 0
M  V30 30425 H 2899.97 1.37561 -3.93021 0
M  V30 30426 H 2902.56 4.10982 -3.42049 0
M  V30 30427 H 2902.91 3.78209 -1.73964 0
M  V30 30428 H 2903.44 2.62806 -2.98626 0
M  V30 30429 H 2900.18 2.67696 -5.98347 0
M  V30 30430 H 2899.7 3.77003 -4.66507 0
M  V30 30431 H 2901.38 3.76816 -5.25946 0
M  V30 30432 N 2901.51 1.31076 0.875027 0
M  V30 30433 C 2902.47 1.18266 1.96331 0
M  V30 30434 C 2903.47 0.111135 1.60415 0
M  V30 30435 O 2904.66 0.360017 1.70439 0
M  V30 30436 C 2901.8 0.814198 3.31034 0
M  V30 30437 H 2902.99 2.14961 2.09121 0
M  V30 30438 H 2900.54 1.14615 1.06269 0
M  V30 30439 H 2901.28 -0.151818 3.23944 0
M  V30 30440 H 2901.06 1.58869 3.58473 0
M  V30 30441 H 2902.55 0.748321 4.10841 0
M  V30 30442 N 2902.99 -1.08867 1.13955 0
M  V30 30443 C 2904.24 -1.8116 0.904842 0
M  V30 30444 C 2904.56 -1.85997 -0.568791 0
M  V30 30445 O 2903.82 -1.32826 -1.43721 0
M  V30 30446 C 2904.12 -3.26886 1.44501 0
M  V30 30447 C 2903.78 -3.42173 2.93647 0
M  V30 30448 C 2902.45 -3.46053 3.34367 0
M  V30 30449 C 2904.8 -3.46239 3.89574 0
M  V30 30450 C 2902.13 -3.51583 4.69687 0
M  V30 30451 C 2904.48 -3.53304 5.24746 0
M  V30 30452 C 2903.14 -3.55455 5.64985 0
M  V30 30453 H 2902.41 -0.662911 0.331105 0
M  V30 30454 H 2905.06 -1.28214 1.42244 0
M  V30 30455 H 2903.36 -3.82508 0.848236 0
M  V30 30456 H 2905.06 -3.81366 1.23941 0
M  V30 30457 H 2901.65 -3.39842 2.61162 0
M  V30 30458 H 2905.83 -3.42477 3.59198 0
M  V30 30459 H 2901.09 -3.51539 5.00231 0
M  V30 30460 H 2905.26 -3.55395 5.98888 0
M  V30 30461 H 2902.89 -3.59493 6.69827 0
M  V30 30462 N 2904.47 -0.933936 -1.26946 0
M  V30 30463 C 2905.74 -0.495817 -1.89212 0
M  V30 30464 C 2906.12 1.02634 -1.84471 0
M  V30 30465 O 2905.47 1.88321 -1.29412 0
M  V30 30466 C 2905.68 -1.04896 -3.32863 0
M  V30 30467 C 2907.03 -1.11322 -4.09747 0
M  V30 30468 O 2908.05 -0.999026 -3.41903 0
M  V30 30469 O 2906.91 -1.28992 -5.31059 0
M  V30 30470 H 2904.01 -0.160473 -0.811281 0
M  V30 30471 H 2906.55 -1.02603 -1.35169 0
M  V30 30472 H 2905.32 -2.09271 -3.30638 0
M  V30 30473 H 2904.95 -0.500761 -3.94434 0
M  V30 30474 N 2905.94 1.41194 -0.700139 0
M  V30 30475 C 2907.17 2.05179 -0.241864 0
M  V30 30476 C 2907.58 1.52805 1.11567 0
M  V30 30477 O 2906.93 0.673072 1.70925 0
M  V30 30478 C 2906.99 3.59276 -0.127013 0
M  V30 30479 C 2906.65 4.34466 -1.41733 0
M  V30 30480 C 2907.65 4.63447 -2.35612 0
M  V30 30481 C 2905.33 4.73657 -1.67197 0
M  V30 30482 C 2907.33 5.30584 -3.53213 0
M  V30 30483 C 2905.01 5.40529 -2.85082 0
M  V30 30484 C 2906.01 5.6892 -3.77914 0
M  V30 30485 O 2905.7 6.34415 -4.93734 0
M  V30 30486 H 2905.43 0.667112 -0.109259 0
M  V30 30487 H 2907.99 1.81871 -0.95457 0
M  V30 30488 H 2906.22 3.81342 0.641504 0
M  V30 30489 H 2907.91 4.04829 0.294677 0
M  V30 30490 H 2908.67 4.33647 -2.17198 0
M  V30 30491 H 2904.55 4.50936 -0.958014 0
M  V30 30492 H 2908.09 5.52661 -4.25689 0
M  V30 30493 H 2903.99 5.69747 -3.03412 0
M  V30 30494 H 2904.76 6.52911 -4.93609 0
M  V30 30495 N 2907.42 0.445212 1.51181 0
M  V30 30496 C 2908.65 -0.119409 2.07056 0
M  V30 30497 C 2909.07 -1.35014 1.30969 0
M  V30 30498 O 2908.43 -1.77892 0.349859 0
M  V30 30499 C 2908.48 -0.412365 3.58234 0
M  V30 30500 O 2907.58 -1.49747 3.84252 0
M  V30 30501 H 2906.92 0.00158965 0.663998 0
M  V30 30502 H 2909.45 0.628813 1.94697 0
M  V30 30503 H 2909.46 -0.660513 4.02618 0
M  V30 30504 H 2908.14 0.487121 4.13037 0
M  V30 30505 H 2906.72 -1.23867 3.51726 0
M  V30 30506 N 2908.9 -1.56605 0.176849 0
M  V30 30507 C 2910.15 -1.9666 -0.465758 0
M  V30 30508 C 2910.47 -1.06415 -1.63404 0
M  V30 30509 O 2909.74 -0.131637 -1.95457 0
M  V30 30510 H 2908.32 -0.726198 -0.175059 0
M  V30 30511 H 2910.98 -1.93167 0.259323 0
M  V30 30512 H 2910.08 -3.01078 -0.822085 0
M  V30 30513 N 2910.38 0.0968524 -1.57302 0
M  V30 30514 C 2911.61 0.81308 -1.89928 0
M  V30 30515 C 2912.02 1.72887 -0.76855 0
M  V30 30516 O 2911.36 1.81727 0.268517 0
M  V30 30517 C 2911.42 1.68077 -3.1779 0
M  V30 30518 C 2911.09 0.936982 -4.47291 0
M  V30 30519 C 2912.08 0.267595 -5.19211 0
M  V30 30520 C 2909.77 0.911584 -4.93959 0
M  V30 30521 C 2911.76 -0.417241 -6.36033 0
M  V30 30522 C 2909.45 0.222961 -6.10693 0
M  V30 30523 C 2910.45 -0.440275 -6.81579 0
M  V30 30524 O 2910.13 -1.11786 -7.9609 0
M  V30 30525 H 2909.87 0.237817 -0.632787 0
M  V30 30526 H 2912.42 0.0790457 -2.05248 0
M  V30 30527 H 2910.65 2.45699 -2.98611 0
M  V30 30528 H 2912.34 2.2734 -3.36261 0
M  V30 30529 H 2913.11 0.278689 -4.84199 0
M  V30 30530 H 2908.98 1.41726 -4.38674 0
M  V30 30531 H 2912.53 -0.935492 -6.91299 0
M  V30 30532 H 2908.43 0.209707 -6.45159 0
M  V30 30533 H 2909.19 -1.02458 -8.12062 0
M  V30 30534 N 2911.86 1.53252 0.36763 0
M  V30 30535 C 2913.13 1.59937 1.12603 0
M  V30 30536 C 2913.51 0.405643 2.07166 0
M  V30 30537 O 2912.86 -0.604284 2.20365 0
M  V30 30538 C 2913.07 2.94867 1.86694 0
M  V30 30539 C 2914.42 3.4937 2.413 0
M  V30 30540 O 2915.44 2.96882 1.96823 0
M  V30 30541 O 2914.3 4.41124 3.22602 0
M  V30 30542 H 2911.4 0.645936 0.516426 0
M  V30 30543 H 2913.94 1.65594 0.371059 0
M  V30 30544 H 2912.71 3.73189 1.17668 0
M  V30 30545 H 2912.34 2.92692 2.69104 0
M  V30 30546 N 2913.34 -0.627313 1.44577 0
M  V30 30547 C 2914.3 -1.721 1.51375 0
M  V30 30548 C 2915.3 -1.55864 0.395357 0
M  V30 30549 O 2916.49 -1.6129 0.658122 0
M  V30 30550 C 2913.62 -3.11214 1.39135 0
M  V30 30551 H 2914.81 -1.67445 2.48801 0
M  V30 30552 H 2912.37 -0.841313 1.31726 0
M  V30 30553 H 2913.1 -3.21461 0.42817 0
M  V30 30554 H 2912.89 -3.24406 2.20235 0
M  V30 30555 H 2914.38 -3.90916 1.46881 0
M  V30 30556 N 2914.81 -1.31539 -0.868063 0
M  V30 30557 C 2916.04 -1.24435 -1.65924 0
M  V30 30558 C 2916.46 0.186903 -1.87169 0
M  V30 30559 O 2915.82 1.13369 -1.41482 0
M  V30 30560 C 2915.87 -1.99565 -3.00343 0
M  V30 30561 O 2914.97 -1.33429 -3.90218 0
M  V30 30562 H 2914.31 -0.429521 -0.506367 0
M  V30 30563 H 2916.84 -1.73639 -1.08216 0
M  V30 30564 H 2916.85 -2.09233 -3.50265 0
M  V30 30565 H 2915.53 -3.0365 -2.842 0
M  V30 30566 H 2914.11 -1.32225 -3.4867 0
M  V30 30567 N 2916.29 1.08262 -1.1453 0
M  V30 30568 C 2917.22 2.17228 -0.856394 0
M  V30 30569 C 2918.2 1.69044 0.189221 0
M  V30 30570 O 2919.39 1.94147 0.0455778 0
M  V30 30571 C 2916.52 3.45683 -0.334723 0
M  V30 30572 C 2915.47 4.07267 -1.31595 0
M  V30 30573 C 2914.8 5.30691 -0.653521 0
M  V30 30574 C 2916.1 4.48376 -2.67874 0
M  V30 30575 H 2917.79 2.41654 -1.76759 0
M  V30 30576 H 2915.34 1.16141 -0.851308 0
M  V30 30577 H 2917.29 4.21229 -0.120202 0
M  V30 30578 H 2916.01 3.20816 0.611911 0
M  V30 30579 H 2914.67 3.33755 -1.51667 0
M  V30 30580 H 2914.32 5.02111 0.298966 0
M  V30 30581 H 2914.02 5.72851 -1.30827 0
M  V30 30582 H 2915.55 6.0895 -0.44856 0
M  V30 30583 H 2916.96 5.15092 -2.51701 0
M  V30 30584 H 2915.36 5.01458 -3.29636 0
M  V30 30585 H 2916.43 3.60192 -3.24638 0
M  V30 30586 N 2917.77 0.940655 1.26449 0
M  V30 30587 C 2918.99 0.604155 1.98405 0
M  V30 30588 C 2919.42 -0.81379 1.69585 0
M  V30 30589 O 2918.78 -1.5481 0.943581 0
M  V30 30590 C 2918.83 0.852197 3.50385 0
M  V30 30591 O 2917.93 -0.0759406 4.1233 0
M  V30 30592 H 2917.27 0.231164 0.622462 0
M  V30 30593 H 2919.8 1.26344 1.60929 0
M  V30 30594 H 2919.81 0.772887 4.00613 0
M  V30 30595 H 2918.49 1.88572 3.70693 0
M  V30 30596 H 2917.06 0.0543843 3.7286 0
M  V30 30597 N 2919.25 -1.40821 0.707617 0
M  V30 30598 C 2920.66 -1.83988 0.317043 0
M  V30 30599 C 2921.01 -1.59185 -1.14694 0
M  V30 30600 O 2920.13 -1.06855 -1.88178 0
M  V30 30601 C 2920.73 -3.33994 0.568651 0
M  V30 30602 C 2919.29 -3.75685 0.23187 0
M  V30 30603 C 2918.44 -2.64112 0.844979 0
M  V30 30604 H 2921.39 -1.30202 0.907372 0
M  V30 30605 H 2921.41 -3.80126 -0.168731 0
M  V30 30606 H 2920.92 -3.52015 1.63423 0
M  V30 30607 H 2919.02 -3.63261 -0.828966 0
M  V30 30608 H 2919.13 -4.74028 0.695302 0
M  V30 30609 H 2917.5 -2.53226 0.273632 0
M  V30 30610 H 2918.28 -2.84948 1.91467 0
M  V30 30611 N 2920.73 -0.453223 -1.50943 0
M  V30 30612 C 2921.97 0.108047 -2.02512 0
M  V30 30613 C 2922.3 1.40965 -1.33576 0
M  V30 30614 O 2921.58 1.89086 -0.455704 0
M  V30 30615 C 2921.86 0.31039 -3.5876 0
M  V30 30616 C 2921.72 -1.01097 -4.38291 0
M  V30 30617 C 2923.03 1.07305 -4.26818 0
M  V30 30618 H 2920.15 0.0377935 -0.73603 0
M  V30 30619 H 2922.8 -0.595327 -1.80432 0
M  V30 30620 H 2920.95 0.909516 -3.77704 0
M  V30 30621 H 2922.62 -1.6453 -4.30961 0
M  V30 30622 H 2920.86 -1.61186 -4.02742 0
M  V30 30623 H 2921.53 -0.823246 -5.45827 0
M  V30 30624 H 2924.01 0.565401 -4.12241 0
M  V30 30625 H 2922.88 1.18341 -5.35991 0
M  V30 30626 H 2923.14 2.10518 -3.8876 0
M  V30 30627 N 2922.2 1.56509 -0.185151 0
M  V30 30628 C 2923.45 1.98352 0.450321 0
M  V30 30629 C 2923.8 1.06972 1.59921 0
M  V30 30630 O 2923.1 0.112118 1.91272 0
M  V30 30631 C 2923.29 3.44044 0.967916 0
M  V30 30632 C 2923.12 4.49514 -0.129287 0
M  V30 30633 C 2921.89 5.01919 -0.583598 0
M  V30 30634 C 2924.09 5.05735 -0.934679 0
M  V30 30635 N 2922.07 5.9104 -1.65966 0
M  V30 30636 C 2923.44 5.91431 -1.86036 0
M  V30 30637 C 2925.5 4.88196 -0.97821 0
M  V30 30638 C 2924.2 6.61463 -2.82593 0
M  V30 30639 C 2926.23 5.5896 -1.93179 0
M  V30 30640 C 2925.59 6.44394 -2.84493 0
M  V30 30641 H 2921.69 0.770695 0.13249 0
M  V30 30642 H 2924.27 1.9255 -0.288556 0
M  V30 30643 H 2922.44 3.50365 1.67627 0
M  V30 30644 H 2924.17 3.72872 1.57317 0
M  V30 30645 H 2920.93 4.73263 -0.178759 0
M  V30 30646 H 2921.35 6.40305 -2.1986 0
M  V30 30647 H 2925.99 4.2183 -0.286243 0
M  V30 30648 H 2923.71 7.27034 -3.52771 0
M  V30 30649 H 2927.3 5.47369 -1.97175 0
M  V30 30650 H 2926.18 6.98187 -3.57077 0
M  V30 30651 N 2923.68 -0.0885089 1.57351 0
M  V30 30652 C 2924.93 -0.790791 1.86421 0
M  V30 30653 C 2925.26 -1.78411 0.774593 0
M  V30 30654 O 2924.51 -1.9433 -0.231156 0
M  V30 30655 C 2924.81 -1.54874 3.22101 0
M  V30 30656 C 2924.48 -0.696946 4.45481 0
M  V30 30657 C 2923.14 -0.462153 4.78976 0
M  V30 30658 C 2925.49 -0.105223 5.21094 0
M  V30 30659 C 2922.82 0.374119 5.85506 0
M  V30 30660 C 2925.17 0.718409 6.28507 0
M  V30 30661 C 2923.83 0.963232 6.60514 0
M  V30 30662 H 2923.1 -0.289371 0.682162 0
M  V30 30663 H 2925.75 -0.0520625 1.91429 0
M  V30 30664 H 2924.06 -2.35922 3.12807 0
M  V30 30665 H 2925.75 -2.09663 3.41822 0
M  V30 30666 H 2922.34 -0.890064 4.19256 0
M  V30 30667 H 2926.53 -0.273769 4.95544 0
M  V30 30668 H 2921.78 0.572713 6.08712 0
M  V30 30669 H 2925.96 1.18374 6.86266 0
M  V30 30670 H 2923.58 1.61303 7.4289 0
M  V30 30671 N 2925.16 -1.53445 -0.359498 0
M  V30 30672 C 2926.12 -1.79633 -1.42354 0
M  V30 30673 C 2927.12 -0.66691 -1.46318 0
M  V30 30674 O 2928.31 -0.935139 -1.46972 0
M  V30 30675 C 2925.44 -1.92392 -2.81422 0
M  V30 30676 H 2926.64 -2.74669 -1.20404 0
M  V30 30677 H 2924.19 -1.44615 -0.592982 0
M  V30 30678 H 2924.93 -0.994439 -3.08677 0
M  V30 30679 H 2924.71 -2.74544 -2.79943 0
M  V30 30680 H 2926.2 -2.14224 -3.58466 0
M  V30 30681 N 2926.64 0.619637 -1.44908 0
M  V30 30682 C 2927.88 1.39039 -1.49825 0
M  V30 30683 C 2928.24 1.91547 -0.131837 0
M  V30 30684 O 2929.44 2.68742 -0.0556885 0
M  V30 30685 C 2927.71 2.51626 -2.5381 0
M  V30 30686 S 2929.27 3.39615 -2.77861 0
M  V30 30687 H 2926.09 0.474185 -0.529782 0
M  V30 30688 H 2928.69 0.716204 -1.81909 0
M  V30 30689 H 2927.4 2.11381 -3.51776 0
M  V30 30690 H 2926.93 3.23859 -2.23336 0
M  V30 30691 H 2928.94 4.49419 -2.10327 0
M  V30 30692 N 2928.12 1.31997 0.861075 0
M  V30 30693 C 2929.05 1.22997 1.98479 0
M  V30 30694 C 2930.03 0.115198 1.69709 0
M  V30 30695 O 2931.21 0.301294 1.91849 0
M  V30 30696 C 2928.34 0.945674 3.34177 0
M  V30 30697 C 2927.3 2.02098 3.7728 0
M  V30 30698 C 2926.62 1.58921 5.10537 0
M  V30 30699 C 2927.92 3.43522 3.93433 0
M  V30 30700 H 2929.62 2.17012 2.06268 0
M  V30 30701 H 2927.16 1.04473 0.991025 0
M  V30 30702 H 2929.12 0.869279 4.12337 0
M  V30 30703 H 2927.84 -0.0301275 3.26586 0
M  V30 30704 H 2926.5 2.08742 3.01368 0
M  V30 30705 H 2926.15 0.60103 4.99396 0
M  V30 30706 H 2925.85 2.30864 5.40348 0
M  V30 30707 H 2927.37 1.52706 5.91196 0
M  V30 30708 H 2928.78 3.39503 4.61964 0
M  V30 30709 H 2927.18 4.13759 4.34653 0
M  V30 30710 H 2928.25 3.83655 2.96542 0
M  V30 30711 N 2929.59 -1.07653 1.15103 0
M  V30 30712 C 2930.54 -2.14775 0.844995 0
M  V30 30713 C 2931.51 -1.64882 -0.200769 0
M  V30 30714 O 2932.7 -1.90675 -0.0689943 0
M  V30 30715 C 2929.84 -3.4345 0.337079 0
M  V30 30716 C 2928.95 -4.0715 1.44405 0
M  V30 30717 C 2928.08 -5.23647 0.892579 0
M  V30 30718 C 2927.12 -5.79304 1.9767 0
M  V30 30719 N 2926.26 -6.87136 1.44183 0
M  V30 30720 H 2931.1 -2.40294 1.76246 0
M  V30 30721 H 2928.64 -1.17915 0.879455 0
M  V30 30722 H 2930.6 -4.17193 0.0243293 0
M  V30 30723 H 2929.23 -3.18192 -0.543475 0
M  V30 30724 H 2928.28 -3.31091 1.87305 0
M  V30 30725 H 2929.59 -4.44526 2.26269 0
M  V30 30726 H 2928.74 -6.04361 0.532189 0
M  V30 30727 H 2927.48 -4.87681 0.0430712 0
M  V30 30728 H 2926.49 -4.97238 2.34595 0
M  V30 30729 H 2927.71 -6.17326 2.82993 0
M  V30 30730 H 2925.66 -6.53114 0.614632 0
M  V30 30731 H 2925.58 -7.23379 2.19678 0
M  V30 30732 H 2926.84 -7.71562 1.10959 0
M  V30 30733 N 2931.07 -0.947348 -1.25949 0
M  V30 30734 C 2932 -0.479644 -2.28521 0
M  V30 30735 C 2932.98 0.470264 -1.6347 0
M  V30 30736 O 2934.17 0.370791 -1.90627 0
M  V30 30737 C 2931.3 0.250228 -3.46397 0
M  V30 30738 C 2930.25 -0.613718 -4.23577 0
M  V30 30739 C 2929.58 0.246474 -5.34132 0
M  V30 30740 C 2930.88 -1.88817 -4.86976 0
M  V30 30741 H 2932.57 -1.33692 -2.67893 0
M  V30 30742 H 2930.12 -0.644297 -1.28782 0
M  V30 30743 H 2932.07 0.588502 -4.1727 0
M  V30 30744 H 2930.8 1.1417 -3.05995 0
M  V30 30745 H 2929.45 -0.934973 -3.54477 0
M  V30 30746 H 2929.1 1.13748 -4.8997 0
M  V30 30747 H 2928.8 -0.328227 -5.86683 0
M  V30 30748 H 2930.33 0.579879 -6.0784 0
M  V30 30749 H 2931.74 -1.61676 -5.50031 0
M  V30 30750 H 2930.14 -2.40794 -5.49671 0
M  V30 30751 H 2931.21 -2.59577 -4.0957 0
M  V30 30752 N 2932.55 1.40444 -0.715075 0
M  V30 30753 C 2933.48 2.33373 -0.0769109 0
M  V30 30754 C 2934.46 1.52865 0.746082 0
M  V30 30755 O 2935.65 1.81334 0.69511 0
M  V30 30756 C 2932.78 3.3684 0.845955 0
M  V30 30757 C 2931.73 4.27807 0.128619 0
M  V30 30758 C 2931.06 5.21806 1.16716 0
M  V30 30759 C 2932.36 5.12305 -1.01688 0
M  V30 30760 H 2934.05 2.86988 -0.853112 0
M  V30 30761 H 2931.6 1.37989 -0.411694 0
M  V30 30762 H 2933.55 4.00789 1.30178 0
M  V30 30763 H 2932.27 2.81618 1.65405 0
M  V30 30764 H 2930.93 3.65309 -0.307378 0
M  V30 30765 H 2930.58 4.6289 1.96829 0
M  V30 30766 H 2930.28 5.8351 0.692085 0
M  V30 30767 H 2931.8 5.88632 1.6231 0
M  V30 30768 H 2933.22 5.69712 -0.640437 0
M  V30 30769 H 2931.62 5.8305 -1.4203 0
M  V30 30770 H 2932.69 4.48314 -1.84777 0
M  V30 30771 N 2934.03 0.461222 1.507 0
M  V30 30772 C 2934.96 -0.328144 2.31183 0
M  V30 30773 C 2935.94 -0.999384 1.37646 0
M  V30 30774 O 2937.12 -0.998451 1.66567 0
M  V30 30775 C 2934.25 -1.41615 3.17116 0
M  V30 30776 C 2933.21 -0.867074 4.19125 0
M  V30 30777 C 2932.53 -2.05263 4.93732 0
M  V30 30778 C 2933.83 0.1149 5.22174 0
M  V30 30779 H 2935.53 0.343553 2.97422 0
M  V30 30780 H 2933.07 0.166666 1.43032 0
M  V30 30781 H 2935.03 -1.97578 3.72211 0
M  V30 30782 H 2933.75 -2.11648 2.48742 0
M  V30 30783 H 2932.41 -0.329493 3.65116 0
M  V30 30784 H 2932.06 -2.73971 4.2184 0
M  V30 30785 H 2931.76 -1.69151 5.62727 0
M  V30 30786 H 2933.28 -2.61734 5.51659 0
M  V30 30787 H 2934.7 -0.355215 5.72198 0
M  V30 30788 H 2933.09 0.389794 5.98833 0
M  V30 30789 H 2934.16 1.044 4.73528 0
M  V30 30790 N 2935.51 -1.56408 0.193449 0
M  V30 30791 C 2936.42 -2.22621 -0.740073 0
M  V30 30792 C 2937.43 -1.22476 -1.23594 0
M  V30 30793 O 2938.61 -1.55208 -1.28345 0
M  V30 30794 C 2935.67 -2.8713 -1.94312 0
M  V30 30795 C 2934.73 -4.0254 -1.49198 0
M  V30 30796 C 2933.97 -4.63964 -2.63768 0
M  V30 30797 O 2934.19 -4.24308 -3.81208 0
M  V30 30798 O 2933.12 -5.53458 -2.36575 0
M  V30 30799 H 2936.95 -3.02999 -0.206184 0
M  V30 30800 H 2934.54 -1.49357 -0.0357676 0
M  V30 30801 H 2936.42 -3.27949 -2.64627 0
M  V30 30802 H 2935.09 -2.09732 -2.46564 0
M  V30 30803 H 2934 -3.66347 -0.757673 0
M  V30 30804 H 2935.33 -4.81597 -1.01614 0
M  V30 30805 N 2936.98 0.0801629 -1.57396 0
M  V30 30806 C 2937.93 1.09614 -2.03109 0
M  V30 30807 C 2938.9 1.38945 -0.910142 0
M  V30 30808 O 2940.09 1.50154 -1.17721 0
M  V30 30809 C 2937.23 2.40703 -2.47297 0
M  V30 30810 C 2936.34 2.17975 -3.72976 0
M  V30 30811 C 2935.47 3.42569 -4.05981 0
M  V30 30812 C 2934.51 3.15168 -5.24724 0
M  V30 30813 N 2933.65 4.32069 -5.53409 0
M  V30 30814 H 2938.49 0.699339 -2.89678 0
M  V30 30815 H 2936.03 0.33376 -1.43264 0
M  V30 30816 H 2937.99 3.17227 -2.70966 0
M  V30 30817 H 2936.62 2.78202 -1.63718 0
M  V30 30818 H 2935.67 1.32183 -3.56696 0
M  V30 30819 H 2936.98 1.9373 -4.59641 0
M  V30 30820 H 2936.13 4.27493 -4.30505 0
M  V30 30821 H 2934.87 3.69882 -3.17866 0
M  V30 30822 H 2933.88 2.28639 -5.00004 0
M  V30 30823 H 2935.1 2.89186 -6.1445 0
M  V30 30824 H 2933.05 4.59429 -4.68253 0
M  V30 30825 H 2932.97 4.11067 -6.34476 0
M  V30 30826 H 2934.23 5.18014 -5.82479 0
M  V30 30827 N 2938.46 1.53634 0.351355 0
M  V30 30828 C 2939.39 1.84057 1.43684 0
M  V30 30829 C 2940.37 0.6951 1.55249 0
M  V30 30830 O 2941.56 0.946287 1.69585 0
M  V30 30831 C 2938.69 2.0432 2.80839 0
M  V30 30832 C 2937.64 3.20122 2.84088 0
M  V30 30833 C 2936.97 3.25703 4.24054 0
M  V30 30834 C 2938.27 4.58404 2.50326 0
M  V30 30835 H 2939.96 2.74963 1.18473 0
M  V30 30836 H 2937.51 1.32304 0.568486 0
M  V30 30837 H 2939.46 2.24187 3.56817 0
M  V30 30838 H 2938.19 1.10137 3.07469 0
M  V30 30839 H 2936.84 3.00098 2.10563 0
M  V30 30840 H 2936.49 2.29131 4.47781 0
M  V30 30841 H 2936.19 4.03516 4.2714 0
M  V30 30842 H 2937.72 3.47771 5.01884 0
M  V30 30843 H 2939.13 4.78337 3.16017 0
M  V30 30844 H 2937.53 5.38563 2.64708 0
M  V30 30845 H 2938.6 4.62545 1.45534 0
M  V30 30846 N 2939.94 -0.611943 1.45234 0
M  V30 30847 C 2941.19 -1.36836 1.48729 0
M  V30 30848 C 2941.51 -1.94575 0.12865 0
M  V30 30849 O 2940.78 -1.76908 -0.841459 0
M  V30 30850 H 2939.36 -0.507966 0.547704 0
M  V30 30851 H 2942.02 -0.718893 1.81157 0
M  V30 30852 H 2941.12 -2.18999 2.22364 0
M  V30 30853 N 2941.42 -1.32452 -0.854063 0
M  V30 30854 C 2942.65 -1.25865 -1.63834 0
M  V30 30855 C 2943.06 0.175555 -1.88384 0
M  V30 30856 O 2942.4 1.12328 -1.45355 0
M  V30 30857 C 2942.46 -1.94929 -3.02065 0
M  V30 30858 C 2942.13 -3.44262 -3.00554 0
M  V30 30859 C 2943.12 -4.39736 -2.7736 0
M  V30 30860 C 2940.81 -3.86206 -3.21171 0
M  V30 30861 C 2942.8 -5.75127 -2.74787 0
M  V30 30862 C 2940.49 -5.21705 -3.18224 0
M  V30 30863 C 2941.49 -6.15977 -2.95061 0
M  V30 30864 O 2941.17 -7.48997 -2.9199 0
M  V30 30865 H 2940.91 -0.435532 -0.516999 0
M  V30 30866 H 2943.46 -1.75139 -1.07311 0
M  V30 30867 H 2941.69 -1.40225 -3.6038 0
M  V30 30868 H 2943.38 -1.82043 -3.62788 0
M  V30 30869 H 2944.15 -4.08657 -2.61198 0
M  V30 30870 H 2940.02 -3.13249 -3.38225 0
M  V30 30871 H 2943.57 -6.48682 -2.56626 0
M  V30 30872 H 2939.47 -5.52413 -3.33931 0
M  V30 30873 H 2940.23 -7.58364 -3.0794 0
M  V30 30874 N 2942.9 1.07041 -1.15672 0
M  V30 30875 C 2944.13 1.83411 -0.957503 0
M  V30 30876 C 2944.54 1.82216 0.494239 0
M  V30 30877 O 2943.9 1.23586 1.34286 0
M  V30 30878 C 2943.95 3.30356 -1.4679 0
M  V30 30879 O 2943.67 3.31628 -2.86277 0
M  V30 30880 C 2945.17 4.23483 -1.31061 0
M  V30 30881 H 2942.39 0.578558 -0.33987 0
M  V30 30882 H 2944.93 1.35099 -1.5352 0
M  V30 30883 H 2943.09 3.76006 -0.932652 0
M  V30 30884 H 2943.5 4.23459 -3.09487 0
M  V30 30885 H 2944.98 5.24645 -1.71614 0
M  V30 30886 H 2945.45 4.38458 -0.255185 0
M  V30 30887 H 2946.06 3.83672 -1.83509 0
M  V30 30888 N 2944.38 0.954014 1.25445 0
M  V30 30889 C 2945.33 0.444452 2.23626 0
M  V30 30890 C 2946.31 -0.465966 1.54005 0
M  V30 30891 O 2947.5 -0.299119 1.74454 0
M  V30 30892 C 2944.63 -0.277115 3.4218 0
M  V30 30893 C 2943.72 0.651337 4.19069 0
M  V30 30894 N 2944.11 1.78271 4.73343 0
M  V30 30895 C 2942.41 0.459416 4.43628 0
M  V30 30896 C 2943.11 2.36233 5.31572 0
M  V30 30897 N 2942.08 1.64893 5.17988 0
M  V30 30898 H 2945.88 1.3079 2.63194 0
M  V30 30899 H 2943.4 0.811427 1.40676 0
M  V30 30900 H 2945.4 -0.659294 4.11654 0
M  V30 30901 H 2944.06 -1.13717 3.04136 0
M  V30 30902 H 2945.07 2.16458 4.70496 0
M  V30 30903 H 2941.74 -0.357812 4.15964 0
M  V30 30904 H 2943.13 3.3163 5.84355 0
M  V30 30905 N 2945.85 -1.40063 0.722513 0
M  V30 30906 C 2946.8 -2.3068 0.0744144 0
M  V30 30907 C 2947.77 -1.48557 -0.742978 0
M  V30 30908 O 2948.96 -1.77277 -0.705505 0
M  V30 30909 C 2946.1 -3.34815 -0.836233 0
M  V30 30910 C 2945.21 -4.31999 -0.00757069 0
M  V30 30911 C 2944.34 -5.23202 -0.918336 0
M  V30 30912 C 2943.38 -6.12042 -0.0841763 0
M  V30 30913 N 2942.52 -6.95641 -0.950193 0
M  V30 30914 H 2947.36 -2.85536 0.852844 0
M  V30 30915 H 2944.9 -1.40606 0.432247 0
M  V30 30916 H 2946.85 -3.93767 -1.37853 0
M  V30 30917 H 2945.48 -2.81445 -1.58077 0
M  V30 30918 H 2944.54 -3.74771 0.651994 0
M  V30 30919 H 2945.85 -4.94704 0.637947 0
M  V30 30920 H 2945 -5.87119 -1.52892 0
M  V30 30921 H 2943.74 -4.60789 -1.59766 0
M  V30 30922 H 2942.75 -5.47149 0.539296 0
M  V30 30923 H 2943.97 -6.76517 0.591747 0
M  V30 30924 H 2941.92 -6.35809 -1.61504 0
M  V30 30925 H 2941.83 -7.55138 -0.360872 0
M  V30 30926 H 2943.1 -7.64 -1.54674 0
M  V30 30927 N 2947.33 -0.469207 -1.50453 0
M  V30 30928 C 2948.24 0.331308 -2.32249 0
M  V30 30929 C 2949.26 0.997782 -1.42549 0
M  V30 30930 O 2950.43 0.986169 -1.75604 0
M  V30 30931 C 2947.5 1.40007 -3.17173 0
M  V30 30932 C 2946.56 0.750389 -4.22691 0
M  V30 30933 C 2945.79 1.76822 -5.03557 0
M  V30 30934 O 2946.02 2.99451 -4.85474 0
M  V30 30935 O 2944.95 1.34109 -5.86769 0
M  V30 30936 H 2948.78 -0.337332 -3.01821 0
M  V30 30937 H 2946.36 -0.231092 -1.47602 0
M  V30 30938 H 2948.24 2.01918 -3.69875 0
M  V30 30939 H 2946.92 2.05221 -2.50332 0
M  V30 30940 H 2945.82 0.0923789 -3.73986 0
M  V30 30941 H 2947.16 0.141223 -4.91997 0
M  V30 30942 N 2948.81 1.56303 -0.201741 0
M  V30 30943 C 2950.04 2.02152 0.440688 0
M  V30 30944 C 2950.45 1.08182 1.54733 0
M  V30 30945 O 2949.81 0.0878517 1.82288 0
M  V30 30946 C 2949.86 3.47656 0.990823 0
M  V30 30947 O 2949.58 4.38041 -0.0716707 0
M  V30 30948 C 2951.08 4.09055 1.70847 0
M  V30 30949 H 2948.3 0.661926 0.109975 0
M  V30 30950 H 2950.85 2.021 -0.312394 0
M  V30 30951 H 2949 3.48387 1.69426 0
M  V30 30952 H 2949.42 5.23405 0.3388 0
M  V30 30953 H 2950.89 5.12697 2.04563 0
M  V30 30954 H 2951.37 3.52899 2.61456 0
M  V30 30955 H 2951.97 4.12116 1.05072 0
M  V30 30956 N 2950.29 -0.0718147 1.57436 0
M  V30 30957 C 2951.24 -1.10407 2.04727 0
M  V30 30958 C 2952.23 -1.40078 0.952604 0
M  V30 30959 O 2953.44 -1.39485 1.13771 0
M  V30 30960 H 2949.81 -0.373382 0.652756 0
M  V30 30961 H 2951.78 -0.679075 2.9057 0
M  V30 30962 C 2950.53 -2.40941 2.50684 0
M  V30 30963 H 2949.85 -2.18961 3.34509 0
M  V30 30964 H 2951.29 -3.11616 2.87526 0
M  V30 30965 C 2949.75 -3.06899 1.38976 0
M  V30 30966 O 2950.28 -3.94977 0.731855 0
M  V30 30967 N 2948.49 -2.67523 1.1349 0
M  V30 30968 H 2948.04 -1.95989 1.67171 0
M  V30 30969 H 2947.99 -3.11978 0.389522 0
M  V30 30970 N 2951.77 -1.53818 -0.343203 0
M  V30 30971 C 2953 -1.74765 -1.10185 0
M  V30 30972 C 2953.4 -0.486889 -1.82828 0
M  V30 30973 O 2952.75 0.551167 -1.75237 0
M  V30 30974 C 2952.81 -2.87379 -2.15995 0
M  V30 30975 C 2952.47 -4.26972 -1.62924 0
M  V30 30976 C 2953.47 -5.08529 -1.08138 0
M  V30 30977 C 2951.15 -4.73457 -1.6776 0
M  V30 30978 C 2953.15 -6.34673 -0.588927 0
M  V30 30979 C 2950.84 -5.99574 -1.18127 0
M  V30 30980 C 2951.83 -6.80015 -0.63786 0
M  V30 30981 O 2951.52 -8.03762 -0.148931 0
M  V30 30982 H 2951.25 -0.587475 -0.334439 0
M  V30 30983 H 2953.81 -2.01446 -0.401073 0
M  V30 30984 H 2952.04 -2.56223 -2.89632 0
M  V30 30985 H 2953.73 -2.96292 -2.77427 0
M  V30 30986 H 2954.49 -4.73779 -1.03723 0
M  V30 30987 H 2950.37 -4.10903 -2.08997 0
M  V30 30988 H 2953.92 -6.97407 -0.16411 0
M  V30 30989 H 2949.81 -6.33819 -1.22243 0
M  V30 30990 H 2950.58 -8.18067 -0.266188 0
M  V30 30991 N 2953.24 0.604233 -1.45557 0
M  V30 30992 C 2954.49 1.35925 -1.49021 0
M  V30 30993 C 2954.81 1.95117 -0.137443 0
M  V30 30994 O 2956.01 2.71454 -0.0497509 0
M  V30 30995 C 2954.47 2.46234 -2.62482 0
M  V30 30996 C 2954.08 1.9344 -4.04085 0
M  V30 30997 C 2955.82 3.23215 -2.75196 0
M  V30 30998 C 2953.73 3.01251 -5.08922 0
M  V30 30999 H 2952.66 0.510897 -0.554527 0
M  V30 31000 H 2955.31 0.647232 -1.71707 0
M  V30 31001 H 2953.69 3.20136 -2.33085 0
M  V30 31002 H 2954.86 1.26224 -4.43175 0
M  V30 31003 H 2953.18 1.29194 -3.95851 0
M  V30 31004 H 2955.78 4.03634 -3.5069 0
M  V30 31005 H 2956.12 3.74434 -1.81947 0
M  V30 31006 H 2956.65 2.56413 -3.04134 0
M  V30 31007 H 2953.39 2.54944 -6.0389 0
M  V30 31008 H 2952.91 3.67022 -4.74399 0
M  V30 31009 H 2954.59 3.65575 -5.3382 0
M  V30 31010 N 2954.72 1.32903 0.847027 0
M  V30 31011 C 2956 1.14506 1.58581 0
M  V30 31012 C 2956.38 -0.291687 2.09075 0
M  V30 31013 O 2955.73 -1.28949 1.88638 0
M  V30 31014 C 2955.94 2.17921 2.72601 0
M  V30 31015 C 2957.28 2.51652 3.41989 0
M  V30 31016 O 2958.31 2.16525 2.82834 0
M  V30 31017 O 2957.17 3.11898 4.48756 0
M  V30 31018 H 2954.26 0.442357 0.698748 0
M  V30 31019 H 2956.81 1.44459 0.890491 0
M  V30 31020 H 2955.58 3.14463 2.3287 0
M  V30 31021 H 2955.2 1.89006 3.49803 0
M  V30 31022 N 2956.2 -1.06426 1.16238 0
M  V30 31023 C 2957.43 -1.82635 0.965814 0
M  V30 31024 C 2957.84 -1.82765 -0.489252 0
M  V30 31025 O 2957.18 -1.2444 -1.35131 0
M  V30 31026 C 2957.24 -3.30497 1.41464 0
M  V30 31027 C 2956.91 -3.54072 2.88933 0
M  V30 31028 C 2957.9 -3.47231 3.86945 0
M  V30 31029 C 2955.59 -3.81436 3.26821 0
M  V30 31030 C 2957.58 -3.67419 5.20847 0
M  V30 31031 C 2955.27 -4.01274 4.60893 0
M  V30 31032 C 2956.27 -3.94262 5.57715 0
M  V30 31033 O 2955.96 -4.13561 6.89364 0
M  V30 31034 H 2955.69 -0.582766 0.342579 0
M  V30 31035 H 2958.24 -1.35184 1.54643 0
M  V30 31036 H 2956.47 -3.78803 0.777492 0
M  V30 31037 H 2958.16 -3.88196 1.1857 0
M  V30 31038 H 2958.93 -3.26082 3.5902 0
M  V30 31039 H 2954.81 -3.86003 2.52036 0
M  V30 31040 H 2958.35 -3.61862 5.96407 0
M  V30 31041 H 2954.25 -4.21912 4.88529 0
M  V30 31042 H 2955.01 -4.30857 6.9592 0
M  V30 31043 N 2957.68 -0.960653 -1.24937 0
M  V30 31044 C 2958.61 -0.503855 -2.27999 0
M  V30 31045 C 2959.59 0.4529 -1.6396 0
M  V30 31046 O 2960.77 0.350552 -1.9101 0
M  V30 31047 C 2957.9 0.213474 -3.46643 0
M  V30 31048 C 2956.86 -0.658609 -4.22902 0
M  V30 31049 C 2956.18 0.189808 -5.34363 0
M  V30 31050 C 2957.48 -1.93972 -4.84946 0
M  V30 31051 H 2959.18 -1.36526 -2.6646 0
M  V30 31052 H 2956.72 -0.65792 -1.28091 0
M  V30 31053 H 2958.68 0.544212 -4.17871 0
M  V30 31054 H 2957.4 1.10918 -3.07189 0
M  V30 31055 H 2956.06 -0.972517 -3.53465 0
M  V30 31056 H 2955.71 1.08545 -4.91149 0
M  V30 31057 H 2955.41 -0.390434 -5.86301 0
M  V30 31058 H 2956.93 0.515377 -6.08421 0
M  V30 31059 H 2958.35 -1.67501 -5.48285 0
M  V30 31060 H 2956.74 -2.4661 -5.47086 0
M  V30 31061 H 2957.81 -2.63907 -4.06794 0
M  V30 31062 N 2959.16 1.39677 -0.729931 0
M  V30 31063 C 2960.4 2.02469 -0.280268 0
M  V30 31064 C 2960.76 1.5666 1.11003 0
M  V30 31065 O 2961.96 2.11615 1.65749 0
M  V30 31066 C 2960.23 3.55448 -0.372984 0
M  V30 31067 S 2961.79 4.388 -0.00241687 0
M  V30 31068 H 2958.61 0.702416 -0.110151 0
M  V30 31069 H 2961.21 1.70569 -0.955326 0
M  V30 31070 H 2959.92 3.8628 -1.38622 0
M  V30 31071 H 2959.45 3.92096 0.320067 0
M  V30 31072 H 2961.46 4.81086 1.21535 0
M  V30 31073 N 2960.63 0.47718 1.50202 0
M  V30 31074 C 2961.58 -0.327785 2.30279 0
M  V30 31075 C 2962.58 -0.984815 1.37832 0
M  V30 31076 O 2963.78 -0.915224 1.54996 0
M  V30 31077 H 2960.16 -0.124551 0.741614 0
M  V30 31078 H 2962.13 0.367905 2.96123 0
M  V30 31079 C 2960.88 -1.39359 3.1855 0
M  V30 31080 H 2960.2 -0.897407 3.89598 0
M  V30 31081 H 2961.64 -1.92928 3.77564 0
M  V30 31082 C 2960.1 -2.39885 2.36552 0
M  V30 31083 O 2960.63 -3.45282 2.05288 0
M  V30 31084 N 2958.84 -2.11754 1.99019 0
M  V30 31085 H 2958.38 -1.26067 2.24644 0
M  V30 31086 H 2958.34 -2.79247 1.44459 0
M  V30 31087 N 2962.11 -1.56194 0.210027 0
M  V30 31088 C 2963.34 -2.02829 -0.433028 0
M  V30 31089 C 2963.76 -1.08903 -1.53368 0
M  V30 31090 O 2963.12 -0.075145 -1.81144 0
M  V30 31091 C 2963.17 -3.47791 -0.952574 0
M  V30 31092 O 2962.27 -3.56997 -2.06463 0
M  V30 31093 H 2961.61 -0.656511 -0.0994479 0
M  V30 31094 H 2964.14 -2.01998 0.325285 0
M  V30 31095 H 2964.15 -3.87882 -1.26536 0
M  V30 31096 H 2962.83 -4.1564 -0.146934 0
M  V30 31097 H 2961.41 -3.28787 -1.75936 0
M  V30 31098 N 2963.59 0.0634645 -1.57472 0
M  V30 31099 C 2964.54 1.08163 -2.00711 0
M  V30 31100 C 2965.52 1.34009 -0.890522 0
M  V30 31101 O 2966.72 1.3417 -1.15444 0
M  V30 31102 C 2963.85 2.39299 -2.46153 0
M  V30 31103 C 2962.93 2.1669 -3.64563 0
M  V30 31104 N 2963.32 1.64035 -4.78462 0
M  V30 31105 C 2961.62 2.47128 -3.71273 0
M  V30 31106 C 2962.32 1.56436 -5.6027 0
M  V30 31107 N 2961.3 2.02783 -5.04361 0
M  V30 31108 H 2965.1 0.667966 -2.86209 0
M  V30 31109 H 2962.61 0.270398 -1.60133 0
M  V30 31110 H 2964.61 3.13011 -2.75372 0
M  V30 31111 H 2963.27 2.81374 -1.62045 0
M  V30 31112 H 2964.28 1.32782 -5.00589 0
M  V30 31113 H 2960.96 2.92513 -2.97897 0
M  V30 31114 H 2962.35 1.16507 -6.61722 0
M  V30 31115 N 2965.07 1.53998 0.33504 0
M  V30 31116 C 2966.02 1.78963 1.41267 0
M  V30 31117 C 2967 0.645156 1.47399 0
M  V30 31118 O 2968.19 0.904812 1.52125 0
M  V30 31119 C 2965.32 2.01023 2.78289 0
M  V30 31120 C 2964.41 3.21559 2.76515 0
M  V30 31121 N 2964.8 4.42853 2.44366 0
M  V30 31122 C 2963.1 3.22901 3.07654 0
M  V30 31123 C 2963.8 5.24742 2.5104 0
M  V30 31124 N 2962.78 4.61655 2.87012 0
M  V30 31125 H 2966.58 2.70329 1.15322 0
M  V30 31126 H 2964.09 1.53037 0.543456 0
M  V30 31127 H 2966.09 2.17045 3.55945 0
M  V30 31128 H 2964.75 1.10903 3.05173 0
M  V30 31129 H 2965.76 4.70055 2.17414 0
M  V30 31130 H 2962.44 2.42777 3.39655 0
M  V30 31131 H 2963.83 6.31573 2.29272 0
M  V30 31132 N 2966.55 -0.596505 1.45875 0
M  V30 31133 C 2967.48 -1.71702 1.58243 0
M  V30 31134 C 2968.46 -1.64486 0.433395 0
M  V30 31135 O 2969.64 -1.82716 0.657927 0
M  V30 31136 C 2966.77 -3.10326 1.55932 0
M  V30 31137 C 2965.73 -3.32362 2.69665 0
M  V30 31138 C 2965.05 -4.71373 2.52412 0
M  V30 31139 C 2966.35 -3.21536 4.11597 0
M  V30 31140 H 2968.05 -1.61608 2.52038 0
M  V30 31141 H 2965.59 -0.776061 1.21298 0
M  V30 31142 H 2967.55 -3.88523 1.6318 0
M  V30 31143 H 2966.27 -3.21287 0.586731 0
M  V30 31144 H 2964.93 -2.5656 2.61864 0
M  V30 31145 H 2964.58 -4.79081 1.53267 0
M  V30 31146 H 2964.28 -4.87071 3.28687 0
M  V30 31147 H 2965.8 -5.51756 2.6153 0
M  V30 31148 H 2967.21 -3.89594 4.20582 0
M  V30 31149 H 2965.61 -3.48761 4.8835 0
M  V30 31150 H 2966.68 -2.18812 4.32723 0
M  V30 31151 N 2968.02 -1.3335 -0.839967 0
M  V30 31152 C 2969.25 -1.27596 -1.6249 0
M  V30 31153 C 2969.66 0.155564 -1.88559 0
M  V30 31154 O 2969.01 1.1078 -1.46539 0
M  V30 31155 C 2969.07 -1.98121 -2.9998 0
M  V30 31156 C 2968.73 -3.4743 -2.96886 0
M  V30 31157 C 2969.73 -4.42653 -2.7268 0
M  V30 31158 C 2967.41 -3.8959 -3.17056 0
M  V30 31159 C 2969.41 -5.78009 -2.68671 0
M  V30 31160 C 2967.09 -5.25051 -3.12673 0
M  V30 31161 C 2968.09 -6.19072 -2.88511 0
M  V30 31162 O 2967.78 -7.52052 -2.84029 0
M  V30 31163 H 2967.51 -0.440991 -0.512351 0
M  V30 31164 H 2970.07 -1.76267 -1.05447 0
M  V30 31165 H 2968.3 -1.4404 -3.58872 0
M  V30 31166 H 2969.99 -1.85881 -3.60837 0
M  V30 31167 H 2970.75 -4.11405 -2.56849 0
M  V30 31168 H 2966.63 -3.16818 -3.34884 0
M  V30 31169 H 2970.17 -6.51368 -2.49732 0
M  V30 31170 H 2966.07 -5.55924 -3.28053 0
M  V30 31171 H 2966.84 -7.61587 -2.99879 0
M  V30 31172 N 2969.5 1.05808 -1.16801 0
M  V30 31173 C 2970.92 1.30839 -0.913958 0
M  V30 31174 C 2971.12 1.9685 0.430404 0
M  V30 31175 O 2970.17 2.23819 1.16881 0
M  V30 31176 C 2971.49 2.18426 -2.06666 0
M  V30 31177 C 2973.04 2.31827 -2.10298 0
M  V30 31178 C 2973.51 3.2277 -3.24936 0
M  V30 31179 N 2975 3.30355 -3.24684 0
M  V30 31180 C 2975.74 4.0083 -4.10028 0
M  V30 31181 N 2975.23 4.73786 -5.05469 0
M  V30 31182 N 2977.03 3.9693 -3.97998 0
M  V30 31183 H 2969.18 0.613577 -2.03345 0
M  V30 31184 H 2971.44 0.333117 -0.887545 0
M  V30 31185 H 2971.15 1.77206 -3.03794 0
M  V30 31186 H 2971.02 3.19034 -2.01239 0
M  V30 31187 H 2973.41 2.72292 -1.13759 0
M  V30 31188 H 2973.49 1.30869 -2.19788 0
M  V30 31189 H 2973.13 2.83021 -4.21736 0
M  V30 31190 H 2973.06 4.23719 -3.12682 0
M  V30 31191 H 2975.55 2.78368 -2.55577 0
M  V30 31192 H 2975.87 5.25103 -5.66998 0
M  V30 31193 H 2974.21 4.72749 -5.09444 0
M  V30 31194 H 2977.4 3.39057 -3.22736 0
M  V30 31195 H 2977.57 4.51586 -4.6473 0
M  V30 31196 N 2970.98 0.967265 1.24426 0
M  V30 31197 C 2972.26 0.545809 1.8783 0
M  V30 31198 C 2972.64 -0.977066 1.87127 0
M  V30 31199 O 2971.99 -1.84823 1.3436 0
M  V30 31200 C 2972.2 1.13684 3.29965 0
M  V30 31201 C 2973.54 1.22147 4.06651 0
M  V30 31202 O 2974.57 1.08932 3.39134 0
M  V30 31203 O 2973.43 1.43027 5.27452 0
M  V30 31204 H 2970.52 0.181926 0.806741 0
M  V30 31205 H 2973.07 1.06151 1.32401 0
M  V30 31206 H 2971.84 2.17963 3.24973 0
M  V30 31207 H 2971.46 0.605163 3.92968 0
M  V30 31208 N 2972.46 -1.39288 0.737328 0
M  V30 31209 C 2973.41 -2.30588 0.0988769 0
M  V30 31210 C 2974.38 -1.49336 -0.727179 0
M  V30 31211 O 2975.56 -1.78016 -0.686663 0
M  V30 31212 C 2972.7 -3.35683 -0.800675 0
M  V30 31213 C 2971.81 -4.31983 0.038249 0
M  V30 31214 C 2970.95 -5.24146 -0.862792 0
M  V30 31215 C 2969.99 -6.12097 -0.0192563 0
M  V30 31216 N 2969.13 -6.96609 -0.876358 0
M  V30 31217 H 2973.97 -2.84615 0.883081 0
M  V30 31218 H 2971.5 -1.4014 0.447136 0
M  V30 31219 H 2973.46 -3.95207 -1.33669 0
M  V30 31220 H 2972.09 -2.83106 -1.55083 0
M  V30 31221 H 2971.14 -3.74058 0.691707 0
M  V30 31222 H 2972.45 -4.93999 0.690381 0
M  V30 31223 H 2971.61 -5.88708 -1.46656 0
M  V30 31224 H 2970.35 -4.62457 -1.5487 0
M  V30 31225 H 2969.35 -5.46546 0.597298 0
M  V30 31226 H 2970.58 -6.75851 0.663467 0
M  V30 31227 H 2968.52 -6.37486 -1.54751 0
M  V30 31228 H 2968.44 -7.55478 -0.280759 0
M  V30 31229 H 2969.71 -7.65598 -1.46562 0
M  V30 31230 N 2973.94 -0.485139 -1.49947 0
M  V30 31231 C 2974.89 0.320618 -2.25734 0
M  V30 31232 C 2975.87 0.94935 -1.29908 0
M  V30 31233 O 2977.06 0.859574 -1.54727 0
M  V30 31234 C 2974.19 1.39385 -3.1373 0
M  V30 31235 C 2973.28 0.772152 -4.17012 0
M  V30 31236 N 2973.67 -0.115871 -5.05667 0
M  V30 31237 C 2971.97 1.03453 -4.33836 0
M  V30 31238 C 2972.67 -0.470142 -5.79797 0
M  V30 31239 N 2971.64 0.158109 -5.4337 0
M  V30 31240 H 2975.45 -0.363241 -2.91647 0
M  V30 31241 H 2972.96 -0.300182 -1.59602 0
M  V30 31242 H 2974.96 1.9844 -3.66643 0
M  V30 31243 H 2973.62 2.07955 -2.49368 0
M  V30 31244 H 2974.63 -0.485647 -5.15618 0
M  V30 31245 H 2971.31 1.71417 -3.80687 0
M  V30 31246 H 2972.7 -1.1957 -6.61175 0
M  V30 31247 N 2975.42 1.56081 -0.218307 0
M  V30 31248 C 2976.65 2.02315 0.418614 0
M  V30 31249 C 2977.05 1.09741 1.54122 0
M  V30 31250 O 2976.4 0.0987151 1.83435 0
M  V30 31251 C 2976.46 3.44894 1.01433 0
M  V30 31252 C 2976.12 4.56992 0.027572 0
M  V30 31253 C 2977.12 5.14142 -0.771617 0
M  V30 31254 C 2974.8 5.02219 -0.0902419 0
M  V30 31255 C 2976.8 6.14988 -1.67536 0
M  V30 31256 C 2974.49 6.02904 -0.997517 0
M  V30 31257 C 2975.48 6.59164 -1.78862 0
M  V30 31258 O 2975.17 7.57889 -2.68065 0
M  V30 31259 H 2974.9 0.667469 0.107054 0
M  V30 31260 H 2977.46 2.02712 -0.331227 0
M  V30 31261 H 2975.69 3.41555 1.8132 0
M  V30 31262 H 2977.38 3.74795 1.55831 0
M  V30 31263 H 2978.14 4.80052 -0.691029 0
M  V30 31264 H 2974.02 4.5811 0.515394 0
M  V30 31265 H 2977.57 6.58828 -2.29327 0
M  V30 31266 H 2973.46 6.36416 -1.07913 0
M  V30 31267 H 2974.23 7.75399 -2.62104 0
M  V30 31268 N 2976.89 -0.0551124 1.57504 0
M  V30 31269 C 2978.14 -0.751071 1.88056 0
M  V30 31270 C 2978.47 -1.76727 0.812262 0
M  V30 31271 O 2977.72 -1.94777 -0.189883 0
M  V30 31272 C 2978.02 -1.48007 3.25313 0
M  V30 31273 C 2977.69 -0.602296 4.46859 0
M  V30 31274 C 2976.35 -0.360451 4.79848 0
M  V30 31275 C 2978.7 0.00533208 5.212 0
M  V30 31276 C 2976.03 0.498229 5.84581 0
M  V30 31277 C 2978.38 0.851563 6.26842 0
M  V30 31278 C 2977.05 1.10312 6.58322 0
M  V30 31279 H 2976.32 -0.274836 0.688147 0
M  V30 31280 H 2978.96 -0.0114458 1.91497 0
M  V30 31281 H 2977.27 -2.29234 3.17741 0
M  V30 31282 H 2978.97 -2.02365 3.46193 0
M  V30 31283 H 2975.56 -0.800933 4.2105 0
M  V30 31284 H 2979.74 -0.168595 4.96014 0
M  V30 31285 H 2975 0.701701 6.0736 0
M  V30 31286 H 2979.17 1.32905 6.836 0
M  V30 31287 H 2976.8 1.77024 7.39301 0
M  V30 31288 N 2978.37 -1.54173 -0.326869 0
M  V30 31289 C 2979.28 -1.86346 -1.42522 0
M  V30 31290 C 2980.3 -0.755078 -1.56763 0
M  V30 31291 O 2981.47 -1.04904 -1.71922 0
M  V30 31292 C 2978.54 -2.08124 -2.77282 0
M  V30 31293 C 2977.6 -3.31936 -2.72245 0
M  V30 31294 C 2976.83 -3.52666 -4.00578 0
M  V30 31295 O 2977.06 -2.769 -4.98681 0
M  V30 31296 O 2975.99 -4.46136 -4.04037 0
M  V30 31297 H 2979.82 -2.79736 -1.18244 0
M  V30 31298 H 2977.4 -1.40037 -0.520589 0
M  V30 31299 H 2979.28 -2.23797 -3.57061 0
M  V30 31300 H 2977.96 -1.17922 -3.01457 0
M  V30 31301 H 2976.86 -3.21651 -1.91028 0
M  V30 31302 H 2978.2 -4.22184 -2.53024 0
M  V30 31303 N 2979.85 0.58876 -1.4619 0
M  V30 31304 C 2981.27 0.911501 -1.31011 0
M  V30 31305 C 2981.47 1.99586 -0.277053 0
M  V30 31306 O 2980.52 2.50432 0.322488 0
M  V30 31307 C 2981.83 1.33459 -2.69461 0
M  V30 31308 C 2983.38 1.44777 -2.77504 0
M  V30 31309 C 2983.86 1.90454 -4.16523 0
M  V30 31310 N 2985.35 1.97657 -4.1891 0
M  V30 31311 C 2986.08 2.34262 -5.23363 0
M  V30 31312 N 2985.58 2.69702 -6.38148 0
M  V30 31313 N 2987.37 2.34765 -5.10727 0
M  V30 31314 H 2979.52 -0.127651 -2.12016 0
M  V30 31315 H 2981.79 0.00555933 -0.947984 0
M  V30 31316 H 2981.49 0.611868 -3.46337 0
M  V30 31317 H 2981.37 2.29734 -2.99169 0
M  V30 31318 H 2983.75 2.16136 -2.00921 0
M  V30 31319 H 2983.83 0.467679 -2.51488 0
M  V30 31320 H 2983.48 1.19675 -4.93599 0
M  V30 31321 H 2983.41 2.8941 -4.39942 0
M  V30 31322 H 2985.9 1.72783 -3.36087 0
M  V30 31323 H 2986.21 2.96569 -7.13629 0
M  V30 31324 H 2984.56 2.67355 -6.41519 0
M  V30 31325 H 2987.75 2.06496 -4.20092 0
M  V30 31326 H 2987.92 2.62965 -5.92245 0
M  V30 31327 N 2981.33 1.33794 0.832883 0
M  V30 31328 C 2982.58 1.25341 1.58537 0
M  V30 31329 C 2982.9 -0.17917 1.94175 0
M  V30 31330 O 2982.17 -1.10938 1.6146 0
M  V30 31331 H 2980.75 0.460936 0.587832 0
M  V30 31332 H 2983.41 1.67586 0.995035 0
M  V30 31333 H 2982.5 1.85128 2.51265 0
M  V30 31334 N 2982.81 -1.05187 1.1736 0
M  V30 31335 C 2984.05 -1.77837 0.960118 0
M  V30 31336 C 2984.37 -1.88144 -0.512521 0
M  V30 31337 O 2983.64 -1.39824 -1.37208 0
M  V30 31338 H 2982.22 -0.658735 0.352246 0
M  V30 31339 H 2984.89 -1.27006 1.47836 0
M  V30 31340 H 2983.98 -2.79513 1.38848 0
M  V30 31341 N 2984.28 -0.97385 -1.23911 0
M  V30 31342 C 2985.22 -0.453589 -2.23647 0
M  V30 31343 C 2986.19 0.475697 -1.55486 0
M  V30 31344 O 2987.38 0.405656 -1.84083 0
M  V30 31345 C 2984.51 0.344535 -3.36943 0
M  V30 31346 C 2983.55 -0.527933 -4.2322 0
M  V30 31347 S 2984.38 -1.97185 -4.97874 0
M  V30 31348 C 2985.54 -1.18269 -6.14625 0
M  V30 31349 H 2985.77 -1.29877 -2.67431 0
M  V30 31350 H 2983.31 -0.779346 -1.33288 0
M  V30 31351 H 2985.26 0.799032 -4.02648 0
M  V30 31352 H 2983.93 1.16477 -2.91705 0
M  V30 31353 H 2983.12 0.0851669 -5.03928 0
M  V30 31354 H 2982.72 -0.918408 -3.62548 0
M  V30 31355 H 2985.01 -0.440748 -6.76065 0
M  V30 31356 H 2985.96 -1.96437 -6.80307 0
M  V30 31357 H 2986.36 -0.704355 -5.60088 0
M  V30 31358 N 2985.76 1.38895 -0.744705 0
M  V30 31359 C 2987.17 1.83083 -0.365713 0
M  V30 31360 C 2987.52 1.62169 1.10433 0
M  V30 31361 O 2986.65 1.11807 1.85279 0
M  V30 31362 C 2987.24 3.32369 -0.657004 0
M  V30 31363 C 2985.8 3.74938 -0.331395 0
M  V30 31364 C 2984.95 2.61779 -0.914707 0
M  V30 31365 H 2987.9 1.2775 -0.941574 0
M  V30 31366 H 2987.92 3.80439 0.0678878 0
M  V30 31367 H 2987.43 3.47558 -1.72699 0
M  V30 31368 H 2985.53 3.65332 0.732362 0
M  V30 31369 H 2985.65 4.72018 -0.820738 0
M  V30 31370 H 2984.01 2.52411 -0.340675 0
M  V30 31371 H 2984.79 2.79772 -1.98954 0
M  V30 31372 N 2987.24 0.493084 1.49688 0
M  V30 31373 C 2988.47 -0.053475 2.07331 0
M  V30 31374 C 2988.89 -1.30779 1.35198 0
M  V30 31375 O 2988.25 -1.76689 0.406277 0
M  V30 31376 C 2988.3 -0.298187 3.59365 0
M  V30 31377 O 2987.4 -1.37447 3.88821 0
M  V30 31378 H 2986.74 0.0227134 0.663611 0
M  V30 31379 H 2989.27 0.690436 1.92598 0
M  V30 31380 H 2989.28 -0.532088 4.04516 0
M  V30 31381 H 2987.96 0.618279 4.11279 0
M  V30 31382 H 2986.53 -1.12615 3.55489 0
M  V30 31383 N 2988.72 -1.55963 0.226582 0
M  V30 31384 C 2989.97 -1.98042 -0.402957 0
M  V30 31385 C 2990.29 -1.1156 -1.59936 0
M  V30 31386 O 2989.56 -0.193754 -1.94939 0
M  V30 31387 H 2988.14 -0.7314 -0.151867 0
M  V30 31388 H 2990.8 -1.92244 0.320647 0
M  V30 31389 H 2989.9 -3.03541 -0.725883 0
M  V30 31390 N 2990.2 0.0467589 -1.57531 0
M  V30 31391 C 2991.43 0.752245 -1.92418 0
M  V30 31392 C 2991.83 1.70354 -0.823164 0
M  V30 31393 O 2991.18 1.82489 0.210566 0
M  V30 31394 C 2991.24 1.57881 -3.22976 0
M  V30 31395 C 2990.9 0.794206 -4.50046 0
M  V30 31396 C 2991.9 0.102277 -5.19799 0
M  V30 31397 C 2989.59 0.753974 -4.96609 0
M  V30 31398 C 2991.58 -0.619379 -6.34384 0
M  V30 31399 C 2989.27 0.0285608 -6.11093 0
M  V30 31400 C 2990.26 -0.656892 -6.79834 0
M  V30 31401 O 2989.95 -1.37056 -7.92131 0
M  V30 31402 H 2989.68 0.217565 -0.640032 0
M  V30 31403 H 2992.24 0.0137077 -2.05395 0
M  V30 31404 H 2990.47 2.36075 -3.06277 0
M  V30 31405 H 2992.16 2.16527 -3.43323 0
M  V30 31406 H 2992.92 0.124504 -4.8484 0
M  V30 31407 H 2988.8 1.27698 -4.42961 0
M  V30 31408 H 2992.35 -1.15495 -6.87973 0
M  V30 31409 H 2988.24 0.00434868 -6.455 0
M  V30 31410 H 2989.01 -1.28241 -8.08391 0
M  V30 31411 N 2991.67 1.54344 0.318688 0
M  V30 31412 C 2992.9 1.77071 1.07984 0
M  V30 31413 C 2993.32 0.520148 1.80765 0
M  V30 31414 O 2992.68 -0.528535 1.73425 0
M  V30 31415 C 2992.73 2.96673 2.04982 0
M  V30 31416 O 2991.83 2.68559 3.12969 0
M  V30 31417 H 2991.18 0.586612 0.311099 0
M  V30 31418 H 2993.71 2.01381 0.361497 0
M  V30 31419 H 2993.72 3.24155 2.47765 0
M  V30 31420 H 2992.39 3.8736 1.5141 0
M  V30 31421 H 2990.97 2.52041 2.74826 0
M  V30 31422 N 2993.15 -0.580999 1.465 0
M  V30 31423 C 2994.4 -1.3365 1.51598 0
M  V30 31424 C 2994.72 -1.94258 0.169893 0
M  V30 31425 O 2993.99 -1.78653 -0.803745 0
M  V30 31426 H 2992.57 -0.496234 0.558355 0
M  V30 31427 H 2995.23 -0.680306 1.82641 0
M  V30 31428 H 2994.33 -2.14233 2.26959 0
M  V30 31429 N 2994.63 -1.34234 -0.825776 0
M  V30 31430 C 2995.86 -1.295 -1.61361 0
M  V30 31431 C 2996.27 0.131503 -1.88341 0
M  V30 31432 O 2995.63 1.07771 -1.47281 0
M  V30 31433 C 2995.68 -2.08066 -2.95619 0
M  V30 31434 O 2995.4 -3.45152 -2.69818 0
M  V30 31435 C 2996.9 -2.10695 -3.90029 0
M  V30 31436 H 2994.12 -0.445612 -0.501668 0
M  V30 31437 H 2996.67 -1.76804 -1.02764 0
M  V30 31438 H 2994.82 -1.6441 -3.50782 0
M  V30 31439 H 2995.24 -3.8573 -3.55405 0
M  V30 31440 H 2996.71 -2.70096 -4.81407 0
M  V30 31441 H 2997.19 -1.1006 -4.25186 0
M  V30 31442 H 2997.79 -2.54428 -3.40803 0
M  V30 31443 N 2996.11 1.04563 -1.17917 0
M  V30 31444 C 2997.33 1.81876 -0.996781 0
M  V30 31445 C 2997.76 1.82635 0.450136 0
M  V30 31446 O 2997.12 1.23998 1.32266 0
M  V30 31447 C 2997.16 3.25583 -1.55011 0
M  V30 31448 O 2996.27 4.05184 -0.768111 0
M  V30 31449 H 2995.61 0.562101 -0.353466 0
M  V30 31450 H 2998.14 1.31721 -1.56559 0
M  V30 31451 H 2998.15 3.76371 -1.57509 0
M  V30 31452 H 2996.82 3.24345 -2.60332 0
M  V30 31453 H 2995.4 3.63884 -0.815044 0
M  V30 31454 N 2997.59 0.980408 1.23393 0
M  V30 31455 C 2998.52 0.465443 2.23403 0
M  V30 31456 C 2999.5 -0.467444 1.55736 0
M  V30 31457 O 3000.68 -0.395888 1.84296 0
M  V30 31458 C 2997.81 -0.326661 3.37121 0
M  V30 31459 C 2996.85 0.55037 4.22934 0
M  V30 31460 S 2997.69 1.99823 4.96821 0
M  V30 31461 C 2998.84 1.21527 6.13989 0
M  V30 31462 H 2999.08 1.31294 2.66738 0
M  V30 31463 H 2996.61 0.786403 1.32872 0
M  V30 31464 H 2998.57 -0.777667 4.03066 0
M  V30 31465 H 2997.23 -1.14928 2.92319 0
M  V30 31466 H 2996.42 -0.0584412 5.03966 0
M  V30 31467 H 2996.02 0.937622 3.62056 0
M  V30 31468 H 2998.32 0.476595 6.75822 0
M  V30 31469 H 2999.26 2.00042 6.79256 0
M  V30 31470 H 2999.67 0.734048 5.59707 0
M  V30 31471 N 2999.06 -1.38498 0.75206 0
M  V30 31472 C 3000.31 -2.00151 0.307538 0
M  V30 31473 C 3000.64 -1.59695 -1.1103 0
M  V30 31474 O 2999.89 -0.825156 -1.77453 0
M  V30 31475 C 3000.19 -3.55414 0.376218 0
M  V30 31476 C 2999.86 -4.15576 1.74949 0
M  V30 31477 C 2998.52 -4.31722 2.12532 0
M  V30 31478 C 3000.87 -4.48781 2.65039 0
M  V30 31479 C 2998.2 -4.78367 3.3968 0
M  V30 31480 C 3000.55 -4.96842 3.91575 0
M  V30 31481 C 2999.22 -5.11194 4.29229 0
M  V30 31482 H 2998.49 -0.732405 0.112536 0
M  V30 31483 H 3001.13 -1.65569 0.962242 0
M  V30 31484 H 2999.44 -3.90124 -0.362052 0
M  V30 31485 H 3001.14 -4.00998 0.013877 0
M  V30 31486 H 2997.73 -4.03423 1.44734 0
M  V30 31487 H 3001.91 -4.3591 2.37268 0
M  V30 31488 H 2997.17 -4.87664 3.68774 0
M  V30 31489 H 3001.34 -5.21504 4.61526 0
M  V30 31490 H 2998.97 -5.47098 5.27814 0
M  V30 31491 N 3000.54 -0.501015 -1.49424 0
M  V30 31492 C 3001.49 0.291108 -2.30771 0
M  V30 31493 C 3002.48 0.962763 -1.39382 0
M  V30 31494 O 3003.69 0.89045 -1.56432 0
M  V30 31495 H 3000.07 0.112737 -0.743501 0
M  V30 31496 H 3002.04 -0.414969 -2.95501 0
M  V30 31497 C 3000.79 1.34274 -3.20727 0
M  V30 31498 H 3000.11 0.835311 -3.90976 0
M  V30 31499 H 3001.55 1.86897 -3.80586 0
M  V30 31500 C 3000.01 2.36091 -2.40339 0
M  V30 31501 O 3000.54 3.41972 -2.10755 0
M  V30 31502 N 2998.74 2.08561 -2.02362 0
M  V30 31503 H 2998.29 1.22478 -2.26621 0
M  V30 31504 H 2998.25 2.76914 -1.48883 0
M  V30 31505 N 3002.02 1.5584 -0.234849 0
M  V30 31506 C 3003.25 2.03492 0.400705 0
M  V30 31507 C 3003.67 1.1133 1.51616 0
M  V30 31508 O 3003.03 0.103954 1.81002 0
M  V30 31509 C 3003.08 3.49262 0.897123 0
M  V30 31510 O 3002.18 3.60236 2.00758 0
M  V30 31511 H 3001.52 0.65801 0.0889908 0
M  V30 31512 H 3004.05 2.01455 -0.35738 0
M  V30 31513 H 3004.06 3.89846 1.20349 0
M  V30 31514 H 3002.74 4.15822 0.0807908 0
M  V30 31515 H 3001.31 3.31544 1.70683 0
M  V30 31516 N 3003.5 -0.038404 1.57553 0
M  V30 31517 C 3004.43 -1.07471 2.01309 0
M  V30 31518 C 3005.41 -1.35703 0.895741 0
M  V30 31519 O 3006.59 -1.48517 1.16082 0
M  V30 31520 C 3003.72 -2.41161 2.37821 0
M  V30 31521 C 3002.77 -2.28848 3.59904 0
M  V30 31522 S 3003.6 -1.65077 5.09421 0
M  V30 31523 C 3004.76 -3.00276 5.49168 0
M  V30 31524 H 3004.99 -0.701983 2.88894 0
M  V30 31525 H 3002.52 -0.248076 1.52394 0
M  V30 31526 H 3004.48 -3.18048 2.5953 0
M  V30 31527 H 3003.14 -2.75585 1.50705 0
M  V30 31528 H 3002.33 -3.27518 3.83077 0
M  V30 31529 H 3001.94 -1.60103 3.37999 0
M  V30 31530 H 3004.23 -3.96607 5.49281 0
M  V30 31531 H 3005.17 -2.81846 6.49591 0
M  V30 31532 H 3005.58 -3.02419 4.76658 0
M  V30 31533 N 3004.98 -1.54511 -0.310498 0
M  V30 31534 C 3006.23 -1.72551 -1.04447 0
M  V30 31535 C 3006.54 -0.513205 -1.88747 0
M  V30 31536 O 3007.75 -0.575212 -2.65337 0
M  V30 31537 C 3006.2 -3.05249 -1.9066 0
M  V30 31538 C 3005.81 -4.33927 -1.11407 0
M  V30 31539 C 3007.55 -3.32649 -2.63713 0
M  V30 31540 C 3005.46 -5.5768 -1.96842 0
M  V30 31541 H 3004.39 -0.643074 -0.393665 0
M  V30 31542 H 3007.04 -1.80998 -0.301972 0
M  V30 31543 H 3005.42 -2.90742 -2.68859 0
M  V30 31544 H 3006.6 -4.5924 -0.378875 0
M  V30 31545 H 3004.91 -4.1339 -0.49978 0
M  V30 31546 H 3007.51 -4.22306 -3.27966 0
M  V30 31547 H 3007.85 -2.51104 -3.32043 0
M  V30 31548 H 3008.39 -3.48084 -1.92568 0
M  V30 31549 H 3005.12 -6.41866 -1.32998 0
M  V30 31550 H 3004.64 -5.36567 -2.6806 0
M  V30 31551 H 3006.32 -5.94579 -2.55117 0
M  V30 31552 N 3006.46 0.573222 -1.46806 0
M  V30 31553 C 3007.4 1.70264 -1.58471 0
M  V30 31554 C 3008.4 1.63238 -0.452722 0
M  V30 31555 O 3009.6 1.68617 -0.629945 0
M  V30 31556 H 3005.98 0.563102 -0.498418 0
M  V30 31557 H 3007.95 1.57559 -2.53412 0
M  V30 31558 C 3006.7 3.08642 -1.6011 0
M  V30 31559 H 3006.02 3.14723 -2.46555 0
M  V30 31560 H 3007.46 3.87402 -1.72324 0
M  V30 31561 C 3005.92 3.35266 -0.331439 0
M  V30 31562 O 3006.45 3.97573 0.57431 0
M  V30 31563 N 3004.66 2.89793 -0.216409 0
M  V30 31564 H 3004.2 2.39268 -0.954387 0
M  V30 31565 H 3004.16 3.07978 0.632199 0
M  V30 31566 N 3007.93 1.3467 0.818645 0
M  V30 31567 C 3008.88 1.26612 1.95121 0
M  V30 31568 C 3009.88 0.163377 1.6861 0
M  V30 31569 O 3011.08 0.328617 1.76975 0
M  V30 31570 H 3007.46 0.393442 0.640865 0
M  V30 31571 H 3009.43 2.2232 1.99039 0
M  V30 31572 C 3008.18 1.04278 3.31695 0
M  V30 31573 H 3007.5 1.88366 3.52645 0
M  V30 31574 H 3008.94 1.02677 4.1138 0
M  V30 31575 C 3007.4 -0.253799 3.35943 0
M  V30 31576 O 3007.93 -1.25372 3.81634 0
M  V30 31577 N 3006.13 -0.288396 2.89165 0
M  V30 31578 H 3005.68 0.525889 2.52175 0
M  V30 31579 H 3005.64 -1.15567 2.92389 0
M  V30 31580 N 3009.41 -1.03936 1.1847 0
M  V30 31581 C 3010.66 -1.76557 0.975224 0
M  V30 31582 C 3010.97 -1.89208 -0.495944 0
M  V30 31583 O 3012.18 -2.58695 -0.823964 0
M  V30 31584 C 3010.64 -3.17441 1.69585 0
M  V30 31585 C 3010.24 -3.12879 3.20642 0
M  V30 31586 C 3011.99 -3.9443 1.56924 0
M  V30 31587 C 3009.89 -4.4863 3.85338 0
M  V30 31588 H 3008.82 -0.661823 0.361256 0
M  V30 31589 H 3011.48 -1.164 1.41857 0
M  V30 31590 H 3009.86 -3.78002 1.18029 0
M  V30 31591 H 3011.03 -2.61761 3.79233 0
M  V30 31592 H 3009.35 -2.49388 3.33458 0
M  V30 31593 H 3011.94 -4.94823 2.0262 0
M  V30 31594 H 3012.29 -4.13018 0.521711 0
M  V30 31595 H 3012.82 -3.40447 2.05768 0
M  V30 31596 H 3009.56 -4.35247 4.90143 0
M  V30 31597 H 3009.08 -4.99845 3.31535 0
M  V30 31598 H 3010.76 -5.17542 3.88278 0
M  V30 31599 N 3010.89 -0.986938 -1.22871 0
M  V30 31600 C 3012.14 -0.654945 -1.9077 0
M  V30 31601 C 3012.45 0.815919 -1.7777 0
M  V30 31602 O 3013.66 1.25925 -2.40531 0
M  V30 31603 C 3012.11 -1.12087 -3.42001 0
M  V30 31604 C 3011.72 -2.61654 -3.6365 0
M  V30 31605 C 3013.47 -0.862927 -4.15637 0
M  V30 31606 C 3011.37 -3.0188 -5.08549 0
M  V30 31607 H 3010.3 -0.241264 -0.714358 0
M  V30 31608 H 3012.95 -1.19571 -1.39194 0
M  V30 31609 H 3011.34 -0.508276 -3.92725 0
M  V30 31610 H 3012.51 -3.28208 -3.23444 0
M  V30 31611 H 3010.82 -2.85265 -3.03336 0
M  V30 31612 H 3013.42 -1.13924 -5.22423 0
M  V30 31613 H 3013.76 0.200963 -4.15815 0
M  V30 31614 H 3014.3 -1.43742 -3.70922 0
M  V30 31615 H 3011.04 -4.0742 -5.13507 0
M  V30 31616 H 3010.56 -2.40025 -5.4968 0
M  V30 31617 H 3012.24 -2.92849 -5.7693 0
M  V30 31618 N 3012.37 1.38098 -0.759394 0
M  V30 31619 C 3013.62 1.99227 -0.314899 0
M  V30 31620 C 3013.93 1.60966 1.11127 0
M  V30 31621 O 3015.14 2.15108 1.65653 0
M  V30 31622 C 3013.59 3.56239 -0.512064 0
M  V30 31623 C 3013.2 4.03446 -1.94769 0
M  V30 31624 C 3014.94 4.24299 -0.130572 0
M  V30 31625 C 3012.85 5.53121 -2.09311 0
M  V30 31626 H 3011.78 0.745333 -0.113991 0
M  V30 31627 H 3014.43 1.57788 -0.936764 0
M  V30 31628 H 3012.81 3.95595 0.179074 0
M  V30 31629 H 3013.99 3.75366 -2.67277 0
M  V30 31630 H 3012.3 3.48129 -2.28463 0
M  V30 31631 H 3014.9 5.34256 -0.217904 0
M  V30 31632 H 3015.24 4.06062 0.917572 0
M  V30 31633 H 3015.78 3.90202 -0.773784 0
M  V30 31634 H 3012.51 5.76269 -3.124 0
M  V30 31635 H 3012.03 5.82926 -1.41271 0
M  V30 31636 H 3013.71 6.18907 -1.88581 0
M  V30 31637 N 3013.85 0.508932 1.49156 0
M  V30 31638 C 3015.26 0.1654 1.58741 0
M  V30 31639 C 3015.46 -1.33045 1.51332 0
M  V30 31640 O 3014.52 -2.10705 1.39139 0
M  V30 31641 C 3015.83 0.749246 2.91216 0
M  V30 31642 C 3017.38 0.716069 3.04699 0
M  V30 31643 C 3017.85 1.27812 4.39805 0
M  V30 31644 N 3019.34 1.23916 4.46317 0
M  V30 31645 C 3020.08 1.64416 5.49322 0
M  V30 31646 N 3019.58 2.12545 6.59391 0
M  V30 31647 N 3021.37 1.55783 5.40082 0
M  V30 31648 H 3013.52 1.48136 1.52215 0
M  V30 31649 H 3015.78 0.614928 0.721504 0
M  V30 31650 H 3015.49 1.79862 3.0223 0
M  V30 31651 H 3015.36 0.21421 3.76591 0
M  V30 31652 H 3017.75 -0.324483 2.93311 0
M  V30 31653 H 3017.83 1.28834 2.20987 0
M  V30 31654 H 3017.47 2.31749 4.51946 0
M  V30 31655 H 3017.4 0.681714 5.22169 0
M  V30 31656 H 3019.9 0.886602 3.67352 0
M  V30 31657 H 3020.21 2.41497 7.34097 0
M  V30 31658 H 3018.55 2.16525 6.6041 0
M  V30 31659 H 3021.74 1.17995 4.52984 0
M  V30 31660 H 3021.92 1.87668 6.2023 0
M  V30 31661 N 3015.32 -1.55714 0.243111 0
M  V30 31662 C 3016.55 -2.0325 -0.386936 0
M  V30 31663 C 3016.97 -1.12246 -1.5181 0
M  V30 31664 O 3016.32 -0.136151 -1.81991 0
M  V30 31665 C 3016.37 -3.50161 -0.8983 0
M  V30 31666 O 3016.1 -4.37697 0.187784 0
M  V30 31667 C 3017.6 -4.13441 -1.59942 0
M  V30 31668 H 3014.82 -0.664609 -0.0923864 0
M  V30 31669 H 3017.36 -2.01201 0.365867 0
M  V30 31670 H 3015.52 -3.52757 -1.60129 0
M  V30 31671 H 3015.93 -5.24119 -0.199909 0
M  V30 31672 H 3017.4 -5.1794 -1.90898 0
M  V30 31673 H 3017.88 -3.59707 -2.52008 0
M  V30 31674 H 3018.49 -4.14757 -0.94109 0
M  V30 31675 N 3016.8 0.030048 -1.57571 0
M  V30 31676 C 3017.73 1.03048 -2.09531 0
M  V30 31677 C 3018.71 1.37773 -0.997634 0
M  V30 31678 O 3019.9 1.46674 -1.27281 0
M  V30 31679 C 3017.03 2.3317 -2.57389 0
M  V30 31680 C 3015.98 2.1269 -3.71412 0
M  V30 31681 C 3015.31 3.48563 -4.05473 0
M  V30 31682 C 3016.61 1.51387 -4.99879 0
M  V30 31683 H 3018.3 0.597947 -2.93368 0
M  V30 31684 H 3015.85 0.286179 -1.41128 0
M  V30 31685 H 3017.8 3.03485 -2.9236 0
M  V30 31686 H 3016.53 2.78481 -1.70634 0
M  V30 31687 H 3015.18 1.44807 -3.36789 0
M  V30 31688 H 3014.83 3.91521 -3.15786 0
M  V30 31689 H 3014.53 3.35685 -4.82275 0
M  V30 31690 H 3016.06 4.20242 -4.42977 0
M  V30 31691 H 3017.47 2.11619 -5.32813 0
M  V30 31692 H 3015.87 1.49088 -5.81286 0
M  V30 31693 H 3016.94 0.479591 -4.82522 0
M  V30 31694 N 3018.28 1.54674 0.3023 0
M  V30 31695 C 3019.21 1.80415 1.39735 0
M  V30 31696 C 3020.19 0.655268 1.48812 0
M  V30 31697 O 3021.38 0.895079 1.65893 0
M  V30 31698 C 3018.5 1.93971 2.77656 0
M  V30 31699 C 3017.55 3.16388 2.86009 0
M  V30 31700 S 3018.38 4.74488 2.48237 0
M  V30 31701 C 3019.54 4.90978 3.8819 0
M  V30 31702 H 3019.77 2.73013 1.17691 0
M  V30 31703 H 3017.3 1.46068 0.500338 0
M  V30 31704 H 3019.26 2.02466 3.57096 0
M  V30 31705 H 3017.92 1.02312 2.9697 0
M  V30 31706 H 3017.12 3.22671 3.87168 0
M  V30 31707 H 3016.72 3.06332 2.14562 0
M  V30 31708 H 3019.01 4.74921 4.83173 0
M  V30 31709 H 3019.95 5.9307 3.86877 0
M  V30 31710 H 3020.36 4.19138 3.78132 0
M  V30 31711 N 3019.76 -0.565428 1.47108 0
M  V30 31712 C 3020.69 -1.68307 1.61849 0
M  V30 31713 C 3021.67 -1.6353 0.468187 0
M  V30 31714 O 3022.85 -1.81279 0.696536 0
M  V30 31715 C 3019.98 -3.06949 1.6248 0
M  V30 31716 C 3018.94 -3.26568 2.76654 0
M  V30 31717 C 3018.26 -4.65913 2.62353 0
M  V30 31718 C 3019.56 -3.12733 4.18324 0
M  V30 31719 H 3021.26 -1.56226 2.55409 0
M  V30 31720 H 3018.8 -0.750157 1.22917 0
M  V30 31721 H 3020.76 -3.84974 1.71385 0
M  V30 31722 H 3019.48 -3.1997 0.654748 0
M  V30 31723 H 3018.14 -2.50948 2.67247 0
M  V30 31724 H 3017.79 -4.75722 1.63394 0
M  V30 31725 H 3017.49 -4.7999 3.38945 0
M  V30 31726 H 3019.01 -5.46084 2.73175 0
M  V30 31727 H 3020.43 -3.80585 4.28752 0
M  V30 31728 H 3018.82 -3.38324 4.95638 0
M  V30 31729 H 3019.89 -2.09584 4.37267 0
M  V30 31730 N 3021.24 -1.35102 -0.811492 0
M  V30 31731 C 3022.18 -1.2762 -1.92306 0
M  V30 31732 C 3023.15 -0.14912 -1.65429 0
M  V30 31733 O 3024.34 -0.332007 -1.87889 0
M  V30 31734 C 3021.48 -1.04914 -3.28766 0
M  V30 31735 C 3020.59 -2.265 -3.67861 0
M  V30 31736 C 3019.73 -1.96983 -4.93327 0
M  V30 31737 C 3018.77 -3.14649 -5.25036 0
M  V30 31738 N 3017.9 -2.84941 -6.4168 0
M  V30 31739 H 3022.74 -2.22677 -1.98037 0
M  V30 31740 H 3020.28 -1.10697 -0.968736 0
M  V30 31741 H 3022.24 -0.897821 -4.07425 0
M  V30 31742 H 3020.87 -0.135208 -3.22517 0
M  V30 31743 H 3019.92 -2.52512 -2.84503 0
M  V30 31744 H 3021.23 -3.14378 -3.87257 0
M  V30 31745 H 3020.39 -1.78653 -5.798 0
M  V30 31746 H 3019.12 -1.06382 -4.75956 0
M  V30 31747 H 3018.13 -3.33562 -4.37055 0
M  V30 31748 H 3019.35 -4.06044 -5.44339 0
M  V30 31749 H 3017.3 -1.96929 -6.25744 0
M  V30 31750 H 3017.22 -3.66353 -6.61303 0
M  V30 31751 H 3018.49 -2.70141 -7.31194 0
M  V30 31752 N 3022.71 1.03306 -1.19019 0
M  V30 31753 C 3023.96 1.76898 -0.991712 0
M  V30 31754 C 3024.29 1.88256 0.47678 0
M  V30 31755 O 3023.57 1.39627 1.35405 0
M  V30 31756 C 3023.85 3.19746 -1.65633 0
M  V30 31757 C 3023.7 3.16285 -3.19819 0
M  V30 31758 C 3025.02 4.18041 -1.37586 0
M  V30 31759 H 3022.14 0.642147 -0.361685 0
M  V30 31760 H 3024.78 1.20626 -1.46797 0
M  V30 31761 H 3022.93 3.67794 -1.25139 0
M  V30 31762 H 3024.61 2.76167 -3.69499 0
M  V30 31763 H 3022.85 2.54111 -3.51582 0
M  V30 31764 H 3023.52 4.1719 -3.61465 0
M  V30 31765 H 3026 3.78575 -1.72686 0
M  V30 31766 H 3024.87 5.16193 -1.86645 0
M  V30 31767 H 3025.13 4.4108 -0.300196 0
M  V30 31768 N 3024.19 0.99344 1.22346 0
M  V30 31769 C 3025.42 0.687057 1.94841 0
M  V30 31770 C 3025.83 -0.752415 1.73595 0
M  V30 31771 O 3025.17 -1.51945 1.0324 0
M  V30 31772 C 3025.24 0.913815 3.47692 0
M  V30 31773 C 3024.9 2.33787 3.92673 0
M  V30 31774 C 3025.9 3.31741 4.00305 0
M  V30 31775 C 3023.58 2.67245 4.25306 0
M  V30 31776 C 3025.58 4.61226 4.39943 0
M  V30 31777 C 3023.26 3.96949 4.64624 0
M  V30 31778 C 3024.26 4.9375 4.71911 0
M  V30 31779 O 3023.95 6.21136 5.10338 0
M  V30 31780 H 3023.68 0.253258 0.626767 0
M  V30 31781 H 3026.23 1.33108 1.56434 0
M  V30 31782 H 3024.46 0.21262 3.86115 0
M  V30 31783 H 3026.15 0.602599 4.01402 0
M  V30 31784 H 3026.92 3.07226 3.75283 0
M  V30 31785 H 3022.8 1.92601 4.18839 0
M  V30 31786 H 3026.34 5.36782 4.45545 0
M  V30 31787 H 3022.24 4.21253 4.89097 0
M  V30 31788 H 3023.01 6.25081 5.28409 0
M  V30 31789 N 3025.67 -1.37693 0.766707 0
M  V30 31790 C 3026.62 -2.30326 0.147766 0
M  V30 31791 C 3027.59 -1.50845 -0.695339 0
M  V30 31792 O 3028.77 -1.79432 -0.648749 0
M  V30 31793 C 3025.91 -3.37306 -0.729291 0
M  V30 31794 C 3025.03 -4.31805 0.12987 0
M  V30 31795 C 3024.16 -5.25858 -0.751419 0
M  V30 31796 C 3023.2 -6.12 0.110583 0
M  V30 31797 N 3022.34 -6.98311 -0.7284 0
M  V30 31798 H 3027.18 -2.82678 0.943254 0
M  V30 31799 H 3024.71 -1.3916 0.476761 0
M  V30 31800 H 3026.67 -3.97953 -1.25256 0
M  V30 31801 H 3025.3 -2.86332 -1.49043 0
M  V30 31802 H 3024.35 -3.72507 0.770895 0
M  V30 31803 H 3025.67 -4.92424 0.79501 0
M  V30 31804 H 3024.82 -5.91686 -1.34136 0
M  V30 31805 H 3023.56 -4.65638 -1.45025 0
M  V30 31806 H 3022.56 -5.45156 0.713094 0
M  V30 31807 H 3023.79 -6.74292 0.806676 0
M  V30 31808 H 3021.73 -6.40625 -1.41194 0
M  V30 31809 H 3021.65 -7.55904 -0.120447 0
M  V30 31810 H 3022.92 -7.68534 -1.30289 0
M  V30 31811 N 3027.15 -0.516835 -1.48884 0
M  V30 31812 C 3028.4 0.0219811 -2.02088 0
M  V30 31813 C 3028.72 1.36009 -1.39738 0
M  V30 31814 O 3027.99 1.8778 -0.558152 0
M  V30 31815 H 3026.57 0.0111124 -0.746917 0
M  V30 31816 H 3029.23 -0.677679 -1.82739 0
M  V30 31817 H 3028.33 0.140013 -3.11786 0
M  V30 31818 N 3028.63 1.55583 -0.251365 0
M  V30 31819 C 3029.88 1.98228 0.372646 0
M  V30 31820 C 3030.19 1.14283 1.58741 0
M  V30 31821 O 3031.39 1.46962 2.28286 0
M  V30 31822 C 3029.85 3.52739 0.714377 0
M  V30 31823 C 3029.46 4.45429 -0.479247 0
M  V30 31824 C 3031.2 4.04029 1.30233 0
M  V30 31825 C 3029.11 5.91291 -0.113422 0
M  V30 31826 H 3028.04 0.740314 0.143007 0
M  V30 31827 H 3030.69 1.80087 -0.352284 0
M  V30 31828 H 3029.07 3.66591 1.49756 0
M  V30 31829 H 3030.25 4.43338 -1.25652 0
M  V30 31830 H 3028.56 4.04645 -0.98243 0
M  V30 31831 H 3031.16 5.1053 1.58944 0
M  V30 31832 H 3031.5 3.51642 2.2283 0
M  V30 31833 H 3032.03 3.9352 0.581955 0
M  V30 31834 H 3028.77 6.47724 -1.00665 0
M  V30 31835 H 3028.29 5.96508 0.627561 0
M  V30 31836 H 3029.97 6.46291 0.302816 0
M  V30 31837 N 3030.1 -0.0216912 1.57585 0
M  V30 31838 C 3031.38 -0.746838 1.80781 0
M  V30 31839 C 3031.76 -1.93178 0.851197 0
M  V30 31840 O 3031.11 -2.28259 -0.104999 0
M  V30 31841 C 3031.32 -1.17296 3.28698 0
M  V30 31842 C 3032.67 -1.58582 3.93874 0
M  V30 31843 O 3033.69 -1.26734 3.32892 0
M  V30 31844 O 3032.55 -2.17722 5.01258 0
M  V30 31845 H 3029.64 -0.361773 0.743673 0
M  V30 31846 H 3032.19 0.00209768 1.697 0
M  V30 31847 H 3030.96 -0.327385 3.89928 0
M  V30 31848 H 3030.59 -1.98168 3.44696 0
M  V30 31849 N 3031.58 -1.54832 -0.294093 0
M  V30 31850 C 3032.51 -1.89263 -1.36754 0
M  V30 31851 C 3033.49 -0.752241 -1.52563 0
M  V30 31852 O 3034.68 -1.00858 -1.65956 0
M  V30 31853 C 3031.81 -2.14602 -2.73063 0
M  V30 31854 C 3030.76 -3.30445 -2.72011 0
M  V30 31855 C 3030.09 -3.41217 -4.11673 0
M  V30 31856 C 3031.39 -4.67379 -2.3314 0
M  V30 31857 H 3033.08 -2.7917 -1.08186 0
M  V30 31858 H 3030.63 -1.34322 -0.518991 0
M  V30 31859 H 3032.58 -2.37275 -3.48251 0
M  V30 31860 H 3031.31 -1.21473 -3.0317 0
M  V30 31861 H 3029.97 -3.07706 -1.9928 0
M  V30 31862 H 3029.61 -2.45592 -4.38969 0
M  V30 31863 H 3029.31 -4.19091 -4.11869 0
M  V30 31864 H 3030.84 -3.66159 -4.88631 0
M  V30 31865 H 3032.25 -4.89736 -2.98046 0
M  V30 31866 H 3030.65 -5.48016 -2.44537 0
M  V30 31867 H 3031.72 -4.67628 -1.28266 0
M  V30 31868 N 3033.06 0.557619 -1.47405 0
M  V30 31869 C 3034.34 1.3184 -1.4449 0
M  V30 31870 C 3034.72 2.10624 -0.141637 0
M  V30 31871 O 3034.07 2.11005 0.876871 0
M  V30 31872 C 3034.28 2.22327 -2.6902 0
M  V30 31873 C 3035.62 2.83359 -3.16217 0
M  V30 31874 O 3036.65 2.32629 -2.69745 0
M  V30 31875 O 3035.51 3.75564 -3.97006 0
M  V30 31876 H 3032.6 0.593629 -0.57579 0
M  V30 31877 H 3035.15 0.576556 -1.59606 0
M  V30 31878 H 3033.92 1.63709 -3.55408 0
M  V30 31879 H 3033.54 3.03808 -2.56489 0
M  V30 31880 N 3034.54 1.35531 0.804316 0
M  V30 31881 C 3035.47 1.24493 1.92442 0
M  V30 31882 C 3036.48 0.167714 1.61934 0
M  V30 31883 O 3037.67 0.42118 1.7346 0
M  V30 31884 C 3034.77 0.894809 3.26874 0
M  V30 31885 C 3033.95 2.07086 3.85271 0
M  V30 31886 C 3033.01 1.69616 4.98113 0
M  V30 31887 O 3032.03 2.41518 5.1542 0
M  V30 31888 N 3033.23 0.621113 5.77168 0
M  V30 31889 H 3036 2.20996 2.02437 0
M  V30 31890 H 3033.56 1.2873 0.981851 0
M  V30 31891 H 3035.55 0.625582 3.99836 0
M  V30 31892 H 3034.12 0.0193855 3.12594 0
M  V30 31893 H 3033.34 2.50376 3.04476 0
M  V30 31894 H 3034.63 2.85693 4.21019 0
M  V30 31895 H 3034.03 0.0237674 5.65695 0
M  V30 31896 H 3032.58 0.411673 6.50499 0
M  V30 31897 N 3036.02 -1.02674 1.19565 0
M  V30 31898 C 3037.26 -1.76109 0.999599 0
M  V30 31899 C 3037.59 -1.88751 -0.469398 0
M  V30 31900 O 3036.85 -1.40258 -1.36478 0
M  V30 31901 C 3037.15 -3.18767 1.61625 0
M  V30 31902 C 3036.81 -3.26126 3.11372 0
M  V30 31903 C 3035.47 -3.27842 3.5224 0
M  V30 31904 C 3037.83 -3.25101 4.0738 0
M  V30 31905 C 3035.15 -3.26192 4.87663 0
M  V30 31906 C 3037.51 -3.24992 5.42737 0
M  V30 31907 C 3036.17 -3.25007 5.83033 0
M  V30 31908 H 3035.44 -0.644427 0.365779 0
M  V30 31909 H 3038.09 -1.20494 1.4884 0
M  V30 31910 H 3036.39 -3.77474 1.0498 0
M  V30 31911 H 3038.09 -3.7426 1.43982 0
M  V30 31912 H 3034.68 -3.2552 2.78809 0
M  V30 31913 H 3038.86 -3.22955 3.76847 0
M  V30 31914 H 3034.12 -3.24528 5.18162 0
M  V30 31915 H 3038.29 -3.2315 6.16885 0
M  V30 31916 H 3035.92 -3.23482 6.87942 0
M  V30 31917 N 3037.5 -0.999914 -1.21817 0
M  V30 31918 C 3038.91 -0.711849 -1.42846 0
M  V30 31919 C 3039.11 0.714895 -1.88392 0
M  V30 31920 O 3038.17 1.48491 -2.04222 0
M  V30 31921 C 3039.48 -1.72339 -2.46414 0
M  V30 31922 C 3041.03 -1.73963 -2.60204 0
M  V30 31923 C 3041.5 -2.73998 -3.67 0
M  V30 31924 N 3042.99 -2.72635 -3.74465 0
M  V30 31925 C 3043.73 -3.46701 -4.56712 0
M  V30 31926 N 3043.23 -4.3039 -5.42897 0
M  V30 31927 N 3045.02 -3.35374 -4.51088 0
M  V30 31928 H 3037.17 -1.92126 -0.905622 0
M  V30 31929 H 3039.43 -0.828985 -0.459879 0
M  V30 31930 H 3039.14 -2.74469 -2.19909 0
M  V30 31931 H 3039.01 -1.52192 -3.45134 0
M  V30 31932 H 3041.4 -0.725268 -2.86049 0
M  V30 31933 H 3041.48 -1.9818 -1.61735 0
M  V30 31934 H 3041.12 -3.75588 -3.41901 0
M  V30 31935 H 3041.05 -2.47048 -4.65054 0
M  V30 31936 H 3043.55 -2.11915 -3.12891 0
M  V30 31937 H 3043.86 -4.83713 -6.02695 0
M  V30 31938 H 3042.2 -4.34474 -5.42455 0
M  V30 31939 H 3045.39 -2.69429 -3.82786 0
M  V30 31940 H 3045.57 -3.93353 -5.14953 0
M  V30 31941 N 3038.97 1.37284 -0.773999 0
M  V30 31942 C 3039.91 2.27944 -0.108059 0
M  V30 31943 C 3040.88 1.46439 0.706712 0
M  V30 31944 O 3042.07 1.75769 0.680994 0
M  V30 31945 C 3039.2 3.27779 0.853141 0
M  V30 31946 C 3038.24 4.26325 0.122089 0
M  V30 31947 S 3039.07 5.22077 -1.19145 0
M  V30 31948 C 3040.23 6.25463 -0.233847 0
M  V30 31949 H 3040.46 2.84077 -0.876793 0
M  V30 31950 H 3038 1.43593 -0.567493 0
M  V30 31951 H 3039.95 3.85805 1.40231 0
M  V30 31952 H 3038.62 2.70589 1.595 0
M  V30 31953 H 3037.81 4.96766 0.850839 0
M  V30 31954 H 3037.41 3.723 -0.356145 0
M  V30 31955 H 3039.7 6.749 0.592931 0
M  V30 31956 H 3040.65 7.02274 -0.906496 0
M  V30 31957 H 3041.05 5.64285 0.155949 0
M  V30 31958 N 3040.45 0.524724 1.48608 0
M  V30 31959 C 3041.7 -0.0132582 2.01696 0
M  V30 31960 C 3042.01 -1.35823 1.40753 0
M  V30 31961 O 3043.22 -1.98427 1.85308 0
M  V30 31962 C 3041.68 -0.074038 3.59824 0
M  V30 31963 C 3041.28 1.26572 4.29748 0
M  V30 31964 C 3043.03 -0.561126 4.20775 0
M  V30 31965 C 3040.93 1.16581 5.79796 0
M  V30 31966 H 3039.86 -0.00872605 0.75395 0
M  V30 31967 H 3042.52 0.667714 1.70921 0
M  V30 31968 H 3040.9 -0.819975 3.87418 0
M  V30 31969 H 3042.07 2.02681 4.13832 0
M  V30 31970 H 3040.39 1.68813 3.80646 0
M  V30 31971 H 3042.98 -0.653759 5.30688 0
M  V30 31972 H 3043.33 -1.56566 3.85736 0
M  V30 31973 H 3043.86 0.128971 3.97591 0
M  V30 31974 H 3040.6 2.14534 6.19399 0
M  V30 31975 H 3040.12 0.445999 5.9814 0
M  V30 31976 H 3041.8 0.854299 6.41335 0
M  V30 31977 N 3041.93 -1.55447 0.259613 0
M  V30 31978 C 3042.89 -2.20618 -0.62132 0
M  V30 31979 C 3043.89 -1.17927 -1.09315 0
M  V30 31980 O 3045.08 -1.42931 -0.995816 0
M  V30 31981 C 3042.21 -2.85985 -1.85541 0
M  V30 31982 H 3043.41 -2.99854 -0.0525306 0
M  V30 31983 H 3040.96 -1.56297 0.0101329 0
M  V30 31984 H 3041.7 -2.1072 -2.46511 0
M  V30 31985 H 3041.48 -3.61222 -1.52516 0
M  V30 31986 H 3042.97 -3.35822 -2.48221 0
M  V30 31987 N 3043.41 0.0133338 -1.57594 0
M  V30 31988 C 3044.64 0.711261 -1.93971 0
M  V30 31989 C 3045.05 1.6857 -0.859113 0
M  V30 31990 O 3044.39 1.82895 0.17181 0
M  V30 31991 C 3044.45 1.50995 -3.26253 0
M  V30 31992 C 3044.11 0.698566 -4.51629 0
M  V30 31993 C 3045.11 -0.00800323 -5.19899 0
M  V30 31994 C 3042.8 0.648466 -4.98097 0
M  V30 31995 C 3044.79 -0.753802 -6.32927 0
M  V30 31996 C 3042.48 -0.101068 -6.11016 0
M  V30 31997 C 3043.48 -0.800947 -6.78287 0
M  V30 31998 O 3043.16 -1.53828 -7.89045 0
M  V30 31999 H 3042.9 0.20394 -0.644503 0
M  V30 32000 H 3045.45 -0.0298628 -2.05378 0
M  V30 32001 H 3043.68 2.29525 -3.11216 0
M  V30 32002 H 3045.37 2.09196 -3.47839 0
M  V30 32003 H 3046.13 0.0216339 -4.84995 0
M  V30 32004 H 3042.01 1.18274 -4.4557 0
M  V30 32005 H 3045.56 -1.30062 -6.85368 0
M  V30 32006 H 3041.45 -0.132572 -6.45364 0
M  V30 32007 H 3042.22 -1.45359 -8.05489 0
M  V30 32008 N 3044.89 1.54985 0.285878 0
M  V30 32009 C 3046.13 1.74638 1.01715 0
M  V30 32010 C 3046.45 0.543375 1.87276 0
M  V30 32011 O 3045.72 -0.442044 1.90848 0
M  V30 32012 H 3044.3 0.643986 0.378538 0
M  V30 32013 H 3046.97 1.92367 0.313213 0
M  V30 32014 H 3046.06 2.64195 1.66154 0
M  V30 32015 N 3046.36 -0.549794 1.47699 0
M  V30 32016 C 3047.64 -1.31072 1.45188 0
M  V30 32017 C 3048.02 -2.10546 0.152805 0
M  V30 32018 O 3047.37 -2.11467 -0.865669 0
M  V30 32019 C 3047.58 -2.20897 2.70195 0
M  V30 32020 C 3048.93 -2.81678 3.17715 0
M  V30 32021 O 3049.95 -2.31195 2.70975 0
M  V30 32022 O 3048.81 -3.73453 3.98992 0
M  V30 32023 H 3045.9 -0.590567 0.57893 0
M  V30 32024 H 3048.45 -0.568084 1.59909 0
M  V30 32025 H 3047.22 -1.61822 3.56272 0
M  V30 32026 H 3046.85 -3.02443 2.58097 0
M  V30 32027 N 3047.84 -1.35955 -0.797117 0
M  V30 32028 C 3049.12 -1.20312 -1.54222 0
M  V30 32029 C 3049.5 0.213889 -2.10014 0
M  V30 32030 O 3048.85 1.21859 -1.93294 0
M  V30 32031 C 3049.06 -2.27888 -2.64326 0
M  V30 32032 C 3050.41 -2.64171 -3.32414 0
M  V30 32033 O 3051.43 -2.26873 -2.74603 0
M  V30 32034 O 3050.29 -3.28339 -4.36871 0
M  V30 32035 H 3047.38 -0.467986 -0.681849 0
M  V30 32036 H 3049.93 -1.47664 -0.836262 0
M  V30 32037 H 3048.7 -3.22889 -2.21039 0
M  V30 32038 H 3048.32 -2.01859 -3.42548 0
M  V30 32039 N 3049.32 1.02038 -1.20108 0
M  V30 32040 C 3050.57 1.75836 -1.01042 0
M  V30 32041 C 3050.9 1.88751 0.456786 0
M  V30 32042 O 3050.17 1.41056 1.33916 0
M  V30 32043 C 3050.46 3.17972 -1.69015 0
M  V30 32044 C 3050.31 3.12875 -3.23156 0
M  V30 32045 C 3051.63 4.16558 -1.42012 0
M  V30 32046 H 3048.75 0.638275 -0.368476 0
M  V30 32047 H 3051.39 1.19062 -1.48069 0
M  V30 32048 H 3049.54 3.66446 -1.29033 0
M  V30 32049 H 3051.21 2.72233 -3.72407 0
M  V30 32050 H 3049.46 2.50368 -3.54257 0
M  V30 32051 H 3050.13 4.13332 -3.65869 0
M  V30 32052 H 3052.6 3.76722 -1.76691 0
M  V30 32053 H 3051.48 5.14184 -1.9211 0
M  V30 32054 H 3051.74 4.40736 -0.346961 0
M  V30 32055 N 3050.8 1.00636 1.21285 0
M  V30 32056 C 3052.05 0.685212 1.89704 0
M  V30 32057 C 3052.36 -0.787534 1.79045 0
M  V30 32058 O 3053.57 -1.22082 2.42504 0
M  V30 32059 C 3052.02 1.17514 3.40174 0
M  V30 32060 C 3051.63 2.67406 3.59441 0
M  V30 32061 C 3053.37 0.928942 4.14211 0
M  V30 32062 C 3051.28 3.09932 5.03682 0
M  V30 32063 H 3050.21 0.252599 0.710429 0
M  V30 32064 H 3052.86 1.2177 1.37274 0
M  V30 32065 H 3051.24 0.570691 3.91866 0
M  V30 32066 H 3052.42 3.33312 3.18182 0
M  V30 32067 H 3050.73 2.90055 2.98759 0
M  V30 32068 H 3053.33 1.22221 5.20544 0
M  V30 32069 H 3053.67 -0.134785 4.16082 0
M  V30 32070 H 3054.21 1.49625 3.68588 0
M  V30 32071 H 3050.95 4.15538 5.0696 0
M  V30 32072 H 3050.47 2.48739 5.45792 0
M  V30 32073 H 3052.14 3.0199 5.72198 0
M  V30 32074 N 3052.28 -1.36872 0.781268 0
M  V30 32075 C 3053.24 -2.28491 0.180134 0
M  V30 32076 C 3054.24 -1.48459 -0.617772 0
M  V30 32077 O 3055.43 -1.68553 -0.439962 0
M  V30 32078 C 3052.56 -3.32509 -0.751682 0
M  V30 32079 H 3053.75 -2.83162 0.987887 0
M  V30 32080 H 3051.31 -1.46299 0.550127 0
M  V30 32081 H 3052.04 -2.82979 -1.58408 0
M  V30 32082 H 3051.83 -3.91679 -0.181581 0
M  V30 32083 H 3053.32 -4.00951 -1.1674 0
M  V30 32084 N 3053.75 -0.532597 -1.48328 0
M  V30 32085 C 3054.98 -0.00151401 -2.074 0
M  V30 32086 C 3055.4 1.27149 -1.38618 0
M  V30 32087 O 3054.76 1.7555 -0.45298 0
M  V30 32088 C 3054.81 0.202803 -3.60029 0
M  V30 32089 O 3053.91 1.2709 -3.92329 0
M  V30 32090 H 3053.26 -0.0402999 -0.662776 0
M  V30 32091 H 3055.79 -0.741257 -1.907 0
M  V30 32092 H 3055.8 0.424651 -4.05784 0
M  V30 32093 H 3054.47 -0.727105 -4.09495 0
M  V30 32094 H 3053.05 1.0315 -3.5835 0
M  V30 32095 N 3055.23 1.55307 -0.267853 0
M  V30 32096 C 3056.46 2.03544 0.354037 0
M  V30 32097 C 3056.87 1.14589 1.50552 0
M  V30 32098 O 3056.21 0.157023 1.83028 0
M  V30 32099 C 3056.28 3.47946 0.904087 0
M  V30 32100 C 3055.94 4.56848 -0.11783 0
M  V30 32101 C 3056.94 5.11427 -0.934796 0
M  V30 32102 C 3054.62 5.01678 -0.249973 0
M  V30 32103 C 3056.62 6.09347 -1.87016 0
M  V30 32104 C 3054.3 5.99425 -1.18882 0
M  V30 32105 C 3055.3 6.5314 -1.99742 0
M  V30 32106 O 3054.99 7.48977 -2.92041 0
M  V30 32107 H 3054.72 0.670537 0.0857647 0
M  V30 32108 H 3057.27 2.01555 -0.395551 0
M  V30 32109 H 3055.5 3.47151 1.70362 0
M  V30 32110 H 3057.19 3.79563 1.43829 0
M  V30 32111 H 3057.96 4.7761 -0.843404 0
M  V30 32112 H 3053.84 4.59518 0.369389 0
M  V30 32113 H 3057.38 6.51199 -2.50171 0
M  V30 32114 H 3053.28 6.3266 -1.28106 0
M  V30 32115 H 3054.05 7.66668 -2.8664 0
M  V30 32116 N 3056.71 -0.00497598 1.57599 0
M  V30 32117 C 3058.12 -0.548449 1.78463 0
M  V30 32118 C 3058.47 -1.74242 0.901899 0
M  V30 32119 O 3057.6 -2.16154 0.103052 0
M  V30 32120 C 3058.19 -1.00173 3.23652 0
M  V30 32121 C 3056.75 -1.49055 3.45629 0
M  V30 32122 C 3055.9 -0.439482 2.73795 0
M  V30 32123 H 3058.85 0.221208 1.57151 0
M  V30 32124 H 3058.87 -1.86799 3.31491 0
M  V30 32125 H 3058.38 -0.132539 3.87874 0
M  V30 32126 H 3056.48 -2.3808 2.86616 0
M  V30 32127 H 3056.6 -1.52144 4.54301 0
M  V30 32128 H 3054.96 -0.900001 2.38269 0
M  V30 32129 H 3055.74 0.420659 3.40713 0
M  V30 32130 N 3058.19 -1.55135 -0.277654 0
M  V30 32131 C 3059.43 -1.76706 -1.0073 0
M  V30 32132 C 3059.79 -0.558823 -1.84106 0
M  V30 32133 O 3059.08 0.448558 -1.86275 0
M  V30 32134 C 3059.28 -3.01069 -1.92594 0
M  V30 32135 C 3059.11 -4.33872 -1.18258 0
M  V30 32136 C 3057.88 -4.97217 -0.900167 0
M  V30 32137 C 3060.07 -5.11072 -0.575329 0
M  V30 32138 N 3058.06 -6.13763 -0.12953 0
M  V30 32139 C 3059.43 -6.1997 0.0613726 0
M  V30 32140 C 3061.48 -4.95555 -0.482707 0
M  V30 32141 C 3060.18 -7.15039 0.781763 0
M  V30 32142 C 3062.21 -5.90975 0.224081 0
M  V30 32143 C 3061.57 -6.99258 0.849539 0
M  V30 32144 H 3057.67 -0.698933 -0.350737 0
M  V30 32145 H 3060.26 -1.92626 -0.283448 0
M  V30 32146 H 3058.43 -2.86533 -2.62209 0
M  V30 32147 H 3060.16 -3.11064 -2.58884 0
M  V30 32148 H 3056.91 -4.58033 -1.20426 0
M  V30 32149 H 3057.34 -6.76564 0.242984 0
M  V30 32150 H 3061.98 -4.11944 -0.951951 0
M  V30 32151 H 3059.7 -7.98174 1.2627 0
M  V30 32152 H 3063.28 -5.81047 0.296002 0
M  V30 32153 H 3062.16 -7.71823 1.38774 0
M  V30 32154 N 3059.67 0.541953 -1.47989 0
M  V30 32155 C 3061.08 1.124 -1.49075 0
M  V30 32156 C 3061.43 1.94551 -0.253859 0
M  V30 32157 O 3060.55 2.06719 0.640019 0
M  V30 32158 C 3061.15 2.04509 -2.70114 0
M  V30 32159 C 3059.71 2.57955 -2.7411 0
M  V30 32160 C 3058.85 1.34656 -2.42411 0
M  V30 32161 H 3061.81 0.32779 -1.55278 0
M  V30 32162 H 3061.83 2.88618 -2.47951 0
M  V30 32163 H 3061.34 1.44691 -3.6012 0
M  V30 32164 H 3059.44 3.21529 -1.88282 0
M  V30 32165 H 3059.55 2.97907 -3.75218 0
M  V30 32166 H 3057.92 1.65837 -1.93313 0
M  V30 32167 H 3058.7 0.766074 -3.34643 0
M  V30 32168 N 3061.15 1.36376 0.789896 0
M  V30 32169 C 3062.39 1.29909 1.54294 0
M  V30 32170 C 3062.71 -0.119617 1.95234 0
M  V30 32171 O 3063.91 -0.306661 2.69763 0
M  V30 32172 C 3062.37 2.27924 2.78529 0
M  V30 32173 C 3061.98 3.75228 2.4476 0
M  V30 32174 C 3063.72 2.30433 3.56512 0
M  V30 32175 C 3061.63 4.65022 3.65389 0
M  V30 32176 H 3060.56 0.482739 0.579205 0
M  V30 32177 H 3063.21 1.61736 0.866816 0
M  V30 32178 H 3061.59 1.8909 3.47938 0
M  V30 32179 H 3062.77 4.22795 1.83252 0
M  V30 32180 H 3061.08 3.7549 1.7999 0
M  V30 32181 H 3063.68 2.94729 4.46137 0
M  V30 32182 H 3064.02 1.31273 3.95061 0
M  V30 32183 H 3064.55 2.67881 2.94082 0
M  V30 32184 H 3061.29 5.65242 3.31936 0
M  V30 32185 H 3060.81 4.22171 4.26065 0
M  V30 32186 H 3062.49 4.81269 4.32422 0
M  V30 32187 N 3062.62 -1.014 1.20647 0
M  V30 32188 C 3063.9 -1.72227 0.927206 0
M  V30 32189 C 3064.28 -2.03444 -0.563346 0
M  V30 32190 O 3063.63 -1.70099 -1.52573 0
M  V30 32191 C 3063.84 -2.98825 1.8029 0
M  V30 32192 C 3065.19 -3.72037 2.04631 0
M  V30 32193 O 3066.21 -3.08787 1.77565 0
M  V30 32194 O 3065.07 -4.85782 2.50355 0
M  V30 32195 H 3062.16 -0.750724 0.346904 0
M  V30 32196 H 3064.71 -1.07224 1.31533 0
M  V30 32197 H 3063.48 -2.72098 2.81209 0
M  V30 32198 H 3063.1 -3.71569 1.41501 0
M  V30 32199 N 3064.1 -1.01278 -1.2075 0
M  V30 32200 C 3065.06 -0.584622 -2.21619 0
M  V30 32201 C 3066.06 0.343187 -1.57095 0
M  V30 32202 O 3067.25 0.132402 -1.73696 0
M  V30 32203 C 3064.39 0.146812 -3.40584 0
M  V30 32204 H 3065.58 -1.4769 -2.61013 0
M  V30 32205 H 3063.13 -0.802147 -1.34147 0
M  V30 32206 H 3063.87 1.05418 -3.06688 0
M  V30 32207 H 3063.65 -0.519648 -3.88641 0
M  V30 32208 H 3065.14 0.433851 -4.1534 0
M  V30 32209 N 3065.58 1.36456 -0.788516 0
M  V30 32210 C 3066.8 2.0405 -0.37126 0
M  V30 32211 C 3067.23 1.59066 1.00397 0
M  V30 32212 O 3066.59 0.758708 1.64661 0
M  V30 32213 C 3066.64 3.57877 -0.442338 0
M  V30 32214 O 3065.74 4.08702 0.551058 0
M  V30 32215 H 3065.08 0.644972 -0.15782 0
M  V30 32216 H 3067.61 1.74429 -1.06938 0
M  V30 32217 H 3067.62 4.06854 -0.305619 0
M  V30 32218 H 3066.3 3.89971 -1.44554 0
M  V30 32219 H 3064.87 3.70999 0.376075 0
M  V30 32220 N 3067.06 0.540456 1.48043 0
M  V30 32221 C 3067.99 -0.205138 2.32597 0
M  V30 32222 C 3068.97 -0.925015 1.4275 0
M  V30 32223 O 3070.15 -0.908754 1.71625 0
M  V30 32224 C 3067.28 -1.24606 3.24177 0
M  V30 32225 C 3066.24 -0.643686 4.23132 0
M  V30 32226 C 3065.56 -1.78803 5.03918 0
M  V30 32227 C 3066.86 0.391531 5.2083 0
M  V30 32228 H 3068.56 0.500727 2.95183 0
M  V30 32229 H 3066.1 0.24225 1.41948 0
M  V30 32230 H 3068.06 -1.7757 3.82161 0
M  V30 32231 H 3066.78 -1.98165 2.59612 0
M  V30 32232 H 3065.44 -0.135489 3.6635 0
M  V30 32233 H 3065.09 -2.51225 4.3577 0
M  V30 32234 H 3064.79 -1.39084 5.70902 0
M  V30 32235 H 3066.31 -2.32124 5.64757 0
M  V30 32236 H 3067.73 -0.0514056 5.73277 0
M  V30 32237 H 3066.12 0.706674 5.95925 0
M  V30 32238 H 3067.19 1.29354 4.67328 0
M  V30 32239 N 3068.54 -1.55163 0.276085 0
M  V30 32240 C 3069.47 -2.25537 -0.604593 0
M  V30 32241 C 3070.45 -1.24587 -1.15811 0
M  V30 32242 O 3071.63 -1.53308 -1.19207 0
M  V30 32243 C 3068.76 -2.9772 -1.78831 0
M  V30 32244 C 3067.72 -4.05607 -1.36628 0
M  V30 32245 C 3067.04 -4.65369 -2.63317 0
M  V30 32246 C 3068.34 -5.19747 -0.515767 0
M  V30 32247 H 3070.04 -2.99395 -0.0176957 0
M  V30 32248 H 3067.58 -1.43998 -0.00707096 0
M  V30 32249 H 3069.53 -3.45663 -2.4103 0
M  V30 32250 H 3068.26 -2.21398 -2.40105 0
M  V30 32251 H 3066.92 -3.58476 -0.767478 0
M  V30 32252 H 3066.57 -3.85715 -3.22851 0
M  V30 32253 H 3066.27 -5.38216 -2.3579 0
M  V30 32254 H 3067.79 -5.16062 -3.26363 0
M  V30 32255 H 3069.2 -5.63736 -1.04279 0
M  V30 32256 H 3067.6 -5.99162 -0.335344 0
M  V30 32257 H 3068.67 -4.82663 0.465222 0
M  V30 32258 N 3070.01 -0.00338196 -1.576 0
M  V30 32259 C 3070.98 0.971801 -2.07578 0
M  V30 32260 C 3071.98 1.27036 -0.985819 0
M  V30 32261 O 3073.17 1.21498 -1.24835 0
M  V30 32262 C 3070.3 2.29576 -2.52007 0
M  V30 32263 H 3071.49 0.53943 -2.95009 0
M  V30 32264 H 3069.04 0.244159 -1.54381 0
M  V30 32265 H 3069.78 2.77495 -1.6783 0
M  V30 32266 H 3069.56 2.09225 -3.31613 0
M  V30 32267 H 3071.05 2.99525 -2.90988 0
M  V30 32268 N 3071.49 1.5528 0.269423 0
M  V30 32269 C 3072.4 1.91507 1.35507 0
M  V30 32270 C 3073.42 0.812739 1.53852 0
M  V30 32271 O 3074.59 1.11213 1.6791 0
M  V30 32272 C 3071.66 2.18272 2.69367 0
M  V30 32273 C 3070.72 3.41811 2.59737 0
M  V30 32274 C 3069.95 3.6729 3.87213 0
M  V30 32275 O 3070.18 2.95217 4.8806 0
M  V30 32276 O 3069.11 4.60824 3.87201 0
M  V30 32277 H 3072.94 2.83931 1.0778 0
M  V30 32278 H 3070.52 1.41872 0.468257 0
M  V30 32279 H 3072.4 2.36895 3.48509 0
M  V30 32280 H 3071.08 1.29029 2.96872 0
M  V30 32281 H 3069.98 3.28519 1.78958 0
M  V30 32282 H 3071.32 4.31284 2.37181 0
M  V30 32283 N 3072.97 -0.534097 1.48274 0
M  V30 32284 C 3074.2 -1.31499 1.59736 0
M  V30 32285 C 3074.61 -1.87055 0.25608 0
M  V30 32286 O 3073.97 -1.66193 -0.754056 0
M  V30 32287 C 3074.02 -2.46873 2.64076 0
M  V30 32288 O 3073.74 -1.93607 3.92999 0
M  V30 32289 C 3075.24 -3.38753 2.85939 0
M  V30 32290 H 3072.46 -0.40004 0.53871 0
M  V30 32291 H 3075.01 -0.644728 1.94071 0
M  V30 32292 H 3073.16 -3.09791 2.32612 0
M  V30 32293 H 3073.58 -2.69098 4.50207 0
M  V30 32294 H 3075.05 -4.16067 3.62757 0
M  V30 32295 H 3075.53 -3.9373 1.9461 0
M  V30 32296 H 3076.13 -2.81631 3.18692 0
M  V30 32297 N 3074.45 -1.36793 -0.782652 0
M  V30 32298 C 3075.7 -1.31139 -1.53776 0
M  V30 32299 C 3076.02 0.106979 -1.94706 0
M  V30 32300 O 3075.29 1.0487 -1.65467 0
M  V30 32301 H 3073.87 -0.482436 -0.57032 0
M  V30 32302 H 3076.53 -1.71164 -0.932151 0
M  V30 32303 H 3075.62 -1.94326 -2.44221 0
M  V30 32304 N 3075.93 1.00759 -1.21184 0
M  V30 32305 C 3076.87 2.09483 -0.968778 0
M  V30 32306 C 3077.84 1.65772 0.104296 0
M  V30 32307 O 3079.03 1.90753 -0.0422922 0
M  V30 32308 C 3076.17 3.409 -0.536746 0
M  V30 32309 C 3075.28 3.98038 -1.67897 0
M  V30 32310 C 3074.42 5.17553 -1.19636 0
M  V30 32311 C 3073.46 5.66794 -2.31109 0
M  V30 32312 N 3072.59 6.77561 -1.84 0
M  V30 32313 H 3077.43 2.2961 -1.89956 0
M  V30 32314 H 3074.97 1.12587 -0.946707 0
M  V30 32315 H 3076.93 4.16341 -0.267523 0
M  V30 32316 H 3075.56 3.20819 0.357035 0
M  V30 32317 H 3074.61 3.19607 -2.06289 0
M  V30 32318 H 3075.92 4.30578 -2.51802 0
M  V30 32319 H 3075.08 6.0023 -0.883644 0
M  V30 32320 H 3073.81 4.866 -0.32733 0
M  V30 32321 H 3072.82 4.82714 -2.63186 0
M  V30 32322 H 3074.04 5.99777 -3.18504 0
M  V30 32323 H 3071.99 6.4842 -0.994371 0
M  V30 32324 H 3071.91 7.09341 -2.61479 0
M  V30 32325 H 3073.18 7.63781 -1.55755 0
M  V30 32326 N 3077.4 1.01917 1.20211 0
M  V30 32327 C 3078.65 0.708586 1.89271 0
M  V30 32328 C 3078.97 -0.764349 1.79395 0
M  V30 32329 O 3078.24 -1.54997 1.19803 0
M  V30 32330 H 3076.82 0.259106 0.700623 0
M  V30 32331 H 3079.49 1.29132 1.45983 0
M  V30 32332 H 3078.58 0.994267 2.95839 0
M  V30 32333 N 3078.88 -1.36036 0.795742 0
M  V30 32334 C 3080.11 -2.03026 0.382633 0
M  V30 32335 C 3080.52 -1.60128 -1.00776 0
M  V30 32336 O 3079.86 -0.78922 -1.65883 0
M  V30 32337 C 3079.93 -3.57547 0.374208 0
M  V30 32338 C 3079.59 -4.2367 1.71326 0
M  V30 32339 C 3080.59 -4.46115 2.66978 0
M  V30 32340 C 3078.27 -4.61013 1.99429 0
M  V30 32341 C 3080.27 -5.04991 3.88925 0
M  V30 32342 C 3077.95 -5.19606 3.21641 0
M  V30 32343 C 3078.95 -5.41535 4.16208 0
M  V30 32344 O 3078.64 -5.98895 5.36264 0
M  V30 32345 H 3078.37 -0.658001 0.154955 0
M  V30 32346 H 3080.92 -1.74863 1.07759 0
M  V30 32347 H 3079.15 -3.84855 -0.377281 0
M  V30 32348 H 3080.84 -4.05897 -0.0150986 0
M  V30 32349 H 3081.61 -4.17655 2.46555 0
M  V30 32350 H 3077.49 -4.43265 1.26638 0
M  V30 32351 H 3081.03 -5.22024 4.6275 0
M  V30 32352 H 3076.93 -5.47492 3.4194 0
M  V30 32353 H 3077.7 -6.17356 5.37414 0
M  V30 32354 N 3080.36 -0.5483 -1.47755 0
M  V30 32355 C 3081.61 -0.0208898 -2.02089 0
M  V30 32356 C 3081.93 1.33014 -1.42591 0
M  V30 32357 O 3081.2 1.86554 -0.597858 0
M  V30 32358 H 3079.78 -0.00473336 -0.746985 0
M  V30 32359 H 3082.44 -0.716288 -1.8126 0
M  V30 32360 H 3081.54 0.0738468 -3.12013 0
M  V30 32361 N 3081.84 1.55014 -0.28431 0
M  V30 32362 C 3082.77 2.25854 0.592624 0
M  V30 32363 C 3083.75 1.25199 1.15149 0
M  V30 32364 O 3084.93 1.53938 1.18392 0
M  V30 32365 C 3082.06 2.98664 1.77249 0
M  V30 32366 C 3081.02 4.06326 1.34475 0
M  V30 32367 C 3080.34 4.66759 2.60845 0
M  V30 32368 C 3081.64 5.20013 0.488196 0
M  V30 32369 H 3083.34 2.994 0.00181779 0
M  V30 32370 H 3080.88 1.44 -0.000565714 0
M  V30 32371 H 3082.84 3.46936 2.39193 0
M  V30 32372 H 3081.56 2.22668 2.38927 0
M  V30 32373 H 3080.22 3.58878 0.748456 0
M  V30 32374 H 3079.87 3.87422 3.20801 0
M  V30 32375 H 3079.57 5.39459 2.32933 0
M  V30 32376 H 3081.09 5.17785 3.23621 0
M  V30 32377 H 3082.51 5.64282 1.01288 0
M  V30 32378 H 3080.9 5.99332 0.303564 0
M  V30 32379 H 3081.97 4.8241 -0.490812 0
M  V30 32380 N 3083.32 0.0117398 1.57596 0
M  V30 32381 C 3084.57 -0.669887 1.90251 0
M  V30 32382 C 3084.88 -1.7428 0.888017 0
M  V30 32383 O 3086.08 -2.47987 1.1052 0
M  V30 32384 C 3084.54 -1.24271 3.37764 0
M  V30 32385 C 3084.15 -0.203997 4.47535 0
M  V30 32386 C 3085.89 -1.90185 3.79513 0
M  V30 32387 C 3083.8 -0.787474 5.86134 0
M  V30 32388 H 3082.73 -0.253972 0.70994 0
M  V30 32389 H 3085.38 0.074204 1.8335 0
M  V30 32390 H 3083.76 -2.03785 3.3954 0
M  V30 32391 H 3084.94 0.56741 4.57293 0
M  V30 32392 H 3083.25 0.355378 4.14881 0
M  V30 32393 H 3085.85 -2.34765 4.80406 0
M  V30 32394 H 3086.19 -2.73734 3.13648 0
M  V30 32395 H 3086.72 -1.17387 3.80086 0
M  V30 32396 H 3083.46 0.0094994 6.55499 0
M  V30 32397 H 3082.98 -1.52777 5.80017 0
M  V30 32398 H 3084.66 -1.28254 6.34161 0
M  V30 32399 N 3084.79 -1.55421 -0.261185 0
M  V30 32400 C 3085.73 -1.84056 -1.34902 0
M  V30 32401 C 3086.71 -0.694492 -1.47022 0
M  V30 32402 O 3087.89 -0.938748 -1.63462 0
M  V30 32403 C 3085.02 -2.01264 -2.72416 0
M  V30 32404 C 3084.06 -3.2386 -2.7752 0
M  V30 32405 S 3084.9 -4.80902 -2.3557 0
M  V30 32406 C 3086.05 -5.01098 -3.75036 0
M  V30 32407 H 3086.28 -2.76037 -1.10411 0
M  V30 32408 H 3083.82 -1.47344 -0.461435 0
M  V30 32409 H 3085.78 -2.11863 -3.51603 0
M  V30 32410 H 3084.44 -1.1015 -2.94153 0
M  V30 32411 H 3083.63 -3.32823 -3.78477 0
M  V30 32412 H 3083.23 -3.11913 -2.06365 0
M  V30 32413 H 3085.52 -4.87565 -4.70412 0
M  V30 32414 H 3086.47 -6.03119 -3.71017 0
M  V30 32415 H 3086.87 -4.29016 -3.66886 0
M  V30 32416 N 3086.27 0.526227 -1.48555 0
M  V30 32417 C 3087.5 1.3065 -1.60432 0
M  V30 32418 C 3087.92 1.86917 -0.265996 0
M  V30 32419 O 3087.27 1.66591 0.745232 0
M  V30 32420 C 3087.32 2.45469 -2.65382 0
M  V30 32421 O 3087.04 1.9152 -3.9402 0
M  V30 32422 C 3088.55 3.37232 -2.87732 0
M  V30 32423 H 3085.77 0.397178 -0.540824 0
M  V30 32424 H 3088.31 0.634427 -1.9441 0
M  V30 32425 H 3086.46 3.08553 -2.34251 0
M  V30 32426 H 3086.88 2.66707 -4.51628 0
M  V30 32427 H 3088.35 4.14137 -3.64958 0
M  V30 32428 H 3088.83 3.92693 -1.96695 0
M  V30 32429 H 3089.44 2.79937 -3.20181 0
M  V30 32430 N 3087.75 1.37206 0.775387 0
M  V30 32431 C 3089.16 1.28813 1.35145 0
M  V30 32432 C 3089.51 -0.0658824 1.96089 0
M  V30 32433 O 3088.64 -0.96765 1.9356 0
M  V30 32434 C 3089.23 2.33263 2.45711 0
M  V30 32435 C 3087.79 2.28515 2.99095 0
M  V30 32436 C 3086.94 2.17288 1.72282 0
M  V30 32437 H 3089.89 1.47881 0.575928 0
M  V30 32438 H 3089.91 1.97718 3.25097 0
M  V30 32439 H 3089.42 3.31798 2.01325 0
M  V30 32440 H 3087.52 1.33491 3.47866 0
M  V30 32441 H 3087.64 3.21781 3.54956 0
M  V30 32442 H 3086 1.63773 1.95065 0
M  V30 32443 H 3086.78 3.17732 1.30005 0
M  V30 32444 N 3089.23 -1.00115 1.21716 0
M  V30 32445 C 3090.19 -2.07127 0.981374 0
M  V30 32446 C 3091.19 -1.60725 -0.0490833 0
M  V30 32447 O 3092.38 -1.73176 0.188586 0
M  V30 32448 C 3089.51 -3.37494 0.480667 0
M  V30 32449 H 3090.71 -2.29478 1.93079 0
M  V30 32450 H 3088.26 -1.17149 1.03469 0
M  V30 32451 H 3088.99 -3.20825 -0.473495 0
M  V30 32452 H 3088.78 -3.72506 1.224 0
M  V30 32453 H 3090.27 -4.16249 0.335684 0
M  V30 32454 N 3090.71 -1.02553 -1.19669 0
M  V30 32455 C 3091.98 -0.634804 -1.85012 0
M  V30 32456 C 3092.36 0.886673 -1.91576 0
M  V30 32457 O 3091.71 1.78202 -1.43025 0
M  V30 32458 C 3091.92 -1.29298 -3.24165 0
M  V30 32459 C 3093.27 -1.41409 -4.00361 0
M  V30 32460 O 3094.29 -1.24989 -3.33551 0
M  V30 32461 O 3093.15 -1.68029 -5.20027 0
M  V30 32462 H 3090.25 -0.22021 -0.797143 0
M  V30 32463 H 3092.79 -1.12347 -1.27186 0
M  V30 32464 H 3091.57 -2.3322 -3.14204 0
M  V30 32465 H 3091.19 -0.791963 -3.89633 0
M  V30 32466 N 3092.19 1.35612 -0.802945 0
M  V30 32467 C 3093.13 2.29854 -0.208781 0
M  V30 32468 C 3094.1 1.52636 0.655101 0
M  V30 32469 O 3095.29 1.81089 0.600947 0
M  V30 32470 C 3092.43 3.39121 0.639604 0
M  V30 32471 C 3091.54 4.31309 -0.24431 0
M  V30 32472 C 3090.68 5.27666 0.611732 0
M  V30 32473 C 3089.71 6.11492 -0.272805 0
M  V30 32474 N 3088.85 6.99997 0.542999 0
M  V30 32475 H 3093.69 2.80078 -1.01787 0
M  V30 32476 H 3091.23 1.37847 -0.513489 0
M  V30 32477 H 3093.19 4.01134 1.14661 0
M  V30 32478 H 3091.82 2.90183 1.41399 0
M  V30 32479 H 3090.87 3.70332 -0.869387 0
M  V30 32480 H 3092.18 4.90143 -0.925288 0
M  V30 32481 H 3091.33 5.95034 1.18401 0
M  V30 32482 H 3090.07 4.6932 1.32629 0
M  V30 32483 H 3089.08 5.43074 -0.857382 0
M  V30 32484 H 3090.3 6.71916 -0.985169 0
M  V30 32485 H 3088.25 6.44143 1.2416 0
M  V30 32486 H 3088.17 7.55958 -0.0800095 0
M  V30 32487 H 3089.43 7.71719 1.09867 0
M  V30 32488 N 3093.66 0.556128 1.47462 0
M  V30 32489 C 3094.91 0.0316067 2.02075 0
M  V30 32490 C 3095.23 -1.32256 1.43295 0
M  V30 32491 O 3094.5 -1.86235 0.607743 0
M  V30 32492 H 3093.08 0.00869473 0.746949 0
M  V30 32493 H 3095.74 0.725891 1.80878 0
M  V30 32494 H 3094.84 -0.057299 3.12047 0
M  V30 32495 N 3095.14 -1.54861 0.292527 0
M  V30 32496 C 3096.05 -2.26877 -0.596996 0
M  V30 32497 C 3097.07 -1.30088 -1.15555 0
M  V30 32498 O 3098.24 -1.63056 -1.18215 0
M  V30 32499 C 3095.31 -2.98906 -1.75658 0
M  V30 32500 C 3094.37 -4.11214 -1.23296 0
M  V30 32501 C 3093.6 -4.79799 -2.33728 0
M  V30 32502 O 3093.83 -4.47692 -3.53452 0
M  V30 32503 O 3092.76 -5.67383 -2.00898 0
M  V30 32504 H 3096.59 -3.03697 -0.0130708 0
M  V30 32505 H 3094.17 -1.49282 0.0592904 0
M  V30 32506 H 3096.05 -3.44114 -2.43235 0
M  V30 32507 H 3094.73 -2.24988 -2.32727 0
M  V30 32508 H 3093.63 -3.70424 -0.523156 0
M  V30 32509 H 3094.97 -4.87084 -0.707801 0
M  V30 32510 N 3096.62 -0.0200973 -1.57587 0
M  V30 32511 C 3097.86 0.664756 -1.93288 0
M  V30 32512 C 3098.22 1.69808 -0.896052 0
M  V30 32513 O 3099.42 2.43477 -1.13896 0
M  V30 32514 C 3097.7 1.27322 -3.33952 0
M  V30 32515 S 3099.25 1.98041 -3.91568 0
M  V30 32516 H 3096.07 0.219094 -0.676401 0
M  V30 32517 H 3098.67 -0.0816023 -1.9533 0
M  V30 32518 H 3097.38 0.508601 -4.07236 0
M  V30 32519 H 3096.91 2.05708 -3.35332 0
M  V30 32520 H 3098.92 3.25785 -3.74271 0
M  V30 32521 N 3098.1 1.55557 0.252939 0
M  V30 32522 C 3099.34 1.77106 0.98182 0
M  V30 32523 C 3099.67 0.583338 1.85546 0
M  V30 32524 O 3098.93 -0.433557 1.90837 0
M  V30 32525 C 3099.23 3.04095 1.8778 0
M  V30 32526 C 3098.89 4.35723 1.16001 0
M  V30 32527 C 3097.55 4.71494 0.961614 0
M  V30 32528 C 3099.91 5.17121 0.650794 0
M  V30 32529 C 3097.23 5.86202 0.241601 0
M  V30 32530 C 3099.59 6.32575 -0.0557236 0
M  V30 32531 C 3098.25 6.66971 -0.265653 0
M  V30 32532 H 3097.52 0.648077 0.359274 0
M  V30 32533 H 3100.17 1.89829 0.25241 0
M  V30 32534 H 3098.47 2.86357 2.67407 0
M  V30 32535 H 3100.17 3.17966 2.44334 0
M  V30 32536 H 3096.76 4.07619 1.32458 0
M  V30 32537 H 3100.94 4.89946 0.791633 0
M  V30 32538 H 3096.2 6.11362 0.0684217 0
M  V30 32539 H 3100.37 6.94893 -0.457962 0
M  V30 32540 H 3098 7.55704 -0.825533 0
M  V30 32541 N 3099.58 -0.518341 1.48832 0
M  V30 32542 C 3100.52 -1.64265 1.64681 0
M  V30 32543 C 3101.52 -1.61446 0.512995 0
M  V30 32544 O 3102.72 -1.66163 0.692092 0
M  V30 32545 H 3099.1 -0.544215 0.518974 0
M  V30 32546 H 3101.07 -1.48045 2.59085 0
M  V30 32547 C 3099.82 -3.02487 1.71454 0
M  V30 32548 H 3099.14 -3.05356 2.58066 0
M  V30 32549 H 3100.58 -3.80739 1.86584 0
M  V30 32550 C 3099.04 -3.33805 0.455643 0
M  V30 32551 O 3099.57 -3.99431 -0.426357 0
M  V30 32552 N 3097.78 -2.8879 0.323814 0
M  V30 32553 H 3097.32 -2.35561 1.04253 0
M  V30 32554 H 3097.28 -3.10112 -0.517459 0
M  V30 32555 N 3101.05 -1.37615 -0.7681 0
M  V30 32556 C 3101.96 -1.35875 -1.91246 0
M  V30 32557 C 3102.98 -0.257816 -1.72079 0
M  V30 32558 O 3104.16 -0.493817 -1.95252 0
M  V30 32559 C 3101.22 -1.16834 -3.26421 0
M  V30 32560 C 3100.28 -2.366 -3.58216 0
M  V30 32561 C 3099.51 -2.18459 -4.86941 0
M  V30 32562 O 3099.74 -1.17074 -5.58256 0
M  V30 32563 O 3098.67 -3.06727 -5.17882 0
M  V30 32564 H 3102.5 -2.32267 -1.95667 0
M  V30 32565 H 3100.08 -1.18383 -0.911361 0
M  V30 32566 H 3101.96 -1.08219 -4.07267 0
M  V30 32567 H 3100.64 -0.23518 -3.22845 0
M  V30 32568 H 3099.55 -2.50788 -2.7759 0
M  V30 32569 H 3100.88 -3.28496 -3.66539 0
M  V30 32570 N 3102.53 0.994677 -1.22245 0
M  V30 32571 C 3103.78 1.73653 -1.04749 0
M  V30 32572 C 3104.11 1.89678 0.416646 0
M  V30 32573 O 3103.39 1.43865 1.30894 0
M  V30 32574 C 3103.67 3.14315 -1.75722 0
M  V30 32575 C 3103.52 3.0595 -3.29719 0
M  V30 32576 C 3104.84 4.13452 -1.50816 0
M  V30 32577 H 3101.96 0.630315 -0.381932 0
M  V30 32578 H 3104.6 1.15894 -1.50561 0
M  V30 32579 H 3102.75 3.63627 -1.36776 0
M  V30 32580 H 3104.42 2.64272 -3.78098 0
M  V30 32581 H 3102.67 2.42797 -3.59488 0
M  V30 32582 H 3103.34 4.05479 -3.74554 0
M  V30 32583 H 3105.81 3.72889 -1.84643 0
M  V30 32584 H 3104.69 5.09993 -2.02973 0
M  V30 32585 H 3104.95 4.39901 -0.44037 0
M  V30 32586 N 3104.01 1.03186 1.19123 0
M  V30 32587 C 3105.24 0.749784 1.92836 0
M  V30 32588 C 3105.65 -0.69182 1.75668 0
M  V30 32589 O 3105.01 -1.47074 1.08053 0
M  V30 32590 C 3105.06 1.09532 3.44507 0
M  V30 32591 O 3104.78 2.48031 3.61126 0
M  V30 32592 C 3106.28 0.836473 4.35337 0
M  V30 32593 H 3103.5 0.274116 0.612455 0
M  V30 32594 H 3106.05 1.37715 1.51178 0
M  V30 32595 H 3104.2 0.513073 3.83987 0
M  V30 32596 H 3104.62 2.60992 4.54955 0
M  V30 32597 H 3106.09 1.12818 5.40348 0
M  V30 32598 H 3106.57 -0.229025 4.38602 0
M  V30 32599 H 3107.17 1.40159 4.01541 0
M  V30 32600 N 3105.49 -1.35184 0.810125 0
M  V30 32601 C 3106.73 -1.9939 0.401874 0
M  V30 32602 C 3107.09 -1.63102 -1.02056 0
M  V30 32603 O 3106.38 -0.88593 -1.69888 0
M  V30 32604 C 3106.58 -3.53499 0.526623 0
M  V30 32605 C 3106.41 -4.04757 1.95963 0
M  V30 32606 C 3105.18 -4.33948 2.58876 0
M  V30 32607 C 3107.37 -4.23046 2.92466 0
M  V30 32608 N 3105.36 -4.71159 3.93551 0
M  V30 32609 C 3106.73 -4.63293 4.12019 0
M  V30 32610 C 3108.78 -4.05263 2.89252 0
M  V30 32611 C 3107.48 -4.87617 5.28793 0
M  V30 32612 C 3109.51 -4.30746 4.05231 0
M  V30 32613 C 3108.87 -4.71268 5.23532 0
M  V30 32614 H 3104.97 -0.757323 0.194899 0
M  V30 32615 H 3107.56 -1.63825 1.05212 0
M  V30 32616 H 3105.73 -3.88287 -0.0936468 0
M  V30 32617 H 3107.46 -4.04594 0.0926145 0
M  V30 32618 H 3104.21 -4.24394 2.10206 0
M  V30 32619 H 3104.64 -4.94019 4.62897 0
M  V30 32620 H 3109.28 -3.73073 1.98938 0
M  V30 32621 H 3107 -5.1868 6.19675 0
M  V30 32622 H 3110.58 -4.18535 4.04128 0
M  V30 32623 H 3109.46 -4.90601 6.11784 0
M  V30 32624 N 3106.97 -0.56394 -1.47165 0
M  V30 32625 C 3108.19 -0.047465 -2.06846 0
M  V30 32626 C 3108.61 1.24925 -1.4156 0
M  V30 32627 O 3107.97 1.751 -0.514407 0
M  V30 32628 C 3108.02 0.144767 -3.6121 0
M  V30 32629 O 3107.74 -1.10061 -4.2405 0
M  V30 32630 C 3109.24 0.697753 -4.37774 0
M  V30 32631 H 3106.46 -0.0489014 -0.669216 0
M  V30 32632 H 3109 -0.779269 -1.8907 0
M  V30 32633 H 3107.16 0.826723 -3.78476 0
M  V30 32634 H 3107.57 -0.902571 -5.16676 0
M  V30 32635 H 3109.05 0.78152 -5.4644 0
M  V30 32636 H 3109.52 1.71056 -4.0452 0
M  V30 32637 H 3110.13 0.0512769 -4.25269 0
M  V30 32638 N 3108.44 1.54704 -0.300735 0
M  V30 32639 C 3109.39 2.24961 0.591225 0
M  V30 32640 C 3110.39 1.25552 1.13723 0
M  V30 32641 O 3111.59 1.43404 1.0879 0
M  V30 32642 H 3107.97 0.722296 0.209265 0
M  V30 32643 H 3109.94 2.9839 -0.0238699 0
M  V30 32644 C 3108.69 3.00349 1.75174 0
M  V30 32645 H 3108.01 3.76646 1.34082 0
M  V30 32646 H 3109.45 3.5279 2.35192 0
M  V30 32647 C 3107.91 2.07302 2.6557 0
M  V30 32648 O 3108.44 1.64089 3.66657 0
M  V30 32649 N 3106.65 1.73264 2.33298 0
M  V30 32650 H 3106.19 2.08602 1.51139 0
M  V30 32651 H 3106.15 1.11283 2.94047 0
M  V30 32652 N 3109.92 0.0284543 1.57574 0
M  V30 32653 C 3111.17 -0.651294 1.92057 0
M  V30 32654 C 3111.5 -1.71817 0.905122 0
M  V30 32655 O 3110.78 -1.94366 -0.0722362 0
M  V30 32656 C 3111.06 -1.26835 3.37024 0
M  V30 32657 C 3110.91 -0.211078 4.49304 0
M  V30 32658 C 3112.23 -2.18656 3.81939 0
M  V30 32659 H 3109.35 -0.235292 0.698432 0
M  V30 32660 H 3111.99 0.0855769 1.89807 0
M  V30 32661 H 3110.14 -1.89638 3.39072 0
M  V30 32662 H 3111.81 0.41946 4.59389 0
M  V30 32663 H 3110.06 0.463521 4.31316 0
M  V30 32664 H 3110.73 -0.682422 5.47765 0
M  V30 32665 H 3113.2 -1.6584 3.81623 0
M  V30 32666 H 3112.08 -2.58784 4.84068 0
M  V30 32667 H 3112.34 -3.07744 3.17405 0
M  V30 32668 N 3111.4 -1.55689 -0.244686 0
M  V30 32669 C 3112.63 -1.81682 -0.989912 0
M  V30 32670 C 3113.04 -0.60448 -1.78862 0
M  V30 32671 O 3112.4 0.426876 -1.77437 0
M  V30 32672 C 3112.45 -3.0592 -1.92602 0
M  V30 32673 O 3112.17 -4.22474 -1.15963 0
M  V30 32674 C 3113.67 -3.44729 -2.78705 0
M  V30 32675 H 3110.89 -0.604524 -0.29119 0
M  V30 32676 H 3113.44 -2.02751 -0.266902 0
M  V30 32677 H 3111.59 -2.86894 -2.60328 0
M  V30 32678 H 3112.01 -4.92901 -1.79302 0
M  V30 32679 H 3113.48 -4.34757 -3.40133 0
M  V30 32680 H 3113.96 -2.65416 -3.4993 0
M  V30 32681 H 3114.56 -3.66113 -2.16428 0
M  V30 32682 N 3112.88 0.510441 -1.49105 0
M  V30 32683 C 3114.13 1.26515 -1.58114 0
M  V30 32684 C 3114.45 1.92705 -0.263637 0
M  V30 32685 O 3113.71 1.80853 0.747711 0
M  V30 32686 C 3114.01 2.36156 -2.68263 0
M  V30 32687 C 3113.67 1.87488 -4.10072 0
M  V30 32688 C 3112.34 1.73934 -4.48665 0
M  V30 32689 C 3114.69 1.50951 -4.98862 0
M  V30 32690 C 3112.02 1.22207 -5.73831 0
M  V30 32691 C 3114.37 1.0068 -6.24537 0
M  V30 32692 C 3113.03 0.857574 -6.61968 0
M  V30 32693 H 3112.3 0.462952 -0.578582 0
M  V30 32694 H 3114.95 0.567442 -1.829 0
M  V30 32695 H 3113.25 3.11677 -2.37413 0
M  V30 32696 H 3114.95 2.94236 -2.72445 0
M  V30 32697 H 3111.54 1.98994 -3.79604 0
M  V30 32698 H 3115.72 1.60274 -4.69708 0
M  V30 32699 H 3110.98 1.09357 -6.0154 0
M  V30 32700 H 3115.15 0.714858 -6.92721 0
M  V30 32701 H 3112.78 0.454569 -7.5884 0
M  V30 32702 N 3114.36 1.38021 0.760791 0
M  V30 32703 C 3115.29 1.37381 1.88809 0
M  V30 32704 C 3116.27 0.240766 1.68387 0
M  V30 32705 O 3117.45 0.442772 1.89085 0
M  V30 32706 C 3114.58 1.19095 3.26242 0
M  V30 32707 C 3113.54 2.29527 3.6125 0
M  V30 32708 C 3112.86 1.96354 4.97342 0
M  V30 32709 C 3114.16 3.7176 3.66868 0
M  V30 32710 H 3115.86 2.31714 1.89602 0
M  V30 32711 H 3113.4 1.11537 0.910799 0
M  V30 32712 H 3115.36 1.17275 4.04753 0
M  V30 32713 H 3114.08 0.212209 3.2591 0
M  V30 32714 H 3112.74 2.30522 2.85053 0
M  V30 32715 H 3112.39 0.969814 4.93562 0
M  V30 32716 H 3112.09 2.70309 5.21734 0
M  V30 32717 H 3113.61 1.96139 5.7824 0
M  V30 32718 H 3115.02 3.72835 4.35508 0
M  V30 32719 H 3113.42 4.44861 4.02764 0
M  V30 32720 H 3114.49 4.04595 2.67266 0
M  V30 32721 N 3115.83 -0.98818 1.22771 0
M  V30 32722 C 3116.78 -2.07916 1.00198 0
M  V30 32723 C 3117.75 -1.65917 -0.0779099 0
M  V30 32724 O 3118.94 -1.90662 0.072634 0
M  V30 32725 C 3116.08 -3.40003 0.590913 0
M  V30 32726 C 3115.19 -3.95317 1.74209 0
M  V30 32727 C 3114.32 -5.15584 1.27855 0
M  V30 32728 C 3113.36 -5.63045 2.40097 0
M  V30 32729 N 3112.5 -6.74548 1.94756 0
M  V30 32730 H 3117.34 -2.26559 1.93585 0
M  V30 32731 H 3114.88 -1.11067 0.964499 0
M  V30 32732 H 3116.84 -4.15863 0.333726 0
M  V30 32733 H 3115.47 -3.21347 -0.30595 0
M  V30 32734 H 3114.52 -3.16285 2.11348 0
M  V30 32735 H 3115.83 -4.26517 2.5862 0
M  V30 32736 H 3114.98 -5.98749 0.979024 0
M  V30 32737 H 3113.72 -4.86018 0.404702 0
M  V30 32738 H 3112.73 -4.78466 2.70833 0
M  V30 32739 H 3113.95 -5.94634 3.28005 0
M  V30 32740 H 3111.9 -6.46756 1.0974 0
M  V30 32741 H 3111.82 -7.05091 2.72731 0
M  V30 32742 H 3113.08 -7.61206 1.67886 0
M  V30 32743 N 3117.31 -1.03816 -1.18575 0
M  V30 32744 C 3118.73 -0.756934 -1.40509 0
M  V30 32745 C 3118.93 0.654598 -1.90571 0
M  V30 32746 O 3117.98 1.41918 -2.08843 0
M  V30 32747 C 3119.3 -1.80091 -2.40806 0
M  V30 32748 C 3120.85 -1.82153 -2.54538 0
M  V30 32749 C 3121.32 -2.85535 -3.58097 0
M  V30 32750 N 3122.81 -2.8441 -3.65602 0
M  V30 32751 C 3123.55 -3.61055 -4.45451 0
M  V30 32752 N 3123.04 -4.47444 -5.28929 0
M  V30 32753 N 3124.84 -3.49555 -4.4019 0
M  V30 32754 H 3116.99 -1.9491 -0.84404 0
M  V30 32755 H 3119.25 -0.843196 -0.433272 0
M  V30 32756 H 3118.96 -2.81326 -2.11065 0
M  V30 32757 H 3118.83 -1.63095 -3.40118 0
M  V30 32758 H 3121.22 -0.815905 -2.83597 0
M  V30 32759 H 3121.3 -2.03225 -1.55348 0
M  V30 32760 H 3120.94 -3.86275 -3.29779 0
M  V30 32761 H 3120.87 -2.61718 -4.56959 0
M  V30 32762 H 3123.36 -2.21762 -3.0599 0
M  V30 32763 H 3123.68 -5.02642 -5.87001 0
M  V30 32764 H 3122.02 -4.51512 -5.28358 0
M  V30 32765 H 3125.21 -2.81471 -3.74021 0
M  V30 32766 H 3125.38 -4.09537 -5.02179 0
M  V30 32767 N 3118.79 1.34753 -0.817283 0
M  V30 32768 C 3120.02 2.02391 -0.414884 0
M  V30 32769 C 3120.43 1.61711 0.982157 0
M  V30 32770 O 3119.77 0.81551 1.64606 0
M  V30 32771 C 3119.83 3.56907 -0.431044 0
M  V30 32772 C 3119.5 4.20891 -1.78044 0
M  V30 32773 C 3120.49 4.41811 -2.74042 0
M  V30 32774 C 3118.18 4.57782 -2.06738 0
M  V30 32775 C 3120.17 4.9874 -3.9691 0
M  V30 32776 C 3117.86 5.14423 -3.29867 0
M  V30 32777 C 3118.86 5.34845 -4.2477 0
M  V30 32778 O 3118.55 5.90288 -5.45724 0
M  V30 32779 H 3118.28 0.655452 -0.165404 0
M  V30 32780 H 3120.83 1.73127 -1.10527 0
M  V30 32781 H 3119.06 3.85407 0.316006 0
M  V30 32782 H 3120.75 4.0587 -0.049478 0
M  V30 32783 H 3121.52 4.1368 -2.53168 0
M  V30 32784 H 3117.4 4.41194 -1.33674 0
M  V30 32785 H 3120.94 5.14596 -4.70996 0
M  V30 32786 H 3116.84 5.41983 -3.50606 0
M  V30 32787 H 3117.61 6.08728 -5.47167 0
M  V30 32788 N 3120.27 0.571737 1.46864 0
M  V30 32789 C 3121.52 0.0531427 2.0243 0
M  V30 32790 C 3121.84 -1.30249 1.44449 0
M  V30 32791 O 3121.1 -1.86429 0.595215 0
M  V30 32792 C 3121.4 -0.0741683 3.57323 0
M  V30 32793 C 3121.06 1.21245 4.34293 0
M  V30 32794 C 3119.73 1.56497 4.55041 0
M  V30 32795 C 3122.08 2.06438 4.78574 0
M  V30 32796 C 3119.41 2.76761 5.1732 0
M  V30 32797 C 3121.76 3.25918 5.42181 0
M  V30 32798 C 3120.42 3.61466 5.61158 0
M  V30 32799 H 3119.69 0.0194463 0.740745 0
M  V30 32800 H 3122.34 0.746171 1.76365 0
M  V30 32801 H 3120.64 -0.850258 3.82463 0
M  V30 32802 H 3122.34 -0.491007 3.97983 0
M  V30 32803 H 3118.93 0.927996 4.18433 0
M  V30 32804 H 3123.12 1.80509 4.6231 0
M  V30 32805 H 3118.37 3.04454 5.30206 0
M  V30 32806 H 3122.55 3.92208 5.75452 0
M  V30 32807 H 3120.17 4.54748 6.09187 0
M  V30 32808 N 3121.75 -1.54542 0.308935 0
M  V30 32809 C 3123.16 -1.59539 -0.0441993 0
M  V30 32810 C 3123.36 -1.32578 -1.51741 0
M  V30 32811 O 3122.42 -1.10306 -2.27132 0
M  V30 32812 C 3123.73 -2.98527 0.360878 0
M  V30 32813 C 3125.28 -3.11458 0.310307 0
M  V30 32814 C 3125.76 -4.52768 0.690325 0
M  V30 32815 N 3127.25 -4.58713 0.643165 0
M  V30 32816 C 3127.98 -5.6614 0.909583 0
M  V30 32817 N 3127.48 -6.81569 1.24238 0
M  V30 32818 N 3129.27 -5.55847 0.836116 0
M  V30 32819 H 3121.42 -1.70327 1.26896 0
M  V30 32820 H 3123.68 -0.795914 0.515 0
M  V30 32821 H 3123.39 -3.23206 1.38674 0
M  V30 32822 H 3123.26 -3.76148 -0.281496 0
M  V30 32823 H 3125.65 -2.86522 -0.706325 0
M  V30 32824 H 3125.73 -2.35974 0.987414 0
M  V30 32825 H 3125.38 -4.78434 1.7048 0
M  V30 32826 H 3125.31 -5.26599 -0.00893818 0
M  V30 32827 H 3127.8 -3.75807 0.397204 0
M  V30 32828 H 3128.11 -7.59427 1.43143 0
M  V30 32829 H 3126.46 -6.83102 1.2805 0
M  V30 32830 H 3129.65 -4.64546 0.575718 0
M  V30 32831 H 3129.82 -6.39484 1.04711 0
M  V30 32832 N 3123.23 -0.0368104 -1.57557 0
M  V30 32833 C 3124.19 0.927552 -2.09593 0
M  V30 32834 C 3125.19 1.24917 -1.01254 0
M  V30 32835 O 3126.38 1.18823 -1.27384 0
M  V30 32836 C 3123.51 2.24179 -2.5682 0
M  V30 32837 H 3124.7 0.476732 -2.96087 0
M  V30 32838 H 3122.26 0.211357 -1.54864 0
M  V30 32839 H 3122.99 2.73873 -1.73678 0
M  V30 32840 H 3122.78 2.02144 -3.35976 0
M  V30 32841 H 3124.27 2.93286 -2.97276 0
M  V30 32842 N 3124.7 1.55817 0.236426 0
M  V30 32843 C 3125.98 1.68905 0.986434 0
M  V30 32844 C 3126.36 0.579758 2.02983 0
M  V30 32845 O 3125.71 -0.415349 2.24693 0
M  V30 32846 C 3125.92 3.09628 1.61032 0
M  V30 32847 C 3127.27 3.68564 2.10822 0
M  V30 32848 O 3128.29 3.12495 1.70954 0
M  V30 32849 O 3127.15 4.66878 2.84056 0
M  V30 32850 H 3124.24 0.687379 0.459825 0
M  V30 32851 H 3126.79 1.68143 0.229383 0
M  V30 32852 H 3125.56 3.81819 0.856165 0
M  V30 32853 H 3125.18 3.14446 2.4333 0
M  V30 32854 N 3126.18 -0.502526 1.49373 0
M  V30 32855 C 3127.09 -1.63065 1.68662 0
M  V30 32856 C 3128.11 -1.64426 0.569211 0
M  V30 32857 O 3129.28 -1.82875 0.843728 0
M  V30 32858 C 3126.35 -2.99438 1.7475 0
M  V30 32859 C 3125.41 -3.08716 2.98317 0
M  V30 32860 C 3124.64 -4.38584 3.04105 0
M  V30 32861 O 3124.87 -5.27293 2.17528 0
M  V30 32862 O 3123.8 -4.52802 3.96552 0
M  V30 32863 H 3127.63 -1.49722 2.64229 0
M  V30 32864 H 3125.21 -0.678647 1.33097 0
M  V30 32865 H 3127.09 -3.80493 1.81116 0
M  V30 32866 H 3125.77 -3.13047 0.82362 0
M  V30 32867 H 3124.67 -2.26855 2.97469 0
M  V30 32868 H 3126.01 -3.00034 3.9018 0
M  V30 32869 N 3127.66 -1.38422 -0.75346 0
M  V30 32870 C 3128.59 -1.3155 -1.87689 0
M  V30 32871 C 3129.6 -0.227699 -1.612 0
M  V30 32872 O 3130.79 -0.485268 -1.71777 0
M  V30 32873 C 3127.89 -1.01551 -3.23327 0
M  V30 32874 C 3127.07 -2.21243 -3.7732 0
M  V30 32875 C 3126.13 -1.87986 -4.91475 0
M  V30 32876 O 3125.15 -2.60481 -5.06101 0
M  V30 32877 N 3126.35 -0.834897 -5.74465 0
M  V30 32878 H 3129.12 -2.28357 -1.94095 0
M  V30 32879 H 3126.68 -1.32285 -0.933398 0
M  V30 32880 H 3128.67 -0.773547 -3.97238 0
M  V30 32881 H 3127.24 -0.135389 -3.12307 0
M  V30 32882 H 3126.46 -2.61504 -2.94974 0
M  V30 32883 H 3127.75 -3.01122 -4.10126 0
M  V30 32884 H 3127.15 -0.233705 -5.65217 0
M  V30 32885 H 3125.7 -0.652817 -6.48523 0
M  V30 32886 N 3129.14 0.981655 -1.23294 0
M  V30 32887 C 3130.37 1.75548 -1.08933 0
M  V30 32888 C 3130.78 1.85701 0.362186 0
M  V30 32889 O 3130.12 1.33453 1.26238 0
M  V30 32890 C 3130.18 3.19967 -1.63895 0
M  V30 32891 C 3129.84 3.33327 -3.12638 0
M  V30 32892 C 3130.84 3.19751 -4.09946 0
M  V30 32893 C 3128.53 3.58016 -3.52321 0
M  V30 32894 C 3130.52 3.30666 -5.44921 0
M  V30 32895 C 3128.21 3.68571 -4.87441 0
M  V30 32896 C 3129.21 3.54906 -5.8355 0
M  V30 32897 O 3128.89 3.6509 -7.16216 0
M  V30 32898 H 3128.63 0.557782 -0.381911 0
M  V30 32899 H 3131.18 1.2421 -1.63588 0
M  V30 32900 H 3129.41 3.72547 -1.03659 0
M  V30 32901 H 3131.1 3.79106 -1.4503 0
M  V30 32902 H 3131.86 3.00576 -3.8063 0
M  V30 32903 H 3127.74 3.67724 -2.78029 0
M  V30 32904 H 3131.29 3.19917 -6.19918 0
M  V30 32905 H 3127.18 3.87256 -5.16433 0
M  V30 32906 H 3127.95 3.81893 -7.23948 0
M  V30 32907 N 3130.62 1.04444 1.18022 0
M  V30 32908 C 3132.03 0.777342 1.69748 0
M  V30 32909 C 3132.38 -0.701366 1.83236 0
M  V30 32910 O 3131.5 -1.54565 1.51455 0
M  V30 32911 C 3132.1 1.40446 3.08319 0
M  V30 32912 C 3130.66 1.18559 3.5724 0
M  V30 32913 C 3129.8 1.49275 2.33693 0
M  V30 32914 H 3132.75 1.21036 1.02645 0
M  V30 32915 H 3132.78 0.809694 3.71785 0
M  V30 32916 H 3132.29 2.48067 2.9847 0
M  V30 32917 H 3130.39 0.128287 3.72379 0
M  V30 32918 H 3130.5 1.88526 4.40448 0
M  V30 32919 H 3128.87 0.912568 2.3779 0
M  V30 32920 H 3129.65 2.58014 2.26459 0
M  V30 32921 N 3132.09 -1.34317 0.824418 0
M  V30 32922 C 3133.34 -1.98239 0.413201 0
M  V30 32923 C 3133.67 -1.65356 -1.02409 0
M  V30 32924 O 3132.92 -0.91806 -1.7283 0
M  V30 32925 C 3133.22 -3.5292 0.564086 0
M  V30 32926 C 3132.89 -4.05718 1.96732 0
M  V30 32927 C 3131.55 -4.19849 2.35118 0
M  V30 32928 C 3133.9 -4.341 2.88455 0
M  V30 32929 C 3131.23 -4.59688 3.64559 0
M  V30 32930 C 3133.58 -4.75386 4.17361 0
M  V30 32931 C 3132.25 -4.87722 4.55723 0
M  V30 32932 H 3131.52 -0.72541 0.151201 0
M  V30 32933 H 3134.16 -1.60236 1.04865 0
M  V30 32934 H 3132.47 -3.91494 -0.154747 0
M  V30 32935 H 3134.17 -4.0036 0.226418 0
M  V30 32936 H 3130.76 -3.95184 1.65915 0
M  V30 32937 H 3134.94 -4.2272 2.60041 0
M  V30 32938 H 3130.2 -4.6743 3.94105 0
M  V30 32939 H 3134.37 -4.96306 4.88521 0
M  V30 32940 H 3132 -5.1835 5.56073 0
M  V30 32941 N 3133.57 -0.579517 -1.46558 0
M  V30 32942 C 3134.5 0.143396 -2.33059 0
M  V30 32943 C 3135.48 0.886843 -1.45152 0
M  V30 32944 O 3136.67 0.862931 -1.73975 0
M  V30 32945 C 3133.8 1.15968 -3.27366 0
M  V30 32946 C 3132.75 0.531274 -4.2469 0
M  V30 32947 C 3132.08 1.65379 -5.08482 0
M  V30 32948 C 3133.38 -0.529482 -5.19609 0
M  V30 32949 H 3135.07 -0.578814 -2.93752 0
M  V30 32950 H 3132.62 -0.2798 -1.41256 0
M  V30 32951 H 3134.57 1.67375 -3.86735 0
M  V30 32952 H 3133.29 1.91212 -2.64774 0
M  V30 32953 H 3131.95 0.0383105 -3.6658 0
M  V30 32954 H 3131.6 2.39583 -4.42277 0
M  V30 32955 H 3131.3 1.23899 -5.74389 0
M  V30 32956 H 3132.83 2.17069 -5.70713 0
M  V30 32957 H 3134.24 -0.100607 -5.73212 0
M  V30 32958 H 3132.64 -0.864425 -5.93841 0
M  V30 32959 H 3133.71 -1.41699 -4.63734 0
M  V30 32960 N 3135.05 1.54376 -0.317127 0
M  V30 32961 C 3136.3 2.00747 0.2878 0
M  V30 32962 C 3136.63 1.20504 1.5229 0
M  V30 32963 O 3135.9 0.28566 1.92391 0
M  V30 32964 C 3136.19 3.54575 0.628361 0
M  V30 32965 C 3136.04 4.45548 -0.617 0
M  V30 32966 C 3137.36 4.15578 1.44855 0
M  V30 32967 H 3134.48 0.729749 0.103131 0
M  V30 32968 H 3137.12 1.85014 -0.432428 0
M  V30 32969 H 3135.27 3.68113 1.24197 0
M  V30 32970 H 3136.94 4.43891 -1.25534 0
M  V30 32971 H 3135.19 4.15486 -1.24713 0
M  V30 32972 H 3135.86 5.50987 -0.33434 0
M  V30 32973 H 3138.33 4.05575 0.929944 0
M  V30 32974 H 3137.21 5.23336 1.65561 0
M  V30 32975 H 3137.47 3.68488 2.44273 0
M  V30 32976 N 3136.53 0.0451655 1.57535 0
M  V30 32977 C 3137.48 -0.940793 2.07685 0
M  V30 32978 C 3138.46 -1.27556 0.980722 0
M  V30 32979 O 3139.65 -1.25899 1.24412 0
M  V30 32980 C 3136.78 -2.21773 2.62053 0
M  V30 32981 C 3135.87 -1.91062 3.78624 0
M  V30 32982 N 3136.26 -1.30685 4.88626 0
M  V30 32983 C 3134.56 -2.20965 3.87415 0
M  V30 32984 C 3135.26 -1.17468 5.69716 0
M  V30 32985 N 3134.24 -1.67557 5.17132 0
M  V30 32986 H 3138.04 -0.469216 2.9013 0
M  V30 32987 H 3135.55 -0.159443 1.61615 0
M  V30 32988 H 3137.55 -2.93297 2.96281 0
M  V30 32989 H 3136.21 -2.69543 1.81044 0
M  V30 32990 H 3137.22 -0.979818 5.08547 0
M  V30 32991 H 3133.9 -2.71297 3.17339 0
M  V30 32992 H 3135.29 -0.706456 6.68176 0
M  V30 32993 N 3138.01 -1.5594 -0.228159 0
M  V30 32994 C 3139.42 -1.68895 -0.795704 0
M  V30 32995 C 3139.77 -0.645999 -1.8526 0
M  V30 32996 O 3138.89 0.204162 -2.15435 0
M  V30 32997 C 3139.49 -3.062 -1.45007 0
M  V30 32998 C 3138.05 -3.21032 -1.96509 0
M  V30 32999 C 3137.19 -2.6481 -0.822872 0
M  V30 33000 H 3140.15 -1.587 -0.00362061 0
M  V30 33001 H 3140.17 -3.01689 -2.3187 0
M  V30 33002 H 3139.68 -3.82085 -0.68061 0
M  V30 33003 H 3137.78 -2.50003 -2.76277 0
M  V30 33004 H 3137.89 -4.28169 -2.1496 0
M  V30 33005 H 3136.26 -2.23118 -1.22842 0
M  V30 33006 H 3137.04 -3.43236 -0.066189 0
M  V30 33007 N 3139.48 0.494597 -1.49638 0
M  V30 33008 C 3140.73 1.25016 -1.59684 0
M  V30 33009 C 3141.06 1.92089 -0.285544 0
M  V30 33010 O 3140.34 1.81024 0.711366 0
M  V30 33011 C 3140.62 2.31218 -2.76062 0
M  V30 33012 C 3140.47 1.68603 -4.17005 0
M  V30 33013 C 3141.79 3.32728 -2.88062 0
M  V30 33014 H 3138.91 0.453162 -0.581217 0
M  V30 33015 H 3141.55 0.547359 -1.81945 0
M  V30 33016 H 3139.7 2.9116 -2.57212 0
M  V30 33017 H 3141.38 1.12439 -4.47387 0
M  V30 33018 H 3139.62 0.989917 -4.22354 0
M  V30 33019 H 3140.29 2.45665 -4.9432 0
M  V30 33020 H 3142.77 2.82784 -3.05242 0
M  V30 33021 H 3141.64 4.04392 -3.71158 0
M  V30 33022 H 3141.9 3.95441 -1.97683 0
M  V30 33023 N 3140.96 1.3882 0.746109 0
M  V30 33024 C 3141.9 1.31033 1.86831 0
M  V30 33025 C 3142.87 0.185977 1.61533 0
M  V30 33026 O 3144.06 0.364561 1.84941 0
M  V30 33027 C 3141.18 1.03203 3.22594 0
M  V30 33028 C 3140.23 2.17677 3.66768 0
M  V30 33029 S 3141.06 3.79877 3.77431 0
M  V30 33030 C 3142.22 3.5425 5.16002 0
M  V30 33031 H 3142.45 2.26009 1.93151 0
M  V30 33032 H 3139.99 1.24744 0.90985 0
M  V30 33033 H 3141.94 0.878308 4.00994 0
M  V30 33034 H 3140.6 0.0993256 3.13943 0
M  V30 33035 H 3139.8 1.9377 4.65262 0
M  V30 33036 H 3139.4 2.29196 2.95542 0
M  V30 33037 H 3141.69 3.10827 6.01991 0
M  V30 33038 H 3142.63 4.52165 5.44933 0
M  V30 33039 H 3143.04 2.88595 4.85153 0
M  V30 33040 N 3142.44 -0.975103 1.23812 0
M  V30 33041 C 3143.85 -1.53169 1.06753 0
M  V30 33042 C 3144.2 -1.92804 -0.363441 0
M  V30 33043 O 3143.33 -1.76585 -1.25086 0
M  V30 33044 C 3143.92 -2.78339 1.93166 0
M  V30 33045 C 3142.48 -3.30379 1.80351 0
M  V30 33046 C 3141.63 -2.03335 1.88548 0
M  V30 33047 H 3144.58 -0.794206 1.37397 0
M  V30 33048 H 3144.6 -3.51393 1.45957 0
M  V30 33049 H 3144.11 -2.4946 2.97307 0
M  V30 33050 H 3142.21 -3.64126 0.790141 0
M  V30 33051 H 3142.33 -3.99779 2.64033 0
M  V30 33052 H 3140.69 -2.17711 1.3219 0
M  V30 33053 H 3141.47 -1.7683 2.94255 0
M  V30 33054 N 3143.92 -1.05068 -1.17467 0
M  V30 33055 C 3144.85 -0.594902 -2.20309 0
M  V30 33056 C 3145.83 0.37585 -1.58196 0
M  V30 33057 O 3147.01 0.287765 -1.86291 0
M  V30 33058 C 3144.14 0.129554 -3.38452 0
M  V30 33059 C 3143.19 -0.796017 -4.19006 0
M  V30 33060 S 3144.02 -2.28449 -4.84326 0
M  V30 33061 C 3145.18 -1.57117 -6.05859 0
M  V30 33062 H 3145.41 -1.46622 -2.5863 0
M  V30 33063 H 3142.94 -0.862534 -1.28061 0
M  V30 33064 H 3144.9 0.541345 -4.06915 0
M  V30 33065 H 3143.56 0.976895 -2.98522 0
M  V30 33066 H 3142.75 -0.235485 -5.0345 0
M  V30 33067 H 3142.36 -1.14712 -3.55974 0
M  V30 33068 H 3144.65 -0.869808 -6.71893 0
M  V30 33069 H 3145.59 -2.39304 -6.66438 0
M  V30 33070 H 3146 -1.05912 -5.54475 0
M  V30 33071 N 3145.4 1.33878 -0.831529 0
M  V30 33072 C 3146.34 2.29359 -0.257489 0
M  V30 33073 C 3147.31 1.53991 0.622577 0
M  V30 33074 O 3148.5 1.82323 0.5624 0
M  V30 33075 C 3145.64 3.40401 0.567527 0
M  V30 33076 C 3144.75 4.30693 -0.335742 0
M  V30 33077 C 3143.89 5.28845 0.499669 0
M  V30 33078 C 3142.93 6.10776 -0.40245 0
M  V30 33079 N 3142.06 7.00991 0.394397 0
M  V30 33080 H 3146.9 2.77855 -1.07705 0
M  V30 33081 H 3144.44 1.36726 -0.542613 0
M  V30 33082 H 3146.4 4.03476 1.06126 0
M  V30 33083 H 3145.03 2.93117 1.35212 0
M  V30 33084 H 3144.08 3.68405 -0.947745 0
M  V30 33085 H 3145.39 4.8807 -1.02905 0
M  V30 33086 H 3144.55 5.97412 1.05753 0
M  V30 33087 H 3143.28 4.72027 1.22644 0
M  V30 33088 H 3142.29 5.41133 -0.972383 0
M  V30 33089 H 3143.51 6.69675 -1.12747 0
M  V30 33090 H 3141.46 6.46632 1.10469 0
M  V30 33091 H 3141.38 7.55618 -0.240341 0
M  V30 33092 H 3142.65 7.73875 0.934731 0
M  V30 33093 N 3146.87 0.587281 1.46249 0
M  V30 33094 C 3148.15 0.00753619 1.95599 0
M  V30 33095 C 3148.53 -1.45454 1.52991 0
M  V30 33096 O 3147.88 -2.14674 0.782768 0
M  V30 33097 C 3148.09 0.184371 3.48513 0
M  V30 33098 C 3149.44 0.0545718 4.24565 0
M  V30 33099 O 3150.46 0.113441 3.56019 0
M  V30 33100 O 3149.32 -0.0773115 5.46445 0
M  V30 33101 H 3146.41 -0.047235 0.82565 0
M  V30 33102 H 3148.96 0.655921 1.56511 0
M  V30 33103 H 3147.73 1.2006 3.72426 0
M  V30 33104 H 3147.36 -0.500232 3.94441 0
M  V30 33105 N 3148.35 -1.54206 0.325309 0
M  V30 33106 C 3149.6 -1.9978 -0.277645 0
M  V30 33107 C 3149.91 -1.21726 -1.53108 0
M  V30 33108 O 3151.12 -1.57686 -2.21014 0
M  V30 33109 C 3149.58 -3.55745 -0.545267 0
M  V30 33110 C 3149.18 -4.42635 0.691221 0
M  V30 33111 C 3150.93 -4.09783 -1.10808 0
M  V30 33112 C 3148.84 -5.90077 0.395406 0
M  V30 33113 H 3147.77 -0.746294 -0.107523 0
M  V30 33114 H 3150.42 -1.78201 0.437805 0
M  V30 33115 H 3148.8 -3.73319 -1.32095 0
M  V30 33116 H 3149.97 -4.36838 1.46661 0
M  V30 33117 H 3148.29 -3.99497 1.17437 0
M  V30 33118 H 3150.88 -5.17532 -1.34405 0
M  V30 33119 H 3151.23 -3.61873 -2.05799 0
M  V30 33120 H 3151.76 -3.95849 -0.393538 0
M  V30 33121 H 3148.5 -6.42184 1.31454 0
M  V30 33122 H 3148.02 -5.98823 -0.342245 0
M  V30 33123 H 3149.7 -6.47 0.0058825 0
M  V30 33124 N 3149.83 -0.0535194 -1.57509 0
M  V30 33125 C 3150.78 0.929766 -2.08181 0
M  V30 33126 C 3151.77 1.27035 -0.987473 0
M  V30 33127 O 3152.96 1.25238 -1.25078 0
M  V30 33128 C 3150.09 2.2038 -2.63225 0
M  V30 33129 C 3149.17 1.89051 -3.79632 0
M  V30 33130 N 3149.56 1.28092 -4.89312 0
M  V30 33131 C 3147.86 2.18907 -3.88582 0
M  V30 33132 C 3148.56 1.14445 -5.70331 0
M  V30 33133 N 3147.54 1.64812 -5.18013 0
M  V30 33134 H 3151.34 0.453823 -2.90375 0
M  V30 33135 H 3148.85 0.15087 -1.61698 0
M  V30 33136 H 3150.85 2.91722 -2.97832 0
M  V30 33137 H 3149.51 2.68579 -1.82471 0
M  V30 33138 H 3150.52 0.952835 -5.09059 0
M  V30 33139 H 3147.2 2.6961 -3.18774 0
M  V30 33140 H 3148.59 0.671011 -6.68541 0
M  V30 33141 N 3151.31 1.56059 0.219886 0
M  V30 33142 C 3152.22 1.95721 1.29346 0
M  V30 33143 C 3153.24 0.861275 1.51189 0
M  V30 33144 O 3154.41 1.16498 1.64287 0
M  V30 33145 C 3151.48 2.26731 2.62286 0
M  V30 33146 C 3150.54 3.49902 2.48731 0
M  V30 33147 C 3149.77 3.79423 3.75332 0
M  V30 33148 O 3149.99 3.10595 4.78421 0
M  V30 33149 O 3148.93 4.7291 3.72344 0
M  V30 33150 H 3152.75 2.87217 0.986929 0
M  V30 33151 H 3150.34 1.4329 0.422885 0
M  V30 33152 H 3152.22 2.47863 3.40796 0
M  V30 33153 H 3150.9 1.38409 2.92617 0
M  V30 33154 H 3149.8 3.34046 1.68416 0
M  V30 33155 H 3151.14 4.38612 2.2334 0
M  V30 33156 N 3152.79 -0.486655 1.49898 0
M  V30 33157 C 3154.01 -1.2682 1.64108 0
M  V30 33158 C 3154.44 -1.85392 0.317999 0
M  V30 33159 O 3153.8 -1.66553 -0.716231 0
M  V30 33160 C 3153.84 -2.36394 2.72305 0
M  V30 33161 O 3152.95 -3.4063 2.32475 0
M  V30 33162 H 3152.29 -0.373783 0.548801 0
M  V30 33163 H 3154.82 -0.580983 1.96178 0
M  V30 33164 H 3154.83 -2.81943 2.94911 0
M  V30 33165 H 3153.5 -1.93131 3.68338 0
M  V30 33166 H 3152.08 -3.00901 2.20257 0
M  V30 33167 N 3154.27 -1.39214 -0.738737 0
M  V30 33168 C 3155.51 -1.35546 -1.49366 0
M  V30 33169 C 3155.83 0.0470747 -1.95543 0
M  V30 33170 O 3157.03 0.206329 -2.70715 0
M  V30 33171 C 3155.49 -2.38105 -2.69878 0
M  V30 33172 C 3155.1 -3.84054 -2.30665 0
M  V30 33173 C 3156.84 -2.43506 -3.47714 0
M  V30 33174 C 3154.75 -4.78262 -3.47878 0
M  V30 33175 H 3153.68 -0.503904 -0.56089 0
M  V30 33176 H 3156.33 -1.64842 -0.806192 0
M  V30 33177 H 3154.71 -2.01873 -3.4068 0
M  V30 33178 H 3155.89 -4.29305 -1.67434 0
M  V30 33179 H 3154.2 -3.81911 -1.6593 0
M  V30 33180 H 3156.8 -3.11084 -4.34891 0
M  V30 33181 H 3157.14 -1.45845 -3.89916 0
M  V30 33182 H 3157.67 -2.78611 -2.83937 0
M  V30 33183 H 3154.41 -5.77172 -3.10729 0
M  V30 33184 H 3153.93 -4.37694 -4.10103 0
M  V30 33185 H 3155.61 -4.96986 -4.14263 0
M  V30 33186 N 3155.74 0.968523 -1.24328 0
M  V30 33187 C 3157.16 1.23699 -1.00849 0
M  V30 33188 C 3157.36 1.995 0.2832 0
M  V30 33189 O 3156.42 2.31873 0.999567 0
M  V30 33190 C 3157.73 2.02494 -2.22299 0
M  V30 33191 C 3159.28 2.15589 -2.26915 0
M  V30 33192 C 3159.75 2.97778 -3.47983 0
M  V30 33193 N 3161.24 3.05361 -3.48295 0
M  V30 33194 C 3161.98 3.69311 -4.38631 0
M  V30 33195 N 3161.47 4.34986 -5.39221 0
M  V30 33196 N 3163.27 3.66314 -4.26345 0
M  V30 33197 H 3155.42 0.461051 -2.07336 0
M  V30 33198 H 3157.68 0.266364 -0.90981 0
M  V30 33199 H 3157.39 1.54183 -3.16102 0
M  V30 33200 H 3157.26 3.03228 -2.2435 0
M  V30 33201 H 3159.65 2.63104 -1.33643 0
M  V30 33202 H 3159.73 1.14205 -2.2889 0
M  V30 33203 H 3159.37 2.50958 -4.41568 0
M  V30 33204 H 3159.3 3.99358 -3.43251 0
M  V30 33205 H 3161.79 2.58643 -2.75522 0
M  V30 33206 H 3162.11 4.81598 -6.04387 0
M  V30 33207 H 3160.45 4.33657 -5.43108 0
M  V30 33208 H 3163.64 3.14183 -3.46997 0
M  V30 33209 H 3163.82 4.1587 -4.96947 0
M  V30 33210 N 3157.22 1.0569 1.16908 0
M  V30 33211 C 3158.47 0.780904 1.87812 0
M  V30 33212 C 3158.82 -0.684895 1.79797 0
M  V30 33213 O 3158.12 -1.49483 1.19856 0
M  V30 33214 C 3158.31 1.20213 3.36576 0
M  V30 33215 C 3158.14 2.70734 3.59073 0
M  V30 33216 C 3156.91 3.38114 3.75509 0
M  V30 33217 C 3159.11 3.68952 3.583 0
M  V30 33218 N 3157.09 4.77447 3.85898 0
M  V30 33219 C 3158.46 4.9404 3.746 0
M  V30 33220 C 3160.51 3.62349 3.41478 0
M  V30 33221 C 3159.22 6.13314 3.75817 0
M  V30 33222 C 3161.24 4.81069 3.43986 0
M  V30 33223 C 3160.61 6.04982 3.60799 0
M  V30 33224 H 3156.7 0.33806 0.705152 0
M  V30 33225 H 3159.29 1.34983 1.40312 0
M  V30 33226 H 3157.46 0.661098 3.82732 0
M  V30 33227 H 3159.19 0.875446 3.95118 0
M  V30 33228 H 3155.95 2.88514 3.75575 0
M  V30 33229 H 3156.37 5.49911 3.94876 0
M  V30 33230 H 3161.01 2.67508 3.27413 0
M  V30 33231 H 3158.73 7.08494 3.88666 0
M  V30 33232 H 3162.32 4.77619 3.32222 0
M  V30 33233 H 3161.2 6.95309 3.62651 0
M  V30 33234 N 3158.7 -1.33435 0.838617 0
M  V30 33235 C 3159.93 -2.01999 0.44768 0
M  V30 33236 C 3160.34 -1.63098 -0.951024 0
M  V30 33237 O 3159.7 -0.844197 -1.61801 0
M  V30 33238 C 3159.75 -3.57161 0.558441 0
M  V30 33239 O 3159.47 -3.94657 1.90203 0
M  V30 33240 C 3160.97 -4.42995 0.164426 0
M  V30 33241 H 3158.19 -0.647029 0.177748 0
M  V30 33242 H 3160.74 -1.7037 1.13112 0
M  V30 33243 H 3158.89 -3.87323 -0.0770882 0
M  V30 33244 H 3159.31 -4.89365 1.88738 0
M  V30 33245 H 3160.78 -5.51222 0.292973 0
M  V30 33246 H 3161.26 -4.30013 -0.893638 0
M  V30 33247 H 3161.86 -4.18191 0.77438 0
M  V30 33248 N 3160.18 -0.595029 -1.45935 0
M  V30 33249 C 3161.12 0.131125 -2.30427 0
M  V30 33250 C 3162.09 0.872207 -1.41357 0
M  V30 33251 O 3163.28 0.860437 -1.70297 0
M  V30 33252 C 3160.42 1.13081 -3.26047 0
M  V30 33253 C 3159.53 0.391906 -4.30219 0
M  V30 33254 C 3158.67 1.38021 -5.12956 0
M  V30 33255 C 3157.71 0.628398 -6.08866 0
M  V30 33256 N 3156.84 1.56536 -6.84427 0
M  V30 33257 H 3161.68 -0.595411 -2.91991 0
M  V30 33258 H 3159.22 -0.30543 -1.43894 0
M  V30 33259 H 3161.18 1.72341 -3.7994 0
M  V30 33260 H 3159.81 1.82491 -2.66264 0
M  V30 33261 H 3158.86 -0.315962 -3.79086 0
M  V30 33262 H 3160.17 -0.195261 -4.98418 0
M  V30 33263 H 3159.33 2.04524 -5.71187 0
M  V30 33264 H 3158.07 2.0013 -4.44746 0
M  V30 33265 H 3157.07 -0.0503397 -5.49777 0
M  V30 33266 H 3158.3 0.0125217 -6.79099 0
M  V30 33267 H 3156.24 2.17434 -6.18917 0
M  V30 33268 H 3156.16 1.03131 -7.48933 0
M  V30 33269 H 3157.43 2.22036 -7.47208 0
M  V30 33270 N 3161.66 1.54031 -0.333483 0
M  V30 33271 C 3162.93 1.9295 0.320868 0
M  V30 33272 C 3163.31 1.26408 1.69069 0
M  V30 33273 O 3162.66 0.41135 2.24767 0
M  V30 33274 C 3162.87 3.46663 0.403196 0
M  V30 33275 C 3164.22 4.19458 0.658801 0
M  V30 33276 O 3165.24 3.52873 0.485719 0
M  V30 33277 O 3164.1 5.37396 0.993381 0
M  V30 33278 H 3161.2 0.806009 0.185144 0
M  V30 33279 H 3163.74 1.653 -0.383924 0
M  V30 33280 H 3162.51 3.87294 -0.558477 0
M  V30 33281 H 3162.14 3.80449 1.15517 0
M  V30 33282 N 3163.13 0.0618717 1.57479 0
M  V30 33283 C 3164.54 -0.472263 1.80628 0
M  V30 33284 C 3164.9 -1.7026 0.97499 0
M  V30 33285 O 3164.02 -2.15523 0.194638 0
M  V30 33286 C 3164.62 -0.863558 3.2761 0
M  V30 33287 C 3163.17 -1.34261 3.5164 0
M  V30 33288 C 3162.32 -0.322961 2.75413 0
M  V30 33289 H 3165.27 0.287662 1.56071 0
M  V30 33290 H 3165.29 -1.72571 3.39116 0
M  V30 33291 H 3164.81 0.0320908 3.88087 0
M  V30 33292 H 3162.91 -2.25709 2.96456 0
M  V30 33293 H 3163.02 -1.32739 4.60345 0
M  V30 33294 H 3161.38 -0.798133 2.41872 0
M  V30 33295 H 3162.17 0.564788 3.38622 0
M  V30 33296 N 3164.61 -1.56173 -0.211607 0
M  V30 33297 C 3165.56 -1.93223 -1.26228 0
M  V30 33298 C 3166.53 -0.790666 -1.46074 0
M  V30 33299 O 3167.71 -1.04742 -1.5948 0
M  V30 33300 C 3164.85 -2.26285 -2.60555 0
M  V30 33301 C 3163.97 -3.53425 -2.48425 0
M  V30 33302 C 3163.1 -3.75887 -3.75343 0
M  V30 33303 C 3162.14 -4.96507 -3.57977 0
M  V30 33304 N 3161.28 -5.15307 -4.76868 0
M  V30 33305 H 3166.12 -2.82809 -0.939317 0
M  V30 33306 H 3163.66 -1.39968 -0.452487 0
M  V30 33307 H 3165.61 -2.43467 -3.38792 0
M  V30 33308 H 3164.24 -1.39861 -2.90928 0
M  V30 33309 H 3163.3 -3.44382 -1.61571 0
M  V30 33310 H 3164.61 -4.41815 -2.31518 0
M  V30 33311 H 3163.76 -3.93218 -4.62022 0
M  V30 33312 H 3162.5 -2.85795 -3.95186 0
M  V30 33313 H 3161.51 -4.79115 -2.69682 0
M  V30 33314 H 3162.73 -5.88092 -3.39595 0
M  V30 33315 H 3160.68 -4.28161 -4.97006 0
M  V30 33316 H 3160.59 -5.97848 -4.62725 0
M  V30 33317 H 3161.86 -5.37083 -5.64944 0
M  V30 33318 N 3166.09 0.478699 -1.50154 0
M  V30 33319 C 3167.04 1.59841 -1.68978 0
M  V30 33320 C 3168.03 1.60029 -0.555619 0
M  V30 33321 O 3169.24 1.64269 -0.735904 0
M  V30 33322 H 3165.61 0.530264 -0.53322 0
M  V30 33323 H 3167.58 1.41124 -2.62919 0
M  V30 33324 C 3166.33 2.97835 -1.79414 0
M  V30 33325 H 3165.66 2.98406 -2.66071 0
M  V30 33326 H 3167.1 3.75659 -1.96613 0
M  V30 33327 C 3165.56 3.32479 -0.543985 0
M  V30 33328 O 3166.09 4.00421 0.320305 0
M  V30 33329 N 3164.29 2.8783 -0.400268 0
M  V30 33330 H 3163.84 2.32714 -1.10462 0
M  V30 33331 H 3163.8 3.11375 0.435057 0
M  V30 33332 N 3167.57 1.39603 0.731343 0
M  V30 33333 C 3168.8 1.40308 1.52057 0
M  V30 33334 C 3169.21 -0.00144602 1.888 0
M  V30 33335 O 3168.57 -0.973688 1.54355 0
M  V30 33336 C 3168.62 2.27936 2.80584 0
M  V30 33337 O 3168.34 3.62919 2.454 0
M  V30 33338 C 3169.84 2.37063 3.74588 0
M  V30 33339 H 3167.06 0.479112 0.469779 0
M  V30 33340 H 3169.61 1.83464 0.903404 0
M  V30 33341 H 3167.76 1.88184 3.38623 0
M  V30 33342 H 3168.17 4.09296 3.27989 0
M  V30 33343 H 3169.65 3.02617 4.61657 0
M  V30 33344 H 3170.13 1.39089 4.16594 0
M  V30 33345 H 3170.73 2.773 3.22466 0
M  V30 33346 N 3169.05 -0.961916 1.2484 0
M  V30 33347 C 3169.98 -2.06053 1.00373 0
M  V30 33348 C 3170.99 -1.62774 -0.0288297 0
M  V30 33349 O 3172.18 -1.77274 0.208884 0
M  V30 33350 C 3169.28 -3.3528 0.494012 0
M  V30 33351 C 3168.45 -4.07437 1.59104 0
M  V30 33352 C 3167.51 -5.14935 1.08297 0
M  V30 33353 O 3166.54 -5.40788 1.77587 0
M  V30 33354 N 3167.74 -5.80445 -0.0795816 0
M  V30 33355 H 3170.51 -2.27615 1.94966 0
M  V30 33356 H 3168.07 -1.12995 1.15947 0
M  V30 33357 H 3170.06 -4.04462 0.138746 0
M  V30 33358 H 3168.63 -3.10546 -0.357796 0
M  V30 33359 H 3167.85 -3.32453 2.11823 0
M  V30 33360 H 3169.14 -4.52405 2.32825 0
M  V30 33361 H 3168.53 -5.61852 -0.658728 0
M  V30 33362 H 3167.09 -6.50715 -0.375942 0
M  V30 33363 N 3170.52 -1.06308 -1.16346 0
M  V30 33364 C 3171.8 -0.693342 -1.82899 0
M  V30 33365 C 3172.18 0.825276 -1.943 0
M  V30 33366 O 3171.53 1.73562 -1.48622 0
M  V30 33367 C 3171.74 -1.39546 -3.19888 0
M  V30 33368 C 3173.09 -1.54075 -3.95659 0
M  V30 33369 O 3174.11 -1.35537 -3.29406 0
M  V30 33370 O 3172.97 -1.84488 -5.14418 0
M  V30 33371 H 3170.06 -0.245459 -0.789733 0
M  V30 33372 H 3172.61 -1.16336 -1.23547 0
M  V30 33373 H 3171.38 -2.43098 -3.06625 0
M  V30 33374 H 3171.01 -0.915521 -3.86916 0
M  V30 33375 N 3172 1.32989 -0.845682 0
M  V30 33376 C 3172.95 2.26561 -0.25574 0
M  V30 33377 C 3173.94 1.49565 0.593219 0
M  V30 33378 O 3175.13 1.71339 0.444071 0
M  V30 33379 C 3172.26 3.3866 0.562513 0
M  V30 33380 C 3171.34 4.23049 -0.298333 0
M  V30 33381 N 3171.73 4.86601 -1.38031 0
M  V30 33382 C 3170.03 4.45916 -0.0865323 0
M  V30 33383 C 3170.73 5.49478 -1.90917 0
M  V30 33384 N 3169.71 5.2997 -1.20964 0
M  V30 33385 H 3173.51 2.73217 -1.08304 0
M  V30 33386 H 3171.03 1.46973 -0.690849 0
M  V30 33387 H 3173.02 4.04692 1.0015 0
M  V30 33388 H 3171.68 2.93552 1.38771 0
M  V30 33389 H 3172.69 4.86961 -1.76323 0
M  V30 33390 H 3169.37 4.1151 0.704678 0
M  V30 33391 H 3170.76 6.10059 -2.81562 0
M  V30 33392 N 3173.48 0.60276 1.45618 0
M  V30 33393 C 3174.73 0.0962115 2.02572 0
M  V30 33394 C 3175.06 -1.26813 1.47079 0
M  V30 33395 O 3174.33 -1.83543 0.643598 0
M  V30 33396 C 3174.62 0.0520665 3.60062 0
M  V30 33397 C 3174.47 1.44673 4.25899 0
M  V30 33398 C 3175.79 -0.638265 4.35447 0
M  V30 33399 H 3172.91 0.0364367 0.736099 0
M  V30 33400 H 3175.55 0.773807 1.73529 0
M  V30 33401 H 3173.7 -0.524964 3.84937 0
M  V30 33402 H 3175.37 2.07047 4.12225 0
M  V30 33403 H 3173.62 2.00881 3.84486 0
M  V30 33404 H 3174.29 1.36813 5.34777 0
M  V30 33405 H 3176.76 -0.147853 4.15837 0
M  V30 33406 H 3175.64 -0.638244 5.45177 0
M  V30 33407 H 3175.9 -1.70344 4.07965 0
M  V30 33408 N 3174.96 -1.53852 0.341647 0
M  V30 33409 C 3176.37 -1.59597 -0.0103488 0
M  V30 33410 C 3176.57 -1.35767 -1.48895 0
M  V30 33411 O 3175.63 -1.15099 -2.24741 0
M  V30 33412 C 3176.94 -2.97694 0.424119 0
M  V30 33413 C 3178.49 -3.1073 0.376302 0
M  V30 33414 C 3178.97 -4.51201 0.786209 0
M  V30 33415 N 3180.46 -4.57246 0.74032 0
M  V30 33416 C 3181.19 -5.64083 1.02946 0
M  V30 33417 N 3180.69 -6.78781 1.38667 0
M  V30 33418 N 3182.48 -5.53948 0.953831 0
M  V30 33419 H 3174.63 -1.67597 1.3048 0
M  V30 33420 H 3176.9 -0.784811 0.531767 0
M  V30 33421 H 3176.6 -3.20192 1.45499 0
M  V30 33422 H 3176.48 -3.76661 -0.201646 0
M  V30 33423 H 3178.86 -2.87956 -0.64539 0
M  V30 33424 H 3178.94 -2.33827 1.03725 0
M  V30 33425 H 3178.59 -4.7471 1.8059 0
M  V30 33426 H 3178.52 -5.265 0.102763 0
M  V30 33427 H 3181.01 -3.7488 0.476829 0
M  V30 33428 H 3181.32 -7.5622 1.5922 0
M  V30 33429 H 3179.67 -6.80232 1.4251 0
M  V30 33430 H 3182.86 -4.6322 0.674126 0
M  V30 33431 H 3183.03 -6.37119 1.18252 0
M  V30 33432 N 3176.44 -0.0702223 -1.57443 0
M  V30 33433 C 3177.66 0.611775 -1.98172 0
M  V30 33434 C 3178.09 1.62449 -0.948259 0
M  V30 33435 O 3177.44 1.81094 0.0863235 0
M  V30 33436 C 3177.49 1.25824 -3.37936 0
M  V30 33437 O 3176.6 2.37408 -3.37211 0
M  V30 33438 H 3175.94 0.157466 -0.645059 0
M  V30 33439 H 3178.47 -0.144271 -2.04091 0
M  V30 33440 H 3178.48 1.60545 -3.75086 0
M  V30 33441 H 3177.15 0.516162 -4.12685 0
M  V30 33442 H 3175.73 2.04492 -3.11829 0
M  V30 33443 N 3177.91 1.56283 0.203321 0
M  V30 33444 C 3178.84 1.96914 1.25487 0
M  V30 33445 C 3179.83 0.83991 1.47917 0
M  V30 33446 O 3181.01 1.10362 1.59793 0
M  V30 33447 C 3178.14 2.30157 2.60086 0
M  V30 33448 C 3177.09 3.45742 2.52282 0
M  V30 33449 C 3176.42 3.64638 3.91079 0
M  V30 33450 C 3177.72 4.80176 2.05494 0
M  V30 33451 H 3179.41 2.85003 0.917256 0
M  V30 33452 H 3176.96 1.3712 0.439794 0
M  V30 33453 H 3178.91 2.57176 3.33824 0
M  V30 33454 H 3177.64 1.38942 2.95572 0
M  V30 33455 H 3176.3 3.18801 1.81001 0
M  V30 33456 H 3175.94 2.70767 4.23903 0
M  V30 33457 H 3175.64 4.42391 3.86735 0
M  V30 33458 H 3177.17 3.94024 4.66452 0
M  V30 33459 H 3178.58 5.0628 2.68986 0
M  V30 33460 H 3176.98 5.61341 2.1217 0
M  V30 33461 H 3178.05 4.74311 1.00784 0
M  V30 33462 N 3179.39 -0.470729 1.50406 0
M  V30 33463 C 3180.63 -1.23263 1.63051 0
M  V30 33464 C 3181 -1.89249 0.323848 0
M  V30 33465 O 3182.2 -2.66819 0.325738 0
M  V30 33466 C 3180.47 -2.24818 2.77834 0
M  V30 33467 S 3182.03 -3.09942 3.10614 0
M  V30 33468 H 3178.85 -0.418488 0.574794 0
M  V30 33469 H 3181.45 -0.529586 1.8819 0
M  V30 33470 H 3180.15 -1.74923 3.71255 0
M  V30 33471 H 3179.68 -2.9975 2.54781 0
M  V30 33472 H 3181.7 -4.25982 2.54468 0
M  V30 33473 N 3180.87 -1.39989 -0.72393 0
M  V30 33474 C 3181.8 -1.42338 -1.851 0
M  V30 33475 C 3182.78 -0.285327 -1.6769 0
M  V30 33476 O 3183.97 -0.492749 -1.87845 0
M  V30 33477 C 3181.1 -1.27703 -3.22969 0
M  V30 33478 C 3180.05 -2.39024 -3.55037 0
M  V30 33479 C 3179.38 -2.09471 -4.91961 0
M  V30 33480 C 3180.68 -3.81356 -3.56882 0
M  V30 33481 H 3182.37 -2.3666 -1.83392 0
M  V30 33482 H 3179.92 -1.13912 -0.880906 0
M  V30 33483 H 3181.87 -1.27965 -4.01501 0
M  V30 33484 H 3180.59 -0.298544 -3.25233 0
M  V30 33485 H 3179.25 -2.37998 -2.78841 0
M  V30 33486 H 3178.9 -1.10033 -4.90817 0
M  V30 33487 H 3178.6 -2.84047 -5.14384 0
M  V30 33488 H 3180.13 -2.11401 -5.72837 0
M  V30 33489 H 3181.54 -3.84251 -4.25469 0
M  V30 33490 H 3179.94 -4.55383 -3.90828 0
M  V30 33491 H 3181.01 -4.11538 -2.56445 0
M  V30 33492 N 3182.35 0.955282 -1.25348 0
M  V30 33493 C 3183.28 2.06941 -1.08155 0
M  V30 33494 C 3184.26 1.70098 0.00919608 0
M  V30 33495 O 3185.45 1.93538 -0.160215 0
M  V30 33496 C 3182.58 3.40197 -0.698805 0
M  V30 33497 C 3181.53 3.91047 -1.73972 0
M  V30 33498 C 3180.86 5.2079 -1.21167 0
M  V30 33499 C 3182.16 4.17497 -3.13836 0
M  V30 33500 H 3183.85 2.21583 -2.01349 0
M  V30 33501 H 3181.4 1.06476 -0.969478 0
M  V30 33502 H 3183.35 4.17589 -0.565467 0
M  V30 33503 H 3182.07 3.25492 0.268834 0
M  V30 33504 H 3180.73 3.15823 -1.86148 0
M  V30 33505 H 3180.38 5.02454 -0.234281 0
M  V30 33506 H 3180.08 5.55781 -1.90738 0
M  V30 33507 H 3181.6 6.00779 -1.09071 0
M  V30 33508 H 3183.02 4.8555 -3.04817 0
M  V30 33509 H 3181.41 4.63743 -3.80871 0
M  V30 33510 H 3182.48 3.23799 -3.60946 0
M  V30 33511 N 3183.83 1.06924 1.1578 0
M  V30 33512 C 3184.79 0.689693 2.18577 0
M  V30 33513 C 3185.79 -0.267844 1.58554 0
M  V30 33514 O 3186.98 -0.049379 1.7413 0
M  V30 33515 C 3184.11 0.0158519 3.40896 0
M  V30 33516 H 3185.31 1.59976 2.53669 0
M  V30 33517 H 3182.86 0.865237 1.30167 0
M  V30 33518 H 3183.59 -0.906657 3.11368 0
M  V30 33519 H 3183.38 0.704482 3.85719 0
M  V30 33520 H 3184.87 -0.235193 4.16937 0
M  V30 33521 N 3185.31 -1.32538 0.852723 0
M  V30 33522 C 3186.55 -1.98011 0.465105 0
M  V30 33523 C 3186.91 -1.66267 -0.96815 0
M  V30 33524 O 3186.2 -0.93953 -1.66983 0
M  V30 33525 C 3186.39 -3.51645 0.638819 0
M  V30 33526 C 3186.22 -3.98318 2.08741 0
M  V30 33527 C 3184.99 -4.25493 2.72551 0
M  V30 33528 C 3187.19 -4.13527 3.05777 0
M  V30 33529 N 3185.17 -4.584 4.08341 0
M  V30 33530 C 3186.54 -4.49951 4.2655 0
M  V30 33531 C 3188.6 -3.95855 3.01998 0
M  V30 33532 C 3187.3 -4.70547 5.44038 0
M  V30 33533 C 3189.33 -4.17636 4.1873 0
M  V30 33534 C 3188.69 -4.54374 5.3826 0
M  V30 33535 H 3184.79 -0.750739 0.218894 0
M  V30 33536 H 3187.37 -1.60395 1.1037 0
M  V30 33537 H 3185.54 -3.88388 0.0299312 0
M  V30 33538 H 3187.28 -4.04095 0.221286 0
M  V30 33539 H 3184.03 -4.17492 2.23601 0
M  V30 33540 H 3184.45 -4.79042 4.7838 0
M  V30 33541 H 3189.1 -3.66555 2.10707 0
M  V30 33542 H 3186.81 -4.98703 6.35863 0
M  V30 33543 H 3190.4 -4.05467 4.17239 0
M  V30 33544 H 3189.28 -4.70889 6.27083 0
M  V30 33545 N 3186.78 -0.610474 -1.45296 0
M  V30 33546 C 3187.73 0.128154 -2.2764 0
M  V30 33547 C 3188.72 0.835837 -1.37487 0
M  V30 33548 O 3189.91 0.72535 -1.61455 0
M  V30 33549 C 3187.04 1.12295 -3.24415 0
M  V30 33550 C 3186.12 0.415955 -4.22055 0
M  V30 33551 N 3186.52 -0.544009 -5.02866 0
M  V30 33552 C 3184.81 0.663131 -4.41043 0
M  V30 33553 C 3185.51 -0.959832 -5.73727 0
M  V30 33554 N 3184.49 -0.302969 -5.42755 0
M  V30 33555 H 3188.29 -0.609107 -2.87519 0
M  V30 33556 H 3185.81 -0.434365 -1.56483 0
M  V30 33557 H 3187.8 1.66653 -3.82142 0
M  V30 33558 H 3186.46 1.86073 -2.66096 0
M  V30 33559 H 3187.47 -0.920889 -5.09647 0
M  V30 33560 H 3184.15 1.38537 -3.93845 0
M  V30 33561 H 3185.54 -1.75174 -6.48663 0
M  V30 33562 N 3188.26 1.53669 -0.349801 0
M  V30 33563 C 3189.21 2.26728 0.519356 0
M  V30 33564 C 3190.2 1.29107 1.09671 0
M  V30 33565 O 3191.41 1.46792 1.04173 0
M  V30 33566 H 3187.78 0.728588 0.18618 0
M  V30 33567 H 3189.76 2.98163 -0.118789 0
M  V30 33568 C 3188.5 3.0577 1.6553 0
M  V30 33569 H 3187.83 3.80721 1.22031 0
M  V30 33570 H 3189.27 3.60094 2.23849 0
M  V30 33571 C 3187.73 2.15646 2.5884 0
M  V30 33572 O 3188.26 1.75671 3.61251 0
M  V30 33573 N 3186.46 1.80599 2.27667 0
M  V30 33574 H 3186.01 2.13305 1.44426 0
M  V30 33575 H 3185.97 1.20582 2.90357 0
M  V30 33576 N 3189.74 0.0785709 1.57404 0
M  V30 33577 C 3190.99 -0.587826 1.93362 0
M  V30 33578 C 3191.31 -1.69739 0.959886 0
M  V30 33579 O 3190.58 -1.95898 0.00915174 0
M  V30 33580 H 3189.16 -0.220129 0.713829 0
M  V30 33581 H 3191.82 0.13802 1.94411 0
M  V30 33582 H 3190.92 -1.00875 2.95348 0
M  V30 33583 N 3191.22 -1.56389 -0.19503 0
M  V30 33584 C 3192.13 -1.97754 -1.26216 0
M  V30 33585 C 3193.14 -0.885219 -1.49799 0
M  V30 33586 O 3194.32 -1.19097 -1.62412 0
M  V30 33587 C 3191.38 -2.30875 -2.58646 0
M  V30 33588 C 3190.45 -3.53814 -2.43133 0
M  V30 33589 C 3189.68 -3.85346 -3.69248 0
M  V30 33590 O 3189.9 -3.18167 -4.73419 0
M  V30 33591 O 3188.84 -4.78773 -3.64773 0
M  V30 33592 H 3192.66 -2.8875 -0.94111 0
M  V30 33593 H 3190.25 -1.43945 -0.400035 0
M  V30 33594 H 3192.13 -2.53253 -3.3681 0
M  V30 33595 H 3190.8 -1.43047 -2.90378 0
M  V30 33596 H 3189.71 -3.36683 -1.6308 0
M  V30 33597 H 3191.04 -4.42109 -2.16334 0
M  V30 33598 N 3192.7 0.462746 -1.50653 0
M  V30 33599 C 3193.65 1.55749 -1.66512 0
M  V30 33600 C 3194.63 1.52281 -0.519534 0
M  V30 33601 O 3195.82 1.59164 -0.774324 0
M  V30 33602 C 3192.95 2.94136 -1.77028 0
M  V30 33603 C 3192.04 3.02456 -2.9729 0
M  V30 33604 N 3192.43 2.80571 -4.20848 0
M  V30 33605 C 3190.73 3.33599 -2.9602 0
M  V30 33606 C 3191.43 2.94075 -5.01891 0
M  V30 33607 N 3190.4 3.24641 -4.36015 0
M  V30 33608 H 3194.2 1.37541 -2.5973 0
M  V30 33609 H 3191.72 0.669627 -1.47952 0
M  V30 33610 H 3193.72 3.72861 -1.86494 0
M  V30 33611 H 3192.38 3.13384 -0.849743 0
M  V30 33612 H 3193.39 2.5599 -4.5021 0
M  V30 33613 H 3190.06 3.58782 -2.13499 0
M  V30 33614 H 3191.45 2.81324 -6.10169 0
M  V30 33615 N 3194.17 1.40371 0.716495 0
M  V30 33616 C 3195.08 1.42879 1.86072 0
M  V30 33617 C 3196.1 0.321505 1.71004 0
M  V30 33618 O 3197.28 0.565943 1.93285 0
M  V30 33619 C 3194.34 1.28869 3.2186 0
M  V30 33620 C 3193.4 2.49732 3.49188 0
M  V30 33621 C 3192.64 2.36381 4.78498 0
M  V30 33622 O 3192.86 1.37712 5.53526 0
M  V30 33623 O 3191.79 3.25737 5.06141 0
M  V30 33624 H 3195.62 2.39369 1.86912 0
M  V30 33625 H 3193.2 1.21684 0.866796 0
M  V30 33626 H 3195.09 1.2326 4.0297 0
M  V30 33627 H 3193.76 0.35484 3.21749 0
M  V30 33628 H 3192.67 2.60918 2.68091 0
M  V30 33629 H 3194 3.41874 3.54095 0
M  V30 33630 N 3195.65 -0.948621 1.25853 0
M  V30 33631 C 3196.88 -1.72598 1.13549 0
M  V30 33632 C 3197.29 -1.86596 -0.312824 0
M  V30 33633 O 3196.63 -1.36753 -1.22655 0
M  V30 33634 C 3196.7 -3.15509 1.72321 0
M  V30 33635 C 3196.36 -3.24921 3.21365 0
M  V30 33636 C 3197.36 -3.08769 4.18279 0
M  V30 33637 C 3195.04 -3.48549 3.61689 0
M  V30 33638 C 3197.04 -3.16102 5.53496 0
M  V30 33639 C 3194.72 -3.55518 4.97042 0
M  V30 33640 C 3195.72 -3.39309 5.92755 0
M  V30 33641 O 3195.41 -3.45972 7.25644 0
M  V30 33642 H 3195.14 -0.54746 0.396565 0
M  V30 33643 H 3197.69 -1.19829 1.66824 0
M  V30 33644 H 3195.92 -3.69668 1.135 0
M  V30 33645 H 3197.61 -3.75127 1.5503 0
M  V30 33646 H 3198.38 -2.90378 3.88466 0
M  V30 33647 H 3194.26 -3.60223 2.8768 0
M  V30 33648 H 3197.8 -3.03369 6.28182 0
M  V30 33649 H 3193.7 -3.73427 5.26519 0
M  V30 33650 H 3194.47 -3.62564 7.33818 0
M  V30 33651 N 3197.13 -1.07536 -1.15212 0
M  V30 33652 C 3198.04 -0.708857 -2.23634 0
M  V30 33653 C 3199.06 0.280729 -1.7172 0
M  V30 33654 O 3200.23 0.126892 -2.01 0
M  V30 33655 C 3197.3 -0.114228 -3.46512 0
M  V30 33656 C 3196.36 -1.15729 -4.13407 0
M  V30 33657 C 3195.59 -0.590943 -5.30418 0
M  V30 33658 O 3195.81 0.592412 -5.67315 0
M  V30 33659 O 3194.75 -1.33674 -5.86869 0
M  V30 33660 H 3198.57 -1.61309 -2.57319 0
M  V30 33661 H 3196.16 -0.848444 -1.22971 0
M  V30 33662 H 3198.04 0.215017 -4.20851 0
M  V30 33663 H 3196.72 0.7633 -3.14572 0
M  V30 33664 H 3195.62 -1.53892 -3.40981 0
M  V30 33665 H 3196.96 -2.00679 -4.49432 0
M  V30 33666 N 3198.61 1.32084 -0.85974 0
M  V30 33667 C 3199.52 2.32528 -0.311121 0
M  V30 33668 C 3200.53 1.64271 0.573686 0
M  V30 33669 O 3201.71 1.95771 0.472843 0
M  V30 33670 C 3198.78 3.4326 0.487196 0
M  V30 33671 C 3197.84 4.27198 -0.424354 0
M  V30 33672 C 3197.07 5.32642 0.335957 0
M  V30 33673 O 3197.29 5.48502 1.56531 0
M  V30 33674 O 3196.23 6.01147 -0.300882 0
M  V30 33675 H 3200.05 2.81353 -1.14341 0
M  V30 33676 H 3197.64 1.35799 -0.622818 0
M  V30 33677 H 3199.52 4.10779 0.940131 0
M  V30 33678 H 3198.19 2.96615 1.2962 0
M  V30 33679 H 3197.1 3.62469 -0.925573 0
M  V30 33680 H 3198.43 4.77381 -1.19868 0
M  V30 33681 N 3200.09 0.618171 1.4497 0
M  V30 33682 C 3201.33 0.117517 2.02159 0
M  V30 33683 C 3201.66 -1.25588 1.48519 0
M  V30 33684 O 3200.92 -1.84441 0.654225 0
M  V30 33685 C 3201.22 0.0395489 3.57378 0
M  V30 33686 C 3200.88 1.35 4.30216 0
M  V30 33687 C 3199.54 1.70894 4.49832 0
M  V30 33688 C 3201.9 2.21559 4.71764 0
M  V30 33689 C 3199.22 2.93079 5.08253 0
M  V30 33690 C 3201.58 3.43003 5.31537 0
M  V30 33691 C 3200.24 3.79136 5.49375 0
M  V30 33692 H 3199.51 0.0430027 0.739751 0
M  V30 33693 H 3202.16 0.801902 1.73902 0
M  V30 33694 H 3200.46 -0.72815 3.84974 0
M  V30 33695 H 3202.16 -0.364143 3.99343 0
M  V30 33696 H 3198.75 1.06065 4.15269 0
M  V30 33697 H 3202.93 1.95125 4.56333 0
M  V30 33698 H 3198.19 3.21168 5.20251 0
M  V30 33699 H 3202.36 4.10318 5.62683 0
M  V30 33700 H 3199.99 4.73898 5.94411 0
M  V30 33701 N 3201.56 -1.53481 0.357946 0
M  V30 33702 C 3202.81 -2.00324 -0.235206 0
M  V30 33703 C 3203.13 -1.24946 -1.50492 0
M  V30 33704 O 3204.33 -1.62339 -2.1762 0
M  V30 33705 C 3202.79 -3.56822 -0.469685 0
M  V30 33706 C 3202.4 -4.4107 0.784955 0
M  V30 33707 C 3204.14 -4.12041 -1.02091 0
M  V30 33708 C 3202.05 -5.89105 0.520481 0
M  V30 33709 H 3200.98 -0.748407 -0.0916685 0
M  V30 33710 H 3203.63 -1.77232 0.475505 0
M  V30 33711 H 3202.01 -3.76037 -1.24146 0
M  V30 33712 H 3203.18 -4.33629 1.55894 0
M  V30 33713 H 3201.5 -3.96916 1.25885 0
M  V30 33714 H 3204.1 -5.20266 -1.23397 0
M  V30 33715 H 3204.44 -3.66157 -1.98077 0
M  V30 33716 H 3204.97 -3.96594 -0.309485 0
M  V30 33717 H 3201.71 -6.39251 1.45046 0
M  V30 33718 H 3201.23 -5.99414 -0.215148 0
M  V30 33719 H 3202.91 -6.46842 0.143119 0
M  V30 33720 N 3203.04 -0.0869173 -1.5736 0
M  V30 33721 C 3204.46 0.269734 -1.57304 0
M  V30 33722 C 3204.66 1.6899 -1.09748 0
M  V30 33723 O 3203.71 2.40466 -0.770213 0
M  V30 33724 C 3205.03 0.0656118 -3.00628 0
M  V30 33725 C 3206.58 0.13399 -3.12713 0
M  V30 33726 C 3207.05 -0.0420374 -4.57981 0
M  V30 33727 N 3208.54 0.0130687 -4.63198 0
M  V30 33728 C 3209.28 -0.0984972 -5.73315 0
M  V30 33729 N 3208.77 -0.264437 -6.92295 0
M  V30 33730 N 3210.57 -0.0403505 -5.62086 0
M  V30 33731 H 3202.72 -1.0149 -1.86584 0
M  V30 33732 H 3204.98 -0.39707 -0.860837 0
M  V30 33733 H 3204.69 -0.914951 -3.3959 0
M  V30 33734 H 3204.56 0.811457 -3.68368 0
M  V30 33735 H 3206.95 1.10505 -2.73629 0
M  V30 33736 H 3207.03 -0.64321 -2.47581 0
M  V30 33737 H 3206.67 -1.00993 -4.97758 0
M  V30 33738 H 3206.6 0.754755 -5.21163 0
M  V30 33739 H 3209.09 0.139117 -3.77644 0
M  V30 33740 H 3209.41 -0.341301 -7.72046 0
M  V30 33741 H 3207.75 -0.299998 -6.94352 0
M  V30 33742 H 3210.94 0.0880978 -4.68017 0
M  V30 33743 H 3211.11 -0.130748 -6.47868 0
M  V30 33744 N 3204.52 1.5649 0.186734 0
M  V30 33745 C 3205.47 1.95207 1.23138 0
M  V30 33746 C 3206.44 0.813805 1.44798 0
M  V30 33747 O 3207.62 1.07266 1.57793 0
M  V30 33748 C 3204.76 2.30402 2.56922 0
M  V30 33749 C 3203.88 3.57332 2.42771 0
M  V30 33750 C 3203.01 3.81811 3.69316 0
M  V30 33751 C 3202.05 5.02139 3.50032 0
M  V30 33752 N 3201.19 5.22829 4.68609 0
M  V30 33753 H 3206.03 2.84267 0.894206 0
M  V30 33754 H 3203.56 1.4067 0.430162 0
M  V30 33755 H 3205.52 2.48826 3.34876 0
M  V30 33756 H 3204.15 1.44471 2.88666 0
M  V30 33757 H 3203.2 3.46909 1.56072 0
M  V30 33758 H 3204.52 4.45443 2.2446 0
M  V30 33759 H 3203.67 4.00519 4.55708 0
M  V30 33760 H 3202.41 2.92046 3.9059 0
M  V30 33761 H 3201.41 4.83345 2.62026 0
M  V30 33762 H 3202.64 5.9342 3.30196 0
M  V30 33763 H 3200.58 4.36013 4.90131 0
M  V30 33764 H 3200.5 6.05134 4.53155 0
M  V30 33765 H 3201.77 5.46003 5.56328 0
M  V30 33766 N 3206 -0.45475 1.50897 0
M  V30 33767 C 3207.25 -1.20245 1.61938 0
M  V30 33768 C 3207.56 -1.92744 0.333017 0
M  V30 33769 O 3208.77 -2.69577 0.322559 0
M  V30 33770 C 3207.22 -2.18582 2.8592 0
M  V30 33771 C 3206.83 -1.51811 4.21494 0
M  V30 33772 C 3208.57 -2.93893 3.06312 0
M  V30 33773 C 3206.48 -2.48529 5.36644 0
M  V30 33774 H 3205.41 -0.452525 0.603106 0
M  V30 33775 H 3208.06 -0.471226 1.77346 0
M  V30 33776 H 3206.44 -2.95066 2.64106 0
M  V30 33777 H 3207.62 -0.810043 4.53624 0
M  V30 33778 H 3205.93 -0.887194 4.06839 0
M  V30 33779 H 3208.53 -3.6631 3.89513 0
M  V30 33780 H 3208.87 -3.54232 2.18689 0
M  V30 33781 H 3209.41 -2.24519 3.28384 0
M  V30 33782 H 3206.15 -1.92905 6.26473 0
M  V30 33783 H 3205.67 -3.1744 5.08912 0
M  V30 33784 H 3207.34 -3.10023 5.67886 0
M  V30 33785 N 3207.48 -1.40749 -0.709041 0
M  V30 33786 C 3208.89 -1.22923 -1.01795 0
M  V30 33787 C 3209.09 -0.109047 -2.01205 0
M  V30 33788 O 3208.15 0.530944 -2.46855 0
M  V30 33789 C 3209.46 -2.57347 -1.55542 0
M  V30 33790 C 3211.01 -2.64414 -1.67493 0
M  V30 33791 C 3211.48 -3.99123 -2.24645 0
M  V30 33792 N 3212.98 -4.00899 -2.32023 0
M  V30 33793 C 3213.71 -5.01921 -2.77241 0
M  V30 33794 N 3213.21 -6.13338 -3.22163 0
M  V30 33795 N 3215 -4.89288 -2.76684 0
M  V30 33796 H 3207.15 -2.12341 -0.0502331 0
M  V30 33797 H 3209.41 -0.944193 -0.0848767 0
M  V30 33798 H 3209.12 -3.40001 -0.899571 0
M  V30 33799 H 3208.99 -2.78893 -2.53966 0
M  V30 33800 H 3211.38 -1.82128 -2.32193 0
M  V30 33801 H 3211.46 -2.46692 -0.67651 0
M  V30 33802 H 3211.11 -4.81852 -1.60565 0
M  V30 33803 H 3211.04 -4.14178 -3.25214 0
M  V30 33804 H 3213.53 -3.20448 -2.00304 0
M  V30 33805 H 3213.84 -6.86306 -3.55253 0
M  V30 33806 H 3212.18 -6.16893 -3.20106 0
M  V30 33807 H 3215.38 -4.01336 -2.40929 0
M  V30 33808 H 3215.55 -5.68159 -3.11607 0
M  V30 33809 N 3208.96 0.941933 -1.26354 0
M  V30 33810 C 3210.18 1.72774 -1.14734 0
M  V30 33811 C 3210.61 1.85792 0.293733 0
M  V30 33812 O 3209.96 1.34761 1.21281 0
M  V30 33813 C 3210.01 3.11274 -1.82046 0
M  V30 33814 O 3209.12 3.97216 -1.10874 0
M  V30 33815 H 3208.46 0.530123 -0.399832 0
M  V30 33816 H 3210.99 1.17978 -1.6716 0
M  V30 33817 H 3211 3.61668 -1.8884 0
M  V30 33818 H 3209.67 3.01115 -2.86884 0
M  V30 33819 H 3208.25 3.55667 -1.12051 0
M  V30 33820 N 3210.43 1.08146 1.1464 0
M  V30 33821 C 3211.68 0.810716 1.8589 0
M  V30 33822 C 3212.01 -0.661789 1.82576 0
M  V30 33823 O 3211.29 -1.4863 1.25457 0
M  V30 33824 C 3211.57 1.32985 3.34644 0
M  V30 33825 C 3211.42 2.8675 3.46546 0
M  V30 33826 C 3212.74 0.952939 4.29659 0
M  V30 33827 H 3209.86 0.295975 0.674958 0
M  V30 33828 H 3212.5 1.34062 1.34638 0
M  V30 33829 H 3210.65 0.879096 3.78423 0
M  V30 33830 H 3212.33 3.40176 3.11573 0
M  V30 33831 H 3210.57 3.24544 2.87843 0
M  V30 33832 H 3211.24 3.18146 4.51096 0
M  V30 33833 H 3213.72 1.34148 3.93883 0
M  V30 33834 H 3212.59 1.3434 5.32207 0
M  V30 33835 H 3212.85 -0.140314 4.41877 0
M  V30 33836 N 3211.91 -1.31626 0.866732 0
M  V30 33837 C 3213.32 -1.79047 0.529064 0
M  V30 33838 C 3213.67 -1.71454 -0.953841 0
M  V30 33839 O 3212.8 -1.28034 -1.7446 0
M  V30 33840 C 3213.39 -3.25104 0.953579 0
M  V30 33841 C 3211.95 -3.70432 0.667619 0
M  V30 33842 C 3211.1 -2.52481 1.14668 0
M  V30 33843 H 3214.05 -1.18754 1.05277 0
M  V30 33844 H 3214.07 -3.79506 0.274911 0
M  V30 33845 H 3213.58 -3.30598 2.03289 0
M  V30 33846 H 3211.68 -3.70442 -0.400467 0
M  V30 33847 H 3211.8 -4.62711 1.24238 0
M  V30 33848 H 3210.16 -2.48319 0.566546 0
M  V30 33849 H 3210.94 -2.60723 2.23335 0
M  V30 33850 N 3213.39 -0.62585 -1.4464 0
M  V30 33851 C 3214.64 -0.128427 -2.02393 0
M  V30 33852 C 3214.97 1.24457 -1.49078 0
M  V30 33853 O 3214.24 1.82496 -0.672717 0
M  V30 33854 C 3214.53 -0.109343 -3.59934 0
M  V30 33855 C 3214.38 -1.5143 -4.23543 0
M  V30 33856 C 3215.7 0.568909 -4.36407 0
M  V30 33857 H 3212.82 -0.0481428 -0.735426 0
M  V30 33858 H 3215.46 -0.801316 -1.72276 0
M  V30 33859 H 3213.61 0.463658 -3.85723 0
M  V30 33860 H 3215.28 -2.13579 -4.08879 0
M  V30 33861 H 3213.52 -2.06973 -3.81241 0
M  V30 33862 H 3214.2 -1.45303 -5.32533 0
M  V30 33863 H 3216.67 0.0816785 -4.1602 0
M  V30 33864 H 3215.55 0.551431 -5.46123 0
M  V30 33865 H 3215.81 1.63832 -4.10623 0
M  V30 33866 N 3214.87 1.53289 -0.36608 0
M  V30 33867 C 3216.12 2.00866 0.223016 0
M  V30 33868 C 3216.44 1.25506 1.49242 0
M  V30 33869 O 3215.71 0.368478 1.92403 0
M  V30 33870 H 3214.29 0.742102 0.0854 0
M  V30 33871 H 3216.95 1.88577 -0.492429 0
M  V30 33872 H 3216.04 3.08844 0.449647 0
M  V30 33873 N 3216.35 0.0952613 1.57312 0
M  V30 33874 C 3217.76 -0.261388 1.57445 0
M  V30 33875 C 3217.96 -1.68406 1.10642 0
M  V30 33876 O 3217.02 -2.40054 0.782954 0
M  V30 33877 C 3218.33 -0.0496678 3.00659 0
M  V30 33878 C 3219.88 -0.117404 3.1278 0
M  V30 33879 C 3220.35 0.0663246 4.57952 0
M  V30 33880 N 3221.84 0.011496 4.63199 0
M  V30 33881 C 3222.58 0.1289 5.73255 0
M  V30 33882 N 3222.08 0.301147 6.92145 0
M  V30 33883 N 3223.87 0.0701587 5.62056 0
M  V30 33884 H 3216.02 1.02478 1.86043 0
M  V30 33885 H 3218.28 0.40163 0.858719 0
M  V30 33886 H 3217.99 0.932948 3.391 0
M  V30 33887 H 3217.86 -0.79191 3.68793 0
M  V30 33888 H 3220.25 -1.09052 2.74211 0
M  V30 33889 H 3220.33 0.656331 2.47237 0
M  V30 33890 H 3219.97 1.03631 4.97215 0
M  V30 33891 H 3219.9 -0.727106 5.21556 0
M  V30 33892 H 3222.4 -0.119087 3.77712 0
M  V30 33893 H 3222.71 0.38224 7.71854 0
M  V30 33894 H 3221.05 0.336817 6.94183 0
M  V30 33895 H 3224.24 -0.0632765 4.68057 0
M  V30 33896 H 3224.42 0.165105 6.4779 0
M  V30 33897 N 3217.82 -1.56587 -0.178432 0
M  V30 33898 C 3219.06 -1.83383 -0.902778 0
M  V30 33899 C 3219.43 -0.675171 -1.79737 0
M  V30 33900 O 3220.63 -0.823413 -2.55878 0
M  V30 33901 C 3218.9 -3.15268 -1.68347 0
M  V30 33902 S 3220.46 -3.63524 -2.45756 0
M  V30 33903 H 3217.28 -0.643441 -0.302497 0
M  V30 33904 H 3219.88 -1.94803 -0.164927 0
M  V30 33905 H 3218.58 -3.97595 -1.01718 0
M  V30 33906 H 3218.11 -3.0677 -2.46283 0
M  V30 33907 H 3220.13 -3.30284 -3.70306 0
M  V30 33908 N 3219.3 0.446741 -1.51136 0
M  V30 33909 C 3220.23 1.54913 -1.74712 0
M  V30 33910 C 3221.21 1.59292 -0.596656 0
M  V30 33911 O 3222.4 1.75171 -0.838386 0
M  V30 33912 C 3219.53 2.93067 -1.86358 0
M  V30 33913 C 3218.48 3.0355 -3.0173 0
M  V30 33914 C 3217.81 4.43591 -2.98548 0
M  V30 33915 C 3219.11 2.78502 -4.41853 0
M  V30 33916 H 3220.8 1.35435 -2.67016 0
M  V30 33917 H 3218.35 0.650108 -1.2849 0
M  V30 33918 H 3220.3 3.70138 -2.01435 0
M  V30 33919 H 3219.02 3.13755 -0.906942 0
M  V30 33920 H 3217.68 2.28917 -2.86343 0
M  V30 33921 H 3217.33 4.61233 -2.00681 0
M  V30 33922 H 3217.03 4.51537 -3.76015 0
M  V30 33923 H 3218.56 5.22649 -3.15705 0
M  V30 33924 H 3219.97 3.45311 -4.57639 0
M  V30 33925 H 3218.37 2.97868 -5.20955 0
M  V30 33926 H 3219.44 1.74174 -4.52539 0
M  V30 33927 N 3220.78 1.41123 0.701567 0
M  V30 33928 C 3222.01 1.43502 1.49046 0
M  V30 33929 C 3222.42 0.0386016 1.88761 0
M  V30 33930 O 3221.78 -0.940728 1.56386 0
M  V30 33931 C 3221.83 2.33836 2.75686 0
M  V30 33932 O 3221.55 3.68043 2.37647 0
M  V30 33933 C 3223.05 2.44955 3.69475 0
M  V30 33934 H 3220.27 0.488969 0.459511 0
M  V30 33935 H 3222.82 1.85338 0.864286 0
M  V30 33936 H 3220.97 1.95324 3.34555 0
M  V30 33937 H 3221.39 4.16161 3.19233 0
M  V30 33938 H 3222.86 3.12342 4.55134 0
M  V30 33939 H 3223.34 1.47894 4.1355 0
M  V30 33940 H 3223.94 2.84078 3.16512 0
M  V30 33941 N 3222.26 -0.935219 1.26852 0
M  V30 33942 C 3223.19 -2.05194 1.11434 0
M  V30 33943 C 3224.17 -1.70091 0.0178661 0
M  V30 33944 O 3225.35 -1.93259 0.190985 0
M  V30 33945 C 3222.48 -3.39042 0.752839 0
M  V30 33946 C 3221.44 -3.8823 1.80171 0
M  V30 33947 C 3220.76 -5.18797 1.29437 0
M  V30 33948 C 3222.06 -4.12452 3.20439 0
M  V30 33949 H 3223.76 -2.18351 2.04849 0
M  V30 33950 H 3221.3 -1.0492 0.986295 0
M  V30 33951 H 3223.26 -4.16636 0.63183 0
M  V30 33952 H 3221.98 -3.25878 -0.217018 0
M  V30 33953 H 3220.64 -3.12822 1.91149 0
M  V30 33954 H 3220.29 -5.02018 0.314188 0
M  V30 33955 H 3219.99 -5.52677 1.99556 0
M  V30 33956 H 3221.51 -5.98968 1.18615 0
M  V30 33957 H 3222.93 -4.8064 3.12503 0
M  V30 33958 H 3221.32 -4.57625 3.88201 0
M  V30 33959 H 3222.39 -3.18016 3.66052 0
M  V30 33960 N 3223.74 -1.08752 -1.14065 0
M  V30 33961 C 3225.15 -0.839807 -1.66746 0
M  V30 33962 C 3225.5 0.632876 -1.85712 0
M  V30 33963 O 3224.62 1.48838 -1.57087 0
M  V30 33964 C 3225.22 -1.51792 -3.02894 0
M  V30 33965 C 3223.78 -1.31736 -3.52594 0
M  V30 33966 C 3222.92 -1.57845 -2.27992 0
M  V30 33967 H 3225.88 -1.24763 -0.980816 0
M  V30 33968 H 3225.9 -0.947122 -3.68524 0
M  V30 33969 H 3225.41 -2.58974 -2.89057 0
M  V30 33970 H 3223.51 -0.266404 -3.71646 0
M  V30 33971 H 3223.62 -2.04743 -4.33148 0
M  V30 33972 H 3221.99 -1.00019 -2.3424 0
M  V30 33973 H 3222.77 -2.66241 -2.16727 0
M  V30 33974 N 3225.21 1.31165 -0.873701 0
M  V30 33975 C 3226.18 2.26707 -0.337109 0
M  V30 33976 C 3227.18 1.52363 0.514033 0
M  V30 33977 O 3228.37 1.71183 0.322804 0
M  V30 33978 C 3225.5 3.36898 0.520838 0
M  V30 33979 H 3226.69 2.75684 -1.1806 0
M  V30 33980 H 3224.25 1.42161 -0.649602 0
M  V30 33981 H 3224.98 2.9322 1.38538 0
M  V30 33982 H 3224.77 3.92 -0.0886704 0
M  V30 33983 H 3226.26 4.0804 0.888425 0
M  V30 33984 N 3226.69 0.633512 1.44307 0
M  V30 33985 C 3227.94 0.138952 2.02023 0
M  V30 33986 C 3228.27 -1.24006 1.49843 0
M  V30 33987 O 3227.52 -1.83736 0.67375 0
M  V30 33988 C 3227.82 0.0774514 3.57316 0
M  V30 33989 C 3227.49 1.39556 4.2876 0
M  V30 33990 C 3226.15 1.75656 4.47994 0
M  V30 33991 C 3228.5 2.2655 4.69387 0
M  V30 33992 C 3225.83 2.98453 5.05116 0
M  V30 33993 C 3228.18 3.48621 5.2787 0
M  V30 33994 C 3226.85 3.84941 5.45322 0
M  V30 33995 H 3226.12 0.0508463 0.739253 0
M  V30 33996 H 3228.76 0.820301 1.73041 0
M  V30 33997 H 3227.07 -0.687277 3.85725 0
M  V30 33998 H 3228.76 -0.321767 3.99707 0
M  V30 33999 H 3225.35 1.10463 4.14121 0
M  V30 34000 H 3229.54 1.99954 4.54238 0
M  V30 34001 H 3224.79 3.26667 5.16816 0
M  V30 34002 H 3228.97 4.16262 5.583 0
M  V30 34003 H 3226.6 4.80176 5.89351 0
M  V30 34004 N 3228.17 -1.53093 0.374204 0
M  V30 34005 C 3229.4 -2.06274 -0.215867 0
M  V30 34006 C 3229.82 -1.24528 -1.40977 0
M  V30 34007 O 3229.18 -0.266494 -1.79331 0
M  V30 34008 C 3229.23 -3.55921 -0.579026 0
M  V30 34009 O 3228.33 -3.76848 -1.67509 0
M  V30 34010 H 3227.67 -0.663349 -0.0293865 0
M  V30 34011 H 3230.2 -1.97419 0.537305 0
M  V30 34012 H 3230.21 -3.99098 -0.847608 0
M  V30 34013 H 3228.89 -4.1486 0.293916 0
M  V30 34014 H 3227.46 -3.45565 -1.4014 0
M  V30 34015 N 3229.65 -0.103603 -1.57259 0
M  V30 34016 C 3230.88 0.56624 -1.99001 0
M  V30 34017 C 3231.29 1.61195 -0.982938 0
M  V30 34018 O 3230.65 1.82481 0.0263129 0
M  V30 34019 C 3230.7 1.20629 -3.4078 0
M  V30 34020 O 3230.42 0.202395 -4.37632 0
M  V30 34021 C 3231.92 1.96093 -3.97571 0
M  V30 34022 H 3229.14 0.151153 -0.653754 0
M  V30 34023 H 3231.69 -0.185401 -2.03658 0
M  V30 34024 H 3229.84 1.9088 -3.3711 0
M  V30 34025 H 3230.25 0.665444 -5.20262 0
M  V30 34026 H 3231.73 2.36224 -4.98901 0
M  V30 34027 H 3232.21 2.83013 -3.35858 0
M  V30 34028 H 3232.81 1.30638 -4.04739 0
M  V30 34029 N 3231.13 1.56679 0.170126 0
M  V30 34030 C 3232.06 1.99532 1.21282 0
M  V30 34031 C 3233.04 0.871097 1.46102 0
M  V30 34032 O 3234.22 1.13726 1.57417 0
M  V30 34033 C 3231.35 2.35622 2.55146 0
M  V30 34034 C 3230.31 3.51016 2.44892 0
M  V30 34035 C 3229.63 3.72852 3.83257 0
M  V30 34036 C 3230.93 4.84427 1.95263 0
M  V30 34037 H 3232.63 2.86885 0.856596 0
M  V30 34038 H 3230.17 1.38022 0.41061 0
M  V30 34039 H 3232.13 2.64199 3.28294 0
M  V30 34040 H 3230.85 1.4518 2.92558 0
M  V30 34041 H 3229.51 3.22569 1.74198 0
M  V30 34042 H 3229.16 2.79698 4.18064 0
M  V30 34043 H 3228.86 4.50495 3.77264 0
M  V30 34044 H 3230.38 4.0383 4.57989 0
M  V30 34045 H 3231.79 5.11872 2.58186 0
M  V30 34046 H 3230.19 5.65715 2.00215 0
M  V30 34047 H 3231.26 4.76342 0.907007 0
M  V30 34048 N 3232.6 -0.43872 1.5137 0
M  V30 34049 C 3234.02 -0.775091 1.39515 0
M  V30 34050 C 3234.22 -1.95787 0.476414 0
M  V30 34051 O 3233.28 -2.52406 -0.0689388 0
M  V30 34052 C 3234.59 -1.05676 2.81519 0
M  V30 34053 C 3236.14 -1.16128 2.9066 0
M  V30 34054 C 3236.61 -1.47589 4.33568 0
M  V30 34055 N 3238.1 -1.54516 4.36668 0
M  V30 34056 C 3238.84 -1.80428 5.44273 0
M  V30 34057 N 3238.33 -2.04142 6.62041 0
M  V30 34058 N 3240.13 -1.82199 5.31752 0
M  V30 34059 H 3232.28 0.340274 2.09657 0
M  V30 34060 H 3234.54 0.0898281 0.943735 0
M  V30 34061 H 3234.25 -0.260379 3.50735 0
M  V30 34062 H 3234.12 -1.98475 3.20761 0
M  V30 34063 H 3236.51 -1.94829 2.21643 0
M  V30 34064 H 3236.59 -0.212331 2.54917 0
M  V30 34065 H 3236.23 -0.694163 5.03134 0
M  V30 34066 H 3236.16 -2.43688 4.66823 0
M  V30 34067 H 3238.65 -1.38099 3.51763 0
M  V30 34068 H 3238.97 -2.2328 7.39842 0
M  V30 34069 H 3237.31 -2.01467 6.65159 0
M  V30 34070 H 3240.5 -1.63191 4.38733 0
M  V30 34071 H 3240.68 -2.02056 6.15693 0
M  V30 34072 N 3234.08 -1.41493 -0.694073 0
M  V30 34073 C 3235.5 -1.23996 -1.00485 0
M  V30 34074 C 3235.7 -0.130381 -2.01078 0
M  V30 34075 O 3234.75 0.504732 -2.47404 0
M  V30 34076 C 3236.07 -2.58982 -1.52803 0
M  V30 34077 C 3237.62 -2.66176 -1.64679 0
M  V30 34078 C 3238.09 -4.01483 -2.20399 0
M  V30 34079 N 3239.58 -4.03337 -2.27757 0
M  V30 34080 C 3240.32 -5.04834 -2.71902 0
M  V30 34081 N 3239.81 -6.1672 -3.1564 0
M  V30 34082 N 3241.61 -4.92195 -2.71479 0
M  V30 34083 H 3233.76 -2.12382 -0.0277087 0
M  V30 34084 H 3236.02 -0.94504 -0.0748575 0
M  V30 34085 H 3235.73 -3.40936 -0.863459 0
M  V30 34086 H 3235.6 -2.81571 -2.50993 0
M  V30 34087 H 3237.99 -1.8458 -2.30248 0
M  V30 34088 H 3238.07 -2.47396 -0.650307 0
M  V30 34089 H 3237.71 -4.83528 -1.55445 0
M  V30 34090 H 3237.64 -4.17604 -3.20802 0
M  V30 34091 H 3240.13 -3.22554 -1.96894 0
M  V30 34092 H 3240.45 -6.90035 -3.47954 0
M  V30 34093 H 3238.79 -6.20254 -3.13545 0
M  V30 34094 H 3241.98 -4.03869 -2.36659 0
M  V30 34095 H 3242.15 -5.71432 -3.05563 0
M  V30 34096 N 3235.56 0.928479 -1.27346 0
M  V30 34097 C 3236.51 2.02898 -1.10004 0
M  V30 34098 C 3237.48 1.661 -0.00134004 0
M  V30 34099 O 3238.66 1.90098 -0.163518 0
M  V30 34100 C 3235.8 3.36797 -0.75246 0
M  V30 34101 C 3234.92 3.86555 -1.92871 0
M  V30 34102 C 3234.05 5.08896 -1.52308 0
M  V30 34103 C 3233.09 5.50949 -2.66687 0
M  V30 34104 N 3232.23 6.64487 -2.26718 0
M  V30 34105 H 3237.07 2.17064 -2.04174 0
M  V30 34106 H 3234.6 1.06339 -1.01639 0
M  V30 34107 H 3236.56 4.13797 -0.531759 0
M  V30 34108 H 3235.19 3.22441 0.152283 0
M  V30 34109 H 3234.24 3.05841 -2.26198 0
M  V30 34110 H 3235.56 4.13693 -2.78675 0
M  V30 34111 H 3234.71 5.93396 -1.26358 0
M  V30 34112 H 3233.45 4.83534 -0.636127 0
M  V30 34113 H 3232.45 4.64999 -2.93352 0
M  V30 34114 H 3233.68 5.78307 -3.56002 0
M  V30 34115 H 3231.62 6.40783 -1.40473 0
M  V30 34116 H 3231.54 6.91276 -3.06061 0
M  V30 34117 H 3232.81 7.52329 -2.04013 0
M  V30 34118 N 3237.04 1.09355 1.13486 0
M  V30 34119 C 3238.28 0.84026 1.85233 0
M  V30 34120 C 3238.64 -0.627347 1.81885 0
M  V30 34121 O 3237.93 -1.45594 1.24551 0
M  V30 34122 C 3238.13 1.3086 3.32581 0
M  V30 34123 C 3237.96 2.8202 3.50278 0
M  V30 34124 C 3236.73 3.49889 3.64562 0
M  V30 34125 C 3238.92 3.80164 3.46381 0
M  V30 34126 N 3236.91 4.89483 3.70513 0
M  V30 34127 C 3238.28 5.05707 3.58693 0
M  V30 34128 C 3240.33 3.7303 3.29777 0
M  V30 34129 C 3239.03 6.2496 3.56115 0
M  V30 34130 C 3241.06 4.91769 3.28507 0
M  V30 34131 C 3240.42 6.16155 3.41369 0
M  V30 34132 H 3236.52 0.360322 0.69404 0
M  V30 34133 H 3239.11 1.39379 1.35947 0
M  V30 34134 H 3237.28 0.782527 3.80435 0
M  V30 34135 H 3239.01 1.00071 3.92133 0
M  V30 34136 H 3235.76 3.00317 3.66206 0
M  V30 34137 H 3236.19 5.62195 3.77181 0
M  V30 34138 H 3240.83 2.77789 3.18736 0
M  V30 34139 H 3238.55 7.20501 3.65929 0
M  V30 34140 H 3242.13 4.87947 3.16859 0
M  V30 34141 H 3241.01 7.06494 3.40347 0
M  V30 34142 N 3238.52 -1.307 0.880644 0
M  V30 34143 C 3239.45 -2.30704 0.360292 0
M  V30 34144 C 3240.43 -1.60807 -0.554544 0
M  V30 34145 O 3241.61 -1.88444 -0.469312 0
M  V30 34146 C 3238.74 -3.4463 -0.429827 0
M  V30 34147 C 3237.7 -4.26193 0.392861 0
M  V30 34148 C 3237.02 -5.3213 -0.523596 0
M  V30 34149 C 3238.32 -4.96126 1.63266 0
M  V30 34150 H 3240.02 -2.74476 1.19596 0
M  V30 34151 H 3237.56 -1.31955 0.576531 0
M  V30 34152 H 3239.52 -4.1365 -0.804459 0
M  V30 34153 H 3238.24 -2.99651 -1.2991 0
M  V30 34154 H 3236.9 -3.58855 0.749577 0
M  V30 34155 H 3236.55 -4.834 -1.39046 0
M  V30 34156 H 3236.25 -5.87595 0.0230304 0
M  V30 34157 H 3237.77 -6.04007 -0.89484 0
M  V30 34158 H 3239.19 -5.57686 1.32886 0
M  V30 34159 H 3237.58 -5.61437 2.11916 0
M  V30 34160 H 3238.65 -4.22501 2.37952 0
M  V30 34161 N 3240 -0.641156 -1.43969 0
M  V30 34162 C 3241.27 -0.0801261 -1.95436 0
M  V30 34163 C 3241.65 1.39675 -1.58284 0
M  V30 34164 O 3241 2.11621 -0.861904 0
M  V30 34165 C 3241.21 -0.313592 -3.47588 0
M  V30 34166 C 3242.56 -0.212109 -4.2407 0
M  V30 34167 O 3243.58 -0.245497 -3.55353 0
M  V30 34168 O 3242.44 -0.125551 -5.46356 0
M  V30 34169 H 3239.54 0.016559 -0.826834 0
M  V30 34170 H 3242.08 -0.713557 -1.53969 0
M  V30 34171 H 3240.85 -1.33799 -3.67714 0
M  V30 34172 H 3240.48 0.353493 -3.96025 0
M  V30 34173 N 3241.47 1.52892 -0.382318 0
M  V30 34174 C 3242.7 2.06385 0.204925 0
M  V30 34175 C 3243.12 1.25274 1.40314 0
M  V30 34176 O 3242.48 0.276001 1.79187 0
M  V30 34177 C 3242.53 3.56223 0.560143 0
M  V30 34178 O 3241.63 3.77731 1.65508 0
M  V30 34179 H 3240.97 0.663496 0.0258682 0
M  V30 34180 H 3243.5 1.97131 -0.547767 0
M  V30 34181 H 3243.51 3.99542 0.826431 0
M  V30 34182 H 3242.19 4.14698 -0.315913 0
M  V30 34183 H 3240.77 3.46303 1.38305 0
M  V30 34184 N 3242.95 0.111941 1.57202 0
M  V30 34185 C 3244.2 -0.547761 1.94951 0
M  V30 34186 C 3244.53 -1.67135 0.994793 0
M  V30 34187 O 3243.78 -1.95692 0.0173872 0
M  V30 34188 C 3244.08 -1.12735 3.39154 0
M  V30 34189 C 3243.75 -0.125837 4.50724 0
M  V30 34190 C 3242.41 0.149573 4.80967 0
M  V30 34191 C 3244.76 0.557079 5.18214 0
M  V30 34192 C 3242.09 1.11431 5.76021 0
M  V30 34193 C 3244.44 1.51039 6.14304 0
M  V30 34194 C 3243.1 1.79386 6.42944 0
M  V30 34195 H 3242.37 -0.20044 0.713376 0
M  V30 34196 H 3245.02 0.191349 1.90542 0
M  V30 34197 H 3243.33 -1.94307 3.40223 0
M  V30 34198 H 3245.02 -1.64577 3.65671 0
M  V30 34199 H 3241.61 -0.350681 4.27163 0
M  V30 34200 H 3245.8 0.357465 4.95011 0
M  V30 34201 H 3241.05 1.34075 5.96518 0
M  V30 34202 H 3245.23 2.04528 6.65689 0
M  V30 34203 H 3242.85 2.54297 7.16406 0
M  V30 34204 O 3244.47 -1.61476 -0.0276398 0
M  V30 34205 H 3245.16 -1.82539 -0.648001 0
M  V30 END ATOM
M  V30 BEGIN BOND
M  V30 END BOND
M  V30 END CTAB
M  END
$$$$
