drugbank_target|Q46704 TraO protein (DB04147)
 OpenBabel12092120483D

  0  0  0     0  0            999 V3000
M  V30 BEGIN CTAB
M  V30 COUNTS 4642 4691 0 0 0
M  V30 BEGIN ATOM
M  V30 1 H -0.908 1.98254 -0.117106 0
M  V30 2 N 0 1.576 0 0
M  V30 3 C 0.933 2.03868 1.02534 0
M  V30 4 C 1.911 0.928543 1.3348 0
M  V30 5 O 3.095 1.19667 1.45644 0
M  V30 6 C 0.222 2.43627 2.35294 0
M  V30 7 C -0.732 3.65373 2.2001 0
M  V30 8 S 0.101 5.13292 1.52614 0
M  V30 9 C 1.257 5.56322 2.86805 0
M  V30 10 H 1.49 2.90518 0.631377 0
M  V30 11 H -0.977 1.52953 0.210867 0
M  V30 12 H 0.981 2.67203 3.11629 0
M  V30 13 H -0.358 1.57376 2.7183 0
M  V30 14 H -1.165 3.90944 3.18086 0
M  V30 15 H -1.563 3.418 1.51819 0
M  V30 16 H 0.729 5.58782 3.83104 0
M  V30 17 H 1.672 6.56266 2.65933 0
M  V30 18 H 2.08 4.83886 2.90714 0
M  V30 19 N 1.4781 -0.272755 1.55222 0
M  V30 20 C 2.4251 -1.33716 1.88119 0
M  V30 21 C 3.3951 -1.49066 0.73271 0
M  V30 22 O 4.5801 -1.63469 0.984002 0
M  V30 23 C 1.7201 -2.69238 2.15882 0
M  V30 24 C 0.8331 -2.62108 3.43399 0
M  V30 25 C -0.0319 -3.89811 3.60861 0
M  V30 26 C -0.9929 -3.77193 4.8207 0
M  V30 27 N -1.8559 -4.9673 4.96189 0
M  V30 28 H 2.9841 -1.04962 2.78903 0
M  V30 29 H 0.5211 -0.507088 1.38083 0
M  V30 30 H 2.4791 -3.48089 2.29978 0
M  V30 31 H 1.1091 -2.96194 1.28331 0
M  V30 32 H 0.1611 -1.74967 3.37773 0
M  V30 33 H 1.4731 -2.48685 4.32386 0
M  V30 34 H 0.6271 -4.77103 3.74777 0
M  V30 35 H -0.6339 -4.06102 2.7006 0
M  V30 36 H -1.6289 -2.88284 4.68159 0
M  V30 37 H -0.4039 -3.62421 5.74307 0
M  V30 38 H -2.4579 -5.13431 4.08319 0
M  V30 39 H -2.5409 -4.85839 5.79221 0
M  V30 40 H -1.2729 -5.85594 5.1449 0
M  V30 41 N 2.9562 -1.48159 -0.537278 0
M  V30 42 C 3.9032 -1.62138 -1.64256 0
M  V30 43 C 4.8732 -0.463668 -1.59497 0
M  V30 44 O 6.0582 -0.686241 -1.78032 0
M  V30 45 C 3.1982 -1.66028 -3.02537 0
M  V30 46 C 2.3112 -2.92855 -3.17585 0
M  V30 47 C 1.4462 -2.87952 -4.46382 0
M  V30 48 C 0.4852 -4.09516 -4.54932 0
M  V30 49 N -0.3778 -4.02733 -5.75109 0
M  V30 50 H 4.4622 -2.56529 -1.51647 0
M  V30 51 H 1.9992 -1.27224 -0.738414 0
M  V30 52 H 3.9572 -1.66265 -3.82638 0
M  V30 53 H 2.5872 -0.751331 -3.13934 0
M  V30 54 H 1.6392 -3.02395 -2.30784 0
M  V30 55 H 2.9512 -3.82822 -3.19764 0
M  V30 56 H 2.1052 -2.8655 -5.34765 0
M  V30 57 H 0.8442 -1.95702 -4.46712 0
M  V30 58 H -0.1508 -4.11201 -3.64957 0
M  V30 59 H 1.0742 -5.02917 -4.56346 0
M  V30 60 H -0.9798 -3.13299 -5.76351 0
M  V30 61 H -1.0628 -4.86397 -5.78752 0
M  V30 62 H 0.2052 -4.05379 -6.65799 0
M  V30 63 N 4.4343 0.785586 -1.36625 0
M  V30 64 C 5.3643 1.91259 -1.33949 0
M  V30 65 C 6.3453 1.68795 -0.210325 0
M  V30 66 O 7.5303 1.89854 -0.408561 0
M  V30 67 C 4.6603 3.28339 -1.13186 0
M  V30 68 C 3.6143 3.65335 -2.22967 0
M  V30 69 C 2.9403 5.00806 -1.87342 0
M  V30 70 C 4.2403 3.7352 -3.65075 0
M  V30 71 H 5.9343 1.93755 -2.28253 0
M  V30 72 H 3.4803 0.930788 -1.09874 0
M  V30 73 H 5.4333 4.06804 -1.09948 0
M  V30 74 H 4.1573 3.2624 -0.153332 0
M  V30 75 H 2.8163 2.89169 -2.25337 0
M  V30 76 H 2.4643 4.95233 -0.880545 0
M  V30 77 H 2.1643 5.26529 -2.60846 0
M  V30 78 H 3.6883 5.81687 -1.85667 0
M  V30 79 H 5.1023 4.42168 -3.64911 0
M  V30 80 H 3.4993 4.10731 -4.37516 0
M  V30 81 H 4.5693 2.74527 -3.99703 0
M  V30 82 N 5.9124 1.20967 1.01018 0
M  V30 83 C 6.8424 0.988272 2.11555 0
M  V30 84 C 7.8234 -0.0849778 1.69888 0
M  V30 85 O 9.0084 0.0738202 1.9406 0
M  V30 86 C 6.1384 0.546528 3.42973 0
M  V30 87 C 5.0924 1.56375 3.9841 0
M  V30 88 C 4.4184 0.97842 5.25672 0
M  V30 89 C 5.7184 2.94922 4.31066 0
M  V30 90 H 7.4124 1.91276 2.30334 0
M  V30 91 H 4.9584 0.921073 1.1069 0
M  V30 92 H 6.9114 0.378839 4.19694 0
M  V30 93 H 5.6354 -0.413598 3.23971 0
M  V30 94 H 4.2944 1.71891 3.23804 0
M  V30 95 H 3.9424 0.0101688 5.02999 0
M  V30 96 H 3.6424 1.65784 5.63728 0
M  V30 97 H 5.1664 0.821939 6.05043 0
M  V30 98 H 6.5804 2.8288 4.9865 0
M  V30 99 H 4.9774 3.5983 4.80253 0
M  V30 100 H 6.0474 3.4616 3.39561 0
M  V30 101 N 7.3905 -1.2043 1.01659 0
M  V30 102 C 8.3205 -2.25466 0.607226 0
M  V30 103 C 9.3015 -1.65853 -0.377716 0
M  V30 104 O 10.4865 -1.92409 -0.263149 0
M  V30 105 C 7.6165 -3.47256 -0.0552949 0
M  V30 106 C 6.5705 -4.19462 0.850632 0
M  V30 107 C 5.8965 -5.34673 0.0538859 0
M  V30 108 C 7.1965 -4.75603 2.15868 0
M  V30 109 H 8.8905 -2.59962 1.48526 0
M  V30 110 H 6.4365 -1.2496 0.715605 0
M  V30 111 H 8.3895 -4.19917 -0.353233 0
M  V30 112 H 7.1135 -3.11924 -0.968045 0
M  V30 113 H 5.7725 -3.48667 1.13257 0
M  V30 114 H 5.4205 -4.95585 -0.860514 0
M  V30 115 H 5.1205 -5.83913 0.657192 0
M  V30 116 H 6.6445 -6.10138 -0.237598 0
M  V30 117 H 8.0585 -5.40083 1.92311 0
M  V30 118 H 6.4555 -5.3528 2.71284 0
M  V30 119 H 7.5255 -3.94346 2.82169 0
M  V30 120 N 8.8686 -0.792821 -1.36206 0
M  V30 121 C 10.0936 -0.377701 -2.03932 0
M  V30 122 C 10.5186 0.998947 -1.59382 0
M  V30 123 O 9.8766 1.64421 -0.763903 0
M  V30 124 C 9.9246 -0.453635 -3.57735 0
M  V30 125 O 9.0286 0.538151 -4.08874 0
M  V30 126 H 8.3696 -0.159855 -0.644471 0
M  V30 127 H 10.8996 -1.07488 -1.7409 0
M  V30 128 H 10.9096 -0.318464 -4.06755 0
M  V30 129 H 9.5846 -1.45784 -3.89512 0
M  V30 130 H 8.1616 0.364359 -3.71116 0
M  V30 131 N 10.3467 1.47872 -0.545128 0
M  V30 132 C 11.3097 2.28337 0.198717 0
M  V30 133 C 12.3097 1.36255 0.853888 0
M  V30 134 O 13.4997 1.59003 0.711606 0
M  V30 135 C 10.6317 3.15585 1.28915 0
M  V30 136 H 11.8247 2.95567 -0.507941 0
M  V30 137 H 9.3777 1.53362 -0.301616 0
M  V30 138 H 10.1127 2.53019 2.02859 0
M  V30 139 H 9.8977 3.83337 0.824309 0
M  V30 140 H 11.3877 3.76243 1.81194 0
M  V30 141 N 11.8248 0.280983 1.55075 0
M  V30 142 C 13.0708 -0.33461 2.00021 0
M  V30 143 C 13.4038 -1.55063 1.16915 0
M  V30 144 O 12.6788 -1.93006 0.240646 0
M  V30 145 C 12.9618 -0.711007 3.53011 0
M  V30 146 C 12.8148 0.512766 4.46868 0
M  V30 147 C 14.1338 -1.54522 4.12081 0
M  V30 148 H 11.2528 -0.120147 0.727141 0
M  V30 149 H 13.8948 0.389097 1.85973 0
M  V30 150 H 12.0448 -1.32761 3.65112 0
M  V30 151 H 13.7168 1.15131 4.46702 0
M  V30 152 H 11.9598 1.14975 4.18286 0
M  V30 153 H 12.6308 0.205556 5.51617 0
M  V30 154 H 15.1068 -1.02442 4.03293 0
M  V30 155 H 13.9828 -1.77739 5.19327 0
M  V30 156 H 14.2438 -2.52813 3.62682 0
M  V30 157 N 13.3029 -1.57598 0.00835791 0
M  V30 158 C 14.5489 -1.91211 -0.675732 0
M  V30 159 C 14.8819 -0.883139 -1.72958 0
M  V30 160 O 14.1569 0.097016 -1.94258 0
M  V30 161 C 14.4399 -3.35379 -1.31123 0
M  V30 162 C 14.2929 -4.48999 -0.268356 0
M  V30 163 C 15.6119 -3.7912 -2.23508 0
M  V30 164 H 12.7309 -0.695374 -0.244179 0
M  V30 165 H 15.3729 -1.89901 0.0613655 0
M  V30 166 H 13.5229 -3.36626 -1.93946 0
M  V30 167 H 15.1949 -4.59887 0.360844 0
M  V30 168 H 13.4379 -4.31873 0.408482 0
M  V30 169 H 14.1089 -5.46851 -0.752218 0
M  V30 170 H 16.5849 -3.79477 -1.70693 0
M  V30 171 H 15.4609 -4.80729 -2.64936 0
M  V30 172 H 15.7219 -3.13455 -3.11766 0
M  V30 173 N 14.781 0.264519 -1.55364 0
M  V30 174 C 15.711 1.33121 -1.91836 0
M  V30 175 C 16.692 1.51101 -0.781192 0
M  V30 176 O 17.877 1.64003 -1.04003 0
M  V30 177 C 15.007 2.68921 -2.19769 0
M  V30 178 C 13.961 2.65661 -3.35571 0
M  V30 179 C 13.287 4.05093 -3.49004 0
M  V30 180 C 14.587 2.24187 -4.71739 0
M  V30 181 H 16.281 1.02844 -2.81182 0
M  V30 182 H 13.827 0.493286 -1.35287 0
M  V30 183 H 15.78 3.43663 -2.43872 0
M  V30 184 H 14.504 3.00799 -1.27231 0
M  V30 185 H 13.163 1.93377 -3.1145 0
M  V30 186 H 12.811 4.34206 -2.53917 0
M  V30 187 H 12.511 4.03804 -4.26868 0
M  V30 188 H 14.035 4.81561 -3.75408 0
M  V30 189 H 15.449 2.88654 -4.9533 0
M  V30 190 H 13.846 2.34044 -5.52579 0
M  V30 191 H 14.916 1.19327 -4.69988 0
M  V30 192 N 16.2591 1.48442 0.529413 0
M  V30 193 C 17.4841 1.60406 1.31471 0
M  V30 194 C 17.9091 0.264738 1.86228 0
M  V30 195 O 17.2671 -0.763668 1.64432 0
M  V30 196 C 17.3151 2.65419 2.44101 0
M  V30 197 O 16.4191 2.22618 3.47153 0
M  V30 198 H 15.7601 0.537863 0.389357 0
M  V30 199 H 18.2901 1.94432 0.636965 0
M  V30 200 H 18.3001 2.86709 2.90279 0
M  V30 201 H 16.9751 3.62652 2.03608 0
M  V30 202 H 15.5521 2.11543 3.0709 0
M  V30 203 N 17.7372 -0.778329 1.37039 0
M  V30 204 C 18.9832 -1.53892 1.32079 0
M  V30 205 C 19.3162 -1.9396 -0.0965386 0
M  V30 206 O 18.5912 -1.63568 -1.05242 0
M  V30 207 C 18.8742 -2.80847 2.25382 0
M  V30 208 C 18.7272 -2.47076 3.75864 0
M  V30 209 C 20.0462 -3.82741 2.1725 0
M  V30 210 H 17.1652 -0.558303 0.48111 0
M  V30 211 H 19.8072 -0.893397 1.67685 0
M  V30 212 H 17.9572 -3.35931 1.95148 0
M  V30 213 H 19.6292 -1.97957 4.16666 0
M  V30 214 H 17.8722 -1.79863 3.94755 0
M  V30 215 H 18.5432 -3.37798 4.36574 0
M  V30 216 H 21.0192 -3.37133 2.43887 0
M  V30 217 H 19.8952 -4.69303 2.84686 0
M  V30 218 H 20.1562 -4.2652 1.16331 0
M  V30 219 N 19.2153 -1.21501 -1.00376 0
M  V30 220 C 20.1453 -0.999478 -2.11028 0
M  V30 221 C 21.1263 0.0759671 -1.6993 0
M  V30 222 O 22.3113 -0.0841106 -1.94018 0
M  V30 223 C 19.4413 -0.564709 -3.42678 0
M  V30 224 C 18.3953 -1.58486 -3.97576 0
M  V30 225 C 17.7213 -1.00628 -5.25146 0
M  V30 226 C 19.0213 -2.97204 -4.29496 0
M  V30 227 H 20.7153 -1.92495 -2.29317 0
M  V30 228 H 18.2613 -0.92693 -1.102 0
M  V30 229 H 20.2143 -0.401091 -4.19487 0
M  V30 230 H 18.9383 0.396411 -3.24185 0
M  V30 231 H 17.5973 -1.73606 -3.22888 0
M  V30 232 H 17.2453 -0.0368439 -5.02987 0
M  V30 233 H 16.9453 -1.68771 -5.62841 0
M  V30 234 H 18.4693 -0.854015 -6.04598 0
M  V30 235 H 19.8833 -2.8552 -4.97143 0
M  V30 236 H 18.2803 -3.62372 -4.78338 0
M  V30 237 H 19.3503 -3.47956 -3.3772 0
M  V30 238 N 20.6934 1.19889 -1.02296 0
M  V30 239 C 21.9414 1.89046 -0.714558 0
M  V30 240 C 22.2624 1.79636 0.758681 0
M  V30 241 O 21.5324 1.20292 1.54618 0
M  V30 242 H 20.1124 0.699802 -0.261317 0
M  V30 243 H 22.7744 1.45574 -1.29592 0
M  V30 244 H 21.8704 2.95524 -1.0036 0
M  V30 245 N 22.1715 0.800033 1.35784 0
M  V30 246 C 23.4195 0.376597 1.9856 0
M  V30 247 C 23.7405 -1.05812 1.63795 0
M  V30 248 O 23.0105 -1.73103 0.917171 0
M  V30 249 H 21.5905 0.136261 0.734467 0
M  V30 250 H 24.2525 1.02442 1.65806 0
M  V30 251 H 23.3485 0.477002 3.08433 0
M  V30 252 N 23.6496 -1.47581 0.552962 0
M  V30 253 C 24.6126 -2.28439 -0.186605 0
M  V30 254 C 25.6126 -1.36706 -0.84665 0
M  V30 255 O 26.8026 -1.59378 -0.703164 0
M  V30 256 C 23.9346 -3.16264 -1.2724 0
M  V30 257 H 25.1276 -2.95294 0.523609 0
M  V30 258 H 22.6806 -1.532 0.309745 0
M  V30 259 H 23.4156 -2.54091 -2.01514 0
M  V30 260 H 23.2006 -3.83769 -0.803968 0
M  V30 261 H 24.6906 -3.77198 -1.79196 0
M  V30 262 N 25.1277 -0.289203 -1.54924 0
M  V30 263 C 26.0907 0.579144 -2.21762 0
M  V30 264 C 27.0907 1.07047 -1.1999 0
M  V30 265 O 28.2807 0.968384 -1.44803 0
M  V30 266 C 25.4127 1.80055 -2.8947 0
M  V30 267 H 26.6057 -0.00464908 -2.999 0
M  V30 268 H 24.1587 -0.0399306 -1.56249 0
M  V30 269 H 24.8937 2.42449 -2.15381 0
M  V30 270 H 24.6787 1.45602 -3.64064 0
M  V30 271 H 26.1687 2.41773 -3.40493 0
M  V30 272 N 26.6058 1.57591 -0.0167156 0
M  V30 273 C 27.8338 1.95575 0.675128 0
M  V30 274 C 28.2488 0.892542 1.6637 0
M  V30 275 O 27.6058 -0.126912 1.82058 0
M  V30 276 C 27.6568 3.33608 1.39239 0
M  V30 277 O 27.3778 4.3585 0.443444 0
M  V30 278 C 28.8788 3.86151 2.17721 0
M  V30 279 H 26.0988 0.644423 0.186978 0
M  V30 280 H 28.6428 2.0437 -0.0728 0
M  V30 281 H 26.7978 3.2607 2.09182 0
M  V30 282 H 27.2118 5.158 0.951358 0
M  V30 283 H 28.6858 4.85114 2.63379 0
M  V30 284 H 29.1628 3.19738 3.01105 0
M  V30 285 H 29.7688 3.96918 1.52761 0
M  V30 286 N 28.0839 -0.256276 1.55502 0
M  V30 287 C 29.0319 -1.33694 1.90338 0
M  V30 288 C 30.0259 -1.50299 0.781441 0
M  V30 289 O 31.2319 -1.51885 0.965966 0
M  V30 290 H 27.6069 -0.447483 0.60437 0
M  V30 291 H 29.5779 -1.01574 2.8058 0
M  V30 292 C 28.3269 -2.68724 2.20642 0
M  V30 293 H 27.6499 -2.56743 3.06469 0
M  V30 294 H 29.0899 -3.43237 2.48926 0
M  V30 295 C 27.5489 -3.21101 1.01959 0
M  V30 296 O 28.0789 -4.0084 0.262762 0
M  V30 297 N 26.2849 -2.79003 0.812746 0
M  V30 298 H 25.8319 -2.14271 1.42989 0
M  V30 299 H 25.7899 -3.14393 0.0203076 0
M  V30 300 N 29.562 -1.4872 -0.521534 0
M  V30 301 C 30.808 -1.574 -1.27879 0
M  V30 302 C 31.141 -0.250817 -1.92573 0
M  V30 303 O 30.416 0.743934 -1.79711 0
M  V30 304 C 30.699 -2.71843 -2.36164 0
M  V30 305 C 30.552 -4.13893 -1.76105 0
M  V30 306 C 31.871 -2.82008 -3.37875 0
M  V30 307 H 28.99 -0.572941 -0.463581 0
M  V30 308 H 31.632 -1.80927 -0.580119 0
M  V30 309 H 29.782 -2.51914 -2.95756 0
M  V30 310 H 31.454 -4.45284 -1.20499 0
M  V30 311 H 29.697 -4.20498 -1.06601 0
M  V30 312 H 30.368 -4.89804 -2.5455 0
M  V30 313 H 32.844 -3.00086 -2.88249 0
M  V30 314 H 31.72 -3.63796 -4.11028 0
M  V30 315 H 31.981 -1.90511 -3.98946 0
M  V30 316 N 31.0401 0.771051 -1.3745 0
M  V30 317 C 31.9731 1.89166 -1.27638 0
M  V30 318 C 32.9511 1.61842 -0.156782 0
M  V30 319 O 34.1351 1.85569 -0.331111 0
M  V30 320 C 31.2621 3.24405 -0.973621 0
M  V30 321 C 30.3081 3.70638 -2.1102 0
M  V30 322 S 31.1411 3.84228 -3.73 0
M  V30 323 C 32.2971 5.22313 -3.44876 0
M  V30 324 H 32.5301 1.972 -2.22485 0
M  V30 325 H 30.0631 0.932224 -1.23081 0
M  V30 326 H 32.0211 4.02514 -0.805766 0
M  V30 327 H 30.6821 3.14071 -0.0426279 0
M  V30 328 H 29.8751 4.68685 -1.85338 0
M  V30 329 H 29.4771 2.99632 -2.23822 0
M  V30 330 H 31.7691 6.07505 -2.99908 0
M  V30 331 H 32.7121 5.53008 -4.42253 0
M  V30 332 H 33.1201 4.90284 -2.79789 0
M  V30 333 N 32.5182 1.22032 0.997298 0
M  V30 334 C 33.4812 0.987909 2.06816 0
M  V30 335 C 34.4812 -0.0440084 1.6074 0
M  V30 336 O 35.6712 0.194053 1.73116 0
M  V30 337 C 32.8032 0.49132 3.37341 0
M  V30 338 H 33.9962 1.93803 2.28868 0
M  V30 339 H 31.5492 1.03838 1.16822 0
M  V30 340 H 32.2842 -0.463364 3.20973 0
M  V30 341 H 32.0692 1.23575 3.72118 0
M  V30 342 H 33.5592 0.348824 4.16141 0
M  V30 343 N 33.9963 -1.19345 1.0293 0
M  V30 344 C 34.9263 -2.2481 0.631105 0
M  V30 345 C 35.9073 -1.66245 -0.360104 0
M  V30 346 O 37.0923 -1.92677 -0.242726 0
M  V30 347 C 34.2223 -3.47295 -0.0184607 0
M  V30 348 C 33.1763 -4.18536 0.895073 0
M  V30 349 C 32.5023 -5.34586 0.110592 0
M  V30 350 C 33.8023 -4.73287 2.209 0
M  V30 351 H 35.4963 -2.58372 1.51275 0
M  V30 352 H 33.0423 -1.24194 0.728818 0
M  V30 353 H 34.9953 -4.20268 -0.308675 0
M  V30 354 H 33.7193 -3.12933 -0.934907 0
M  V30 355 H 32.3783 -3.47446 1.16949 0
M  V30 356 H 32.0263 -4.96469 -0.807902 0
M  V30 357 H 31.7263 -5.83183 0.719087 0
M  V30 358 H 33.2503 -6.10355 -0.172871 0
M  V30 359 H 34.6643 -5.38013 1.98028 0
M  V30 360 H 33.0613 -5.32373 2.76946 0
M  V30 361 H 34.1313 -3.91331 2.86336 0
M  V30 362 N 35.4744 -0.807222 -1.35358 0
M  V30 363 C 36.3844 -0.219594 -2.3357 0
M  V30 364 C 37.4004 0.637734 -1.61892 0
M  V30 365 O 38.5764 0.549336 -1.93763 0
M  V30 366 C 35.6414 0.62158 -3.41083 0
M  V30 367 C 34.7024 -0.256315 -4.28534 0
M  V30 368 C 33.9354 0.544807 -5.30912 0
M  V30 369 O 34.1584 1.77944 -5.41934 0
M  V30 370 O 33.0924 -0.0646478 -6.01865 0
M  V30 371 H 36.9184 -1.03208 -2.85625 0
M  V30 372 H 34.5034 -0.569025 -1.38139 0
M  V30 373 H 36.3854 1.10067 -4.06772 0
M  V30 374 H 35.0604 1.41165 -2.91297 0
M  V30 375 H 33.9674 -0.782559 -3.65823 0
M  V30 376 H 35.3004 -1.01034 -4.81719 0
M  V30 377 N 36.9525 1.47285 -0.560781 0
M  V30 378 C 38.1985 2.02764 -0.0381184 0
M  V30 379 C 38.5315 1.43384 1.30976 0
M  V30 380 O 37.8065 0.590733 1.85312 0
M  V30 381 C 38.0895 3.60064 0.0511427 0
M  V30 382 C 37.9425 4.2987 -1.32408 0
M  V30 383 C 39.2615 4.33439 0.762795 0
M  V30 384 H 36.3805 0.736841 -0.0153264 0
M  V30 385 H 39.0225 1.75675 -0.723759 0
M  V30 386 H 37.1725 3.83274 0.635065 0
M  V30 387 H 38.8445 4.17989 -1.95148 0
M  V30 388 H 37.0875 3.90085 -1.8978 0
M  V30 389 H 37.7585 5.38478 -1.21431 0
M  V30 390 H 40.2345 4.15243 0.266965 0
M  V30 391 H 39.1105 5.43124 0.794221 0
M  V30 392 H 39.3715 4.02915 1.81966 0
M  V30 393 N 38.4306 0.297415 1.54768 0
M  V30 394 C 39.6786 -0.312295 1.99673 0
M  V30 395 C 39.9996 -1.54686 1.18732 0
M  V30 396 O 39.2696 -1.93854 0.282382 0
M  V30 397 H 37.8496 -0.118381 0.73756 0
M  V30 398 H 40.5116 0.407915 1.90583 0
M  V30 399 H 39.6076 -0.586813 3.06534 0
M  V30 400 N 39.9087 -1.5758 0.0250728 0
M  V30 401 C 41.3247 -1.56124 -0.331282 0
M  V30 402 C 41.5247 -1.03029 -1.73169 0
M  V30 403 O 40.5807 -0.675215 -2.43305 0
M  V30 404 C 41.8937 -3.00139 -0.183584 0
M  V30 405 C 43.4417 -3.11946 -0.256654 0
M  V30 406 C 43.9167 -4.57793 -0.137792 0
M  V30 407 N 45.4077 -4.6279 -0.194904 0
M  V30 408 C 46.1427 -5.7326 -0.126655 0
M  V30 409 N 45.6387 -6.928 -0.00755288 0
M  V30 410 N 47.4317 -5.61811 -0.180348 0
M  V30 411 H 39.5827 -1.90424 0.94087 0
M  V30 412 H 41.8457 -0.875761 0.362968 0
M  V30 413 H 41.5517 -3.4292 0.780927 0
M  V30 414 H 41.4257 -3.64899 -0.955448 0
M  V30 415 H 43.8127 -2.69079 -1.21162 0
M  V30 416 H 43.8937 -2.49915 0.545517 0
M  V30 417 H 43.5377 -5.01339 0.813739 0
M  V30 418 H 43.4677 -5.17798 -0.958775 0
M  V30 419 H 45.9587 -3.76807 -0.287267 0
M  V30 420 H 46.2717 -7.72791 0.0379428 0
M  V30 421 H 44.6167 -6.94995 0.0271731 0
M  V30 422 H 47.8077 -4.6731 -0.271767 0
M  V30 423 H 47.9807 -6.47882 -0.123697 0
M  V30 424 N 41.3868 0.248026 -1.55636 0
M  V30 425 C 42.3348 1.32683 -1.91045 0
M  V30 426 C 43.3288 1.49883 -0.789401 0
M  V30 427 O 44.5348 1.51371 -0.974007 0
M  V30 428 H 40.9098 0.444272 -0.606734 0
M  V30 429 H 42.8808 1.00085 -2.81115 0
M  V30 430 C 41.6298 2.6755 -2.22064 0
M  V30 431 H 40.9528 2.55114 -3.07826 0
M  V30 432 H 42.3928 3.41912 -2.50743 0
M  V30 433 C 40.8518 3.20556 -1.0366 0
M  V30 434 O 41.3818 4.00695 -0.284016 0
M  V30 435 N 39.5878 2.78568 -0.82753 0
M  V30 436 H 39.1348 2.1351 -1.44123 0
M  V30 437 H 39.0928 3.14378 -0.0369803 0
M  V30 438 N 42.8649 1.48995 0.513639 0
M  V30 439 C 44.0899 1.61792 1.29762 0
M  V30 440 C 44.5149 0.284475 1.85936 0
M  V30 441 O 43.8729 -0.746185 1.65232 0
M  V30 442 C 43.9209 2.67993 2.41272 0
M  V30 443 O 43.0249 2.26287 3.44772 0
M  V30 444 H 42.3659 0.541963 0.38363 0
M  V30 445 H 44.8959 1.95097 0.616307 0
M  V30 446 H 44.9059 2.89772 2.87221 0
M  V30 447 H 43.5809 3.64791 1.9975 0
M  V30 448 H 42.1579 2.14788 3.04829 0
M  V30 449 N 44.343 -0.763751 1.37857 0
M  V30 450 C 45.754 -1.3405 1.29952 0
M  V30 451 C 46.105 -1.96138 -0.0492898 0
M  V30 452 O 45.23 -1.94372 -0.951239 0
M  V30 453 C 45.825 -2.43729 2.35333 0
M  V30 454 C 44.384 -2.97151 2.31037 0
M  V30 455 C 43.531 -1.70438 2.18738 0
M  V30 456 H 46.482 -0.563396 1.48363 0
M  V30 457 H 46.503 -3.23412 2.00462 0
M  V30 458 H 46.015 -1.9851 3.33489 0
M  V30 459 H 44.116 -3.46724 1.3643 0
M  V30 460 H 44.229 -3.52221 3.24772 0
M  V30 461 H 42.593 -1.93673 1.65418 0
M  V30 462 H 43.376 -1.27312 3.18821 0
M  V30 463 N 45.8211 -1.22559 -0.990812 0
M  V30 464 C 47.0511 -1.07623 -1.76355 0
M  V30 465 C 47.4591 0.37601 -1.85426 0
M  V30 466 O 46.8021 1.27228 -1.32509 0
M  V30 467 C 46.8641 -1.61507 -3.21179 0
M  V30 468 C 46.5281 -3.10146 -3.35646 0
M  V30 469 C 47.5251 -4.07553 -3.22796 0
M  V30 470 C 45.2101 -3.49644 -3.60631 0
M  V30 471 C 47.2041 -5.42442 -3.34716 0
M  V30 472 C 44.8911 -4.84682 -3.72192 0
M  V30 473 C 45.8891 -5.8089 -3.59243 0
M  V30 474 O 45.5771 -7.13476 -3.70415 0
M  V30 475 H 45.3091 -0.377745 -0.560611 0
M  V30 476 H 47.8631 -1.62658 -1.25425 0
M  V30 477 H 46.0931 -1.00881 -3.73309 0
M  V30 478 H 47.7821 -1.42202 -3.80175 0
M  V30 479 H 48.5481 -3.78381 -3.03403 0
M  V30 480 H 44.4271 -2.75282 -3.69785 0
M  V30 481 H 47.9711 -6.17518 -3.24526 0
M  V30 482 H 43.8681 -5.13534 -3.91092 0
M  V30 483 H 44.6361 -7.21083 -3.87275 0
M  V30 484 N 47.2992 1.18797 -1.03562 0
M  V30 485 C 48.5762 1.84469 -0.650434 0
M  V30 486 C 48.9562 1.92319 0.870433 0
M  V30 487 O 48.3042 1.44528 1.76986 0
M  V30 488 C 48.5142 3.2306 -1.32036 0
M  V30 489 C 49.8622 3.9915 -1.44792 0
M  V30 490 O 50.8862 3.32481 -1.27806 0
M  V30 491 O 49.7452 5.18587 -1.72423 0
M  V30 492 H 46.8392 0.795251 -0.226946 0
M  V30 493 H 49.3852 1.26231 -1.13419 0
M  V30 494 H 48.1572 3.1222 -2.3587 0
M  V30 495 H 47.7802 3.88949 -0.8249 0
M  V30 496 N 48.7773 0.814389 1.34928 0
M  V30 497 C 50.0073 0.41054 2.0248 0
M  V30 498 C 50.4153 -0.985625 1.61499 0
M  V30 499 O 49.7583 -1.64781 0.811976 0
M  V30 500 C 49.8203 0.423384 3.56998 0
M  V30 501 C 49.4843 1.77141 4.21272 0
M  V30 502 C 50.4813 2.73093 4.42398 0
M  V30 503 C 48.1663 2.05755 4.58225 0
M  V30 504 C 50.1603 3.95838 4.9959 0
M  V30 505 C 47.8473 3.28762 5.1513 0
M  V30 506 C 48.8453 4.23621 5.35755 0
M  V30 507 O 48.5333 5.44456 5.91458 0
M  V30 508 H 48.2653 0.163997 0.655806 0
M  V30 509 H 50.8193 1.10155 1.73364 0
M  V30 510 H 49.0493 -0.324276 3.85338 0
M  V30 511 H 50.7383 0.0407683 4.0588 0
M  V30 512 H 51.5043 2.5228 4.14222 0
M  V30 513 H 47.3833 1.32727 4.4148 0
M  V30 514 H 50.9273 4.69891 5.15605 0
M  V30 515 H 46.8243 3.49443 5.42734 0
M  V30 516 H 47.5923 5.4586 6.09901 0
M  V30 517 N 50.2554 -1.46986 0.568584 0
M  V30 518 C 51.6714 -1.57946 0.229189 0
M  V30 519 C 51.8714 -1.56567 -1.26843 0
M  V30 520 O 50.9274 -1.47511 -2.04931 0
M  V30 521 C 52.2404 -2.87963 0.865909 0
M  V30 522 C 53.7884 -3.01568 0.838188 0
M  V30 523 C 54.2634 -4.34301 1.45419 0
M  V30 524 N 55.7544 -4.40965 1.41788 0
M  V30 525 C 56.4894 -5.42256 1.86403 0
M  V30 526 N 55.9854 -6.50297 2.38926 0
M  V30 527 N 57.7784 -5.3337 1.77405 0
M  V30 528 H 49.9294 -1.46126 1.54146 0
M  V30 529 H 52.1924 -0.696156 0.643484 0
M  V30 530 H 51.8984 -2.94742 1.91886 0
M  V30 531 H 51.7724 -3.75423 0.365687 0
M  V30 532 H 54.1594 -2.94379 -0.206106 0
M  V30 533 H 54.2404 -2.1562 1.37629 0
M  V30 534 H 53.8844 -4.42247 2.49761 0
M  V30 535 H 53.8144 -5.19 0.891435 0
M  V30 536 H 56.3054 -3.63484 1.03381 0
M  V30 537 H 56.6184 -7.23777 2.70863 0
M  V30 538 H 54.9634 -6.51155 2.42944 0
M  V30 539 H 58.1544 -4.47865 1.3614 0
M  V30 540 H 58.3274 -6.12169 2.12492 0
M  V30 541 N 51.7335 -0.305618 -1.54608 0
M  V30 542 C 52.9825 0.303098 -1.9941 0
M  V30 543 C 53.2955 1.54648 -1.19764 0
M  V30 544 O 54.5015 2.23007 -1.54855 0
M  V30 545 C 52.9575 0.590588 -3.55021 0
M  V30 546 C 52.5655 -0.634719 -4.43481 0
M  V30 547 C 54.3095 1.16025 -4.08336 0
M  V30 548 C 52.2165 -0.320126 -5.90533 0
M  V30 549 H 51.1465 0.117031 -0.744862 0
M  V30 550 H 53.7975 -0.415045 -1.78745 0
M  V30 551 H 52.1795 1.36845 -3.71604 0
M  V30 552 H 53.3535 -1.41079 -4.38672 0
M  V30 553 H 51.6685 -1.12333 -4.00962 0
M  V30 554 H 54.2655 1.40994 -5.15776 0
M  V30 555 H 54.6085 2.10397 -3.5922 0
M  V30 556 H 55.1415 0.443985 -3.95315 0
M  V30 557 H 51.8805 -1.23254 -6.43808 0
M  V30 558 H 51.4005 0.418579 -5.98338 0
M  V30 559 H 53.0795 0.0766241 -6.46955 0
M  V30 560 N 53.2116 1.57565 -0.0334293 0
M  V30 561 C 54.1586 2.10478 0.946981 0
M  V30 562 C 55.1286 1.00787 1.32027 0
M  V30 563 O 56.3136 1.28232 1.41284 0
M  V30 564 C 53.4536 2.63994 2.22263 0
M  V30 565 C 52.5666 3.87709 1.90541 0
M  V30 566 C 51.7016 4.29604 3.12433 0
M  V30 567 C 50.7406 5.46065 2.76549 0
M  V30 568 N 49.8776 5.83096 3.9108 0
M  V30 569 H 54.7176 2.93963 0.488846 0
M  V30 570 H 52.2546 1.45296 0.22969 0
M  V30 571 H 54.2126 2.93114 2.96884 0
M  V30 572 H 52.8426 1.83333 2.65685 0
M  V30 573 H 51.8946 3.65291 1.06144 0
M  V30 574 H 53.2066 4.72403 1.60116 0
M  V30 575 H 52.3606 4.60182 3.9537 0
M  V30 576 H 51.0996 3.43685 3.46023 0
M  V30 577 H 50.1046 5.15176 1.92026 0
M  V30 578 H 51.3296 6.33685 2.44171 0
M  V30 579 H 49.2756 5.00132 4.24504 0
M  V30 580 H 49.1926 6.6244 3.64293 0
M  V30 581 H 50.4606 6.18282 4.74708 0
M  V30 582 N 54.6897 -0.239769 1.55765 0
M  V30 583 C 55.9147 -0.988373 1.82335 0
M  V30 584 C 56.3397 -1.77886 0.611421 0
M  V30 585 O 55.6977 -1.75889 -0.439639 0
M  V30 586 C 55.7457 -1.89627 3.06715 0
M  V30 587 O 54.8497 -2.98904 2.84131 0
M  V30 588 H 54.1907 -0.280858 0.601677 0
M  V30 589 H 56.7207 -0.258597 2.02959 0
M  V30 590 H 56.7307 -2.30957 3.36338 0
M  V30 591 H 55.4057 -1.31511 3.9456 0
M  V30 592 H 53.9827 -2.61651 2.65694 0
M  V30 593 N 56.1678 -1.49265 -0.50573 0
M  V30 594 C 57.4138 -1.58748 -1.26202 0
M  V30 595 C 57.7468 -0.271227 -1.92297 0
M  V30 596 O 57.0218 0.724831 -1.80489 0
M  V30 597 C 57.3048 -2.74332 -2.33268 0
M  V30 598 C 57.1578 -4.15737 -1.71705 0
M  V30 599 C 58.4768 -2.85576 -3.34865 0
M  V30 600 H 55.5958 -0.577826 -0.457478 0
M  V30 601 H 58.2378 -1.81532 -0.560897 0
M  V30 602 H 56.3878 -2.55036 -2.93068 0
M  V30 603 H 58.0598 -4.46537 -1.15769 0
M  V30 604 H 56.3028 -4.21605 -1.02135 0
M  V30 605 H 56.9738 -4.92477 -2.49341 0
M  V30 606 H 59.4498 -3.03127 -2.8505 0
M  V30 607 H 58.3258 -3.68135 -4.07146 0
M  V30 608 H 58.5868 -1.94732 -3.96903 0
M  V30 609 N 57.6459 0.756429 -1.3826 0
M  V30 610 C 58.8919 1.51772 -1.34511 0
M  V30 611 C 59.2249 1.94089 0.0656691 0
M  V30 612 O 58.4999 1.65221 1.02626 0
M  V30 613 C 58.7829 2.77226 -2.29821 0
M  V30 614 C 58.6359 2.41065 -3.79747 0
M  V30 615 C 59.9549 3.79236 -2.23312 0
M  V30 616 H 57.0739 0.550578 -0.489931 0
M  V30 617 H 59.7159 0.866607 -1.69086 0
M  V30 618 H 57.8659 3.32784 -2.00467 0
M  V30 619 H 59.5379 1.91303 -4.19763 0
M  V30 620 H 57.7809 1.7356 -3.97567 0
M  V30 621 H 58.4519 3.3081 -4.41892 0
M  V30 622 H 60.9279 3.3321 -2.49219 0
M  V30 623 H 59.8039 4.64714 -2.92116 0
M  V30 624 H 60.0649 4.24615 -1.23102 0
M  V30 625 N 59.124 1.23083 0.984299 0
M  V30 626 C 60.354 1.08556 1.75781 0
M  V30 627 C 60.762 -0.366171 1.85623 0
M  V30 628 O 60.105 -1.26524 1.33182 0
M  V30 629 C 60.167 1.63208 3.20318 0
M  V30 630 C 59.831 3.11922 3.33997 0
M  V30 631 C 60.828 4.09259 3.2063 0
M  V30 632 C 58.513 3.51552 3.58771 0
M  V30 633 C 60.507 5.4421 3.31835 0
M  V30 634 C 58.194 4.86649 3.69616 0
M  V30 635 C 59.192 5.82787 3.56157 0
M  V30 636 O 58.88 7.15431 3.66626 0
M  V30 637 H 58.612 0.380713 0.5586 0
M  V30 638 H 61.166 1.63321 1.2456 0
M  V30 639 H 59.396 1.0286 3.72769 0
M  V30 640 H 61.085 1.44216 3.79416 0
M  V30 641 H 61.851 3.79984 3.01392 0
M  V30 642 H 57.73 2.77239 3.6832 0
M  V30 643 H 61.274 6.1923 3.21247 0
M  V30 644 H 57.171 5.15601 3.88363 0
M  V30 645 H 57.939 7.23127 3.83445 0
M  V30 646 N 60.6021 -1.18246 1.0419 0
M  V30 647 C 61.5501 -2.23968 0.627792 0
M  V30 648 C 62.5441 -1.65828 -0.346019 0
M  V30 649 O 63.7501 -1.78733 -0.213175 0
M  V30 650 H 60.1251 -0.728939 0.184802 0
M  V30 651 H 62.0961 -2.56202 1.52981 0
M  V30 652 C 60.8451 -3.47699 0.00796591 0
M  V30 653 H 60.1681 -3.92734 0.748347 0
M  V30 654 H 61.6081 -4.23294 -0.24455 0
M  V30 655 C 60.0671 -3.13153 -1.24246 0
M  V30 656 O 60.5971 -3.27003 -2.33307 0
M  V30 657 N 58.8031 -2.67467 -1.13622 0
M  V30 658 H 58.3501 -2.56396 -0.248734 0
M  V30 659 H 58.3081 -2.44724 -1.97377 0
M  V30 660 N 62.0802 -0.821533 -1.34494 0
M  V30 661 C 63.4912 -0.467956 -1.8074 0
M  V30 662 C 63.8422 1.01151 -1.68116 0
M  V30 663 O 62.9672 1.78707 -1.22036 0
M  V30 664 C 63.5622 -0.842627 -3.28154 0
M  V30 665 C 62.1212 -0.541439 -3.72485 0
M  V30 666 C 61.2682 -1.06028 -2.56229 0
M  V30 667 H 64.2192 -1.01183 -1.22261 0
M  V30 668 H 64.2402 -0.145876 -3.8022 0
M  V30 669 H 63.7522 -1.91945 -3.37311 0
M  V30 670 H 61.8532 0.526034 -3.68868 0
M  V30 671 H 61.9662 -1.08453 -4.66663 0
M  V30 672 H 60.3302 -0.481892 -2.501 0
M  V30 673 H 61.1132 -2.14352 -2.68157 0
M  V30 674 N 63.5583 1.46682 -0.576371 0
M  V30 675 C 64.8043 2.02712 -0.0596221 0
M  V30 676 C 65.1373 1.44765 1.29448 0
M  V30 677 O 64.4123 0.610355 1.84675 0
M  V30 678 C 64.6953 3.60098 0.0129503 0
M  V30 679 C 64.5483 4.28441 -1.3696 0
M  V30 680 C 65.8673 4.34224 0.71678 0
M  V30 681 H 62.9863 0.736637 -0.0231407 0
M  V30 682 H 65.6283 1.74898 -0.742351 0
M  V30 683 H 63.7783 3.83926 0.594378 0
M  V30 684 H 65.4503 4.15896 -1.9957 0
M  V30 685 H 63.6933 3.8805 -1.93907 0
M  V30 686 H 64.3643 5.3716 -1.27135 0
M  V30 687 H 66.8403 4.15503 0.222908 0
M  V30 688 H 65.7163 5.43936 0.73657 0
M  V30 689 H 65.9773 4.04823 1.77682 0
M  V30 690 N 65.0364 0.313813 1.54444 0
M  V30 691 C 65.9844 -0.572171 2.25453 0
M  V30 692 C 66.9784 -1.12657 1.2651 0
M  V30 693 O 68.1844 -1.07573 1.44319 0
M  V30 694 H 64.5594 -0.203146 0.724041 0
M  V30 695 H 66.5304 0.0491145 2.9836 0
M  V30 696 C 65.2794 -1.72626 3.0182 0
M  V30 697 H 64.6024 -1.30891 3.77767 0
M  V30 698 H 66.0424 -2.32199 3.54767 0
M  V30 699 C 64.5014 -2.63806 2.09542 0
M  V30 700 O 65.0314 -3.65256 1.67185 0
M  V30 701 N 63.2374 -2.31824 1.75232 0
M  V30 702 H 62.7844 -1.49368 2.09873 0
M  V30 703 H 62.7424 -2.93095 1.13767 0
M  V30 704 N 66.5145 -1.57545 0.0417849 0
M  V30 705 C 67.7605 -1.92601 -0.635021 0
M  V30 706 C 68.0935 -0.919627 -1.71045 0
M  V30 707 O 67.3685 0.0557892 -1.9442 0
M  V30 708 C 67.6515 -3.38085 -1.23979 0
M  V30 709 C 67.5045 -4.49467 -0.173057 0
M  V30 710 C 68.8235 -3.83776 -2.15416 0
M  V30 711 H 65.9425 -0.700397 -0.229374 0
M  V30 712 H 68.5845 -1.89728 0.101633 0
M  V30 713 H 66.7345 -3.40664 -1.86762 0
M  V30 714 H 68.4065 -4.59018 0.458312 0
M  V30 715 H 66.6495 -4.30909 0.499996 0
M  V30 716 H 67.3205 -5.48323 -0.636054 0
M  V30 717 H 69.7965 -3.83013 -1.62605 0
M  V30 718 H 68.6725 -4.8624 -2.54679 0
M  V30 719 H 68.9335 -3.19998 -3.05047 0
M  V30 720 N 67.9926 0.231505 -1.5589 0
M  V30 721 C 69.2386 0.95877 -1.78705 0
M  V30 722 C 69.5716 1.8438 -0.609725 0
M  V30 723 O 68.8466 1.90521 0.391426 0
M  V30 724 C 69.1296 1.8062 -3.11526 0
M  V30 725 C 68.9826 0.948328 -4.39689 0
M  V30 726 C 70.3016 2.78585 -3.40703 0
M  V30 727 H 67.4206 0.347129 -0.650131 0
M  V30 728 H 70.0626 0.228259 -1.88624 0
M  V30 729 H 68.2126 2.42902 -3.03201 0
M  V30 730 H 69.8846 0.343016 -4.60023 0
M  V30 731 H 68.1276 0.253314 -4.3306 0
M  V30 732 H 68.7986 1.57543 -5.29041 0
M  V30 733 H 71.2746 2.26439 -3.49091 0
M  V30 734 H 70.1506 3.34988 -4.34826 0
M  V30 735 H 70.4116 3.55825 -2.62375 0
M  V30 736 N 69.4707 1.49531 0.497807 0
M  V30 737 C 70.4177 1.66436 1.59899 0
M  V30 738 C 71.3877 0.505793 1.58212 0
M  V30 739 O 72.5727 0.733202 1.7615 0
M  V30 740 C 69.7127 1.7399 2.98029 0
M  V30 741 C 68.8257 3.01172 3.09708 0
M  V30 742 C 67.9607 2.99686 4.38591 0
M  V30 743 C 66.9997 4.21434 4.43914 0
M  V30 744 N 66.1367 4.1784 5.64229 0
M  V30 745 H 70.9767 2.60459 1.44793 0
M  V30 746 H 68.5137 1.29137 0.704423 0
M  V30 747 H 70.4717 1.76352 3.78095 0
M  V30 748 H 69.1017 0.834301 3.11832 0
M  V30 749 H 68.1537 3.08408 2.22685 0
M  V30 750 H 69.4657 3.91165 3.09502 0
M  V30 751 H 68.6197 3.00628 5.2698 0
M  V30 752 H 67.3587 2.07477 4.41367 0
M  V30 753 H 66.3637 4.20733 3.53926 0
M  V30 754 H 67.5887 5.14839 4.42851 0
M  V30 755 H 65.5347 3.28469 5.67841 0
M  V30 756 H 65.4517 5.01571 5.65652 0
M  V30 757 H 66.7197 4.22889 6.54817 0
M  V30 758 N 70.9488 -0.749086 1.3866 0
M  V30 759 C 72.1978 -1.50371 1.3443 0
M  V30 760 C 72.5108 -1.95503 -0.0616397 0
M  V30 761 O 73.7168 -2.70554 -0.226489 0
M  V30 762 C 72.1728 -2.71644 2.36088 0
M  V30 763 C 71.7808 -2.3352 3.82325 0
M  V30 764 C 73.5248 -3.49518 2.40909 0
M  V30 765 C 71.4318 -3.51431 4.75658 0
M  V30 766 H 70.3618 -0.564628 0.499712 0
M  V30 767 H 73.0128 -0.818449 1.64237 0
M  V30 768 H 71.3948 -3.42175 1.9933 0
M  V30 769 H 72.5688 -1.70627 4.28046 0
M  V30 770 H 70.8838 -1.6877 3.80665 0
M  V30 771 H 73.4808 -4.37197 3.07836 0
M  V30 772 H 73.8238 -3.90992 1.42937 0
M  V30 773 H 74.3568 -2.86005 2.76489 0
M  V30 774 H 71.0958 -3.15019 5.74842 0
M  V30 775 H 70.6158 -4.13352 4.34627 0
M  V30 776 H 72.2948 -4.17953 4.93887 0
M  V30 777 N 72.4269 -1.23603 -0.977757 0
M  V30 778 C 73.7039 -0.977897 -1.69401 0
M  V30 779 C 74.0839 0.502738 -2.05026 0
M  V30 780 O 73.4319 1.47459 -1.74551 0
M  V30 781 C 73.6419 -1.89077 -2.93345 0
M  V30 782 C 74.9899 -2.15579 -3.65802 0
M  V30 783 O 76.0139 -1.86648 -3.03383 0
M  V30 784 O 74.8729 -2.64658 -4.78141 0
M  V30 785 H 71.9669 -0.369025 -0.740101 0
M  V30 786 H 74.5129 -1.34657 -1.03274 0
M  V30 787 H 73.2849 -2.89158 -2.63634 0
M  V30 788 H 72.9079 -1.52463 -3.67207 0
M  V30 789 N 73.905 1.17692 -1.04816 0
M  V30 790 C 74.868 2.19787 -0.650117 0
M  V30 791 C 75.868 1.58044 0.296427 0
M  V30 792 O 77.058 1.74012 0.0808097 0
M  V30 793 C 74.19 3.40869 0.0456987 0
M  V30 794 H 75.383 2.56516 -1.5537 0
M  V30 795 H 72.936 1.31708 -0.841594 0
M  V30 796 H 73.671 3.09681 0.962726 0
M  V30 797 H 73.456 3.86928 -0.634727 0
M  V30 798 H 74.946 4.16445 0.310432 0
M  V30 799 N 75.3831 0.828654 1.34056 0
M  V30 800 C 76.6291 0.42008 1.98402 0
M  V30 801 C 76.9621 -1.01564 1.65525 0
M  V30 802 O 76.2371 -1.70834 0.929831 0
M  V30 803 C 76.5201 0.62927 3.54559 0
M  V30 804 C 76.3731 2.11152 3.97159 0
M  V30 805 C 77.6921 0.0688756 4.40046 0
M  V30 806 H 74.8111 0.154104 0.720709 0
M  V30 807 H 77.4531 1.04228 1.5886 0
M  V30 808 H 75.6031 0.0996418 3.88372 0
M  V30 809 H 77.2751 2.70522 3.73651 0
M  V30 810 H 75.5181 2.59985 3.47261 0
M  V30 811 H 76.1891 2.20868 5.05887 0
M  V30 812 H 78.6651 0.521458 4.1282 0
M  V30 813 H 77.5411 0.245006 5.48353 0
M  V30 814 H 77.8021 -1.0266 4.30015 0
M  V30 815 N 76.8612 -1.46375 0.584142 0
M  V30 816 C 77.8242 -2.28784 -0.138108 0
M  V30 817 C 78.8242 -1.38471 -0.817462 0
M  V30 818 O 80.0142 -1.60833 -0.669199 0
M  V30 819 C 77.1462 -3.18892 -1.20503 0
M  V30 820 H 78.3392 -2.94117 0.586127 0
M  V30 821 H 75.8922 -1.52509 0.342171 0
M  V30 822 H 76.6272 -2.58309 -1.96079 0
M  V30 823 H 76.4122 -3.85388 -0.722384 0
M  V30 824 H 77.9022 -3.80914 -1.71155 0
M  V30 825 N 78.3393 -0.321999 -1.54275 0
M  V30 826 C 79.5873 0.280489 -2.00144 0
M  V30 827 C 79.9083 1.52777 -1.21178 0
M  V30 828 O 79.1783 1.9338 -0.313187 0
M  V30 829 H 77.7583 0.106632 -0.73935 0
M  V30 830 H 80.4203 -0.438184 -1.8991 0
M  V30 831 H 79.5163 0.537972 -3.07428 0
M  V30 832 N 79.8174 1.5752 -0.0501392 0
M  V30 833 C 81.0634 1.92936 0.624798 0
M  V30 834 C 81.3964 0.928685 1.70555 0
M  V30 835 O 80.6714 -0.0454779 1.94447 0
M  V30 836 C 80.9544 3.38737 1.22185 0
M  V30 837 C 80.8074 4.49552 0.149218 0
M  V30 838 C 82.1264 3.84913 2.13378 0
M  V30 839 H 79.2454 0.701604 0.225657 0
M  V30 840 H 81.8874 1.89671 -0.111693 0
M  V30 841 H 80.0374 3.4165 1.84953 0
M  V30 842 H 81.7094 4.58768 -0.482648 0
M  V30 843 H 79.9524 4.30638 -0.522841 0
M  V30 844 H 80.6234 5.48653 0.606966 0
M  V30 845 H 83.0994 3.8387 1.60572 0
M  V30 846 H 81.9754 4.87584 2.52097 0
M  V30 847 H 82.2364 3.21611 3.03346 0
M  V30 848 N 81.2955 -0.223234 1.56011 0
M  V30 849 C 82.2585 -1.26014 1.9145 0
M  V30 850 C 83.2585 -1.3989 0.792937 0
M  V30 851 O 84.4485 -1.38184 1.0607 0
M  V30 852 C 81.5805 -2.63422 2.16383 0
M  V30 853 H 82.7735 -0.95796 2.84189 0
M  V30 854 H 80.3265 -0.463576 1.49267 0
M  V30 855 H 81.0615 -2.98741 1.2619 0
M  V30 856 H 80.8465 -2.54728 2.98088 0
M  V30 857 H 82.3365 -3.38249 2.44903 0
M  V30 858 N 82.7736 -1.49793 -0.48987 0
M  V30 859 C 84.0016 -1.63568 -1.26701 0
M  V30 860 C 84.4166 -0.311465 -1.86213 0
M  V30 861 O 83.7736 0.704416 -1.68357 0
M  V30 862 C 83.8246 -2.71284 -2.38929 0
M  V30 863 O 83.5456 -3.9857 -1.81861 0
M  V30 864 C 85.0466 -2.95864 -3.3012 0
M  V30 865 H 82.2666 -0.550342 -0.383881 0
M  V30 866 H 84.8106 -1.95898 -0.586864 0
M  V30 867 H 82.9656 -2.417 -3.02753 0
M  V30 868 H 83.3796 -4.57993 -2.55622 0
M  V30 869 H 84.8536 -3.74941 -4.05121 0
M  V30 870 H 85.3306 -2.06206 -3.87783 0
M  V30 871 H 85.9366 -3.26907 -2.72051 0
M  V30 872 N 84.2517 0.741722 -1.39055 0
M  V30 873 C 85.2017 1.84661 -1.33732 0
M  V30 874 C 86.1857 1.59397 -0.219401 0
M  V30 875 O 87.3777 1.71015 -0.456375 0
M  V30 876 C 84.5067 3.22512 -1.17647 0
M  V30 877 C 83.5927 3.53628 -2.34112 0
M  V30 878 N 83.9837 3.55723 -3.59576 0
M  V30 879 C 82.2817 3.83956 -2.26923 0
M  V30 880 C 82.9827 3.84443 -4.36553 0
M  V30 881 N 81.9587 4.01877 -3.66055 0
M  V30 882 H 85.7607 1.84576 -2.28711 0
M  V30 883 H 83.2747 0.939647 -1.32455 0
M  V30 884 H 85.2717 4.01597 -1.11917 0
M  V30 885 H 83.9317 3.2384 -0.236124 0
M  V30 886 H 84.9427 3.37196 -3.93089 0
M  V30 887 H 81.6197 3.92929 -1.41113 0
M  V30 888 H 83.0097 3.92588 -5.45274 0
M  V30 889 N 85.7298 1.2412 0.971189 0
M  V30 890 C 86.9788 1.07284 1.70801 0
M  V30 891 C 87.2918 -0.388902 1.91695 0
M  V30 892 O 88.4978 -0.677379 2.62914 0
M  V30 893 C 86.9538 1.87145 3.07416 0
M  V30 894 C 86.5618 3.37707 2.94377 0
M  V30 895 C 88.3058 1.78828 3.84995 0
M  V30 896 C 86.2128 4.09925 4.26281 0
M  V30 897 H 85.1428 0.397854 0.64049 0
M  V30 898 H 87.7938 1.4817 1.0825 0
M  V30 899 H 86.1758 1.39071 3.70777 0
M  V30 900 H 87.3498 3.93335 2.4005 0
M  V30 901 H 85.6648 3.46938 2.30267 0
M  V30 902 H 88.2618 2.30089 4.82662 0
M  V30 903 H 88.6048 0.75284 4.09436 0
M  V30 904 H 89.1378 2.24563 3.28354 0
M  V30 905 H 85.8768 5.13813 4.07033 0
M  V30 906 H 85.3968 3.59083 4.80437 0
M  V30 907 H 87.0758 4.1673 4.94919 0
M  V30 908 N 87.2079 -1.17134 1.05439 0
M  V30 909 C 88.4539 -1.87733 0.767077 0
M  V30 910 C 88.7869 -1.8098 -0.704253 0
M  V30 911 O 88.0619 -1.21951 -1.5152 0
M  V30 912 C 88.3449 -3.37659 1.25133 0
M  V30 913 C 88.1979 -3.53149 2.78578 0
M  V30 914 C 89.5169 -4.31768 0.852324 0
M  V30 915 H 86.6359 -0.681687 0.280129 0
M  V30 916 H 89.2779 -1.37732 1.30881 0
M  V30 917 H 87.4279 -3.80373 0.790469 0
M  V30 918 H 89.0999 -3.19434 3.32806 0
M  V30 919 H 87.3429 -2.95345 3.17732 0
M  V30 920 H 88.0139 -4.58403 3.07523 0
M  V30 921 H 90.4899 -3.96909 1.24911 0
M  V30 922 H 89.3659 -5.35199 1.21873 0
M  V30 923 H 89.6269 -4.41429 -0.243485 0
M  V30 924 N 88.686 -0.835752 -1.33615 0
M  V30 925 C 89.932 -0.430596 -1.98176 0
M  V30 926 C 90.265 1.00684 -1.66061 0
M  V30 927 O 89.54 1.70339 -0.938877 0
M  V30 928 C 89.823 -0.648065 -3.5422 0
M  V30 929 C 89.676 -2.13255 -3.96033 0
M  V30 930 C 90.995 -0.0922113 -4.40003 0
M  V30 931 H 88.114 -0.157924 -0.719881 0
M  V30 932 H 90.756 -1.05069 -1.58305 0
M  V30 933 H 88.906 -0.120237 -3.88314 0
M  V30 934 H 90.578 -2.725 -3.72211 0
M  V30 935 H 88.821 -2.61823 -3.45878 0
M  V30 936 H 89.492 -2.23547 -5.04708 0
M  V30 937 H 91.968 -0.543343 -4.12537 0
M  V30 938 H 90.844 -0.274083 -5.48215 0
M  V30 939 H 91.105 1.00378 -4.30554 0
M  V30 940 N 90.1641 1.46063 -0.591896 0
M  V30 941 C 91.1271 2.28854 0.125973 0
M  V30 942 C 92.1271 1.38903 0.810107 0
M  V30 943 O 93.3171 1.61186 0.66066 0
M  V30 944 C 90.4491 3.19526 1.1881 0
M  V30 945 H 91.6421 2.93802 -0.601717 0
M  V30 946 H 89.1951 1.52325 -0.350254 0
M  V30 947 H 89.9301 2.59345 1.94707 0
M  V30 948 H 89.7151 3.85766 0.701936 0
M  V30 949 H 91.2051 3.81817 1.69132 0
M  V30 950 N 91.6422 0.330177 1.54103 0
M  V30 951 C 93.0532 -0.15652 1.86043 0
M  V30 952 C 93.4042 -1.51086 1.2517 0
M  V30 953 O 92.5292 -2.09023 0.560217 0
M  V30 954 C 93.1242 -0.290784 3.3755 0
M  V30 955 C 91.6832 -0.721705 3.69416 0
M  V30 956 C 90.8302 0.152622 2.7688 0
M  V30 957 H 93.7812 0.550237 1.48856 0
M  V30 958 H 93.8022 -1.12058 3.63625 0
M  V30 959 H 93.3142 0.695068 3.81825 0
M  V30 960 H 91.4152 -1.71706 3.30678 0
M  V30 961 H 91.5282 -0.520869 4.7626 0
M  V30 962 H 89.8922 -0.372894 2.51956 0
M  V30 963 H 90.6752 1.13536 3.23982 0
M  V30 964 N 93.1203 -1.57491 0.0584922 0
M  V30 965 C 94.3973 -1.84346 -0.653918 0
M  V30 966 C 94.7773 -0.948355 -1.88599 0
M  V30 967 O 94.1253 -0.0112403 -2.28497 0
M  V30 968 C 94.3353 -3.34239 -1.00425 0
M  V30 969 C 95.6833 -4.01431 -1.38342 0
M  V30 970 O 96.7073 -3.38907 -1.09637 0
M  V30 971 O 95.5663 -5.11683 -1.91943 0
M  V30 972 H 92.6603 -0.761112 -0.323478 0
M  V30 973 H 95.2063 -1.6947 0.0884125 0
M  V30 974 H 93.9783 -3.91089 -0.128625 0
M  V30 975 H 93.6013 -3.54329 -1.80378 0
M  V30 976 N 94.5984 0.214957 -1.56127 0
M  V30 977 C 95.5084 1.28727 -1.96129 0
M  V30 978 C 96.5244 1.50916 -0.866044 0
M  V30 979 O 97.7004 1.63918 -1.17016 0
M  V30 980 C 94.7654 2.61569 -2.27558 0
M  V30 981 C 93.8264 2.47625 -3.50685 0
M  V30 982 C 93.0594 3.74132 -3.80606 0
M  V30 983 O 93.2824 4.77438 -3.12104 0
M  V30 984 O 92.2164 3.70849 -4.74083 0
M  V30 985 H 96.0424 0.977855 -2.87527 0
M  V30 986 H 93.6274 0.418358 -1.43423 0
M  V30 987 H 95.5094 3.40012 -2.48938 0
M  V30 988 H 94.1844 2.92178 -1.39332 0
M  V30 989 H 93.0914 1.67361 -3.34576 0
M  V30 990 H 94.4244 2.21954 -4.39315 0
M  V30 991 N 96.0765 1.50051 0.48192 0
M  V30 992 C 97.3045 1.64237 1.25832 0
M  V30 993 C 97.7195 0.321336 1.86045 0
M  V30 994 O 97.0765 -0.695478 1.68729 0
M  V30 995 C 97.1275 2.72548 2.37487 0
M  V30 996 O 96.8485 3.99529 1.79745 0
M  V30 997 C 98.3495 2.9761 3.28547 0
M  V30 998 H 95.5695 0.55237 0.380957 0
M  V30 999 H 98.1135 1.96207 0.576467 0
M  V30 1000 H 96.2685 2.43303 3.01467 0
M  V30 1001 H 96.6825 4.59342 2.5319 0
M  V30 1002 H 98.1565 3.77084 4.03127 0
M  V30 1003 H 98.6335 2.0826 3.86684 0
M  V30 1004 H 99.2395 3.28345 2.70314 0
M  V30 1005 N 97.5546 -0.734337 1.39446 0
M  V30 1006 C 98.7846 -1.52137 1.39778 0
M  V30 1007 C 99.1926 -1.89198 -0.00929312 0
M  V30 1008 O 98.5356 -1.54666 -0.991168 0
M  V30 1009 C 98.5976 -2.83762 2.20724 0
M  V30 1010 C 98.2616 -2.69131 3.69347 0
M  V30 1011 C 99.2586 -2.37635 4.62413 0
M  V30 1012 C 96.9436 -2.85982 4.1294 0
M  V30 1013 C 98.9376 -2.23172 5.97054 0
M  V30 1014 C 96.6246 -2.71137 5.47657 0
M  V30 1015 C 97.6226 -2.39777 6.39528 0
M  V30 1016 O 97.3106 -2.25026 7.71763 0
M  V30 1017 H 97.0426 -0.476717 0.479288 0
M  V30 1018 H 99.5966 -0.915012 1.83893 0
M  V30 1019 H 97.8266 -3.4666 1.71359 0
M  V30 1020 H 99.5156 -3.45383 2.13226 0
M  V30 1021 H 100.282 -2.24267 4.30034 0
M  V30 1022 H 96.1606 -3.09383 3.41765 0
M  V30 1023 H 99.7046 -1.98617 6.68728 0
M  V30 1024 H 95.6016 -2.84083 5.79626 0
M  V30 1025 H 96.3696 -2.40091 7.82495 0
M  V30 1026 N 99.0327 -1.24633 -0.964593 0
M  V30 1027 C 100.282 -1.08188 -1.7023 0
M  V30 1028 C 100.595 0.37873 -1.91898 0
M  V30 1029 O 101.801 0.663427 -2.6327 0
M  V30 1030 C 100.257 -1.88773 -3.06419 0
M  V30 1031 C 99.8647 -3.39263 -2.92582 0
M  V30 1032 C 101.609 -1.80867 -3.84041 0
M  V30 1033 C 99.5157 -4.1218 -4.24101 0
M  V30 1034 H 98.4457 -0.401245 -0.638372 0
M  V30 1035 H 101.097 -1.48742 -1.07462 0
M  V30 1036 H 99.4787 -1.41035 -3.70034 0
M  V30 1037 H 100.653 -3.94603 -2.37961 0
M  V30 1038 H 98.9677 -3.48154 -2.28424 0
M  V30 1039 H 101.565 -2.32646 -4.81435 0
M  V30 1040 H 101.908 -0.774543 -4.09031 0
M  V30 1041 H 102.441 -2.26301 -3.27159 0
M  V30 1042 H 99.1797 -5.15965 -4.04303 0
M  V30 1043 H 98.6997 -3.61626 -4.78526 0
M  V30 1044 H 100.379 -4.19349 -4.92702 0
M  V30 1045 N 100.511 1.16574 -1.06058 0
M  V30 1046 C 101.739 1.90952 -0.796552 0
M  V30 1047 C 102.154 1.77302 0.648808 0
M  V30 1048 O 101.511 1.11605 1.44397 0
M  V30 1049 C 101.562 3.41736 -1.17894 0
M  V30 1050 O 101.283 3.54975 -2.56758 0
M  V30 1051 C 102.784 4.33169 -0.942308 0
M  V30 1052 H 100.004 0.605594 -0.288959 0
M  V30 1053 H 102.548 1.47777 -1.41358 0
M  V30 1054 H 100.703 3.82623 -0.606491 0
M  V30 1055 H 101.117 4.4846 -2.72 0
M  V30 1056 H 102.591 5.37439 -1.25952 0
M  V30 1057 H 103.068 4.3903 0.122078 0
M  V30 1058 H 103.674 3.98007 -1.49902 0
M  V30 1059 N 101.989 0.842826 1.3317 0
M  V30 1060 C 102.939 0.250877 2.26616 0
M  V30 1061 C 103.923 -0.596427 1.49437 0
M  V30 1062 O 105.115 -0.447747 1.71243 0
M  V30 1063 C 102.244 -0.569779 3.38539 0
M  V30 1064 C 101.33 0.289254 4.23112 0
M  V30 1065 N 101.721 1.36987 4.86897 0
M  V30 1066 C 100.019 0.0769631 4.45934 0
M  V30 1067 C 100.72 1.89737 5.49886 0
M  V30 1068 N 99.6959 1.19827 5.30229 0
M  V30 1069 H 103.498 1.07718 2.73448 0
M  V30 1070 H 101.012 0.687693 1.47121 0
M  V30 1071 H 103.009 -1.01018 4.04476 0
M  V30 1072 H 101.669 -1.39401 2.93253 0
M  V30 1073 H 102.68 1.75277 4.87338 0
M  V30 1074 H 99.3569 -0.713507 4.11358 0
M  V30 1075 H 100.747 2.80253 6.10662 0
M  V30 1076 N 103.467 -1.45747 0.599634 0
M  V30 1077 C 104.43 -2.28917 -0.113835 0
M  V30 1078 C 105.43 -1.3933 -0.802729 0
M  V30 1079 O 106.62 -1.61534 -0.652103 0
M  V30 1080 C 103.752 -3.20152 -1.17114 0
M  V30 1081 H 104.945 -2.93478 0.617289 0
M  V30 1082 H 102.498 -1.52137 0.358327 0
M  V30 1083 H 103.233 -2.60374 -1.93329 0
M  V30 1084 H 103.018 -3.86133 -0.681468 0
M  V30 1085 H 104.508 -3.82708 -1.67105 0
M  V30 1086 N 104.945 -0.338344 -1.53925 0
M  V30 1087 C 106.192 0.259758 -2.00827 0
M  V30 1088 C 106.52 1.50973 -1.22628 0
M  V30 1089 O 105.775 1.93379 -0.300509 0
M  V30 1090 C 106.074 0.62448 -3.51902 0
M  V30 1091 C 105.74 -0.528006 -4.47798 0
M  V30 1092 C 104.402 -0.844298 -4.73735 0
M  V30 1093 C 106.754 -1.30143 -5.0469 0
M  V30 1094 C 104.082 -1.93648 -5.53821 0
M  V30 1095 C 106.434 -2.38382 -5.85967 0
M  V30 1096 C 105.098 -2.70576 -6.10201 0
M  V30 1097 H 104.368 0.0950523 -0.734878 0
M  V30 1098 H 107.015 -0.465182 -1.85764 0
M  V30 1099 H 105.32 1.43006 -3.64769 0
M  V30 1100 H 107.017 1.09905 -3.85645 0
M  V30 1101 H 103.607 -0.271421 -4.2774 0
M  V30 1102 H 107.791 -1.07033 -4.84621 0
M  V30 1103 H 103.047 -2.19021 -5.70824 0
M  V30 1104 H 107.221 -2.98746 -6.29066 0
M  V30 1105 H 104.848 -3.55333 -6.72044 0
M  V30 1106 N 106.423 1.57458 -0.0668435 0
M  V30 1107 C 107.671 1.92919 0.602214 0
M  V30 1108 C 107.992 0.947215 1.70449 0
M  V30 1109 O 107.262 -0.00544117 1.95899 0
M  V30 1110 H 105.842 0.71217 0.22544 0
M  V30 1111 H 108.504 1.94508 -0.123535 0
M  V30 1112 H 107.6 2.94589 1.03073 0
M  V30 1113 N 107.901 -0.206675 1.56239 0
M  V30 1114 C 109.178 -0.954051 1.70755 0
M  V30 1115 C 109.558 -2.01841 0.618353 0
M  V30 1116 O 108.906 -2.25444 -0.372434 0
M  V30 1117 C 109.116 -1.551 3.12642 0
M  V30 1118 C 110.464 -2.03757 3.72516 0
M  V30 1119 O 111.488 -1.64965 3.15698 0
M  V30 1120 O 110.347 -2.75103 4.72208 0
M  V30 1121 H 107.441 -0.446636 0.696021 0
M  V30 1122 H 109.987 -0.197283 1.68549 0
M  V30 1123 H 108.759 -0.783212 3.83382 0
M  V30 1124 H 108.382 -2.37291 3.19028 0
M  V30 1125 N 109.379 -1.50304 -0.473955 0
M  V30 1126 C 110.604 -1.65175 -1.25427 0
M  V30 1127 C 111.029 -0.333673 -1.85117 0
M  V30 1128 O 110.387 0.702114 -1.67153 0
M  V30 1129 C 110.435 -2.74295 -2.34082 0
M  V30 1130 O 109.539 -2.35349 -3.38651 0
M  V30 1131 H 108.88 -0.551944 -0.369126 0
M  V30 1132 H 111.41 -1.96662 -0.564364 0
M  V30 1133 H 111.42 -2.97285 -2.79438 0
M  V30 1134 H 110.095 -3.69959 -1.90008 0
M  V30 1135 H 108.672 -2.22794 -2.99027 0
M  V30 1136 N 110.857 0.726932 -1.39834 0
M  V30 1137 C 111.767 1.87131 -1.41489 0
M  V30 1138 C 112.783 1.71239 -0.308757 0
M  V30 1139 O 113.959 1.93701 -0.551529 0
M  V30 1140 C 111.024 3.22811 -1.26468 0
M  V30 1141 C 110.085 3.51039 -2.47124 0
M  V30 1142 C 109.318 4.80245 -2.3281 0
M  V30 1143 O 109.541 5.54537 -1.33585 0
M  V30 1144 O 108.475 5.08554 -3.21957 0
M  V30 1145 H 112.301 1.8869 -2.3797 0
M  V30 1146 H 109.886 0.875837 -1.21035 0
M  V30 1147 H 111.768 4.03877 -1.20255 0
M  V30 1148 H 110.443 3.22005 -0.330862 0
M  V30 1149 H 109.35 2.70027 -2.58914 0
M  V30 1150 H 110.683 3.56632 -3.39227 0
M  V30 1151 N 112.336 1.25143 0.95797 0
M  V30 1152 C 113.561 1.12521 1.74223 0
M  V30 1153 C 113.986 -0.317402 1.85403 0
M  V30 1154 O 113.344 -1.2299 1.33204 0
M  V30 1155 C 113.392 1.78062 3.1357 0
M  V30 1156 O 112.496 1.058 3.98598 0
M  V30 1157 H 111.837 0.39304 0.535178 0
M  V30 1158 H 114.367 1.65641 1.201 0
M  V30 1159 H 114.377 1.84213 3.64046 0
M  V30 1160 H 113.052 2.83021 3.04749 0
M  V30 1161 H 111.629 1.07506 3.57067 0
M  V30 1162 N 113.814 -1.1601 1.06675 0
M  V30 1163 C 115.23 -1.38622 0.790948 0
M  V30 1164 C 115.43 -1.92109 -0.607965 0
M  V30 1165 O 114.486 -2.12239 -1.36787 0
M  V30 1166 C 115.799 -2.36347 1.85905 0
M  V30 1167 C 117.347 -2.50023 1.88301 0
M  V30 1168 C 117.822 -3.51033 2.94176 0
M  V30 1169 N 119.313 -3.58563 2.93235 0
M  V30 1170 C 120.048 -4.36521 3.71803 0
M  V30 1171 N 119.544 -5.17869 4.602 0
M  V30 1172 N 121.337 -4.31541 3.60178 0
M  V30 1173 H 113.488 -0.796294 1.96908 0
M  V30 1174 H 115.751 -0.412597 0.853503 0
M  V30 1175 H 115.457 -2.04147 2.86386 0
M  V30 1176 H 115.331 -3.36042 1.71334 0
M  V30 1177 H 117.718 -2.81524 0.884769 0
M  V30 1178 H 117.799 -1.5035 2.06951 0
M  V30 1179 H 117.443 -3.20268 3.94196 0
M  V30 1180 H 117.373 -4.50445 2.72776 0
M  V30 1181 H 119.864 -3.00496 2.29152 0
M  V30 1182 H 120.177 -5.74578 5.16797 0
M  V30 1183 H 118.522 -5.17199 4.64253 0
M  V30 1184 H 121.713 -3.67051 2.90502 0
M  V30 1185 H 121.886 -4.9205 4.21653 0
M  V30 1186 N 115.292 -0.849877 -1.32721 0
M  V30 1187 C 116.52 -0.464754 -2.01613 0
M  V30 1188 C 116.935 0.937191 -1.63897 0
M  V30 1189 O 116.292 1.61081 -0.857856 0
M  V30 1190 C 116.343 -0.588638 -3.56675 0
M  V30 1191 O 116.064 -1.93535 -3.93034 0
M  V30 1192 C 117.565 -0.2019 -4.4284 0
M  V30 1193 H 114.785 -0.183215 -0.645502 0
M  V30 1194 H 117.329 -1.1455 -1.69407 0
M  V30 1195 H 115.484 0.0443159 -3.87375 0
M  V30 1196 H 115.898 -1.92871 -4.87751 0
M  V30 1197 H 117.372 -0.339599 -5.50954 0
M  V30 1198 H 117.849 0.857224 -4.30753 0
M  V30 1199 H 118.455 -0.809733 -4.17521 0
M  V30 1200 N 116.77 1.45427 -0.607355 0
M  V30 1201 C 118.017 2.02241 -0.102455 0
M  V30 1202 C 118.345 1.4758 1.26691 0
M  V30 1203 O 117.6 0.640468 1.84923 0
M  V30 1204 C 117.899 3.57398 -0.0129263 0
M  V30 1205 C 117.565 4.3121 -1.31792 0
M  V30 1206 C 116.227 4.51092 -1.67539 0
M  V30 1207 C 118.579 4.73401 -2.18039 0
M  V30 1208 C 115.907 5.10422 -2.89285 0
M  V30 1209 C 118.259 5.34078 -3.39034 0
M  V30 1210 C 116.923 5.52184 -3.75033 0
M  V30 1211 H 116.193 0.740051 -0.037491 0
M  V30 1212 H 118.84 1.74494 -0.788926 0
M  V30 1213 H 117.145 3.84421 0.756806 0
M  V30 1214 H 118.842 3.99061 0.393881 0
M  V30 1215 H 115.432 4.16047 -1.02968 0
M  V30 1216 H 119.616 4.57774 -1.91721 0
M  V30 1217 H 114.872 5.22629 -3.17283 0
M  V30 1218 H 119.046 5.65724 -4.06115 0
M  V30 1219 H 116.673 5.97925 -4.69457 0
M  V30 1220 N 118.248 0.346503 1.53744 0
M  V30 1221 C 119.211 -0.496439 2.23759 0
M  V30 1222 C 120.211 -1.0252 1.2388 0
M  V30 1223 O 121.401 -0.913974 1.48297 0
M  V30 1224 C 118.533 -1.69187 2.95954 0
M  V30 1225 H 119.726 0.115952 2.99676 0
M  V30 1226 H 117.279 0.0978939 1.55993 0
M  V30 1227 H 118.014 -2.34288 2.24231 0
M  V30 1228 H 117.799 -1.31989 3.69217 0
M  V30 1229 H 119.289 -2.28969 3.49232 0
M  V30 1230 N 119.726 -1.57421 0.075193 0
M  V30 1231 C 120.676 -2.09441 -0.901025 0
M  V30 1232 C 121.66 -1.00486 -1.25663 0
M  V30 1233 O 122.852 -1.2679 -1.23504 0
M  V30 1234 C 119.981 -2.66233 -2.16737 0
M  V30 1235 C 119.067 -3.82198 -1.83808 0
M  V30 1236 N 119.458 -4.91028 -1.21345 0
M  V30 1237 C 117.756 -3.91558 -2.13538 0
M  V30 1238 C 118.457 -5.71852 -1.06585 0
M  V30 1239 N 117.433 -5.20233 -1.57667 0
M  V30 1240 H 121.235 -2.90972 -0.413815 0
M  V30 1241 H 118.749 -1.6189 -0.128601 0
M  V30 1242 H 120.746 -3.01819 -2.87595 0
M  V30 1243 H 119.406 -1.8615 -2.66042 0
M  V30 1244 H 120.417 -5.10323 -0.88268 0
M  V30 1245 H 117.094 -3.22454 -2.65197 0
M  V30 1246 H 118.484 -6.69401 -0.578933 0
M  V30 1247 N 121.204 0.198386 -1.56346 0
M  V30 1248 C 122.151 1.24589 -1.94284 0
M  V30 1249 C 123.121 1.454 -0.802997 0
M  V30 1250 O 124.306 1.58588 -1.06087 0
M  V30 1251 C 121.446 2.58631 -2.28482 0
M  V30 1252 C 120.559 2.45426 -3.55514 0
M  V30 1253 C 119.694 3.7215 -3.79049 0
M  V30 1254 C 118.733 3.53763 -4.99518 0
M  V30 1255 N 117.87 4.72491 -5.19323 0
M  V30 1256 H 122.71 0.915356 -2.83593 0
M  V30 1257 H 120.247 0.440629 -1.40346 0
M  V30 1258 H 122.205 3.3672 -2.46324 0
M  V30 1259 H 120.835 2.89734 -1.42317 0
M  V30 1260 H 119.887 1.58652 -3.45737 0
M  V30 1261 H 121.199 2.27772 -4.43758 0
M  V30 1262 H 120.353 4.58679 -3.97113 0
M  V30 1263 H 119.092 3.92754 -2.89129 0
M  V30 1264 H 118.097 2.65619 -4.8138 0
M  V30 1265 H 119.322 3.34607 -5.90944 0
M  V30 1266 H 117.268 4.93365 -4.3235 0
M  V30 1267 H 117.185 4.5765 -6.01741 0
M  V30 1268 H 118.453 5.6038 -5.41843 0
M  V30 1269 N 122.682 1.50554 0.465978 0
M  V30 1270 C 123.615 1.64436 1.58227 0
M  V30 1271 C 124.593 0.492367 1.54966 0
M  V30 1272 O 125.777 0.712536 1.74514 0
M  V30 1273 C 122.904 1.63165 2.96808 0
M  V30 1274 C 121.95 2.83987 3.18204 0
M  V30 1275 S 122.783 4.45219 2.97557 0
M  V30 1276 C 123.939 4.46649 4.3847 0
M  V30 1277 H 124.172 2.58861 1.46213 0
M  V30 1278 H 121.705 1.3988 0.653678 0
M  V30 1279 H 123.663 1.63116 3.76701 0
M  V30 1280 H 122.324 0.69967 3.06208 0
M  V30 1281 H 121.517 2.79416 4.19455 0
M  V30 1282 H 121.119 2.81629 2.46092 0
M  V30 1283 H 123.411 4.20526 5.31191 0
M  V30 1284 H 124.354 5.48295 4.48082 0
M  V30 1285 H 124.762 3.76296 4.20787 0
M  V30 1286 N 124.16 -0.719506 1.40217 0
M  V30 1287 C 125.108 -1.85493 1.40339 0
M  V30 1288 C 126.102 -1.66995 0.284415 0
M  V30 1289 O 127.308 -1.74148 0.455252 0
M  V30 1290 H 123.683 -0.610857 0.438586 0
M  V30 1291 H 125.654 -1.82506 2.36081 0
M  V30 1292 C 124.403 -3.23321 1.27901 0
M  V30 1293 H 123.726 -3.38159 2.1328 0
M  V30 1294 H 125.166 -4.02914 1.32045 0
M  V30 1295 C 123.625 -3.36898 -0.0111355 0
M  V30 1296 O 124.155 -3.89674 -0.975538 0
M  V30 1297 N 122.361 -2.90492 -0.0793393 0
M  V30 1298 H 121.908 -2.47731 0.706183 0
M  V30 1299 H 121.866 -2.99955 -0.942038 0
M  V30 1300 N 125.638 -1.25649 -0.95132 0
M  V30 1301 C 126.588 -1.03004 -2.03406 0
M  V30 1302 C 127.572 0.034187 -1.60864 0
M  V30 1303 O 128.764 -0.181549 -1.76066 0
M  V30 1304 C 125.893 -0.654255 -3.37008 0
M  V30 1305 C 124.979 -1.75542 -3.86065 0
M  V30 1306 N 125.37 -2.99113 -4.07879 0
M  V30 1307 C 123.668 -1.63669 -4.14884 0
M  V30 1308 C 124.369 -3.70611 -4.48356 0
M  V30 1309 N 123.345 -2.98247 -4.54477 0
M  V30 1310 H 127.147 -1.96813 -2.1827 0
M  V30 1311 H 124.661 -1.16017 -1.13639 0
M  V30 1312 H 126.658 -0.473206 -4.14206 0
M  V30 1313 H 125.318 0.276468 -3.23521 0
M  V30 1314 H 126.329 -3.35124 -3.94857 0
M  V30 1315 H 123.006 -0.775161 -4.10241 0
M  V30 1316 H 124.396 -4.76695 -4.73509 0
M  V30 1317 N 127.117 1.15442 -1.07289 0
M  V30 1318 C 128.364 1.86213 -0.795668 0
M  V30 1319 C 128.692 1.82291 0.678238 0
M  V30 1320 O 127.947 1.24057 1.51355 0
M  V30 1321 C 128.246 3.3489 -1.24834 0
M  V30 1322 C 127.912 3.59007 -2.72809 0
M  V30 1323 C 126.574 3.65298 -3.13227 0
M  V30 1324 C 128.926 3.68762 -3.68326 0
M  V30 1325 C 126.254 3.78854 -4.4798 0
M  V30 1326 C 128.606 3.83842 -5.0284 0
M  V30 1327 C 127.27 3.88378 -5.4288 0
M  V30 1328 H 126.54 0.681403 -0.291155 0
M  V30 1329 H 129.187 1.36435 -1.34379 0
M  V30 1330 H 127.492 3.8687 -0.619595 0
M  V30 1331 H 129.189 3.88052 -1.01076 0
M  V30 1332 H 125.779 3.5475 -2.40521 0
M  V30 1333 H 129.963 3.63202 -3.38227 0
M  V30 1334 H 125.219 3.80623 -4.78472 0
M  V30 1335 H 129.393 3.90332 -5.76727 0
M  V30 1336 H 127.02 3.98635 -6.47298 0
M  V30 1337 N 128.595 0.856903 1.32268 0
M  V30 1338 C 129.842 0.461386 1.97174 0
M  V30 1339 C 130.17 -0.983491 1.67803 0
M  V30 1340 O 129.425 -1.70541 0.959903 0
M  V30 1341 C 129.724 0.649919 3.51441 0
M  V30 1342 C 129.39 2.0656 4.00804 0
M  V30 1343 C 128.052 2.45279 4.13995 0
M  V30 1344 C 130.404 2.98947 4.26943 0
M  V30 1345 C 127.732 3.75653 4.50668 0
M  V30 1346 C 130.084 4.28822 4.65075 0
M  V30 1347 C 128.748 4.67472 4.76472 0
M  V30 1348 H 128.018 0.168833 0.72151 0
M  V30 1349 H 130.665 1.08739 1.57633 0
M  V30 1350 H 128.97 -0.0593018 3.91755 0
M  V30 1351 H 130.667 0.32391 3.9969 0
M  V30 1352 H 127.257 1.75495 3.91024 0
M  V30 1353 H 131.441 2.70265 4.16258 0
M  V30 1354 H 126.697 4.05379 4.57688 0
M  V30 1355 H 130.871 5.0047 4.84255 0
M  V30 1356 H 128.498 5.68539 5.04646 0
M  V30 1357 N 130.073 -1.45103 0.615059 0
M  V30 1358 C 131.319 -2.02483 0.113347 0
M  V30 1359 C 131.652 -1.48146 -1.25564 0
M  V30 1360 O 130.927 -0.659104 -1.82992 0
M  V30 1361 C 131.21 -3.60005 0.0825278 0
M  V30 1362 C 131.063 -4.2466 1.48271 0
M  V30 1363 C 132.382 -4.35972 -0.601401 0
M  V30 1364 H 129.501 -0.735764 0.0426632 0
M  V30 1365 H 132.143 -1.72868 0.788461 0
M  V30 1366 H 130.293 -3.85367 -0.492378 0
M  V30 1367 H 131.965 -4.10458 2.10527 0
M  V30 1368 H 130.208 -3.82772 2.04127 0
M  V30 1369 H 130.879 -5.336 1.41332 0
M  V30 1370 H 133.355 -4.15947 -0.112666 0
M  V30 1371 H 132.231 -5.45697 -0.592097 0
M  V30 1372 H 132.492 -4.09391 -1.66887 0
M  V30 1373 N 131.551 -0.354651 -1.53558 0
M  V30 1374 C 132.498 0.496968 -2.25386 0
M  V30 1375 C 133.468 1.0865 -1.25636 0
M  V30 1376 O 134.653 1.12104 -1.54394 0
M  V30 1377 C 131.793 1.63637 -3.03837 0
M  V30 1378 C 130.906 1.07307 -4.18461 0
M  V30 1379 C 130.041 2.18068 -4.84376 0
M  V30 1380 C 129.08 1.59147 -5.91049 0
M  V30 1381 N 128.217 2.63695 -6.50699 0
M  V30 1382 H 133.057 -0.122075 -2.9775 0
M  V30 1383 H 130.594 -0.0720154 -1.46924 0
M  V30 1384 H 132.552 2.30734 -3.47589 0
M  V30 1385 H 131.182 2.22623 -2.33749 0
M  V30 1386 H 130.234 0.292708 -3.79272 0
M  V30 1387 H 131.546 0.602193 -4.95152 0
M  V30 1388 H 130.7 2.93007 -5.31255 0
M  V30 1389 H 129.439 2.68504 -4.07133 0
M  V30 1390 H 128.444 0.827175 -5.43542 0
M  V30 1391 H 129.669 1.09549 -6.70206 0
M  V30 1392 H 127.615 3.13365 -5.76315 0
M  V30 1393 H 127.532 2.21263 -7.22896 0
M  V30 1394 H 128.8 3.3837 -7.02229 0
M  V30 1395 N 133.029 1.57378 -0.0835403 0
M  V30 1396 C 134.44 1.81261 0.447358 0
M  V30 1397 C 134.791 0.998331 1.68902 0
M  V30 1398 O 133.916 0.224282 2.15235 0
M  V30 1399 C 134.511 3.28767 0.818386 0
M  V30 1400 C 133.07 3.53455 1.29409 0
M  V30 1401 C 132.217 2.75831 0.285024 0
M  V30 1402 H 135.168 1.5566 -0.309115 0
M  V30 1403 H 135.189 3.41459 1.67887 0
M  V30 1404 H 134.701 3.88006 -0.0855019 0
M  V30 1405 H 132.802 2.99534 2.21608 0
M  V30 1406 H 132.915 4.62128 1.2639 0
M  V30 1407 H 131.279 2.42947 0.764767 0
M  V30 1408 H 132.062 3.37813 -0.611341 0
M  V30 1409 N 134.507 -0.190092 1.56449 0
M  V30 1410 C 135.454 -1.23557 1.94942 0
M  V30 1411 C 136.424 -1.44972 0.810696 0
M  V30 1412 O 137.609 -1.58023 1.06927 0
M  V30 1413 C 134.749 -2.57416 2.2985 0
M  V30 1414 C 133.862 -2.43537 3.5681 0
M  V30 1415 C 132.997 -3.70134 3.81017 0
M  V30 1416 C 132.036 -3.51109 5.01387 0
M  V30 1417 N 131.173 -4.6973 5.21822 0
M  V30 1418 H 136.013 -0.900304 2.84075 0
M  V30 1419 H 133.55 -0.43318 1.40577 0
M  V30 1420 H 135.508 -3.35409 2.48106 0
M  V30 1421 H 134.138 -2.88975 1.43852 0
M  V30 1422 H 133.19 -1.56816 3.46573 0
M  V30 1423 H 134.502 -2.25415 4.4496 0
M  V30 1424 H 133.656 -4.56566 3.9954 0
M  V30 1425 H 132.395 -3.91215 2.91207 0
M  V30 1426 H 131.4 -2.63063 4.82782 0
M  V30 1427 H 132.625 -3.31468 5.9271 0
M  V30 1428 H 130.571 -4.91065 4.34961 0
M  V30 1429 H 130.488 -4.54452 6.0416 0
M  V30 1430 H 131.756 -5.57499 5.44808 0
M  V30 1431 N 135.985 -1.50799 -0.457987 0
M  V30 1432 C 136.917 -1.66786 -1.57211 0
M  V30 1433 C 137.93 -0.548962 -1.53265 0
M  V30 1434 O 139.119 -0.8226 -1.58416 0
M  V30 1435 C 136.219 -1.64834 -2.96113 0
M  V30 1436 C 135.392 -2.92971 -3.24787 0
M  V30 1437 C 134.451 -2.83485 -4.43309 0
M  V30 1438 O 133.477 -3.5744 -4.42973 0
M  V30 1439 N 134.679 -1.97929 -5.45714 0
M  V30 1440 H 137.444 -2.62889 -1.43909 0
M  V30 1441 H 135.005 -1.48427 -0.646617 0
M  V30 1442 H 136.997 -1.56084 -3.7339 0
M  V30 1443 H 135.567 -0.764118 -3.03117 0
M  V30 1444 H 134.787 -3.15749 -2.36 0
M  V30 1445 H 136.075 -3.77834 -3.40762 0
M  V30 1446 H 135.473 -1.37182 -5.48815 0
M  V30 1447 H 134.03 -1.95073 -6.21924 0
M  V30 1448 N 137.463 0.71206 -1.40597 0
M  V30 1449 C 138.426 1.80785 -1.40888 0
M  V30 1450 C 139.426 1.57937 -0.302103 0
M  V30 1451 O 140.616 1.64913 -0.561182 0
M  V30 1452 C 137.748 3.18927 -1.20409 0
M  V30 1453 H 138.941 1.81924 -2.38419 0
M  V30 1454 H 136.494 0.91805 -1.26497 0
M  V30 1455 H 137.229 3.23436 -0.236522 0
M  V30 1456 H 137.014 3.36911 -2.00582 0
M  V30 1457 H 138.504 3.98949 -1.23408 0
M  V30 1458 N 138.941 1.26152 0.944643 0
M  V30 1459 C 139.874 1.01729 2.04271 0
M  V30 1460 C 140.852 -0.0568101 1.62501 0
M  V30 1461 O 142.036 0.0848987 1.88309 0
M  V30 1462 C 139.163 0.539792 3.34371 0
M  V30 1463 C 138.209 1.60593 3.9511 0
M  V30 1464 S 139.042 3.19392 4.29825 0
M  V30 1465 C 140.198 2.73402 5.63029 0
M  V30 1466 H 140.431 1.94703 2.24673 0
M  V30 1467 H 137.964 1.09793 1.08558 0
M  V30 1468 H 139.922 0.270956 4.09605 0
M  V30 1469 H 138.583 -0.369609 3.11918 0
M  V30 1470 H 137.776 1.22275 4.88943 0
M  V30 1471 H 137.378 1.82596 3.26397 0
M  V30 1472 H 139.67 2.1765 6.41588 0
M  V30 1473 H 140.613 3.65913 6.06229 0
M  V30 1474 H 141.021 2.13077 5.22741 0
M  V30 1475 N 140.419 -1.14872 1.07899 0
M  V30 1476 C 141.644 -1.90202 0.826926 0
M  V30 1477 C 142.069 -1.77774 -0.614664 0
M  V30 1478 O 141.427 -1.11431 -1.43013 0
M  V30 1479 C 141.475 -3.38352 1.24702 0
M  V30 1480 O 140.579 -4.10497 0.39575 0
M  V30 1481 H 139.92 -0.591968 0.300782 0
M  V30 1482 H 142.45 -1.45437 1.43907 0
M  V30 1483 H 142.46 -3.89156 1.22563 0
M  V30 1484 H 141.135 -3.46715 2.29698 0
M  V30 1485 H 139.712 -3.69796 0.480117 0
M  V30 1486 N 141.898 -0.863906 -1.31812 0
M  V30 1487 C 143.175 -0.39275 -1.91616 0
M  V30 1488 C 143.555 1.12461 -1.7865 0
M  V30 1489 O 142.903 1.95045 -1.19037 0
M  V30 1490 C 143.113 -0.867385 -3.38049 0
M  V30 1491 C 144.461 -0.889966 -4.15168 0
M  V30 1492 O 145.485 -0.812635 -3.46806 0
M  V30 1493 O 144.344 -1.00079 -5.37258 0
M  V30 1494 H 141.438 -0.116358 -0.818773 0
M  V30 1495 H 143.984 -0.951418 -1.40521 0
M  V30 1496 H 142.756 -1.91081 -3.41473 0
M  V30 1497 H 142.379 -0.286687 -3.96565 0
M  V30 1498 N 143.376 1.44774 -0.622745 0
M  V30 1499 C 144.604 2.06487 -0.130722 0
M  V30 1500 C 145.019 1.46476 1.19123 0
M  V30 1501 O 144.376 0.584502 1.72887 0
M  V30 1502 C 144.427 3.615 -0.000807207 0
M  V30 1503 O 144.148 4.19274 -1.27048 0
M  V30 1504 C 145.649 4.40229 0.520898 0
M  V30 1505 H 142.869 0.666704 -0.0758106 0
M  V30 1506 H 145.413 1.85779 -0.854774 0
M  V30 1507 H 143.568 3.81498 0.673643 0
M  V30 1508 H 143.982 5.12622 -1.1099 0
M  V30 1509 H 145.456 5.49144 0.560838 0
M  V30 1510 H 145.933 4.1108 1.54627 0
M  V30 1511 H 146.539 4.25131 -0.120018 0
M  V30 1512 N 144.854 0.36279 1.53368 0
M  V30 1513 C 145.802 -0.500155 2.27159 0
M  V30 1514 C 146.796 -1.08575 1.3003 0
M  V30 1515 O 148.002 -1.02927 1.47668 0
M  V30 1516 H 144.377 -0.180009 0.730138 0
M  V30 1517 H 146.348 0.14401 2.98052 0
M  V30 1518 C 145.097 -1.62937 3.07159 0
M  V30 1519 H 144.42 -1.18806 3.8174 0
M  V30 1520 H 145.86 -2.20795 3.61975 0
M  V30 1521 C 144.319 -2.57007 2.17829 0
M  V30 1522 O 144.849 -3.59752 1.78721 0
M  V30 1523 N 143.055 -2.26131 1.82518 0
M  V30 1524 H 142.602 -1.42616 2.14519 0
M  V30 1525 H 142.56 -2.89327 1.23034 0
M  V30 1526 N 146.332 -1.57332 0.0918853 0
M  V30 1527 C 147.262 -2.16872 -0.865371 0
M  V30 1528 C 148.243 -1.10118 -1.29646 0
M  V30 1529 O 149.428 -1.38242 -1.36392 0
M  V30 1530 C 146.558 -2.74649 -2.12569 0
M  V30 1531 C 145.512 -3.86747 -1.83333 0
M  V30 1532 C 144.838 -4.31212 -3.16166 0
M  V30 1533 C 146.138 -5.10089 -1.1228 0
M  V30 1534 H 147.832 -2.97114 -0.369307 0
M  V30 1535 H 145.378 -1.42918 -0.176194 0
M  V30 1536 H 147.331 -3.14952 -2.7997 0
M  V30 1537 H 146.055 -1.91657 -2.64452 0
M  V30 1538 H 144.714 -3.46978 -1.18331 0
M  V30 1539 H 144.362 -3.45115 -3.6593 0
M  V30 1540 H 144.062 -5.06788 -2.97388 0
M  V30 1541 H 145.586 -4.74146 -3.84731 0
M  V30 1542 H 147 -5.47582 -1.69785 0
M  V30 1543 H 145.397 -5.91073 -1.03693 0
M  V30 1544 H 146.467 -4.84786 -0.105041 0
M  V30 1545 N 147.81 0.181792 -1.56548 0
M  V30 1546 C 149.056 0.901431 -1.81665 0
M  V30 1547 C 149.389 1.82347 -0.668075 0
M  V30 1548 O 148.664 1.91669 0.330615 0
M  V30 1549 C 148.947 1.70618 -3.17115 0
M  V30 1550 C 148.8 0.807964 -4.42484 0
M  V30 1551 C 150.119 2.67605 -3.49393 0
M  V30 1552 H 147.238 0.32627 -0.660846 0
M  V30 1553 H 149.88 0.168134 -1.89255 0
M  V30 1554 H 148.03 2.33133 -3.10775 0
M  V30 1555 H 149.702 0.19649 -4.60881 0
M  V30 1556 H 147.945 0.115411 -4.33646 0
M  V30 1557 H 148.616 1.40632 -5.33785 0
M  V30 1558 H 151.092 2.15218 -3.56118 0
M  V30 1559 H 149.968 3.20985 -4.45264 0
M  V30 1560 H 150.229 3.47298 -2.73563 0
M  V30 1561 N 149.288 1.51039 0.449983 0
M  V30 1562 C 150.537 1.62317 1.19733 0
M  V30 1563 C 150.85 0.339101 1.92638 0
M  V30 1564 O 152.056 0.331069 2.69474 0
M  V30 1565 C 150.512 2.86608 2.17678 0
M  V30 1566 C 150.12 4.21972 1.50479 0
M  V30 1567 C 151.864 3.07239 2.92924 0
M  V30 1568 C 149.771 5.37426 2.46834 0
M  V30 1569 H 148.701 0.604532 0.450619 0
M  V30 1570 H 151.352 1.77494 0.465625 0
M  V30 1571 H 149.734 2.65037 2.94231 0
M  V30 1572 H 150.908 4.53878 0.795716 0
M  V30 1573 H 149.223 4.07117 0.874344 0
M  V30 1574 H 151.82 3.90668 3.65079 0
M  V30 1575 H 152.163 2.19807 3.5354 0
M  V30 1576 H 152.696 3.29091 2.23481 0
M  V30 1577 H 149.435 6.27079 1.90926 0
M  V30 1578 H 148.955 5.09912 3.15832 0
M  V30 1579 H 150.634 5.68862 3.08228 0
M  V30 1580 N 150.766 -0.704594 1.40972 0
M  V30 1581 C 152.012 -1.46675 1.40051 0
M  V30 1582 C 152.345 -1.94199 0.00641102 0
M  V30 1583 O 151.62 -1.68916 -0.964235 0
M  V30 1584 C 151.903 -2.68505 2.39952 0
M  V30 1585 C 151.756 -2.26805 3.88432 0
M  V30 1586 C 153.075 -3.70686 2.37233 0
M  V30 1587 H 150.194 -0.532015 0.510028 0
M  V30 1588 H 152.836 -0.803255 1.72185 0
M  V30 1589 H 150.986 -3.25114 2.1268 0
M  V30 1590 H 152.658 -1.75592 4.26574 0
M  V30 1591 H 150.901 -1.58685 4.03734 0
M  V30 1592 H 151.572 -3.14181 4.53866 0
M  V30 1593 H 154.048 -3.23731 2.61415 0
M  V30 1594 H 152.924 -4.53553 3.09162 0
M  V30 1595 H 153.185 -4.19754 1.38777 0
M  V30 1596 N 152.244 -1.26651 -0.937939 0
M  V30 1597 C 153.472 -1.15173 -1.7188 0
M  V30 1598 C 153.887 0.292668 -1.86518 0
M  V30 1599 O 153.244 1.20014 -1.37488 0
M  V30 1600 C 153.295 -1.81925 -3.12387 0
M  V30 1601 O 153.016 -3.2072 -2.98446 0
M  V30 1602 C 154.517 -1.76442 -4.06673 0
M  V30 1603 H 151.737 -0.400911 -0.538063 0
M  V30 1604 H 154.281 -1.67332 -1.1756 0
M  V30 1605 H 152.436 -1.33696 -3.63599 0
M  V30 1606 H 152.85 -3.53802 -3.872 0
M  V30 1607 H 154.324 -2.27781 -5.02812 0
M  V30 1608 H 154.801 -0.731608 -4.33064 0
M  V30 1609 H 155.407 -2.24238 -3.61382 0
M  V30 1610 N 153.722 1.14298 -1.08507 0
M  V30 1611 C 154.999 1.81544 -0.728088 0
M  V30 1612 C 155.379 1.95838 0.78808 0
M  V30 1613 O 154.727 1.51904 1.70697 0
M  V30 1614 C 154.937 3.17169 -1.45619 0
M  V30 1615 C 156.285 3.9265 -1.61591 0
M  V30 1616 O 157.309 3.26762 -1.41793 0
M  V30 1617 O 156.168 5.10807 -1.94263 0
M  V30 1618 H 153.262 0.78491 -0.260471 0
M  V30 1619 H 155.808 1.21307 -1.18671 0
M  V30 1620 H 154.58 3.01934 -2.489 0
M  V30 1621 H 154.203 3.851 -0.989124 0
M  V30 1622 N 155.201 0.870884 1.31352 0
M  V30 1623 C 156.148 0.325425 2.28494 0
M  V30 1624 C 157.118 -0.576615 1.5577 0
M  V30 1625 O 158.303 -0.508059 1.83911 0
M  V30 1626 C 155.443 -0.466283 3.41935 0
M  V30 1627 C 154.556 0.463378 4.29508 0
M  V30 1628 C 153.691 -0.342544 5.30094 0
M  V30 1629 C 152.73 0.583486 6.09313 0
M  V30 1630 N 151.867 -0.186244 7.01853 0
M  V30 1631 H 156.707 1.15901 2.74538 0
M  V30 1632 H 154.244 0.58294 1.35056 0
M  V30 1633 H 156.202 -0.941085 4.06447 0
M  V30 1634 H 154.832 -1.26456 2.97 0
M  V30 1635 H 153.884 1.05663 3.65431 0
M  V30 1636 H 155.196 1.1734 4.84802 0
M  V30 1637 H 154.35 -0.879816 6.00287 0
M  V30 1638 H 153.089 -1.08585 4.75458 0
M  V30 1639 H 152.094 1.13251 5.3801 0
M  V30 1640 H 153.319 1.32566 6.66035 0
M  V30 1641 H 151.265 -0.912348 6.49625 0
M  V30 1642 H 151.182 0.464422 7.54572 0
M  V30 1643 H 152.45 -0.704716 7.76308 0
M  V30 1644 N 156.679 -1.44442 0.630414 0
M  V30 1645 C 158.095 -1.56832 0.295973 0
M  V30 1646 C 158.295 -1.61806 -1.20088 0
M  V30 1647 O 157.351 -1.5607 -1.9849 0
M  V30 1648 C 158.664 -2.84031 0.987264 0
M  V30 1649 C 160.212 -2.97742 0.96534 0
M  V30 1650 C 160.687 -4.27743 1.63708 0
M  V30 1651 N 162.178 -4.34555 1.60364 0
M  V30 1652 C 162.913 -5.33862 2.09234 0
M  V30 1653 N 162.409 -6.39578 2.66292 0
M  V30 1654 N 164.202 -5.25366 1.99867 0
M  V30 1655 H 156.353 -1.39457 1.60205 0
M  V30 1656 H 158.616 -0.668237 0.672431 0
M  V30 1657 H 158.322 -2.86338 2.04215 0
M  V30 1658 H 158.196 -3.73534 0.524588 0
M  V30 1659 H 160.583 -2.94989 -0.0810639 0
M  V30 1660 H 160.664 -2.09589 1.4665 0
M  V30 1661 H 160.308 -4.31255 2.68293 0
M  V30 1662 H 160.238 -5.14752 1.11076 0
M  V30 1663 H 162.729 -3.58772 1.18705 0
M  V30 1664 H 163.042 -7.11637 3.01317 0
M  V30 1665 H 161.387 -6.40265 2.70343 0
M  V30 1666 H 164.578 -4.41688 1.55013 0
M  V30 1667 H 164.751 -6.02606 2.38265 0
M  V30 1668 N 158.157 -0.370918 -1.53173 0
M  V30 1669 C 159.385 0.217704 -2.05751 0
M  V30 1670 C 159.8 1.42018 -1.24404 0
M  V30 1671 O 159.157 1.80245 -0.286033 0
M  V30 1672 C 159.208 0.605954 -3.56385 0
M  V30 1673 O 158.929 -0.548734 -4.3465 0
M  V30 1674 C 160.43 1.2524 -4.25241 0
M  V30 1675 H 157.65 0.0371659 -0.66997 0
M  V30 1676 H 160.194 -0.530832 -1.9749 0
M  V30 1677 H 158.349 1.3044 -3.6478 0
M  V30 1678 H 158.763 -0.23376 -5.23979 0
M  V30 1679 H 160.237 1.47458 -5.3194 0
M  V30 1680 H 160.714 2.2143 -3.79296 0
M  V30 1681 H 161.32 0.595233 -4.21114 0
M  V30 1682 N 159.635 1.57281 -0.100228 0
M  V30 1683 C 160.865 1.98591 0.569681 0
M  V30 1684 C 161.273 0.978315 1.61943 0
M  V30 1685 O 160.616 -0.0396108 1.83657 0
M  V30 1686 C 160.678 3.36282 1.271 0
M  V30 1687 C 160.342 4.55488 0.371409 0
M  V30 1688 C 161.339 5.18491 -0.382504 0
M  V30 1689 C 159.024 5.01474 0.287965 0
M  V30 1690 C 161.018 6.25852 -1.20779 0
M  V30 1691 C 158.705 6.08701 -0.540965 0
M  V30 1692 C 159.703 6.70755 -1.28749 0
M  V30 1693 O 159.391 7.75914 -2.10269 0
M  V30 1694 H 159.123 0.65752 0.156982 0
M  V30 1695 H 161.677 2.0463 -0.177734 0
M  V30 1696 H 159.907 3.26941 2.0651 0
M  V30 1697 H 161.596 3.62005 1.83595 0
M  V30 1698 H 162.362 4.83891 -0.3278 0
M  V30 1699 H 158.241 4.52932 0.858689 0
M  V30 1700 H 161.785 6.74218 -1.79096 0
M  V30 1701 H 157.682 6.42732 -0.597131 0
M  V30 1702 H 158.45 7.92925 -2.03007 0
M  V30 1703 N 161.113 -0.173488 1.56642 0
M  V30 1704 C 162.061 -1.23417 1.97157 0
M  V30 1705 C 163.055 -1.45946 0.860013 0
M  V30 1706 O 164.261 -1.46551 1.04512 0
M  V30 1707 H 160.636 -0.414818 0.62724 0
M  V30 1708 H 162.607 -0.865582 2.8557 0
M  V30 1709 C 161.356 -2.5665 2.34576 0
M  V30 1710 H 160.679 -2.40137 3.19647 0
M  V30 1711 H 162.119 -3.2956 2.6677 0
M  V30 1712 C 160.578 -3.15245 1.18836 0
M  V30 1713 O 161.108 -3.98883 0.474869 0
M  V30 1714 N 159.314 -2.74303 0.959497 0
M  V30 1715 H 158.861 -2.0639 1.54146 0
M  V30 1716 H 158.819 -3.13844 0.186932 0
M  V30 1717 N 162.591 -1.51276 -0.441967 0
M  V30 1718 C 163.84 -1.6295 -1.18871 0
M  V30 1719 C 164.153 -0.349312 -1.92456 0
M  V30 1720 O 165.359 -0.345355 -2.69295 0
M  V30 1721 C 163.815 -2.87759 -2.16155 0
M  V30 1722 C 163.423 -4.22764 -1.48239 0
M  V30 1723 C 165.167 -3.08788 -2.91291 0
M  V30 1724 C 163.074 -5.38728 -2.4398 0
M  V30 1725 H 162.004 -0.606913 -0.447406 0
M  V30 1726 H 164.655 -1.77739 -0.456205 0
M  V30 1727 H 163.037 -2.66593 -2.92821 0
M  V30 1728 H 164.211 -4.54293 -0.771635 0
M  V30 1729 H 162.526 -4.07575 -0.852741 0
M  V30 1730 H 165.123 -3.92599 -3.63002 0
M  V30 1731 H 165.466 -2.21679 -3.5237 0
M  V30 1732 H 165.999 -3.30272 -2.21733 0
M  V30 1733 H 162.738 -6.28082 -1.87598 0
M  V30 1734 H 162.258 -5.1158 -3.13123 0
M  V30 1735 H 163.937 -5.70489 -3.05207 0
M  V30 1736 N 164.069 0.697108 -1.41344 0
M  V30 1737 C 165.315 1.4593 -1.40827 0
M  V30 1738 C 165.648 1.94193 -0.0167098 0
M  V30 1739 O 164.923 1.69425 0.955263 0
M  V30 1740 C 165.206 2.67229 -2.41373 0
M  V30 1741 C 165.059 2.24741 -3.8963 0
M  V30 1742 C 166.378 3.69423 -2.39196 0
M  V30 1743 H 163.497 0.529303 -0.512842 0
M  V30 1744 H 166.139 0.794112 -1.72609 0
M  V30 1745 H 164.289 3.23982 -2.14401 0
M  V30 1746 H 165.961 1.73327 -4.27499 0
M  V30 1747 H 164.204 1.56542 -4.0457 0
M  V30 1748 H 164.875 3.1177 -4.55525 0
M  V30 1749 H 167.351 3.2234 -2.63128 0
M  V30 1750 H 166.227 4.51907 -3.11563 0
M  V30 1751 H 166.488 4.19012 -1.41001 0
M  V30 1752 N 165.547 1.27147 0.931209 0
M  V30 1753 C 166.477 1.12081 2.04842 0
M  V30 1754 C 167.458 0.0232364 1.70084 0
M  V30 1755 O 168.643 0.197085 1.93197 0
M  V30 1756 C 165.773 0.76354 3.38803 0
M  V30 1757 C 164.727 1.81396 3.87659 0
M  V30 1758 C 164.053 1.31075 5.18385 0
M  V30 1759 C 165.353 3.21739 4.11438 0
M  V30 1760 H 167.047 2.05537 2.17703 0
M  V30 1761 H 164.593 0.989603 1.04608 0
M  V30 1762 H 166.546 0.644982 4.16435 0
M  V30 1763 H 165.27 -0.206727 3.25945 0
M  V30 1764 H 163.929 1.92136 3.12217 0
M  V30 1765 H 163.577 0.330037 5.01916 0
M  V30 1766 H 163.277 2.013 5.52044 0
M  V30 1767 H 164.801 1.20506 5.98591 0
M  V30 1768 H 166.215 3.14019 4.79651 0
M  V30 1769 H 164.612 3.89644 4.56397 0
M  V30 1770 H 165.682 3.67054 3.16859 0
M  V30 1771 N 167.025 -1.13721 1.09112 0
M  V30 1772 C 167.975 -2.17082 0.697091 0
M  V30 1773 C 168.959 -1.58321 -0.286923 0
M  V30 1774 O 170.151 -1.7673 -0.0978008 0
M  V30 1775 C 167.28 -3.43105 0.115729 0
M  V30 1776 C 166.366 -4.0888 1.12596 0
M  V30 1777 N 166.757 -4.4987 2.31195 0
M  V30 1778 C 165.055 -4.35471 0.963366 0
M  V30 1779 C 165.756 -5.01094 2.95431 0
M  V30 1780 N 164.732 -4.95751 2.23006 0
M  V30 1781 H 168.534 -2.46524 1.6001 0
M  V30 1782 H 166.048 -1.30481 0.966869 0
M  V30 1783 H 168.045 -4.16491 -0.184555 0
M  V30 1784 H 166.705 -3.15138 -0.78217 0
M  V30 1785 H 167.716 -4.42678 2.68806 0
M  V30 1786 H 164.393 -4.17328 0.119878 0
M  V30 1787 H 165.783 -5.4263 3.96236 0
M  V30 1788 N 168.503 -0.877838 -1.30888 0
M  V30 1789 C 169.75 -0.492696 -1.96415 0
M  V30 1790 C 170.078 0.956671 -1.69346 0
M  V30 1791 O 169.333 1.68993 -0.986913 0
M  V30 1792 C 169.632 -0.705748 -3.50363 0
M  V30 1793 C 169.298 -2.1291 -3.97467 0
M  V30 1794 C 167.96 -2.51834 -4.1004 0
M  V30 1795 C 170.312 -3.05702 -4.22132 0
M  V30 1796 C 167.64 -3.82775 -4.44635 0
M  V30 1797 C 169.992 -4.36166 -4.58194 0
M  V30 1798 C 168.656 -4.74993 -4.68975 0
M  V30 1799 H 167.926 -0.18029 -0.718733 0
M  V30 1800 H 170.573 -1.11233 -1.55883 0
M  V30 1801 H 168.878 -0.00303058 -3.918 0
M  V30 1802 H 170.575 -0.387456 -3.99124 0
M  V30 1803 H 167.165 -1.81694 -3.88182 0
M  V30 1804 H 171.349 -2.76853 -4.11906 0
M  V30 1805 H 166.605 -4.12609 -4.51181 0
M  V30 1806 H 170.779 -5.08111 -4.76231 0
M  V30 1807 H 168.406 -5.76495 -4.95537 0
M  V30 1808 N 169.982 1.44106 -0.638065 0
M  V30 1809 C 171.231 2.01194 -0.142744 0
M  V30 1810 C 171.544 1.50835 1.24532 0
M  V30 1811 O 172.75 2.00096 1.83504 0
M  V30 1812 C 171.206 3.59319 -0.20442 0
M  V30 1813 C 170.814 4.18674 -1.59423 0
M  V30 1814 C 172.558 4.23854 0.234079 0
M  V30 1815 C 170.465 5.69045 -1.61065 0
M  V30 1816 H 169.395 0.752367 -0.0495998 0
M  V30 1817 H 172.046 1.65246 -0.797881 0
M  V30 1818 H 170.428 3.92598 0.517946 0
M  V30 1819 H 171.602 3.96921 -2.34074 0
M  V30 1820 H 169.917 3.66453 -1.97741 0
M  V30 1821 H 172.514 5.34155 0.241443 0
M  V30 1822 H 172.857 3.96688 1.2627 0
M  V30 1823 H 173.39 3.95403 -0.436025 0
M  V30 1824 H 170.129 6.00956 -2.61787 0
M  V30 1825 H 169.649 5.929 -0.90718 0
M  V30 1826 H 171.328 6.32809 -1.34766 0
M  V30 1827 N 171.46 0.379036 1.52974 0
M  V30 1828 C 172.708 -0.206014 2.01047 0
M  V30 1829 C 173.029 -1.48175 1.26765 0
M  V30 1830 O 172.299 -1.92085 0.384743 0
M  V30 1831 H 170.879 -0.0791184 0.742798 0
M  V30 1832 H 173.541 0.508366 1.88153 0
M  V30 1833 H 172.637 -0.423501 3.09213 0
M  V30 1834 N 172.938 -1.57226 0.108567 0
M  V30 1835 C 173.848 -2.18292 -0.859401 0
M  V30 1836 C 174.864 -1.15612 -1.30038 0
M  V30 1837 O 176.04 -1.48039 -1.36552 0
M  V30 1838 C 173.105 -2.762 -2.09558 0
M  V30 1839 C 172.166 -3.93881 -1.70752 0
M  V30 1840 C 171.399 -4.49018 -2.88477 0
M  V30 1841 O 171.622 -4.03068 -4.036 0
M  V30 1842 O 170.556 -5.39852 -2.66164 0
M  V30 1843 H 174.382 -3.01441 -0.369769 0
M  V30 1844 H 171.967 -1.48945 -0.1165 0
M  V30 1845 H 173.849 -3.13156 -2.81978 0
M  V30 1846 H 172.524 -1.96089 -2.57548 0
M  V30 1847 H 171.431 -3.61713 -0.954714 0
M  V30 1848 H 172.764 -4.75396 -1.27513 0
M  V30 1849 N 174.416 0.165178 -1.56732 0
M  V30 1850 C 175.326 1.22423 -2.00125 0
M  V30 1851 C 176.342 1.48084 -0.913619 0
M  V30 1852 O 177.518 1.60112 -1.22172 0
M  V30 1853 C 174.583 2.54197 -2.35764 0
M  V30 1854 C 173.644 2.36343 -3.58386 0
M  V30 1855 C 172.877 3.61834 -3.92316 0
M  V30 1856 O 173.1 4.67267 -3.27135 0
M  V30 1857 O 172.034 3.55579 -4.85641 0
M  V30 1858 H 175.86 0.885886 -2.90492 0
M  V30 1859 H 173.445 0.372518 -1.44681 0
M  V30 1860 H 175.327 3.3192 -2.59629 0
M  V30 1861 H 174.002 2.87598 -1.48557 0
M  V30 1862 H 172.909 1.56632 -3.39731 0
M  V30 1863 H 174.242 2.07865 -4.46154 0
M  V30 1864 N 175.894 1.51508 0.433938 0
M  V30 1865 C 177.122 1.68157 1.20543 0
M  V30 1866 C 177.537 0.380362 1.84929 0
M  V30 1867 O 176.894 -0.641446 1.70856 0
M  V30 1868 C 176.945 2.79965 2.28696 0
M  V30 1869 O 176.666 4.05045 1.66943 0
M  V30 1870 C 178.167 3.07912 3.18912 0
M  V30 1871 H 175.387 0.56421 0.363191 0
M  V30 1872 H 177.931 1.97941 0.513754 0
M  V30 1873 H 176.086 2.5277 2.93574 0
M  V30 1874 H 176.5 4.67165 2.38448 0
M  V30 1875 H 177.974 3.89719 3.90926 0
M  V30 1876 H 178.451 2.20456 3.79863 0
M  V30 1877 H 179.057 3.36779 2.59731 0
M  V30 1878 N 177.372 -0.689602 1.41712 0
M  V30 1879 C 178.319 -1.80345 1.44029 0
M  V30 1880 C 179.289 -1.63478 0.293948 0
M  V30 1881 O 180.474 -1.84244 0.495869 0
M  V30 1882 C 177.614 -3.18272 1.33405 0
M  V30 1883 C 176.727 -3.46529 2.57956 0
M  V30 1884 C 175.862 -4.74103 2.39582 0
M  V30 1885 C 174.901 -4.95347 3.5958 0
M  V30 1886 N 174.038 -6.14151 3.40239 0
M  V30 1887 H 178.878 -1.77698 2.39222 0
M  V30 1888 H 176.415 -0.867688 1.18784 0
M  V30 1889 H 178.373 -3.97956 1.25246 0
M  V30 1890 H 177.003 -3.2008 0.418164 0
M  V30 1891 H 176.055 -2.61207 2.76542 0
M  V30 1892 H 177.367 -3.58126 3.47199 0
M  V30 1893 H 176.521 -5.61853 2.28924 0
M  V30 1894 H 175.26 -4.64763 1.47805 0
M  V30 1895 H 174.265 -4.06044 3.70686 0
M  V30 1896 H 175.49 -5.06542 4.52318 0
M  V30 1897 H 173.436 -6.06013 2.51167 0
M  V30 1898 H 173.353 -6.26543 4.23061 0
M  V30 1899 H 174.621 -7.04619 3.33365 0
M  V30 1900 N 178.85 -1.27639 -0.924453 0
M  V30 1901 C 179.797 -1.10644 -2.0255 0
M  V30 1902 C 180.767 -0.00658438 -1.66099 0
M  V30 1903 O 181.952 -0.16952 -1.90045 0
M  V30 1904 C 179.092 -0.76309 -3.36557 0
M  V30 1905 C 178.205 -1.94091 -3.85944 0
M  V30 1906 C 177.34 -1.53914 -5.08413 0
M  V30 1907 C 176.379 -2.68425 -5.50104 0
M  V30 1908 N 175.516 -2.28815 -6.63768 0
M  V30 1909 H 180.356 -2.04858 -2.16419 0
M  V30 1910 H 177.893 -1.01974 -1.06017 0
M  V30 1911 H 179.851 -0.544822 -4.13627 0
M  V30 1912 H 178.481 0.142102 -3.22487 0
M  V30 1913 H 177.533 -2.27162 -3.05125 0
M  V30 1914 H 178.845 -2.7998 -4.12811 0
M  V30 1915 H 177.999 -1.28231 -5.92994 0
M  V30 1916 H 176.738 -0.651391 -4.8333 0
M  V30 1917 H 175.743 -2.94819 -4.64071 0
M  V30 1918 H 176.968 -3.57826 -5.7718 0
M  V30 1919 H 174.914 -1.42495 -6.40337 0
M  V30 1920 H 174.831 -3.08242 -6.90306 0
M  V30 1921 H 176.099 -2.06387 -7.51681 0
M  V30 1922 N 180.328 1.1314 -1.09713 0
M  V30 1923 C 181.276 2.20717 -0.733934 0
M  V30 1924 C 182.27 1.6729 0.266506 0
M  V30 1925 O 183.476 1.79547 0.127656 0
M  V30 1926 H 179.851 0.719292 -0.21937 0
M  V30 1927 H 181.822 2.48611 -1.6503 0
M  V30 1928 C 180.571 3.47265 -0.173849 0
M  V30 1929 H 179.894 3.88716 -0.934873 0
M  V30 1930 H 181.334 4.23979 0.0423126 0
M  V30 1931 C 179.793 3.18724 1.09164 0
M  V30 1932 O 180.323 3.37762 2.17439 0
M  V30 1933 N 178.529 2.72583 1.00732 0
M  V30 1934 H 178.076 2.57291 0.126121 0
M  V30 1935 H 178.034 2.53862 1.85476 0
M  V30 1936 N 181.806 0.884767 1.30421 0
M  V30 1937 C 182.769 0.356277 2.26414 0
M  V30 1938 C 183.769 -0.501124 1.52792 0
M  V30 1939 O 184.959 -0.30831 1.7145 0
M  V30 1940 C 182.091 -0.492316 3.37326 0
M  V30 1941 H 183.284 1.20389 2.74675 0
M  V30 1942 H 180.837 0.661607 1.41607 0
M  V30 1943 H 181.572 -1.36052 2.94381 0
M  V30 1944 H 181.357 0.121832 3.91911 0
M  V30 1945 H 182.847 -0.853871 4.08777 0
M  V30 1946 N 183.284 -1.43765 0.645699 0
M  V30 1947 C 184.561 -1.9541 0.0862963 0
M  V30 1948 C 184.941 -1.58725 -1.39175 0
M  V30 1949 O 184.289 -0.868581 -2.11348 0
M  V30 1950 C 184.499 -3.47488 0.324565 0
M  V30 1951 C 185.847 -4.24001 0.225497 0
M  V30 1952 O 186.871 -3.55274 0.256715 0
M  V30 1953 O 185.73 -5.46313 0.142801 0
M  V30 1954 H 182.824 -0.826882 -0.0139483 0
M  V30 1955 H 185.37 -1.53743 0.718415 0
M  V30 1956 H 184.142 -3.67289 1.3496 0
M  V30 1957 H 183.765 -3.96135 -0.340987 0
M  V30 1958 N 184.763 -0.387143 -1.52771 0
M  V30 1959 C 186.011 0.195349 -2.01154 0
M  V30 1960 C 186.332 1.475 -1.27549 0
M  V30 1961 O 185.602 1.91878 -0.394924 0
M  V30 1962 H 184.182 0.075178 -0.743207 0
M  V30 1963 H 186.844 -0.518337 -1.87881 0
M  V30 1964 H 185.94 0.407096 -3.09434 0
M  V30 1965 N 186.241 1.57166 -0.116904 0
M  V30 1966 C 187.469 1.99473 0.549383 0
M  V30 1967 C 187.884 0.996541 1.60357 0
M  V30 1968 O 187.241 -0.0108731 1.82497 0
M  V30 1969 C 187.292 3.41788 1.17741 0
M  V30 1970 O 187.013 4.37788 0.165362 0
M  V30 1971 C 188.514 3.99216 1.92722 0
M  V30 1972 H 185.734 0.655009 0.145616 0
M  V30 1973 H 188.278 2.03494 -0.202625 0
M  V30 1974 H 186.433 3.38713 1.88021 0
M  V30 1975 H 186.847 5.20806 0.621403 0
M  V30 1976 H 188.321 5.00882 2.31995 0
M  V30 1977 H 188.798 3.3824 2.80161 0
M  V30 1978 H 189.404 4.0583 1.27209 0
M  V30 1979 N 187.719 -0.156864 1.56817 0
M  V30 1980 C 188.965 -0.872416 1.83076 0
M  V30 1981 C 189.298 -1.81261 0.697001 0
M  V30 1982 O 188.573 -1.92171 -0.30008 0
M  V30 1983 C 188.856 -1.65551 3.19789 0
M  V30 1984 C 188.709 -0.737467 4.43713 0
M  V30 1985 C 190.028 -2.62012 3.53606 0
M  V30 1986 H 187.147 -0.315715 0.665953 0
M  V30 1987 H 189.789 -0.138004 1.89498 0
M  V30 1988 H 187.939 -2.28159 3.14445 0
M  V30 1989 H 189.611 -0.123143 4.61136 0
M  V30 1990 H 187.854 -0.0464067 4.33775 0
M  V30 1991 H 188.525 -1.32122 5.35955 0
M  V30 1992 H 191.001 -2.09525 3.59497 0
M  V30 1993 H 189.877 -3.13861 4.50314 0
M  V30 1994 H 190.138 -3.42902 2.79053 0
M  V30 1995 N 189.197 -1.51736 -0.425897 0
M  V30 1996 C 190.422 -1.69082 -1.20108 0
M  V30 1997 C 190.847 -0.392398 -1.83962 0
M  V30 1998 O 190.205 0.64858 -1.69302 0
M  V30 1999 C 190.253 -2.81604 -2.25237 0
M  V30 2000 O 189.357 -2.46004 -3.30992 0
M  V30 2001 H 188.698 -0.563408 -0.35138 0
M  V30 2002 H 191.228 -1.98358 -0.501512 0
M  V30 2003 H 191.238 -3.06025 -2.69838 0
M  V30 2004 H 189.913 -3.75817 -1.78142 0
M  V30 2005 H 188.49 -2.32195 -2.91787 0
M  V30 2006 N 190.675 0.682077 -1.42076 0
M  V30 2007 C 191.622 1.79578 -1.44984 0
M  V30 2008 C 192.592 1.6332 -0.302614 0
M  V30 2009 O 193.777 1.83978 -0.505633 0
M  V30 2010 C 190.917 3.1756 -1.35091 0
M  V30 2011 C 190.03 3.45156 -2.59791 0
M  V30 2012 C 189.165 4.72826 -2.42093 0
M  V30 2013 C 188.204 4.93433 -3.62202 0
M  V30 2014 N 187.341 6.12338 -3.43491 0
M  V30 2015 H 192.181 1.76427 -2.40161 0
M  V30 2016 H 189.718 0.861376 -1.19242 0
M  V30 2017 H 191.676 3.97287 -1.27354 0
M  V30 2018 H 190.306 3.19854 -0.435133 0
M  V30 2019 H 189.358 2.59736 -2.77923 0
M  V30 2020 H 190.67 3.5628 -3.49094 0
M  V30 2021 H 189.824 5.60631 -2.319 0
M  V30 2022 H 188.563 4.63973 -1.50268 0
M  V30 2023 H 187.568 4.04073 -3.72834 0
M  V30 2024 H 188.793 5.04136 -4.54998 0
M  V30 2025 H 186.739 6.04672 -2.54377 0
M  V30 2026 H 186.656 6.2429 -4.26377 0
M  V30 2027 H 187.924 7.02841 -3.37097 0
M  V30 2028 N 192.153 1.28127 0.917671 0
M  V30 2029 C 193.378 1.18007 1.70555 0
M  V30 2030 C 193.803 -0.258257 1.86319 0
M  V30 2031 O 193.161 -1.1869 1.37049 0
M  V30 2032 C 193.209 1.87948 3.07746 0
M  V30 2033 O 192.313 1.18427 3.9503 0
M  V30 2034 H 191.654 0.409867 0.522403 0
M  V30 2035 H 194.184 1.69379 1.1477 0
M  V30 2036 H 194.194 1.95701 3.58001 0
M  V30 2037 H 192.869 2.92573 2.95591 0
M  V30 2038 H 191.446 1.18811 3.53466 0
M  V30 2039 N 193.631 -1.12557 1.10312 0
M  V30 2040 C 194.878 -1.84038 0.844759 0
M  V30 2041 C 195.206 -1.84026 -0.629668 0
M  V30 2042 O 194.461 -1.28026 -1.48013 0
M  V30 2043 C 194.76 -3.31462 1.33669 0
M  V30 2044 C 194.426 -3.51647 2.82232 0
M  V30 2045 C 193.088 -3.56864 3.22802 0
M  V30 2046 C 195.44 -3.58867 3.77974 0
M  V30 2047 C 192.768 -3.66844 4.57867 0
M  V30 2048 C 195.12 -3.70375 5.1284 0
M  V30 2049 C 193.784 -3.73848 5.52986 0
M  V30 2050 H 193.054 -0.673444 0.309119 0
M  V30 2051 H 195.701 -1.32824 1.37949 0
M  V30 2052 H 194.006 -3.85091 0.721949 0
M  V30 2053 H 195.703 -3.85236 1.11329 0
M  V30 2054 H 192.293 -3.48249 2.49842 0
M  V30 2055 H 196.477 -3.54107 3.47738 0
M  V30 2056 H 191.733 -3.67804 4.88396 0
M  V30 2057 H 195.907 -3.74904 5.86873 0
M  V30 2058 H 193.534 -3.81333 6.57639 0
M  V30 2059 N 195.109 -0.891671 -1.2995 0
M  V30 2060 C 196.358 -0.509521 -1.95158 0
M  V30 2061 C 196.671 0.947388 -1.71125 0
M  V30 2062 O 197.877 1.43669 -2.30372 0
M  V30 2063 C 196.333 -0.860315 -3.49466 0
M  V30 2064 C 195.941 -2.33545 -3.8231 0
M  V30 2065 C 197.685 -0.547687 -4.20952 0
M  V30 2066 C 195.592 -2.62752 -5.29826 0
M  V30 2067 H 194.522 -0.18682 -0.730489 0
M  V30 2068 H 197.173 -1.08756 -1.47798 0
M  V30 2069 H 195.555 -0.211285 -3.95436 0
M  V30 2070 H 196.729 -3.02936 -3.47227 0
M  V30 2071 H 195.044 -2.61629 -3.23944 0
M  V30 2072 H 197.641 -0.742854 -5.29515 0
M  V30 2073 H 197.984 0.51332 -4.13123 0
M  V30 2074 H 198.517 -1.1542 -3.80688 0
M  V30 2075 H 195.256 -3.6762 -5.42712 0
M  V30 2076 H 194.776 -1.97977 -5.66185 0
M  V30 2077 H 196.455 -2.48601 -5.97333 0
M  V30 2078 N 196.587 1.43421 -0.653314 0
M  V30 2079 C 197.497 2.34568 0.0388565 0
M  V30 2080 C 198.513 1.53888 0.81207 0
M  V30 2081 O 199.689 1.86539 0.759294 0
M  V30 2082 C 196.754 3.32167 0.993269 0
M  V30 2083 C 195.815 4.28751 0.216977 0
M  V30 2084 C 195.048 5.21688 1.12593 0
M  V30 2085 O 195.271 5.19052 2.36519 0
M  V30 2086 O 194.205 5.98919 0.598284 0
M  V30 2087 H 198.031 2.95251 -0.711386 0
M  V30 2088 H 195.616 1.43564 -0.413502 0
M  V30 2089 H 197.498 3.92183 1.54176 0
M  V30 2090 H 196.173 2.73987 1.72374 0
M  V30 2091 H 195.08 3.72215 -0.375101 0
M  V30 2092 H 196.413 4.89913 -0.473924 0
M  V30 2093 N 198.065 0.39524 1.52563 0
M  V30 2094 C 199.293 -0.184943 2.06072 0
M  V30 2095 C 199.708 -1.40021 1.26647 0
M  V30 2096 O 199.065 -1.79767 0.314672 0
M  V30 2097 C 199.116 -0.549179 3.57304 0
M  V30 2098 O 198.837 0.617813 4.33722 0
M  V30 2099 C 200.338 -1.18459 4.2718 0
M  V30 2100 H 197.558 -0.0265025 0.670476 0
M  V30 2101 H 200.102 0.562184 1.96621 0
M  V30 2102 H 198.257 -1.2462 3.66809 0
M  V30 2103 H 198.671 0.317091 5.23541 0
M  V30 2104 H 200.145 -1.38976 5.34219 0
M  V30 2105 H 200.622 -2.15368 3.82771 0
M  V30 2106 H 201.228 -0.528163 4.22008 0
M  V30 2107 N 199.544 -1.57102 0.125237 0
M  V30 2108 C 200.955 -1.82384 -0.399142 0
M  V30 2109 C 201.306 -1.04276 -1.66195 0
M  V30 2110 O 200.431 -0.281269 -2.14564 0
M  V30 2111 C 201.026 -3.30821 -0.730932 0
M  V30 2112 C 199.585 -3.56762 -1.19992 0
M  V30 2113 C 198.732 -2.7649 -0.211792 0
M  V30 2114 H 201.683 -1.54786 0.350277 0
M  V30 2115 H 201.704 -3.4579 -1.58775 0
M  V30 2116 H 201.216 -3.87643 0.188345 0
M  V30 2117 H 199.317 -3.05305 -2.13588 0
M  V30 2118 H 199.43 -4.65317 -1.14093 0
M  V30 2119 H 197.794 -2.4489 -0.700085 0
M  V30 2120 H 198.577 -3.36073 0.700691 0
M  V30 2121 N 201.022 0.148545 -1.56898 0
M  V30 2122 C 202.268 0.857877 -1.84424 0
M  V30 2123 C 202.623 1.7886 -0.709006 0
M  V30 2124 O 201.916 1.89344 0.293139 0
M  V30 2125 C 202.11 1.67064 -3.1595 0
M  V30 2126 C 201.939 0.82011 -4.42159 0
M  V30 2127 C 200.709 0.486328 -5.02954 0
M  V30 2128 C 202.907 0.151155 -5.14078 0
M  V30 2129 N 200.889 -0.377956 -6.12735 0
M  V30 2130 C 202.26 -0.573333 -6.17343 0
M  V30 2131 C 204.315 0.0716685 -4.97848 0
M  V30 2132 C 203.018 -1.3698 -7.06137 0
M  V30 2133 C 205.044 -0.711532 -5.87104 0
M  V30 2134 C 204.406 -1.42431 -6.8985 0
M  V30 2135 H 200.505 0.291798 -0.725519 0
M  V30 2136 H 203.089 0.123347 -1.94309 0
M  V30 2137 H 201.26 2.37642 -3.07215 0
M  V30 2138 H 202.992 2.32302 -3.31388 0
M  V30 2139 H 199.747 0.821753 -4.66416 0
M  V30 2140 H 200.171 -0.801077 -6.72244 0
M  V30 2141 H 204.813 0.608381 -4.184 0
M  V30 2142 H 202.531 -1.91778 -7.85014 0
M  V30 2143 H 206.117 -0.775005 -5.76615 0
M  V30 2144 H 204.997 -2.02061 -7.57721 0
M  V30 2145 N 202.5 1.5196 0.417844 0
M  V30 2146 C 203.463 1.74065 1.49111 0
M  V30 2147 C 204.463 0.610537 1.48758 0
M  V30 2148 O 205.653 0.87832 1.50437 0
M  V30 2149 C 202.785 1.81502 2.88565 0
M  V30 2150 H 203.978 2.69869 1.30807 0
M  V30 2151 H 201.531 1.42244 0.647785 0
M  V30 2152 H 202.266 0.875813 3.1225 0
M  V30 2153 H 202.051 2.63651 2.90225 0
M  V30 2154 H 203.541 2.00376 3.66387 0
M  V30 2155 N 203.978 -0.674533 1.42435 0
M  V30 2156 C 205.224 -1.43671 1.43131 0
M  V30 2157 C 205.557 -1.94142 0.0476021 0
M  V30 2158 O 204.832 -1.70924 -0.928188 0
M  V30 2159 C 205.115 -2.63355 2.45594 0
M  V30 2160 C 204.968 -2.18514 3.93156 0
M  V30 2161 C 206.287 -3.65571 2.45043 0
M  V30 2162 H 203.406 -0.521077 0.521198 0
M  V30 2163 H 206.048 -0.766551 1.7385 0
M  V30 2164 H 204.198 -3.2053 2.19528 0
M  V30 2165 H 205.87 -1.66504 4.30202 0
M  V30 2166 H 204.113 -1.50086 4.07009 0
M  V30 2167 H 204.784 -3.04484 4.60428 0
M  V30 2168 H 207.26 -3.18113 2.68223 0
M  V30 2169 H 206.136 -4.46893 3.18713 0
M  V30 2170 H 206.397 -4.16716 1.47649 0
M  V30 2171 N 205.456 -1.28612 -0.910864 0
M  V30 2172 C 206.872 -1.06381 -1.18976 0
M  V30 2173 C 207.072 0.191998 -2.00583 0
M  V30 2174 O 206.128 0.892869 -2.36187 0
M  V30 2175 C 207.441 -2.31295 -1.92154 0
M  V30 2176 C 208.989 -2.36503 -2.05025 0
M  V30 2177 C 209.464 -3.61191 -2.81612 0
M  V30 2178 N 210.955 -3.61847 -2.89172 0
M  V30 2179 C 211.69 -4.55004 -3.4894 0
M  V30 2180 N 211.186 -5.58482 -4.09963 0
M  V30 2181 N 212.979 -4.42594 -3.46506 0
M  V30 2182 H 205.13 -2.09221 -0.366094 0
M  V30 2183 H 207.393 -0.921003 -0.224629 0
M  V30 2184 H 207.099 -3.228 -1.39618 0
M  V30 2185 H 206.973 -2.37934 -2.9269 0
M  V30 2186 H 209.36 -1.45494 -2.5674 0
M  V30 2187 H 209.441 -2.33857 -1.03657 0
M  V30 2188 H 209.085 -4.52545 -2.30576 0
M  V30 2189 H 209.015 -3.61092 -3.83302 0
M  V30 2190 H 211.506 -2.87022 -2.45819 0
M  V30 2191 H 211.819 -6.25704 -4.53557 0
M  V30 2192 H 210.164 -5.62305 -4.08459 0
M  V30 2193 H 213.355 -3.60953 -2.98045 0
M  V30 2194 H 213.528 -5.15381 -3.92793 0
M  V30 2195 N 206.934 1.1197 -1.10907 0
M  V30 2196 C 207.884 2.15946 -0.731538 0
M  V30 2197 C 208.868 1.58758 0.261699 0
M  V30 2198 O 210.06 1.76863 0.0696722 0
M  V30 2199 C 207.189 3.42877 -0.170299 0
M  V30 2200 C 206.275 4.07037 -1.19087 0
M  V30 2201 N 206.666 4.46135 -2.38322 0
M  V30 2202 C 204.964 4.33884 -1.03252 0
M  V30 2203 C 205.665 4.96331 -3.03366 0
M  V30 2204 N 204.641 4.9214 -2.30865 0
M  V30 2205 H 208.443 2.43947 -1.63912 0
M  V30 2206 H 205.957 1.28927 -0.987505 0
M  V30 2207 H 207.954 4.16732 0.118271 0
M  V30 2208 H 206.614 3.16343 0.731935 0
M  V30 2209 H 207.625 4.38345 -2.75815 0
M  V30 2210 H 204.302 4.17084 -0.186256 0
M  V30 2211 H 205.692 5.36257 -4.04818 0
M  V30 2212 N 208.412 0.89855 1.29475 0
M  V30 2213 C 209.375 0.380272 2.26023 0
M  V30 2214 C 210.375 -0.484891 1.53315 0
M  V30 2215 O 211.565 -0.290108 1.71767 0
M  V30 2216 C 208.697 -0.45651 3.3783 0
M  V30 2217 H 209.89 1.23295 2.73383 0
M  V30 2218 H 207.443 0.676589 1.40897 0
M  V30 2219 H 208.178 -1.32922 2.95808 0
M  V30 2220 H 207.963 0.163393 3.91759 0
M  V30 2221 H 209.453 -0.810466 4.0966 0
M  V30 2222 N 209.89 -1.43072 0.660911 0
M  V30 2223 C 211.136 -2.0202 0.177708 0
M  V30 2224 C 211.469 -1.52066 -1.20787 0
M  V30 2225 O 210.744 -0.716987 -1.80802 0
M  V30 2226 C 211.027 -3.59561 0.197019 0
M  V30 2227 C 210.88 -4.19727 1.61706 0
M  V30 2228 C 212.199 -4.37664 -0.462396 0
M  V30 2229 H 209.318 -0.734034 0.0660494 0
M  V30 2230 H 211.96 -1.70272 0.843058 0
M  V30 2231 H 210.11 -3.86739 -0.369527 0
M  V30 2232 H 211.782 -4.03553 2.23479 0
M  V30 2233 H 210.025 -3.76084 2.16201 0
M  V30 2234 H 210.696 -5.28834 1.58237 0
M  V30 2235 H 213.172 -4.16095 0.0197215 0
M  V30 2236 H 212.048 -5.47305 -0.418188 0
M  V30 2237 H 212.309 -4.14493 -1.53778 0
M  V30 2238 N 211.368 -0.403325 -1.52352 0
M  V30 2239 C 212.298 0.416205 -2.29761 0
M  V30 2240 C 213.279 1.05123 -1.33728 0
M  V30 2241 O 214.464 1.06134 -1.62632 0
M  V30 2242 C 211.594 1.53624 -3.11475 0
M  V30 2243 C 210.548 1.02653 -4.15507 0
M  V30 2244 C 209.874 2.23971 -4.85532 0
M  V30 2245 C 211.174 0.08463 -5.22231 0
M  V30 2246 H 212.868 -0.229701 -2.98518 0
M  V30 2247 H 210.414 -0.111913 -1.43564 0
M  V30 2248 H 212.367 2.1165 -3.64393 0
M  V30 2249 H 211.091 2.20994 -2.40477 0
M  V30 2250 H 209.75 0.46871 -3.63591 0
M  V30 2251 H 209.398 2.89883 -4.11068 0
M  V30 2252 H 209.098 1.90521 -5.55856 0
M  V30 2253 H 210.622 2.82614 -5.41259 0
M  V30 2254 H 212.036 0.573509 -5.70424 0
M  V30 2255 H 210.433 -0.160783 -5.99885 0
M  V30 2256 H 211.503 -0.86237 -4.7717 0
M  V30 2257 N 212.846 1.57033 -0.133567 0
M  V30 2258 C 213.778 2.13176 0.841944 0
M  V30 2259 C 214.791 1.07794 1.22001 0
M  V30 2260 O 215.98 1.35117 1.16643 0
M  V30 2261 C 213.08 2.62847 2.13926 0
M  V30 2262 C 212.253 3.92486 1.93064 0
M  V30 2263 C 211.312 4.27605 3.0666 0
M  V30 2264 O 210.338 4.96168 2.78937 0
M  V30 2265 N 211.54 3.861 4.33483 0
M  V30 2266 H 214.305 2.97503 0.362192 0
M  V30 2267 H 211.866 1.61821 0.05042 0
M  V30 2268 H 213.858 2.83363 2.88942 0
M  V30 2269 H 212.428 1.83319 2.53205 0
M  V30 2270 H 211.648 3.80732 1.02159 0
M  V30 2271 H 212.936 4.77225 1.76447 0
M  V30 2272 H 212.334 3.30828 4.58878 0
M  V30 2273 H 210.891 4.11694 5.05323 0
M  V30 2274 N 214.325 -0.140222 1.56975 0
M  V30 2275 C 215.255 -1.17456 2.01808 0
M  V30 2276 C 216.236 -1.44415 0.898794 0
M  V30 2277 O 217.421 -1.5522 1.16707 0
M  V30 2278 C 214.551 -2.50607 2.40444 0
M  V30 2279 C 213.505 -2.38155 3.55621 0
M  V30 2280 C 212.831 -3.76078 3.80091 0
M  V30 2281 C 214.131 -1.85991 4.88062 0
M  V30 2282 H 215.825 -0.801743 2.88466 0
M  V30 2283 H 213.371 -0.38422 1.38779 0
M  V30 2284 H 215.324 -3.23197 2.7041 0
M  V30 2285 H 214.048 -2.89737 1.50732 0
M  V30 2286 H 212.707 -1.68016 3.25832 0
M  V30 2287 H 212.355 -4.12656 2.87618 0
M  V30 2288 H 212.055 -3.68606 4.57606 0
M  V30 2289 H 213.579 -4.50206 4.12488 0
M  V30 2290 H 214.993 -2.4838 5.16701 0
M  V30 2291 H 213.39 -1.89393 5.6943 0
M  V30 2292 H 214.46 -0.816023 4.77984 0
M  V30 2293 N 215.803 -1.52179 -0.40978 0
M  V30 2294 C 217.031 -1.70054 -1.17853 0
M  V30 2295 C 217.446 -0.409735 -1.843 0
M  V30 2296 O 216.803 0.614183 -1.71855 0
M  V30 2297 C 216.854 -2.83568 -2.24213 0
M  V30 2298 O 216.575 -4.0765 -1.60478 0
M  V30 2299 C 218.076 -3.12947 -3.13973 0
M  V30 2300 H 215.296 -0.569917 -0.354169 0
M  V30 2301 H 217.84 -1.98734 -0.482198 0
M  V30 2302 H 215.995 -2.57409 -2.89516 0
M  V30 2303 H 216.409 -4.70899 -2.30986 0
M  V30 2304 H 217.883 -3.95889 -3.84677 0
M  V30 2305 H 218.36 -2.26472 -3.76307 0
M  V30 2306 H 218.966 -3.40868 -2.5434 0
M  V30 2307 N 217.281 0.66697 -1.42791 0
M  V30 2308 C 218.511 1.45294 -1.46878 0
M  V30 2309 C 218.919 1.89027 -0.0809861 0
M  V30 2310 O 218.262 1.59219 0.916246 0
M  V30 2311 C 218.324 2.72908 -2.34012 0
M  V30 2312 C 217.988 2.51203 -3.81767 0
M  V30 2313 C 218.985 2.15302 -4.73224 0
M  V30 2314 C 216.67 2.65954 -4.26115 0
M  V30 2315 C 218.664 1.94431 -6.07022 0
M  V30 2316 C 216.351 2.44699 -5.59969 0
M  V30 2317 C 217.349 2.08992 -6.5024 0
M  V30 2318 O 217.037 1.87948 -7.81621 0
M  V30 2319 H 216.769 0.453306 -0.501487 0
M  V30 2320 H 219.323 0.826232 -1.88049 0
M  V30 2321 H 217.553 3.38089 -1.87703 0
M  V30 2322 H 219.242 3.34816 -2.29462 0
M  V30 2323 H 220.008 2.03495 -4.40244 0
M  V30 2324 H 215.887 2.92724 -3.56137 0
M  V30 2325 H 219.431 1.66484 -6.77443 0
M  V30 2326 H 215.328 2.56105 -5.9252 0
M  V30 2327 H 216.096 2.02483 -7.93059 0
M  V30 2328 N 218.759 1.29093 0.90403 0
M  V30 2329 C 219.669 1.15727 2.0407 0
M  V30 2330 C 220.685 0.0815308 1.73809 0
M  V30 2331 O 221.861 0.292749 1.99261 0
M  V30 2332 C 218.926 0.830424 3.36608 0
M  V30 2333 C 217.987 1.98955 3.80415 0
M  V30 2334 C 217.22 1.6782 5.06628 0
M  V30 2335 O 217.443 0.597105 5.67266 0
M  V30 2336 O 216.377 2.52486 5.46383 0
M  V30 2337 H 220.203 2.11171 2.18267 0
M  V30 2338 H 217.788 1.08504 1.027 0
M  V30 2339 H 219.67 0.662521 4.16159 0
M  V30 2340 H 218.345 -0.0942678 3.23563 0
M  V30 2341 H 217.252 2.21267 3.01648 0
M  V30 2342 H 218.585 2.89529 3.98037 0
M  V30 2343 N 220.237 -1.11381 1.11499 0
M  V30 2344 C 221.467 -1.86663 0.885464 0
M  V30 2345 C 221.875 -1.80464 -0.568281 0
M  V30 2346 O 221.218 -1.18445 -1.40415 0
M  V30 2347 C 221.28 -3.36337 1.26956 0
M  V30 2348 C 220.944 -3.66304 2.73259 0
M  V30 2349 C 221.941 -3.63733 3.71476 0
M  V30 2350 C 219.626 -3.9529 3.09921 0
M  V30 2351 C 221.62 -3.89725 5.04374 0
M  V30 2352 C 219.307 -4.20941 4.43004 0
M  V30 2353 C 220.305 -4.18147 5.40039 0
M  V30 2354 O 219.993 -4.43153 6.70724 0
M  V30 2355 H 219.725 -0.597114 0.316908 0
M  V30 2356 H 222.279 -1.41782 1.48617 0
M  V30 2357 H 220.509 -3.81826 0.611999 0
M  V30 2358 H 222.198 -3.92986 1.01573 0
M  V30 2359 H 222.964 -3.41389 3.44498 0
M  V30 2360 H 218.843 -3.966 2.35009 0
M  V30 2361 H 222.387 -3.8746 5.80104 0
M  V30 2362 H 218.284 -4.42761 4.69716 0
M  V30 2363 H 219.052 -4.60717 6.76522 0
M  V30 2364 N 221.715 -0.905404 -1.28997 0
M  V30 2365 C 223.126 -0.581953 -1.77398 0
M  V30 2366 C 223.477 0.902552 -1.74208 0
M  V30 2367 O 222.602 1.70584 -1.33154 0
M  V30 2368 C 223.197 -1.04961 -3.22131 0
M  V30 2369 C 221.756 -0.777229 -3.68288 0
M  V30 2370 C 220.903 -1.22109 -2.48967 0
M  V30 2371 H 223.854 -1.08754 -1.15578 0
M  V30 2372 H 223.875 -0.387387 -3.78523 0
M  V30 2373 H 223.387 -2.13008 -3.24421 0
M  V30 2374 H 221.488 0.290383 -3.71467 0
M  V30 2375 H 221.601 -1.37911 -4.58822 0
M  V30 2376 H 219.965 -0.639971 -2.46529 0
M  V30 2377 H 220.748 -2.30972 -2.53982 0
M  V30 2378 N 223.193 1.4272 -0.668489 0
M  V30 2379 C 224.44 2.01624 -0.18814 0
M  V30 2380 C 224.768 1.5282 1.20317 0
M  V30 2381 O 224.023 0.718323 1.8204 0
M  V30 2382 C 224.322 3.57021 -0.164499 0
M  V30 2383 C 223.988 4.25232 -1.49962 0
M  V30 2384 C 222.65 4.4358 -1.8652 0
M  V30 2385 C 225.002 4.63727 -2.37921 0
M  V30 2386 C 222.33 4.97694 -3.10674 0
M  V30 2387 C 224.682 5.19218 -3.6138 0
M  V30 2388 C 223.346 5.3578 -3.98115 0
M  V30 2389 H 222.616 0.737795 -0.0688454 0
M  V30 2390 H 225.263 1.70991 -0.862225 0
M  V30 2391 H 223.568 3.87285 0.593079 0
M  V30 2392 H 225.265 4.00372 0.224271 0
M  V30 2393 H 221.855 4.11306 -1.20522 0
M  V30 2394 H 226.039 4.4923 -2.10964 0
M  V30 2395 H 221.295 5.08702 -3.39164 0
M  V30 2396 H 225.469 5.4799 -4.29743 0
M  V30 2397 H 223.096 5.77475 -4.94395 0
M  V30 2398 N 224.671 0.411399 1.52136 0
M  V30 2399 C 225.581 -0.419774 2.30814 0
M  V30 2400 C 226.597 -1.0515 1.38634 0
M  V30 2401 O 227.773 -1.05252 1.71709 0
M  V30 2402 C 224.838 -1.52019 3.11594 0
M  V30 2403 C 223.899 -0.91129 4.19516 0
M  V30 2404 C 223.132 -1.95927 4.96436 0
M  V30 2405 O 223.355 -3.17775 4.73683 0
M  V30 2406 O 222.289 -1.56423 5.81219 0
M  V30 2407 H 226.115 0.221805 3.02889 0
M  V30 2408 H 223.7 0.174547 1.48377 0
M  V30 2409 H 225.582 -2.15898 3.61892 0
M  V30 2410 H 224.257 -2.14633 2.42311 0
M  V30 2411 H 223.164 -0.235157 3.7336 0
M  V30 2412 H 224.497 -0.32904 4.91099 0
M  V30 2413 N 226.149 -1.5696 0.141893 0
M  V30 2414 C 227.081 -2.13619 -0.830627 0
M  V30 2415 C 228.094 -1.08439 -1.21428 0
M  V30 2416 O 229.283 -1.35734 -1.15925 0
M  V30 2417 C 226.383 -2.63978 -2.12529 0
M  V30 2418 C 225.556 -3.93504 -1.9098 0
M  V30 2419 C 224.615 -4.29225 -3.04388 0
M  V30 2420 O 223.641 -4.97641 -2.76302 0
M  V30 2421 N 224.843 -3.88393 -4.31429 0
M  V30 2422 H 227.608 -2.97691 -0.34641 0
M  V30 2423 H 225.169 -1.61846 -0.0418375 0
M  V30 2424 H 227.161 -2.84891 -2.87436 0
M  V30 2425 H 225.731 -1.84659 -2.52229 0
M  V30 2426 H 224.951 -3.81269 -1.00139 0
M  V30 2427 H 226.239 -4.78154 -1.73914 0
M  V30 2428 H 225.637 -3.33257 -4.57117 0
M  V30 2429 H 224.194 -4.14368 -5.03133 0
M  V30 2430 N 227.627 0.131896 -1.57047 0
M  V30 2431 C 228.559 1.1878 -1.9602 0
M  V30 2432 C 229.572 1.38363 -0.857875 0
M  V30 2433 O 230.761 1.37666 -1.13623 0
M  V30 2434 C 227.861 2.55008 -2.23213 0
M  V30 2435 C 227.034 2.56201 -3.54513 0
M  V30 2436 C 226.093 3.7408 -3.70069 0
M  V30 2437 O 225.119 3.58258 -4.42312 0
M  V30 2438 N 226.321 4.92137 -3.07866 0
M  V30 2439 H 229.086 0.85639 -2.87204 0
M  V30 2440 H 226.647 0.321309 -1.5868 0
M  V30 2441 H 228.639 3.32404 -2.30846 0
M  V30 2442 H 227.209 2.80382 -1.3822 0
M  V30 2443 H 226.429 1.64613 -3.58185 0
M  V30 2444 H 227.717 2.54043 -4.4084 0
M  V30 2445 H 227.115 5.07895 -2.49116 0
M  V30 2446 H 225.672 5.67254 -3.21039 0
M  V30 2447 N 229.106 1.52395 0.401703 0
M  V30 2448 C 230.016 1.7917 1.51444 0
M  V30 2449 C 231.032 0.677691 1.6026 0
M  V30 2450 O 232.208 0.963909 1.76835 0
M  V30 2451 C 229.273 1.94347 2.87107 0
M  V30 2452 C 228.334 3.18257 2.88116 0
M  V30 2453 C 227.567 3.32701 4.17308 0
M  V30 2454 O 227.79 2.52238 5.11598 0
M  V30 2455 O 226.724 4.25891 4.25324 0
M  V30 2456 H 230.55 2.73633 1.31752 0
M  V30 2457 H 228.135 1.3733 0.588296 0
M  V30 2458 H 230.017 2.06109 3.67555 0
M  V30 2459 H 228.692 1.03073 3.06851 0
M  V30 2460 H 227.599 3.11947 2.06494 0
M  V30 2461 H 228.932 4.09336 2.73322 0
M  V30 2462 N 230.584 -0.659388 1.43143 0
M  V30 2463 C 231.531 -1.77249 1.47822 0
M  V30 2464 C 232.501 -1.62818 0.328558 0
M  V30 2465 O 233.686 -1.83151 0.534838 0
M  V30 2466 C 230.826 -3.15371 1.40126 0
M  V30 2467 C 229.939 -3.4098 2.65249 0
M  V30 2468 C 229.074 -4.68915 2.49584 0
M  V30 2469 C 228.113 -4.87608 3.70006 0
M  V30 2470 N 227.25 -6.06796 3.53189 0
M  V30 2471 H 232.09 -1.72584 2.42938 0
M  V30 2472 H 229.627 -0.842297 1.20598 0
M  V30 2473 H 231.585 -3.9521 1.33659 0
M  V30 2474 H 230.215 -3.19121 0.485964 0
M  V30 2475 H 229.267 -2.55282 2.8202 0
M  V30 2476 H 230.579 -3.50681 3.54717 0
M  V30 2477 H 229.733 -5.56871 2.4079 0
M  V30 2478 H 228.472 -4.61524 1.5763 0
M  V30 2479 H 227.477 -3.9809 3.79215 0
M  V30 2480 H 228.702 -4.96834 4.62961 0
M  V30 2481 H 226.648 -6.00549 2.63965 0
M  V30 2482 H 226.565 -6.17428 4.36255 0
M  V30 2483 H 227.833 -6.9739 3.48236 0
M  V30 2484 N 232.062 -1.29571 -0.897171 0
M  V30 2485 C 233.025 -1.14913 -1.98312 0
M  V30 2486 C 234.025 -0.0838629 -1.60581 0
M  V30 2487 O 235.215 -0.331006 -1.71026 0
M  V30 2488 C 232.347 -0.757835 -3.3237 0
M  V30 2489 H 233.54 -2.11377 -2.12743 0
M  V30 2490 H 231.093 -1.12793 -1.08201 0
M  V30 2491 H 231.828 0.206837 -3.2364 0
M  V30 2492 H 231.613 -1.52755 -3.61121 0
M  V30 2493 H 233.103 -0.678408 -4.12053 0
M  V30 2494 N 233.54 1.10788 -1.12088 0
M  V30 2495 C 234.487 2.17025 -0.785407 0
M  V30 2496 C 235.457 1.64265 0.246191 0
M  V30 2497 O 236.642 1.90412 0.121584 0
M  V30 2498 C 233.782 3.44249 -0.242177 0
M  V30 2499 C 232.895 4.1098 -1.33115 0
M  V30 2500 C 232.03 5.25911 -0.747741 0
M  V30 2501 C 231.069 5.84538 -1.81609 0
M  V30 2502 N 230.206 6.90853 -1.25167 0
M  V30 2503 H 235.046 2.45066 -1.69548 0
M  V30 2504 H 232.583 1.20297 -0.846582 0
M  V30 2505 H 234.541 4.17101 0.0908026 0
M  V30 2506 H 233.171 3.16571 0.631072 0
M  V30 2507 H 232.223 3.36133 -1.78097 0
M  V30 2508 H 233.535 4.50601 -2.13917 0
M  V30 2509 H 232.689 6.056 -0.365216 0
M  V30 2510 H 231.428 4.87614 0.0915188 0
M  V30 2511 H 230.433 5.03522 -2.20785 0
M  V30 2512 H 231.658 6.249 -2.6585 0
M  V30 2513 H 229.604 6.54562 -0.434174 0
M  V30 2514 H 229.521 7.29166 -1.99633 0
M  V30 2515 H 230.789 7.7433 -0.896259 0
M  V30 2516 N 235.018 0.912232 1.28515 0
M  V30 2517 C 236.243 0.559774 1.99703 0
M  V30 2518 C 236.668 -0.851393 1.67729 0
M  V30 2519 O 236.026 -1.56875 0.908834 0
M  V30 2520 C 236.074 0.773874 3.52198 0
M  V30 2521 O 235.178 -0.167842 4.12058 0
M  V30 2522 H 234.519 0.21723 0.627461 0
M  V30 2523 H 237.049 1.22725 1.63706 0
M  V30 2524 H 237.059 0.683386 4.02236 0
M  V30 2525 H 235.734 1.80261 3.74805 0
M  V30 2526 H 234.311 -0.0287509 3.72889 0
M  V30 2527 N 236.496 -1.42363 0.676048 0
M  V30 2528 C 237.459 -2.29199 0.00766941 0
M  V30 2529 C 238.459 -1.43389 -0.727745 0
M  V30 2530 O 239.649 -1.64764 -0.56556 0
M  V30 2531 C 236.781 -3.2591 -0.999785 0
M  V30 2532 H 237.974 -2.89794 0.771988 0
M  V30 2533 H 235.527 -1.50024 0.438468 0
M  V30 2534 H 236.262 -2.70256 -1.79255 0
M  V30 2535 H 236.047 -3.89202 -0.475829 0
M  V30 2536 H 237.537 -3.91028 -1.46583 0
M  V30 2537 N 237.974 -0.419461 -1.51915 0
M  V30 2538 C 238.937 0.389116 -2.25873 0
M  V30 2539 C 239.937 0.964924 -1.28631 0
M  V30 2540 O 241.127 0.842179 -1.52489 0
M  V30 2541 C 238.259 1.54874 -3.03689 0
M  V30 2542 H 239.452 -0.258799 -2.98781 0
M  V30 2543 H 237.005 -0.172209 -1.55348 0
M  V30 2544 H 237.74 2.23323 -2.35154 0
M  V30 2545 H 237.525 1.14223 -3.75094 0
M  V30 2546 H 239.015 2.12046 -3.59759 0
M  V30 2547 N 239.452 1.56882 -0.150215 0
M  V30 2548 C 240.729 1.87844 0.545327 0
M  V30 2549 C 241.109 1.0567 1.82749 0
M  V30 2550 O 240.457 0.144442 2.28043 0
M  V30 2551 C 240.667 3.39526 0.80767 0
M  V30 2552 C 242.015 4.08814 1.14703 0
M  V30 2553 O 243.039 3.44723 0.896917 0
M  V30 2554 O 241.898 5.22004 1.61784 0
M  V30 2555 H 238.992 0.778677 0.278553 0
M  V30 2556 H 241.538 1.68666 -0.187068 0
M  V30 2557 H 240.31 3.91173 -0.0996096 0
M  V30 2558 H 239.933 3.64243 1.59413 0
M  V30 2559 N 240.93 -0.123565 1.57115 0
M  V30 2560 C 241.877 -1.15177 2.00007 0
M  V30 2561 C 242.847 -1.41403 0.871454 0
M  V30 2562 O 244.032 -1.53346 1.13533 0
M  V30 2563 C 241.172 -2.47436 2.40561 0
M  V30 2564 C 240.285 -2.28184 3.66819 0
M  V30 2565 C 239.42 -3.53641 3.96373 0
M  V30 2566 C 238.459 -3.29528 5.15827 0
M  V30 2567 N 237.596 -4.47175 5.41275 0
M  V30 2568 H 242.436 -0.779008 2.87638 0
M  V30 2569 H 239.973 -0.373166 1.42288 0
M  V30 2570 H 241.931 -3.24584 2.62109 0
M  V30 2571 H 240.561 -2.82614 1.55978 0
M  V30 2572 H 239.613 -1.41976 3.52912 0
M  V30 2573 H 240.925 -2.0634 4.5412 0
M  V30 2574 H 240.079 -4.39209 4.18545 0
M  V30 2575 H 238.818 -3.78512 3.07538 0
M  V30 2576 H 237.823 -2.42349 4.93505 0
M  V30 2577 H 239.048 -3.06031 6.06236 0
M  V30 2578 H 236.994 -4.72175 4.55397 0
M  V30 2579 H 236.911 -4.28419 6.22891 0
M  V30 2580 H 238.179 -5.3389 5.67963 0
M  V30 2581 N 242.408 -1.52605 -0.393616 0
M  V30 2582 C 243.355 -1.77055 -1.48054 0
M  V30 2583 C 244.325 -0.61358 -1.54352 0
M  V30 2584 O 245.51 -0.852806 -1.70681 0
M  V30 2585 C 242.65 -1.94108 -2.85335 0
M  V30 2586 C 241.763 -3.21792 -2.88226 0
M  V30 2587 C 240.898 -3.29188 -4.16904 0
M  V30 2588 C 239.937 -4.51013 -4.13828 0
M  V30 2589 N 239.074 -4.55716 -5.34105 0
M  V30 2590 H 243.914 -2.69815 -1.26506 0
M  V30 2591 H 241.451 -1.33683 -0.61379 0
M  V30 2592 H 243.409 -2.01979 -3.65049 0
M  V30 2593 H 242.039 -1.04713 -3.05344 0
M  V30 2594 H 241.091 -3.23015 -2.00911 0
M  V30 2595 H 242.403 -4.11557 -2.8182 0
M  V30 2596 H 241.557 -3.36216 -5.05018 0
M  V30 2597 H 240.296 -2.37389 -4.26026 0
M  V30 2598 H 239.301 -4.44115 -3.24102 0
M  V30 2599 H 240.526 -5.44123 -4.06333 0
M  V30 2600 H 238.472 -3.66807 -5.43865 0
M  V30 2601 H 238.389 -5.39346 -5.29756 0
M  V30 2602 H 239.657 -4.66993 -6.2413 0
M  V30 2603 N 243.887 0.651787 -1.4349 0
M  V30 2604 C 245.303 0.96762 -1.26922 0
M  V30 2605 C 245.503 2.00602 -0.189982 0
M  V30 2606 O 244.559 2.48793 0.431107 0
M  V30 2607 C 245.872 1.45052 -2.63401 0
M  V30 2608 C 247.42 1.5671 -2.70945 0
M  V30 2609 C 247.895 2.0839 -4.07845 0
M  V30 2610 N 249.386 2.1569 -4.09917 0
M  V30 2611 C 250.121 2.56804 -5.12679 0
M  V30 2612 N 249.617 2.97203 -6.25813 0
M  V30 2613 N 251.41 2.56756 -5.00033 0
M  V30 2614 H 243.561 -0.0353158 -2.12371 0
M  V30 2615 H 245.824 0.0467858 -0.946845 0
M  V30 2616 H 245.53 0.761926 -3.43348 0
M  V30 2617 H 245.404 2.42529 -2.88894 0
M  V30 2618 H 247.791 2.2467 -1.9133 0
M  V30 2619 H 247.872 0.57662 -2.49216 0
M  V30 2620 H 247.516 1.41031 -4.87927 0
M  V30 2621 H 247.446 3.08271 -4.26938 0
M  V30 2622 H 249.937 1.87237 -3.28254 0
M  V30 2623 H 250.25 3.27328 -7.00055 0
M  V30 2624 H 248.595 2.95004 -6.29283 0
M  V30 2625 H 251.786 2.24572 -4.10713 0
M  V30 2626 H 251.959 2.88475 -5.80247 0
M  V30 2627 N 245.365 1.30045 0.890287 0
M  V30 2628 C 246.614 1.17929 1.63633 0
M  V30 2629 C 246.927 -0.266204 1.9378 0
M  V30 2630 O 248.133 -0.508804 2.6669 0
M  V30 2631 C 246.589 2.06317 2.94892 0
M  V30 2632 C 246.197 3.55745 2.72305 0
M  V30 2633 C 247.941 2.0295 3.72843 0
M  V30 2634 C 245.848 4.36205 3.99348 0
M  V30 2635 H 244.778 0.437782 0.613892 0
M  V30 2636 H 247.429 1.54754 0.986075 0
M  V30 2637 H 245.811 1.6237 3.61182 0
M  V30 2638 H 246.985 4.07805 2.1455 0
M  V30 2639 H 245.3 3.6088 2.07737 0
M  V30 2640 H 247.897 2.60319 4.67053 0
M  V30 2641 H 248.24 1.0117 4.0382 0
M  V30 2642 H 248.773 2.4499 3.13408 0
M  V30 2643 H 245.512 5.38659 3.73533 0
M  V30 2644 H 245.032 3.8891 4.56628 0
M  V30 2645 H 246.711 4.47362 4.67415 0
M  V30 2646 N 246.843 -1.10192 1.12674 0
M  V30 2647 C 248.071 -1.85983 0.906527 0
M  V30 2648 C 248.486 -1.80783 -0.544333 0
M  V30 2649 O 247.843 -1.19834 -1.37645 0
M  V30 2650 C 247.894 -3.34281 1.37618 0
M  V30 2651 O 247.615 -3.39401 2.77017 0
M  V30 2652 C 249.116 -4.26938 1.19325 0
M  V30 2653 H 246.336 -0.587716 0.323775 0
M  V30 2654 H 248.88 -1.39284 1.49734 0
M  V30 2655 H 247.035 -3.78436 0.828539 0
M  V30 2656 H 247.449 -4.31838 2.97684 0
M  V30 2657 H 248.923 -5.29181 1.57071 0
M  V30 2658 H 249.4 -4.38995 0.134097 0
M  V30 2659 H 250.006 -3.8859 1.72852 0
M  V30 2660 N 248.321 -0.919034 -1.28029 0
M  V30 2661 C 249.253 -0.368762 -2.26214 0
M  V30 2662 C 250.266 0.495716 -1.55069 0
M  V30 2663 O 251.455 0.30974 -1.75792 0
M  V30 2664 C 248.555 0.491049 -3.35324 0
M  V30 2665 C 247.728 -0.352133 -4.3598 0
M  V30 2666 C 246.787 0.443622 -5.24327 0
M  V30 2667 O 245.813 -0.14566 -5.69014 0
M  V30 2668 N 247.015 1.74545 -5.53637 0
M  V30 2669 H 249.78 -1.21273 -2.74068 0
M  V30 2670 H 247.341 -0.785541 -1.41566 0
M  V30 2671 H 249.333 1.03026 -3.91366 0
M  V30 2672 H 247.903 1.23574 -2.87138 0
M  V30 2673 H 247.123 -1.07269 -3.79324 0
M  V30 2674 H 248.411 -0.928883 -5.00249 0
M  V30 2675 H 247.809 2.24666 -5.19174 0
M  V30 2676 H 246.366 2.23138 -6.12416 0
M  V30 2677 N 249.799 1.42003 -0.683588 0
M  V30 2678 C 250.746 2.30798 -0.0107309 0
M  V30 2679 C 251.716 1.4645 0.783688 0
M  V30 2680 O 252.901 1.75263 0.754156 0
M  V30 2681 C 250.041 3.3238 0.928306 0
M  V30 2682 C 249.154 4.31814 0.126776 0
M  V30 2683 C 248.289 5.20468 1.06236 0
M  V30 2684 C 247.328 6.11577 0.253035 0
M  V30 2685 N 246.465 6.92754 1.14179 0
M  V30 2686 H 251.305 2.8778 -0.773727 0
M  V30 2687 H 248.842 1.41745 -0.393283 0
M  V30 2688 H 250.8 3.89813 1.48666 0
M  V30 2689 H 249.43 2.76976 1.65783 0
M  V30 2690 H 248.482 3.76427 -0.54833 0
M  V30 2691 H 249.794 4.96276 -0.501192 0
M  V30 2692 H 248.948 5.82677 1.69035 0
M  V30 2693 H 247.687 4.56204 1.7242 0
M  V30 2694 H 246.692 5.48428 -0.388108 0
M  V30 2695 H 247.917 6.77892 -0.404839 0
M  V30 2696 H 245.863 6.3111 1.78987 0
M  V30 2697 H 245.78 7.53855 0.569111 0
M  V30 2698 H 247.048 7.59441 1.75697 0
M  V30 2699 N 251.277 0.427512 1.51691 0
M  V30 2700 C 252.207 -0.3796 2.30394 0
M  V30 2701 C 253.188 -1.02982 1.35384 0
M  V30 2702 O 254.373 -1.03534 1.643 0
M  V30 2703 C 251.503 -1.48649 3.1388 0
M  V30 2704 C 250.457 -0.960294 4.17088 0
M  V30 2705 C 249.783 -2.16219 4.89033 0
M  V30 2706 C 251.083 -0.00153679 5.223 0
M  V30 2707 H 252.777 0.277164 2.98114 0
M  V30 2708 H 250.323 0.134739 1.43368 0
M  V30 2709 H 252.276 -2.05826 3.67714 0
M  V30 2710 H 251 -2.1714 2.43962 0
M  V30 2711 H 249.659 -0.410806 3.64291 0
M  V30 2712 H 249.307 -2.83307 4.15628 0
M  V30 2713 H 249.007 -1.81654 5.58816 0
M  V30 2714 H 250.531 -2.73968 5.45687 0
M  V30 2715 H 251.945 -0.482687 5.71264 0
M  V30 2716 H 250.342 0.256199 5.99553 0
M  V30 2717 H 251.412 0.938174 4.75738 0
M  V30 2718 N 252.755 -1.56801 0.158532 0
M  V30 2719 C 253.702 -2.17337 -0.776729 0
M  V30 2720 C 254.672 -1.1096 -1.23601 0
M  V30 2721 O 255.857 -1.39054 -1.30647 0
M  V30 2722 C 252.997 -2.80822 -2.00582 0
M  V30 2723 C 252.11 -4.01624 -1.59129 0
M  V30 2724 C 251.245 -4.53072 -2.77306 0
M  V30 2725 C 250.284 -5.66314 -2.32282 0
M  V30 2726 N 249.421 -6.12329 -3.43508 0
M  V30 2727 H 254.261 -2.96918 -0.253701 0
M  V30 2728 H 251.798 -1.46661 -0.113504 0
M  V30 2729 H 253.756 -3.15779 -2.72652 0
M  V30 2730 H 252.386 -2.03866 -2.50277 0
M  V30 2731 H 251.438 -3.72571 -0.767806 0
M  V30 2732 H 252.75 -4.83633 -1.2207 0
M  V30 2733 H 251.904 -4.90145 -3.57551 0
M  V30 2734 H 250.643 -3.70095 -3.17617 0
M  V30 2735 H 249.648 -5.28806 -1.5048 0
M  V30 2736 H 250.873 -6.51085 -1.93043 0
M  V30 2737 H 248.819 -5.32284 -3.83418 0
M  V30 2738 H 248.736 -6.89293 -3.105 0
M  V30 2739 H 250.004 -6.5405 -4.24075 0
M  V30 2740 N 254.233 0.115231 -1.57178 0
M  V30 2741 C 255.165 1.16694 -1.97269 0
M  V30 2742 C 256.178 1.37445 -0.872502 0
M  V30 2743 O 257.367 1.36454 -1.15077 0
M  V30 2744 C 254.467 2.52627 -2.25905 0
M  V30 2745 C 253.64 2.52427 -3.57211 0
M  V30 2746 C 252.699 3.70134 -3.74016 0
M  V30 2747 O 251.725 3.53546 -4.46087 0
M  V30 2748 N 252.927 4.88844 -3.13068 0
M  V30 2749 H 255.692 0.82588 -2.88096 0
M  V30 2750 H 253.253 0.304461 -1.59011 0
M  V30 2751 H 255.245 3.29937 -2.34359 0
M  V30 2752 H 253.815 2.789 -1.41186 0
M  V30 2753 H 253.035 1.60805 -3.5991 0
M  V30 2754 H 254.323 2.49353 -4.43509 0
M  V30 2755 H 253.721 5.05225 -2.54489 0
M  V30 2756 H 252.278 5.63817 -3.27037 0
M  V30 2757 N 255.711 1.52812 0.385517 0
M  V30 2758 C 256.939 1.71907 1.15133 0
M  V30 2759 C 257.354 0.439004 1.83625 0
M  V30 2760 O 256.711 -0.586765 1.7281 0
M  V30 2761 C 256.762 2.87099 2.19673 0
M  V30 2762 O 256.483 4.10151 1.53973 0
M  V30 2763 C 257.984 3.17902 3.08955 0
M  V30 2764 H 255.204 0.575479 0.345057 0
M  V30 2765 H 257.748 1.99476 0.45052 0
M  V30 2766 H 255.903 2.61982 2.85384 0
M  V30 2767 H 256.317 4.74514 2.23465 0
M  V30 2768 H 257.791 4.01959 3.7833 0
M  V30 2769 H 258.268 2.3243 3.72657 0
M  V30 2770 H 258.874 3.44871 2.48885 0
M  V30 2771 N 257.189 -0.644168 1.43834 0
M  V30 2772 C 258.152 -1.73857 1.49353 0
M  V30 2773 C 259.152 -1.56315 0.377112 0
M  V30 2774 O 260.342 -1.62048 0.639226 0
M  V30 2775 C 257.474 -3.12819 1.35488 0
M  V30 2776 H 258.667 -1.70342 2.46827 0
M  V30 2777 H 256.22 -0.856652 1.30733 0
M  V30 2778 H 256.955 -3.2194 0.390569 0
M  V30 2779 H 256.74 -3.26958 2.16428 0
M  V30 2780 H 258.23 -3.92606 1.42302 0
M  V30 2781 N 258.668 -1.30515 -0.883378 0
M  V30 2782 C 259.915 -1.1943 -1.63532 0
M  V30 2783 C 260.243 0.250627 -1.92878 0
M  V30 2784 O 259.498 1.19556 -1.54935 0
M  V30 2785 C 259.797 -1.96994 -2.98209 0
M  V30 2786 C 259.463 -3.466 -2.88408 0
M  V30 2787 C 258.125 -3.87397 -2.85442 0
M  V30 2788 C 260.477 -4.41863 -2.76418 0
M  V30 2789 C 257.805 -5.21745 -2.68327 0
M  V30 2790 C 260.157 -5.7632 -2.60841 0
M  V30 2791 C 258.821 -6.16354 -2.56251 0
M  V30 2792 H 258.091 -0.437025 -0.598406 0
M  V30 2793 H 260.738 -1.61635 -1.02696 0
M  V30 2794 H 259.043 -1.47429 -3.63004 0
M  V30 2795 H 260.74 -1.85808 -3.55354 0
M  V30 2796 H 257.33 -3.14182 -2.91527 0
M  V30 2797 H 261.514 -4.11285 -2.77775 0
M  V30 2798 H 256.77 -5.51853 -2.63189 0
M  V30 2799 H 260.944 -6.49772 -2.50538 0
M  V30 2800 H 258.571 -7.20401 -2.42748 0
M  V30 2801 N 260.146 1.09593 -1.13257 0
M  V30 2802 C 261.109 2.14359 -0.811358 0
M  V30 2803 C 262.109 1.59808 0.178377 0
M  V30 2804 O 263.299 1.74132 -0.0484911 0
M  V30 2805 C 260.431 3.40269 -0.207276 0
M  V30 2806 H 261.624 2.44284 -1.73969 0
M  V30 2807 H 259.177 1.25102 -0.936973 0
M  V30 2808 H 259.912 3.15969 0.73036 0
M  V30 2809 H 259.697 3.81154 -0.919992 0
M  V30 2810 H 261.187 4.176 0.000667944 0
M  V30 2811 N 261.624 0.925811 1.2754 0
M  V30 2812 C 262.872 0.564138 1.94067 0
M  V30 2813 C 263.193 -0.897188 1.73134 0
M  V30 2814 O 262.463 -1.63573 1.07799 0
M  V30 2815 H 261.043 0.205645 0.718136 0
M  V30 2816 H 263.705 1.1778 1.55287 0
M  V30 2817 H 262.801 0.76881 3.02483 0
M  V30 2818 N 263.102 -1.41638 0.69111 0
M  V30 2819 C 264.065 -2.29178 0.0319786 0
M  V30 2820 C 265.065 -1.44153 -0.712496 0
M  V30 2821 O 266.255 -1.65354 -0.548053 0
M  V30 2822 C 263.387 -3.26952 -0.965161 0
M  V30 2823 H 264.58 -2.88959 0.802681 0
M  V30 2824 H 262.133 -1.4955 0.454356 0
M  V30 2825 H 262.868 -2.72142 -1.76378 0
M  V30 2826 H 262.653 -3.89685 -0.434522 0
M  V30 2827 H 264.143 -3.92561 -1.42428 0
M  V30 2828 N 264.58 -0.43555 -1.51462 0
M  V30 2829 C 265.527 0.376797 -2.27703 0
M  V30 2830 C 266.497 1.01838 -1.31219 0
M  V30 2831 O 267.682 1.03762 -1.60119 0
M  V30 2832 C 264.822 1.47301 -3.12084 0
M  V30 2833 C 263.935 0.849744 -4.2356 0
M  V30 2834 C 263.07 1.92086 -4.95254 0
M  V30 2835 C 262.109 1.27593 -5.98654 0
M  V30 2836 N 261.246 2.28833 -6.63762 0
M  V30 2837 H 266.086 -0.279734 -2.96684 0
M  V30 2838 H 263.623 -0.149795 -1.46335 0
M  V30 2839 H 265.581 2.11984 -3.59331 0
M  V30 2840 H 264.211 2.0992 -2.45221 0
M  V30 2841 H 263.263 0.0912529 -3.80291 0
M  V30 2842 H 264.575 0.338878 -4.97648 0
M  V30 2843 H 263.729 2.64435 -5.46039 0
M  V30 2844 H 262.468 2.46545 -4.20793 0
M  V30 2845 H 261.473 0.537893 -5.47162 0
M  V30 2846 H 262.698 0.738693 -6.7507 0
M  V30 2847 H 260.644 2.82375 -5.92115 0
M  V30 2848 H 260.561 1.82632 -7.33608 0
M  V30 2849 H 261.829 3.00671 -7.19178 0
M  V30 2850 N 266.058 1.56714 -0.166846 0
M  V30 2851 C 267.006 2.19056 0.782123 0
M  V30 2852 C 268 1.15328 1.24079 0
M  V30 2853 O 269.206 1.33537 1.20697 0
M  V30 2854 H 265.581 0.70167 0.270486 0
M  V30 2855 H 267.552 2.97494 0.232322 0
M  V30 2856 C 266.301 2.84206 2.00306 0
M  V30 2857 H 265.624 3.63748 1.65914 0
M  V30 2858 H 267.064 3.31302 2.64604 0
M  V30 2859 C 265.523 1.83744 2.82382 0
M  V30 2860 O 266.053 1.32014 3.79388 0
M  V30 2861 N 264.259 1.52601 2.47308 0
M  V30 2862 H 263.806 1.9486 1.68485 0
M  V30 2863 H 263.764 0.856351 3.02513 0
M  V30 2864 N 267.536 -0.106894 1.57237 0
M  V30 2865 C 268.766 -0.825191 1.89405 0
M  V30 2866 C 269.174 -1.73374 0.757496 0
M  V30 2867 O 268.517 -1.81552 -0.280115 0
M  V30 2868 C 268.579 -1.70102 3.1671 0
M  V30 2869 C 268.243 -0.965523 4.46684 0
M  V30 2870 C 269.24 -0.300741 5.19029 0
M  V30 2871 C 266.925 -0.943105 4.93367 0
M  V30 2872 C 268.919 0.376622 6.36286 0
M  V30 2873 C 266.606 -0.261949 6.10538 0
M  V30 2874 C 267.604 0.396748 6.81847 0
M  V30 2875 O 267.292 1.06701 7.96787 0
M  V30 2876 H 267.024 -0.241852 0.631255 0
M  V30 2877 H 269.578 -0.0921491 2.05193 0
M  V30 2878 H 267.808 -2.47601 2.97036 0
M  V30 2879 H 269.497 -2.29483 3.34802 0
M  V30 2880 H 270.263 -0.309599 4.84011 0
M  V30 2881 H 266.142 -1.44524 4.3776 0
M  V30 2882 H 269.686 0.891334 6.91882 0
M  V30 2883 H 265.583 -0.250896 6.45012 0
M  V30 2884 H 266.351 0.972707 8.127 0
M  V30 2885 N 269.014 -1.53014 -0.377408 0
M  V30 2886 C 269.946 -1.74884 -1.48149 0
M  V30 2887 C 270.959 -0.629433 -1.5014 0
M  V30 2888 O 272.148 -0.905416 -1.53833 0
M  V30 2889 C 269.248 -1.80299 -2.86959 0
M  V30 2890 C 268.421 -3.09776 -3.08801 0
M  V30 2891 C 267.48 -3.06586 -4.27658 0
M  V30 2892 O 266.506 -3.80419 -4.23403 0
M  V30 2893 N 267.708 -2.26578 -5.34455 0
M  V30 2894 H 270.473 -2.70147 -1.29771 0
M  V30 2895 H 268.034 -1.51646 -0.56703 0
M  V30 2896 H 270.026 -1.75657 -3.64591 0
M  V30 2897 H 268.596 -0.92372 -2.98641 0
M  V30 2898 H 267.816 -3.27815 -2.18931 0
M  V30 2899 H 269.104 -3.95366 -3.20255 0
M  V30 2900 H 268.502 -1.66081 -5.40771 0
M  V30 2901 H 267.059 -2.27766 -6.10709 0
M  V30 2902 N 270.492 0.636531 -1.44174 0
M  V30 2903 C 271.722 1.42146 -1.49927 0
M  V30 2904 C 272.13 1.88812 -0.121063 0
M  V30 2905 O 271.473 1.61126 0.882267 0
M  V30 2906 C 271.535 2.67883 -2.39748 0
M  V30 2907 C 271.199 2.43048 -3.8701 0
M  V30 2908 C 272.196 2.05216 -4.77684 0
M  V30 2909 C 269.881 2.56856 -4.3166 0
M  V30 2910 C 271.875 1.81512 -6.11009 0
M  V30 2911 C 269.562 2.32766 -5.65034 0
M  V30 2912 C 270.56 1.95152 -6.54526 0
M  V30 2913 O 270.248 1.71326 -7.85431 0
M  V30 2914 H 269.98 0.442567 -0.51099 0
M  V30 2915 H 272.534 0.786158 -1.8976 0
M  V30 2916 H 270.764 3.34032 -1.94832 0
M  V30 2917 H 272.453 3.29874 -2.36513 0
M  V30 2918 H 273.219 1.94111 -4.44462 0
M  V30 2919 H 269.098 2.85104 -3.62266 0
M  V30 2920 H 272.642 1.52077 -6.80822 0
M  V30 2921 H 268.539 2.43479 -5.97819 0
M  V30 2922 H 269.307 1.85616 -7.97176 0
M  V30 2923 N 271.97 1.30982 0.876444 0
M  V30 2924 C 273.216 1.20474 1.63138 0
M  V30 2925 C 273.549 -0.238096 1.92735 0
M  V30 2926 O 272.824 -1.1692 1.55435 0
M  V30 2927 C 273.107 2.04244 2.96574 0
M  V30 2928 C 272.96 3.56793 2.73896 0
M  V30 2929 C 274.279 1.88684 3.97601 0
M  V30 2930 H 271.398 0.439001 0.591985 0
M  V30 2931 H 274.04 1.60704 1.01361 0
M  V30 2932 H 272.19 1.70063 3.493 0
M  V30 2933 H 273.862 4.01077 2.27892 0
M  V30 2934 H 272.105 3.80548 2.08245 0
M  V30 2935 H 272.776 4.10706 3.68815 0
M  V30 2936 H 275.252 2.18584 3.54062 0
M  V30 2937 H 274.128 2.4961 4.88862 0
M  V30 2938 H 274.389 0.848343 4.33884 0
M  V30 2939 N 273.449 -1.08991 1.13837 0
M  V30 2940 C 274.382 -2.15049 0.763477 0
M  V30 2941 C 275.36 -1.60629 -0.252398 0
M  V30 2942 O 276.544 -1.87958 -0.142853 0
M  V30 2943 C 273.671 -3.38441 0.132545 0
M  V30 2944 C 272.717 -4.11596 1.11763 0
M  V30 2945 S 273.55 -4.6521 2.65216 0
M  V30 2946 C 274.706 -5.91896 2.03495 0
M  V30 2947 H 274.939 -2.46518 1.66182 0
M  V30 2948 H 272.472 -1.21008 0.958976 0
M  V30 2949 H 274.43 -4.09883 -0.225074 0
M  V30 2950 H 273.091 -3.05182 -0.743135 0
M  V30 2951 H 272.284 -5.00121 0.624076 0
M  V30 2952 H 271.886 -3.46038 1.41894 0
M  V30 2953 H 274.178 -6.63156 1.38675 0
M  V30 2954 H 275.121 -6.45938 2.9012 0
M  V30 2955 H 275.529 -5.44625 1.48471 0
M  V30 2956 N 274.927 -0.932562 -1.27047 0
M  V30 2957 C 276.152 -0.591474 -1.98787 0
M  V30 2958 C 276.577 0.824601 -1.69062 0
M  V30 2959 O 275.935 1.5541 -0.933677 0
M  V30 2960 C 275.983 -0.829808 -3.50922 0
M  V30 2961 O 275.087 0.102266 -4.12273 0
M  V30 2962 H 274.428 -0.227185 -0.623926 0
M  V30 2963 H 276.958 -1.25314 -1.61733 0
M  V30 2964 H 276.968 -0.747292 -4.01098 0
M  V30 2965 H 275.643 -1.86201 -3.7189 0
M  V30 2966 H 274.22 -0.0305761 -3.72887 0
M  V30 2967 N 276.405 1.4127 -0.698611 0
M  V30 2968 C 277.315 2.34573 -0.0357891 0
M  V30 2969 C 278.331 1.56393 0.762701 0
M  V30 2970 O 279.507 1.8886 0.699564 0
M  V30 2971 C 276.572 3.35159 0.887089 0
M  V30 2972 C 275.633 4.29225 0.0804634 0
M  V30 2973 C 274.866 5.25006 0.959387 0
M  V30 2974 O 275.089 5.26314 2.19886 0
M  V30 2975 O 274.023 6.00519 0.407439 0
M  V30 2976 H 277.849 2.92838 -0.804957 0
M  V30 2977 H 275.434 1.42175 -0.458966 0
M  V30 2978 H 277.316 3.9689 1.41621 0
M  V30 2979 H 275.991 2.79333 1.6357 0
M  V30 2980 H 274.898 3.70833 -0.493328 0
M  V30 2981 H 276.231 4.88157 -0.629547 0
M  V30 2982 N 277.883 0.443576 1.51229 0
M  V30 2983 C 278.815 -0.400608 2.25672 0
M  V30 2984 C 279.828 -0.980945 1.29928 0
M  V30 2985 O 281.017 -0.874024 1.55638 0
M  V30 2986 C 278.117 -1.57304 3.00181 0
M  V30 2987 C 277.29 -1.11046 4.23069 0
M  V30 2988 C 276.349 -2.15374 4.80105 0
M  V30 2989 O 275.375 -1.74554 5.41774 0
M  V30 2990 N 276.577 -3.47922 4.64683 0
M  V30 2991 H 279.342 0.23745 2.98758 0
M  V30 2992 H 276.903 0.272809 1.59585 0
M  V30 2993 H 278.895 -2.26733 3.35223 0
M  V30 2994 H 277.465 -2.11632 2.30066 0
M  V30 2995 H 276.685 -0.243019 3.9345 0
M  V30 2996 H 277.973 -0.778888 5.02803 0
M  V30 2997 H 277.371 -3.83815 4.15575 0
M  V30 2998 H 275.928 -4.13228 5.0407 0
M  V30 2999 N 279.361 -1.56624 0.175154 0
M  V30 3000 C 280.772 -1.83561 -0.340916 0
M  V30 3001 C 281.123 -1.09511 -1.62794 0
M  V30 3002 O 280.248 -0.349389 -2.13561 0
M  V30 3003 C 280.843 -3.32979 -0.625313 0
M  V30 3004 C 279.402 -3.60399 -1.08581 0
M  V30 3005 C 278.549 -2.77024 -0.123722 0
M  V30 3006 H 281.5 -1.53593 0.399344 0
M  V30 3007 H 281.521 -3.50666 -1.47694 0
M  V30 3008 H 281.033 -3.86847 0.311575 0
M  V30 3009 H 279.134 -3.11945 -2.03767 0
M  V30 3010 H 279.247 -4.68711 -0.992317 0
M  V30 3011 H 277.611 -2.46993 -0.621821 0
M  V30 3012 H 278.394 -3.33674 0.807256 0
M  V30 3013 N 280.839 0.0985539 -1.57292 0
M  V30 3014 C 281.749 1.13824 -2.05137 0
M  V30 3015 C 282.765 1.44076 -0.975604 0
M  V30 3016 O 283.941 1.54786 -1.28853 0
M  V30 3017 C 281.006 2.43969 -2.46333 0
M  V30 3018 C 280.067 2.2093 -3.68087 0
M  V30 3019 C 279.3 3.44869 -4.0731 0
M  V30 3020 O 279.523 4.52972 -3.46659 0
M  V30 3021 O 278.457 3.34661 -5.00285 0
M  V30 3022 H 282.283 0.761881 -2.93988 0
M  V30 3023 H 279.868 0.310818 -1.46131 0
M  V30 3024 H 281.75 3.20609 -2.73473 0
M  V30 3025 H 280.425 2.81038 -1.60621 0
M  V30 3026 H 279.332 1.42081 -3.46069 0
M  V30 3027 H 280.665 1.88755 -4.54568 0
M  V30 3028 N 282.317 1.53212 0.369288 0
M  V30 3029 C 283.25 1.74166 1.4745 0
M  V30 3030 C 284.228 0.589923 1.51521 0
M  V30 3031 O 285.412 0.822078 1.69629 0
M  V30 3032 C 282.539 1.81711 2.8583 0
M  V30 3033 C 281.585 3.03649 2.99499 0
M  V30 3034 S 282.418 4.63242 2.6864 0
M  V30 3035 C 283.574 4.7363 4.09177 0
M  V30 3036 H 283.807 2.67636 1.29454 0
M  V30 3037 H 281.34 1.43754 0.563396 0
M  V30 3038 H 283.298 1.86743 3.65564 0
M  V30 3039 H 281.959 0.89299 3.01139 0
M  V30 3040 H 281.152 3.05526 4.00836 0
M  V30 3041 H 280.754 2.9671 2.27683 0
M  V30 3042 H 283.046 4.53456 5.03372 0
M  V30 3043 H 283.989 5.75682 4.12306 0
M  V30 3044 H 284.397 4.02295 3.96004 0
M  V30 3045 N 283.795 -0.628877 1.44509 0
M  V30 3046 C 285.211 -0.947305 1.28446 0
M  V30 3047 C 285.411 -2.00275 0.221872 0
M  V30 3048 O 284.467 -2.49447 -0.391471 0
M  V30 3049 C 285.78 -1.40843 2.65676 0
M  V30 3050 C 287.328 -1.52379 2.73404 0
M  V30 3051 C 287.803 -2.01875 4.11109 0
M  V30 3052 N 289.294 -2.09142 4.13296 0
M  V30 3053 C 290.029 -2.48615 5.16699 0
M  V30 3054 N 289.525 -2.87209 6.30462 0
M  V30 3055 N 291.318 -2.48768 5.04054 0
M  V30 3056 H 283.469 0.0690977 2.12288 0
M  V30 3057 H 285.732 -0.0317164 0.947469 0
M  V30 3058 H 285.438 -0.707206 3.44516 0
M  V30 3059 H 285.312 -2.37902 2.92716 0
M  V30 3060 H 287.699 -2.21598 1.9488 0
M  V30 3061 H 287.78 -0.536898 2.50102 0
M  V30 3062 H 287.424 -1.3325 4.90109 0
M  V30 3063 H 287.354 -3.0144 4.31789 0
M  V30 3064 H 289.845 -1.81991 3.31191 0
M  V30 3065 H 290.158 -3.16149 7.05174 0
M  V30 3066 H 288.503 -2.84955 6.33897 0
M  V30 3067 H 291.694 -2.18009 4.14234 0
M  V30 3068 H 291.867 -2.79207 5.84763 0
M  V30 3069 N 285.273 -1.31445 -0.869486 0
M  V30 3070 C 286.498 -1.24256 -1.66058 0
M  V30 3071 C 286.923 0.188928 -1.87149 0
M  V30 3072 O 286.281 1.13522 -1.4136 0
M  V30 3073 C 286.329 -1.9924 -3.00559 0
M  V30 3074 O 285.433 -1.33007 -3.90362 0
M  V30 3075 H 284.774 -0.428973 -0.506831 0
M  V30 3076 H 287.304 -1.73521 -1.08404 0
M  V30 3077 H 287.314 -2.08854 -3.50491 0
M  V30 3078 H 285.989 -3.03342 -2.84528 0
M  V30 3079 H 284.566 -1.31848 -3.48813 0
M  V30 3080 N 286.751 1.08385 -1.14413 0
M  V30 3081 C 288 1.80153 -0.907076 0
M  V30 3082 C 288.313 1.87176 0.567851 0
M  V30 3083 O 289.519 2.55359 0.922172 0
M  V30 3084 C 287.975 3.23687 -1.57336 0
M  V30 3085 C 287.583 3.24897 -3.08457 0
M  V30 3086 C 289.327 4.00136 -1.41744 0
M  V30 3087 C 287.234 4.6302 -3.67921 0
M  V30 3088 H 286.164 0.675139 -0.335714 0
M  V30 3089 H 288.815 1.21733 -1.37307 0
M  V30 3090 H 287.197 3.82234 -1.03505 0
M  V30 3091 H 288.371 2.76055 -3.68958 0
M  V30 3092 H 286.686 2.61943 -3.2369 0
M  V30 3093 H 289.283 5.02201 -1.83572 0
M  V30 3094 H 289.626 4.14709 -0.363576 0
M  V30 3095 H 290.159 3.48058 -1.92614 0
M  V30 3096 H 286.898 4.5365 -4.73161 0
M  V30 3097 H 286.418 5.12143 -3.12201 0
M  V30 3098 H 288.097 5.31994 -3.68227 0
M  V30 3099 N 288.23 0.939286 1.26551 0
M  V30 3100 C 289.162 0.404704 2.25599 0
M  V30 3101 C 290.175 -0.470983 1.55838 0
M  V30 3102 O 291.364 -0.281734 1.76263 0
M  V30 3103 C 288.464 -0.43764 3.36062 0
M  V30 3104 C 287.637 0.421449 4.35365 0
M  V30 3105 C 286.696 -0.36015 5.24966 0
M  V30 3106 O 285.722 0.236167 5.6871 0
M  V30 3107 N 286.924 -1.65715 5.56344 0
M  V30 3108 H 289.689 1.25618 2.72103 0
M  V30 3109 H 287.25 0.807963 1.40298 0
M  V30 3110 H 289.242 -0.967866 3.92956 0
M  V30 3111 H 287.812 -1.18991 2.89067 0
M  V30 3112 H 287.032 1.1329 3.7757 0
M  V30 3113 H 288.32 1.00835 4.98708 0
M  V30 3114 H 287.718 -2.16378 5.22682 0
M  V30 3115 H 286.275 -2.13366 6.15888 0
M  V30 3116 N 289.708 -1.40897 0.706093 0
M  V30 3117 C 291.119 -1.84023 0.315052 0
M  V30 3118 C 291.47 -1.5906 -1.14866 0
M  V30 3119 O 290.595 -1.06651 -1.88293 0
M  V30 3120 C 291.19 -3.34055 0.565038 0
M  V30 3121 C 289.749 -3.7571 0.227806 0
M  V30 3122 C 288.896 -2.64204 0.842122 0
M  V30 3123 H 291.847 -1.303 0.905963 0
M  V30 3124 H 291.868 -3.80107 -0.172843 0
M  V30 3125 H 291.38 -3.52192 1.63042 0
M  V30 3126 H 289.481 -3.63172 -0.832895 0
M  V30 3127 H 289.594 -4.74103 0.690174 0
M  V30 3128 H 287.958 -2.53255 0.270893 0
M  V30 3129 H 288.741 -2.85155 1.91158 0
M  V30 3130 N 291.186 -0.45159 -1.50991 0
M  V30 3131 C 292.432 0.110237 -2.025 0
M  V30 3132 C 292.765 1.41109 -1.33424 0
M  V30 3133 O 292.04 1.89135 -0.453659 0
M  V30 3134 C 292.323 0.314271 -3.58726 0
M  V30 3135 C 292.176 -1.00623 -4.38401 0
M  V30 3136 C 293.495 1.07767 -4.26702 0
M  V30 3137 H 290.614 0.0385897 -0.735989 0
M  V30 3138 H 293.256 -0.593374 -1.80497 0
M  V30 3139 H 291.406 0.913601 -3.77605 0
M  V30 3140 H 293.078 -1.64064 -4.31139 0
M  V30 3141 H 291.321 -1.6075 -4.02917 0
M  V30 3142 H 291.992 -0.817341 -5.45915 0
M  V30 3143 H 294.468 0.56986 -4.12179 0
M  V30 3144 H 293.344 1.18921 -5.35863 0
M  V30 3145 H 293.605 2.10939 -3.88532 0
M  V30 3146 N 292.664 1.56529 -0.183458 0
M  V30 3147 C 293.614 2.1515 0.754605 0
M  V30 3148 C 294.598 1.08904 1.18443 0
M  V30 3149 O 295.79 1.34997 1.14476 0
M  V30 3150 C 292.919 2.80531 1.97881 0
M  V30 3151 C 292.005 3.93952 1.57043 0
M  V30 3152 N 292.396 4.98221 0.87231 0
M  V30 3153 C 290.694 4.05338 1.86057 0
M  V30 3154 C 291.395 5.77836 0.669377 0
M  V30 3155 N 290.371 5.29858 1.21454 0
M  V30 3156 H 294.173 2.93132 0.212387 0
M  V30 3157 H 291.687 1.62391 0.0167725 0
M  V30 3158 H 293.684 3.20914 2.6612 0
M  V30 3159 H 292.344 2.04035 2.52586 0
M  V30 3160 H 293.355 5.15191 0.529033 0
M  V30 3161 H 290.032 3.39957 2.42354 0
M  V30 3162 H 291.422 6.71799 0.116422 0
M  V30 3163 N 294.142 -0.090211 1.57342 0
M  V30 3164 C 295.388 -0.793982 1.86611 0
M  V30 3165 C 295.721 -1.78142 0.773252 0
M  V30 3166 O 294.996 -1.93271 -0.218304 0
M  V30 3167 C 295.279 -1.51839 3.26523 0
M  V30 3168 C 295.132 -0.548609 4.46442 0
M  V30 3169 C 296.451 -2.46779 3.64401 0
M  V30 3170 H 293.57 -0.287186 0.678744 0
M  V30 3171 H 296.212 -0.0575076 1.89913 0
M  V30 3172 H 294.362 -2.14617 3.23839 0
M  V30 3173 H 296.034 0.0725513 4.61243 0
M  V30 3174 H 294.277 0.137614 4.33582 0
M  V30 3175 H 294.948 -1.09271 5.41076 0
M  V30 3176 H 297.424 -1.94089 3.68061 0
M  V30 3177 H 296.3 -2.94479 4.63221 0
M  V30 3178 H 296.561 -3.30758 2.93346 0
M  V30 3179 N 295.62 -1.53406 -0.361157 0
M  V30 3180 C 296.866 -1.70999 -1.1014 0
M  V30 3181 C 297.221 -0.458425 -1.86859 0
M  V30 3182 O 296.514 0.548654 -1.83577 0
M  V30 3183 C 296.708 -2.90211 -2.08596 0
M  V30 3184 C 296.537 -4.26841 -1.41553 0
M  V30 3185 C 295.307 -4.91621 -1.16778 0
M  V30 3186 C 297.505 -5.07212 -0.850915 0
M  V30 3187 N 295.487 -6.12164 -0.461312 0
M  V30 3188 C 296.858 -6.19394 -0.274046 0
M  V30 3189 C 298.913 -4.92218 -0.750036 0
M  V30 3190 C 297.616 -7.18221 0.393868 0
M  V30 3191 C 299.642 -5.91322 -0.095894 0
M  V30 3192 C 299.004 -7.0283 0.470081 0
M  V30 3193 H 295.103 -0.678939 -0.388028 0
M  V30 3194 H 297.687 -1.90811 -0.38722 0
M  V30 3195 H 295.858 -2.71931 -2.77323 0
M  V30 3196 H 297.59 -2.96606 -2.7533 0
M  V30 3197 H 294.345 -4.50849 -1.45024 0
M  V30 3198 H 294.769 -6.76888 -0.123312 0
M  V30 3199 H 299.411 -4.06192 -1.17337 0
M  V30 3200 H 297.129 -8.03835 0.82914 0
M  V30 3201 H 300.715 -5.81797 -0.0187075 0
M  V30 3202 H 299.595 -7.782 0.968241 0
M  V30 3203 N 297.098 0.621204 -1.44841 0
M  V30 3204 C 298.375 1.38 -1.38619 0
M  V30 3205 C 298.755 2.11041 -0.0498935 0
M  V30 3206 O 298.103 2.06992 0.967816 0
M  V30 3207 C 298.313 2.33817 -2.59096 0
M  V30 3208 C 299.661 2.96844 -3.03593 0
M  V30 3209 O 300.685 2.44141 -2.59371 0
M  V30 3210 O 299.544 3.92476 -3.80296 0
M  V30 3211 H 296.638 0.61811 -0.549426 0
M  V30 3212 H 299.184 0.645429 -1.56947 0
M  V30 3213 H 297.956 1.79012 -3.47952 0
M  V30 3214 H 297.579 3.14676 -2.43032 0
M  V30 3215 N 298.576 1.31904 0.862503 0
M  V30 3216 C 299.524 1.20125 1.9918 0
M  V30 3217 C 300.518 0.107824 1.69056 0
M  V30 3218 O 301.724 0.270223 1.7796 0
M  V30 3219 H 298.099 0.372148 0.65346 0
M  V30 3220 H 300.07 2.15652 2.06244 0
M  V30 3221 C 298.819 0.933099 3.34946 0
M  V30 3222 H 298.142 1.76664 3.5865 0
M  V30 3223 H 299.582 0.890892 4.14535 0
M  V30 3224 C 298.041 -0.364172 3.34926 0
M  V30 3225 O 298.571 -1.37858 3.77304 0
M  V30 3226 N 296.777 -0.383362 2.8806 0
M  V30 3227 H 296.324 0.442651 2.53768 0
M  V30 3228 H 296.282 -1.25123 2.8843 0
M  V30 3229 N 300.054 -1.07777 1.14986 0
M  V30 3230 C 301.284 -1.83752 0.944402 0
M  V30 3231 C 301.692 -1.8218 -0.51058 0
M  V30 3232 O 301.035 -1.22852 -1.36576 0
M  V30 3233 C 301.097 -3.32128 1.37592 0
M  V30 3234 C 300.761 -3.57425 2.84775 0
M  V30 3235 C 301.758 -3.5173 3.8286 0
M  V30 3236 C 299.443 -3.8523 3.2234 0
M  V30 3237 C 301.437 -3.73482 5.16517 0
M  V30 3238 C 299.124 -4.06634 4.56171 0
M  V30 3239 C 300.122 -4.00754 5.53069 0
M  V30 3240 O 299.81 -4.2159 6.84483 0
M  V30 3241 H 299.542 -0.58673 0.335744 0
M  V30 3242 H 302.096 -1.36982 1.53052 0
M  V30 3243 H 300.326 -3.79686 0.733165 0
M  V30 3244 H 302.015 -3.89555 1.14024 0
M  V30 3245 H 302.781 -3.30256 3.55184 0
M  V30 3246 H 298.66 -3.88923 2.47508 0
M  V30 3247 H 302.204 -3.68808 5.92137 0
M  V30 3248 H 298.101 -4.27593 4.83564 0
M  V30 3249 H 298.869 -4.38961 6.90837 0
M  V30 3250 N 301.532 -0.945985 -1.26051 0
M  V30 3251 C 302.948 -0.649045 -1.45807 0
M  V30 3252 C 303.148 0.796158 -1.85104 0
M  V30 3253 O 302.204 1.57233 -1.97571 0
M  V30 3254 C 303.517 -1.61458 -2.53677 0
M  V30 3255 C 305.065 -1.62481 -2.67524 0
M  V30 3256 C 305.54 -2.57776 -3.7857 0
M  V30 3257 N 307.031 -2.5609 -3.85969 0
M  V30 3258 C 307.766 -3.26508 -4.7136 0
M  V30 3259 N 307.262 -4.0637 -5.61102 0
M  V30 3260 N 309.055 -3.15437 -4.65248 0
M  V30 3261 H 301.206 -1.88005 -0.988328 0
M  V30 3262 H 303.469 -0.808198 -0.4955 0
M  V30 3263 H 303.175 -2.64644 -2.31638 0
M  V30 3264 H 303.049 -1.37036 -3.51427 0
M  V30 3265 H 305.436 -0.600167 -2.88933 0
M  V30 3266 H 305.517 -1.90958 -1.70202 0
M  V30 3267 H 305.161 -3.60361 -3.57913 0
M  V30 3268 H 305.091 -2.26587 -4.75359 0
M  V30 3269 H 307.582 -1.98105 -3.21812 0
M  V30 3270 H 307.895 -4.57042 -6.23164 0
M  V30 3271 H 306.24 -4.10469 -5.60839 0
M  V30 3272 H 309.431 -2.52525 -3.94143 0
M  V30 3273 H 309.604 -3.70584 -5.31575 0
M  V30 3274 N 303.011 1.40521 -0.713556 0
M  V30 3275 C 304.258 2.00923 -0.25219 0
M  V30 3276 C 304.586 1.56571 1.15395 0
M  V30 3277 O 303.841 0.775874 1.79663 0
M  V30 3278 C 304.14 3.56317 -0.278 0
M  V30 3279 C 303.806 4.20246 -1.63415 0
M  V30 3280 C 302.468 4.37422 -2.00538 0
M  V30 3281 C 304.82 4.55923 -2.52554 0
M  V30 3282 C 302.148 4.87558 -3.2635 0
M  V30 3283 C 304.5 5.07458 -3.77716 0
M  V30 3284 C 303.164 5.22843 -4.14959 0
M  V30 3285 H 302.434 0.735231 -0.0922829 0
M  V30 3286 H 305.081 1.68161 -0.916188 0
M  V30 3287 H 303.386 3.88976 0.469567 0
M  V30 3288 H 305.083 4.00883 0.0967819 0
M  V30 3289 H 301.673 4.07263 -1.33546 0
M  V30 3290 H 305.857 4.42291 -2.25149 0
M  V30 3291 H 301.113 4.97654 -3.55176 0
M  V30 3292 H 305.287 5.34041 -4.4696 0
M  V30 3293 H 302.914 5.61454 -5.12516 0
M  V30 3294 N 304.489 0.459591 1.5075 0
M  V30 3295 C 305.717 -0.0973749 2.06671 0
M  V30 3296 C 306.132 -1.34524 1.32472 0
M  V30 3297 O 305.489 -1.7827 0.390634 0
M  V30 3298 C 305.54 -0.39714 3.59312 0
M  V30 3299 O 305.261 0.801214 4.30711 0
M  V30 3300 C 306.762 -1.00234 4.31819 0
M  V30 3301 H 303.982 0.00195854 0.670997 0
M  V30 3302 H 306.526 0.645072 1.94059 0
M  V30 3303 H 304.681 -1.08951 3.71764 0
M  V30 3304 H 305.095 0.538857 5.21725 0
M  V30 3305 H 306.569 -1.16193 5.39632 0
M  V30 3306 H 307.046 -1.98939 3.91561 0
M  V30 3307 H 307.652 -0.348699 4.23868 0
M  V30 3308 N 305.967 -1.56429 0.191757 0
M  V30 3309 C 307.383 -1.58754 -0.164137 0
M  V30 3310 C 307.583 -1.20782 -1.61288 0
M  V30 3311 O 306.639 -0.928999 -2.34789 0
M  V30 3312 C 307.952 -3.00396 0.135195 0
M  V30 3313 C 309.5 -3.1291 0.0750351 0
M  V30 3314 C 309.975 -4.56679 0.347632 0
M  V30 3315 N 311.466 -4.62252 0.296131 0
M  V30 3316 C 312.201 -5.71379 0.480948 0
M  V30 3317 N 311.697 -6.88986 0.725933 0
M  V30 3318 N 313.49 -5.60563 0.415435 0
M  V30 3319 H 305.641 -1.79393 1.13718 0
M  V30 3320 H 307.904 -0.832414 0.453643 0
M  V30 3321 H 307.61 -3.32726 1.13958 0
M  V30 3322 H 307.484 -3.72963 -0.563773 0
M  V30 3323 H 309.871 -2.80394 -0.919948 0
M  V30 3324 H 309.952 -2.42736 0.807029 0
M  V30 3325 H 309.596 -4.89907 1.33992 0
M  V30 3326 H 309.526 -5.25039 -0.405212 0
M  V30 3327 H 312.017 -3.7773 0.113259 0
M  V30 3328 H 312.33 -7.68046 0.855857 0
M  V30 3329 H 310.675 -6.90801 0.762788 0
M  V30 3330 H 313.866 -4.67561 0.224486 0
M  V30 3331 H 314.039 -6.45551 0.562889 0
M  V30 3332 N 307.445 0.0818655 -1.57387 0
M  V30 3333 C 308.692 0.782914 -1.86753 0
M  V30 3334 C 309.02 1.78082 -0.782118 0
M  V30 3335 O 308.275 1.94426 0.22295 0
M  V30 3336 C 308.574 1.53513 -3.22752 0
M  V30 3337 C 308.24 0.678134 -4.45771 0
M  V30 3338 C 306.902 0.441929 -4.79166 0
M  V30 3339 C 309.254 0.0832243 -5.21134 0
M  V30 3340 C 306.582 -0.398833 -5.85343 0
M  V30 3341 C 308.934 -0.744935 -6.28199 0
M  V30 3342 C 307.598 -0.991107 -6.60101 0
M  V30 3343 H 306.868 0.286489 -0.683378 0
M  V30 3344 H 309.515 0.0439808 -1.91449 0
M  V30 3345 H 307.82 2.34599 -3.138 0
M  V30 3346 H 309.517 2.08218 -3.42705 0
M  V30 3347 H 306.107 0.872357 -4.19628 0
M  V30 3348 H 310.291 0.252847 -4.95655 0
M  V30 3349 H 305.547 -0.598405 -6.08465 0
M  V30 3350 H 309.721 -1.21271 -6.8576 0
M  V30 3351 H 307.348 -1.64437 -7.42202 0
M  V30 3352 N 308.923 1.53595 0.353017 0
M  V30 3353 C 309.833 1.83897 1.45667 0
M  V30 3354 C 310.849 0.728334 1.58023 0
M  V30 3355 O 312.025 1.01968 1.73679 0
M  V30 3356 C 309.09 2.03383 2.80778 0
M  V30 3357 C 308.151 3.27262 2.77845 0
M  V30 3358 C 307.384 3.45809 4.06512 0
M  V30 3359 O 307.607 2.68387 5.03314 0
M  V30 3360 O 306.541 4.39207 4.11559 0
M  V30 3361 H 310.367 2.77686 1.2298 0
M  V30 3362 H 307.952 1.39132 0.544308 0
M  V30 3363 H 309.834 2.17698 3.60812 0
M  V30 3364 H 308.509 1.12783 3.03417 0
M  V30 3365 H 307.416 3.18359 1.96465 0
M  V30 3366 H 308.749 4.17824 2.60161 0
M  V30 3367 N 310.401 -0.613514 1.45168 0
M  V30 3368 C 311.648 -1.37268 1.48875 0
M  V30 3369 C 311.976 -1.94077 0.128161 0
M  V30 3370 O 311.231 -1.75178 -0.872416 0
M  V30 3371 C 311.53 -2.54347 2.51083 0
M  V30 3372 C 311.196 -2.1572 3.95949 0
M  V30 3373 C 309.858 -2.04899 4.35396 0
M  V30 3374 C 312.21 -1.85485 4.87078 0
M  V30 3375 C 309.538 -1.62057 5.63875 0
M  V30 3376 C 311.89 -1.4413 6.15962 0
M  V30 3377 C 310.554 -1.31863 6.54346 0
M  V30 3378 H 309.824 -0.502299 0.544773 0
M  V30 3379 H 312.471 -0.694021 1.78481 0
M  V30 3380 H 310.776 -3.27524 2.15024 0
M  V30 3381 H 312.473 -3.12577 2.51191 0
M  V30 3382 H 309.063 -2.25066 3.64751 0
M  V30 3383 H 313.247 -1.92745 4.57343 0
M  V30 3384 H 308.503 -1.51177 5.92415 0
M  V30 3385 H 312.677 -1.19778 6.86022 0
M  V30 3386 H 310.304 -0.984392 7.538 0
M  V30 3387 N 311.879 -1.3236 -0.855495 0
M  V30 3388 C 313.29 -1.2056 -1.42556 0
M  V30 3389 C 313.641 0.182209 -1.95352 0
M  V30 3390 O 312.766 1.08088 -1.87472 0
M  V30 3391 C 313.361 -2.1826 -2.59129 0
M  V30 3392 C 311.92 -2.10351 -3.12137 0
M  V30 3393 C 311.067 -2.06674 -1.84882 0
M  V30 3394 H 314.018 -1.442 -0.662727 0
M  V30 3395 H 314.039 -1.78064 -3.36264 0
M  V30 3396 H 313.551 -3.19257 -2.20673 0
M  V30 3397 H 311.652 -1.12599 -3.55179 0
M  V30 3398 H 311.765 -3.00135 -3.73438 0
M  V30 3399 H 310.129 -1.51901 -2.04446 0
M  V30 3400 H 310.912 -3.09451 -1.48643 0
M  V30 3401 N 313.357 1.07166 -1.15556 0
M  V30 3402 C 314.32 2.12589 -0.856644 0
M  V30 3403 C 315.32 1.6015 0.14444 0
M  V30 3404 O 316.51 1.7399 -0.0854163 0
M  V30 3405 C 313.642 3.39753 -0.279405 0
M  V30 3406 H 314.835 2.40539 -1.79112 0
M  V30 3407 H 312.388 1.23086 -0.963298 0
M  V30 3408 H 313.123 3.17447 0.663174 0
M  V30 3409 H 312.908 3.79117 -1.00063 0
M  V30 3410 H 314.398 4.17507 -0.0879113 0
M  V30 3411 N 314.835 0.952656 1.25548 0
M  V30 3412 C 315.783 0.462354 2.27958 0
M  V30 3413 C 316.777 -0.46634 1.62855 0
M  V30 3414 O 317.983 -0.343287 1.76696 0
M  V30 3415 H 314.358 0.13101 0.7405 0
M  V30 3416 H 316.329 1.33839 2.66702 0
M  V30 3417 C 315.078 -0.24628 3.46827 0
M  V30 3418 H 314.401 0.459192 3.97154 0
M  V30 3419 H 315.841 -0.553393 4.20373 0
M  V30 3420 C 314.3 -1.4681 3.0323 0
M  V30 3421 O 314.83 -2.56591 3.09069 0
M  V30 3422 N 313.036 -1.32874 2.58443 0
M  V30 3423 H 312.583 -0.435536 2.53891 0
M  V30 3424 H 312.541 -2.14742 2.29637 0
M  V30 3425 N 316.313 -1.40141 0.720998 0
M  V30 3426 C 317.276 -2.29058 0.0805834 0
M  V30 3427 C 318.276 -1.45632 -0.681758 0
M  V30 3428 O 319.466 -1.6648 -0.512856 0
M  V30 3429 C 316.598 -3.28925 -0.895593 0
M  V30 3430 H 317.791 -2.87191 0.863793 0
M  V30 3431 H 315.344 -1.48553 0.485975 0
M  V30 3432 H 316.079 -2.75822 -1.70566 0
M  V30 3433 H 315.864 -3.90519 -0.351766 0
M  V30 3434 H 317.354 -3.95494 -1.34069 0
M  V30 3435 N 317.792 -0.46758 -1.50504 0
M  V30 3436 C 318.702 0.33382 -2.32213 0
M  V30 3437 C 319.718 0.999323 -1.42441 0
M  V30 3438 O 320.894 0.988068 -1.75497 0
M  V30 3439 C 317.959 1.4035 -3.17022 0
M  V30 3440 C 317.02 0.754961 -4.2261 0
M  V30 3441 C 316.253 1.77367 -5.03365 0
M  V30 3442 O 316.476 2.99976 -4.8515 0
M  V30 3443 O 315.41 1.34744 -5.86624 0
M  V30 3444 H 319.236 -0.334067 -3.01857 0
M  V30 3445 H 316.821 -0.229496 -1.47627 0
M  V30 3446 H 318.703 2.02318 -3.69656 0
M  V30 3447 H 317.378 2.05492 -2.5011 0
M  V30 3448 H 316.285 0.0964244 -3.73976 0
M  V30 3449 H 317.618 0.146545 -4.91982 0
M  V30 3450 N 319.27 1.56325 -0.20005 0
M  V30 3451 C 320.2 2.22318 0.713916 0
M  V30 3452 C 321.181 1.18788 1.21752 0
M  V30 3453 O 322.366 1.47309 1.26545 0
M  V30 3454 C 319.496 2.88639 1.93144 0
M  V30 3455 C 318.45 3.98457 1.56255 0
M  V30 3456 C 317.776 4.51967 2.85709 0
M  V30 3457 C 319.076 5.16612 0.768747 0
M  V30 3458 H 320.77 2.98952 0.163755 0
M  V30 3459 H 318.316 1.43792 0.0773219 0
M  V30 3460 H 320.269 3.33491 2.57608 0
M  V30 3461 H 318.993 2.09419 2.50621 0
M  V30 3462 H 317.652 3.54305 0.941471 0
M  V30 3463 H 317.3 3.69503 3.41287 0
M  V30 3464 H 317 5.26071 2.6177 0
M  V30 3465 H 318.524 4.99523 3.51154 0
M  V30 3466 H 319.938 5.57977 1.3166 0
M  V30 3467 H 318.335 5.96812 0.627286 0
M  V30 3468 H 319.405 4.84358 -0.229168 0
M  V30 3469 N 320.748 -0.0735177 1.57428 0
M  V30 3470 C 322.159 -0.625551 1.75908 0
M  V30 3471 C 322.51 -1.78 0.825261 0
M  V30 3472 O 321.635 -2.16398 0.00893964 0
M  V30 3473 C 322.23 -1.14155 3.18989 0
M  V30 3474 C 320.789 -1.63946 3.38819 0
M  V30 3475 C 319.936 -0.558151 2.71625 0
M  V30 3476 H 322.887 0.152647 1.57964 0
M  V30 3477 H 322.908 -2.0104 3.23053 0
M  V30 3478 H 322.42 -0.301116 3.8693 0
M  V30 3479 H 320.521 -2.50321 2.7599 0
M  V30 3480 H 320.634 -1.71759 4.47253 0
M  V30 3481 H 318.998 -1.00278 2.34129 0
M  V30 3482 H 319.781 0.272071 3.4222 0
M  V30 3483 N 322.226 -1.5378 -0.344866 0
M  V30 3484 C 323.158 -1.77988 -1.44406 0
M  V30 3485 C 324.171 -0.661138 -1.48771 0
M  V30 3486 O 325.36 -0.937842 -1.51877 0
M  V30 3487 C 322.46 -1.86345 -2.8307 0
M  V30 3488 C 321.633 -3.16256 -3.0216 0
M  V30 3489 C 320.692 -3.15588 -4.21059 0
M  V30 3490 O 319.718 -3.89314 -4.15239 0
M  V30 3491 N 320.92 -2.37864 -5.29529 0
M  V30 3492 H 323.685 -2.72839 -1.24012 0
M  V30 3493 H 321.246 -1.52814 -0.534737 0
M  V30 3494 H 323.238 -1.83351 -3.60783 0
M  V30 3495 H 321.808 -0.986858 -2.96614 0
M  V30 3496 H 321.028 -3.32385 -2.11929 0
M  V30 3497 H 322.316 -4.0207 -3.11797 0
M  V30 3498 H 321.714 -1.77514 -5.37127 0
M  V30 3499 H 320.271 -2.40668 -6.05741 0
M  V30 3500 N 323.704 0.605807 -1.45491 0
M  V30 3501 C 324.95 1.36679 -1.49823 0
M  V30 3502 C 325.283 1.93693 -0.140175 0
M  V30 3503 O 324.558 1.75158 0.845581 0
M  V30 3504 C 324.841 2.51337 -2.57879 0
M  V30 3505 C 324.694 1.99508 -4.03134 0
M  V30 3506 C 326.013 3.53463 -2.62205 0
M  V30 3507 H 323.132 0.495617 -0.545466 0
M  V30 3508 H 325.774 0.682732 -1.7731 0
M  V30 3509 H 323.924 3.09691 -2.34571 0
M  V30 3510 H 325.596 1.45789 -4.37656 0
M  V30 3511 H 323.839 1.30496 -4.13707 0
M  V30 3512 H 324.51 2.82169 -4.74431 0
M  V30 3513 H 326.986 3.04953 -2.83095 0
M  V30 3514 H 325.862 4.31178 -3.39672 0
M  V30 3515 H 326.123 4.09197 -1.67363 0
M  V30 3516 N 325.182 1.32811 0.848464 0
M  V30 3517 C 326.412 1.26556 1.63301 0
M  V30 3518 C 326.82 -0.1676 1.88456 0
M  V30 3519 O 326.163 -1.11713 1.45828 0
M  V30 3520 C 326.225 1.96202 3.01239 0
M  V30 3521 C 325.889 3.45528 2.99098 0
M  V30 3522 C 326.886 4.40903 2.75501 0
M  V30 3523 C 324.571 3.87558 3.19537 0
M  V30 3524 C 326.565 5.76282 2.72356 0
M  V30 3525 C 324.252 5.23044 3.16019 0
M  V30 3526 C 325.25 6.17217 2.92458 0
M  V30 3527 O 324.938 7.50223 2.88825 0
M  V30 3528 H 324.67 0.43771 0.515156 0
M  V30 3529 H 327.224 1.7559 1.0657 0
M  V30 3530 H 325.454 1.41746 3.59785 0
M  V30 3531 H 327.143 1.83573 3.62016 0
M  V30 3532 H 327.909 4.09756 2.5947 0
M  V30 3533 H 323.788 3.14674 3.369 0
M  V30 3534 H 327.332 6.4976 2.53886 0
M  V30 3535 H 323.229 5.53818 3.31596 0
M  V30 3536 H 323.997 7.59657 3.04735 0
M  V30 3537 N 326.66 -1.06551 1.16123 0
M  V30 3538 C 327.593 -2.13382 0.80892 0
M  V30 3539 C 328.571 -1.61128 -0.21827 0
M  V30 3540 O 329.755 -1.88219 -0.102952 0
M  V30 3541 C 326.882 -3.38083 0.204303 0
M  V30 3542 C 325.928 -4.09133 1.20469 0
M  V30 3543 S 326.761 -4.5948 2.75024 0
M  V30 3544 C 327.917 -5.87446 2.16005 0
M  V30 3545 H 328.15 -2.42937 1.71373 0
M  V30 3546 H 325.683 -1.18947 0.984428 0
M  V30 3547 H 327.641 -4.10268 -0.138081 0
M  V30 3548 H 326.302 -3.0669 -0.678234 0
M  V30 3549 H 325.495 -4.98685 0.730019 0
M  V30 3550 H 325.097 -3.4295 1.49202 0
M  V30 3551 H 327.389 -6.60065 1.5271 0
M  V30 3552 H 328.332 -6.39639 3.03756 0
M  V30 3553 H 328.74 -5.41354 1.59989 0
M  V30 3554 N 328.138 -0.959301 -1.25041 0
M  V30 3555 C 329.387 -0.612254 -1.92183 0
M  V30 3556 C 329.7 0.855347 -1.75907 0
M  V30 3557 O 330.906 1.31256 -2.37664 0
M  V30 3558 C 329.362 -1.04435 -3.44414 0
M  V30 3559 C 328.97 -2.53482 -3.69393 0
M  V30 3560 C 330.714 -0.770055 -4.17457 0
M  V30 3561 C 328.621 -2.90468 -5.15153 0
M  V30 3562 H 327.551 -0.225279 -0.719559 0
M  V30 3563 H 330.202 -1.16438 -1.41825 0
M  V30 3564 H 328.584 -0.4206 -3.9376 0
M  V30 3565 H 329.758 -3.20916 -3.30681 0
M  V30 3566 H 328.073 -2.78432 -3.0962 0
M  V30 3567 H 330.67 -1.02249 -5.24832 0
M  V30 3568 H 331.013 0.293611 -4.15263 0
M  V30 3569 H 331.546 -1.35437 -3.74034 0
M  V30 3570 H 328.285 -3.95871 -5.22462 0
M  V30 3571 H 327.805 -2.27711 -5.54894 0
M  V30 3572 H 329.484 -2.79914 -5.83315 0
M  V30 3573 N 329.616 1.39756 -0.72842 0
M  V30 3574 C 330.841 2.05472 -0.282159 0
M  V30 3575 C 331.266 1.54549 1.07221 0
M  V30 3576 O 330.624 0.686372 1.67805 0
M  V30 3577 C 330.672 3.59462 -0.286264 0
M  V30 3578 O 329.776 4.05918 0.728298 0
M  V30 3579 H 329.117 0.651226 -0.129618 0
M  V30 3580 H 331.647 1.78915 -0.992499 0
M  V30 3581 H 331.657 4.07798 -0.128373 0
M  V30 3582 H 330.332 3.95889 -1.27456 0
M  V30 3583 H 328.909 3.69012 0.537081 0
M  V30 3584 N 331.094 0.475555 1.50254 0
M  V30 3585 C 332.057 -0.305016 2.27161 0
M  V30 3586 C 333.057 -0.916519 1.32123 0
M  V30 3587 O 334.247 -0.785003 1.5551 0
M  V30 3588 C 331.379 -1.43496 3.09227 0
M  V30 3589 H 332.572 0.369511 2.97615 0
M  V30 3590 H 330.125 0.229747 1.54602 0
M  V30 3591 H 330.86 -2.14441 2.43281 0
M  V30 3592 H 330.645 -1.00223 3.79075 0
M  V30 3593 H 332.135 -1.98548 3.67381 0
M  V30 3594 N 332.573 -1.56217 0.208337 0
M  V30 3595 C 333.798 -2.02782 -0.435222 0
M  V30 3596 C 334.223 -1.08738 -1.53485 0
M  V30 3597 O 333.581 -0.0731855 -1.81152 0
M  V30 3598 C 333.629 -3.47687 -0.956335 0
M  V30 3599 O 332.733 -3.56773 -2.06849 0
M  V30 3600 H 332.074 -0.656403 -0.100158 0
M  V30 3601 H 334.604 -2.02033 0.3231 0
M  V30 3602 H 334.614 -3.87745 -1.26955 0
M  V30 3603 H 333.289 -4.15624 -0.15143 0
M  V30 3604 H 331.866 -3.28597 -1.76292 0
M  V30 3605 N 334.051 0.0651679 -1.57465 0
M  V30 3606 C 335.299 0.761555 -1.87202 0
M  V30 3607 C 335.62 1.77778 -0.801243 0
M  V30 3608 O 334.89 1.95166 0.16937 0
M  V30 3609 H 333.47 0.284251 -0.690804 0
M  V30 3610 H 336.132 0.0396827 -1.9486 0
M  V30 3611 H 335.228 1.27365 -2.84929 0
M  V30 3612 N 335.529 1.53961 0.336706 0
M  V30 3613 C 336.476 1.82428 1.41381 0
M  V30 3614 C 337.446 0.670444 1.51968 0
M  V30 3615 O 338.631 0.915565 1.67398 0
M  V30 3616 C 335.771 2.04564 2.77934 0
M  V30 3617 C 334.884 3.32267 2.76084 0
M  V30 3618 C 334.019 3.44434 4.04399 0
M  V30 3619 C 333.058 4.66061 3.96804 0
M  V30 3620 N 332.195 4.75224 5.16823 0
M  V30 3621 H 337.035 2.74324 1.16405 0
M  V30 3622 H 334.572 1.35869 0.563752 0
M  V30 3623 H 336.53 2.15388 3.57301 0
M  V30 3624 H 335.16 1.15974 3.01247 0
M  V30 3625 H 334.212 3.3025 1.88784 0
M  V30 3626 H 335.524 4.21733 2.66351 0
M  V30 3627 H 334.678 3.54728 4.92192 0
M  V30 3628 H 333.417 2.53037 4.16921 0
M  V30 3629 H 332.422 4.55838 3.07396 0
M  V30 3630 H 333.647 5.58829 3.85858 0
M  V30 3631 H 331.593 3.86739 5.29876 0
M  V30 3632 H 331.51 5.58636 5.09374 0
M  V30 3633 H 332.778 4.89835 6.06367 0
M  V30 3634 N 337.007 -0.598083 1.45811 0
M  V30 3635 C 337.917 -1.73632 1.57763 0
M  V30 3636 C 338.933 -1.67763 0.461676 0
M  V30 3637 O 340.109 -1.87949 0.723685 0
M  V30 3638 C 337.174 -3.10114 1.55018 0
M  V30 3639 C 336.235 -3.27364 2.77726 0
M  V30 3640 C 335.468 -4.57334 2.75102 0
M  V30 3641 O 335.691 -5.40258 1.8297 0
M  V30 3642 O 334.625 -4.77502 3.66437 0
M  V30 3643 H 338.451 -1.66498 2.53992 0
M  V30 3644 H 336.036 -0.763308 1.28429 0
M  V30 3645 H 337.918 -3.9141 1.56129 0
M  V30 3646 H 336.593 -3.17718 0.619431 0
M  V30 3647 H 335.5 -2.45619 2.82174 0
M  V30 3648 H 336.833 -3.24641 3.69958 0
M  V30 3649 N 338.485 -1.33259 -0.841409 0
M  V30 3650 C 339.713 -1.27605 -1.62864 0
M  V30 3651 C 340.128 0.153507 -1.88175 0
M  V30 3652 O 339.485 1.09485 -1.46011 0
M  V30 3653 C 339.536 -2.04596 -2.98031 0
M  V30 3654 O 339.257 -3.41975 -2.73834 0
M  V30 3655 C 340.758 -2.06122 -3.92465 0
M  V30 3656 H 337.978 -0.439718 -0.506842 0
M  V30 3657 H 340.522 -1.75591 -1.04824 0
M  V30 3658 H 338.677 -1.60299 -3.5268 0
M  V30 3659 H 339.091 -3.81549 -3.59889 0
M  V30 3660 H 340.565 -2.64451 -4.84531 0
M  V30 3661 H 341.042 -1.05083 -4.26444 0
M  V30 3662 H 341.648 -2.50427 -3.43753 0
M  V30 3663 N 339.963 1.05934 -1.16686 0
M  V30 3664 C 340.893 2.1546 -0.899949 0
M  V30 3665 C 341.874 1.69391 0.155154 0
M  V30 3666 O 343.059 1.94199 0.00648693 0
M  V30 3667 C 340.189 3.44939 -0.404241 0
M  V30 3668 C 339.143 4.04536 -1.39767 0
M  V30 3669 C 338.469 5.29268 -0.760216 0
M  V30 3670 C 339.769 4.42893 -2.76845 0
M  V30 3671 H 341.463 2.38046 -1.81588 0
M  V30 3672 H 339.009 1.14404 -0.874514 0
M  V30 3673 H 340.962 4.20901 -0.204971 0
M  V30 3674 H 339.686 3.21983 0.547206 0
M  V30 3675 H 338.345 3.30635 -1.58355 0
M  V30 3676 H 337.993 5.02611 0.197831 0
M  V30 3677 H 337.693 5.70101 -1.42332 0
M  V30 3678 H 339.217 6.07924 -0.57105 0
M  V30 3679 H 340.631 5.09921 -2.62019 0
M  V30 3680 H 339.028 4.94721 -3.39663 0
M  V30 3681 H 340.098 3.53584 -3.31823 0
M  V30 3682 N 341.441 0.965919 1.2453 0
M  V30 3683 C 342.852 0.665929 1.7442 0
M  V30 3684 C 343.203 -0.818407 1.78316 0
M  V30 3685 O 342.328 -1.64037 1.41141 0
M  V30 3686 C 342.923 1.20211 3.16757 0
M  V30 3687 C 341.482 0.952059 3.6416 0
M  V30 3688 C 340.629 1.33848 2.42858 0
M  V30 3689 H 343.58 1.14144 1.10258 0
M  V30 3690 H 343.601 0.567544 3.76244 0
M  V30 3691 H 343.113 2.28244 3.13889 0
M  V30 3692 H 341.214 -0.112821 3.72429 0
M  V30 3693 H 341.327 1.59645 4.51719 0
M  V30 3694 H 339.691 0.756864 2.43195 0
M  V30 3695 H 340.474 2.42827 2.42673 0
M  V30 3696 N 342.919 -1.39368 0.735821 0
M  V30 3697 C 343.867 -2.32443 0.0855131 0
M  V30 3698 C 344.861 -1.53104 -0.724954 0
M  V30 3699 O 346.067 -1.68762 -0.626047 0
M  V30 3700 H 342.442 -0.751948 0.00885257 0
M  V30 3701 H 344.413 -2.84916 0.886883 0
M  V30 3702 C 343.162 -3.38206 -0.806983 0
M  V30 3703 H 342.485 -3.99335 -0.19274 0
M  V30 3704 H 343.925 -4.05779 -1.2296 0
M  V30 3705 C 342.384 -2.75321 -1.94165 0
M  V30 3706 O 342.914 -2.63231 -3.03435 0
M  V30 3707 N 341.12 -2.33396 -1.73132 0
M  V30 3708 H 340.667 -2.4343 -0.842596 0
M  V30 3709 H 340.625 -1.91661 -2.49225 0
M  V30 3710 N 344.397 -0.483516 -1.5 0
M  V30 3711 C 345.622 0.0667119 -2.07293 0
M  V30 3712 C 346.047 1.3164 -1.3436 0
M  V30 3713 O 345.405 1.76945 -0.394987 0
M  V30 3714 C 345.453 0.321126 -3.59167 0
M  V30 3715 O 344.557 1.39927 -3.87936 0
M  V30 3716 H 343.898 -0.0184758 -0.663743 0
M  V30 3717 H 346.428 -0.678125 -1.93035 0
M  V30 3718 H 346.438 0.557906 -4.04168 0
M  V30 3719 H 345.113 -0.592007 -4.11665 0
M  V30 3720 H 343.69 1.14882 -3.54763 0
M  V30 3721 N 345.875 1.56104 -0.216619 0
M  V30 3722 C 346.825 2.16703 0.708798 0
M  V30 3723 C 347.809 1.11392 1.16106 0
M  V30 3724 O 349.001 1.37395 1.11587 0
M  V30 3725 C 346.13 2.84666 1.91886 0
M  V30 3726 C 345.216 3.97195 1.48651 0
M  V30 3727 N 345.607 4.99959 0.766434 0
M  V30 3728 C 343.905 4.09193 1.77418 0
M  V30 3729 C 344.606 5.79126 0.546659 0
M  V30 3730 N 343.582 5.32315 1.10188 0
M  V30 3731 H 347.384 2.93516 0.150162 0
M  V30 3732 H 344.898 1.6239 -0.0176768 0
M  V30 3733 H 346.895 3.26486 2.59253 0
M  V30 3734 H 345.555 2.09347 2.48202 0
M  V30 3735 H 346.566 5.16197 0.419634 0
M  V30 3736 H 343.243 3.45021 2.35088 0
M  V30 3737 H 344.633 6.71895 -0.026103 0
M  V30 3738 N 347.353 -0.0568162 1.57498 0
M  V30 3739 C 348.599 -0.75422 1.88253 0
M  V30 3740 C 348.932 -1.76461 0.810865 0
M  V30 3741 O 348.207 -1.93691 -0.177259 0
M  V30 3742 C 348.49 -1.44878 3.2967 0
M  V30 3743 C 348.343 -0.453789 4.47505 0
M  V30 3744 C 349.662 -2.38994 3.69554 0
M  V30 3745 H 346.781 -0.272724 0.684683 0
M  V30 3746 H 349.423 -0.0172113 1.89992 0
M  V30 3747 H 347.573 -2.077 3.28318 0
M  V30 3748 H 349.245 0.170371 4.60985 0
M  V30 3749 H 347.488 0.229552 4.33192 0
M  V30 3750 H 348.159 -0.977699 5.43273 0
M  V30 3751 H 350.635 -1.86239 3.72095 0
M  V30 3752 H 349.511 -2.84587 4.69363 0
M  V30 3753 H 349.772 -3.24461 3.00296 0
M  V30 3754 N 348.832 -1.54138 -0.328536 0
M  V30 3755 C 350.078 -1.7236 -1.06865 0
M  V30 3756 C 350.411 -0.493231 -1.87832 0
M  V30 3757 O 349.686 0.5098 -1.877 0
M  V30 3758 C 349.969 -2.99621 -1.99747 0
M  V30 3759 C 349.822 -4.32899 -1.22143 0
M  V30 3760 C 351.141 -3.22615 -2.99345 0
M  V30 3761 H 348.26 -0.627151 -0.387105 0
M  V30 3762 H 350.902 -1.86827 -0.345767 0
M  V30 3763 H 349.052 -2.87418 -2.61387 0
M  V30 3764 H 350.724 -4.56978 -0.630017 0
M  V30 3765 H 348.967 -4.30628 -0.523628 0
M  V30 3766 H 349.638 -5.18154 -1.90318 0
M  V30 3767 H 352.114 -3.34248 -2.47826 0
M  V30 3768 H 350.99 -4.13027 -3.61524 0
M  V30 3769 H 351.251 -2.3961 -3.71536 0
M  V30 3770 N 350.31 0.590341 -1.46126 0
M  V30 3771 C 351.558 1.34616 -1.50742 0
M  V30 3772 C 351.879 1.94363 -0.157486 0
M  V30 3773 O 351.149 1.78136 0.815136 0
M  V30 3774 H 349.729 0.499789 -0.555175 0
M  V30 3775 H 352.391 0.691953 -1.82203 0
M  V30 3776 H 351.487 2.15678 -2.25587 0
M  V30 3777 N 351.788 1.33704 0.83433 0
M  V30 3778 C 352.698 1.26382 1.97648 0
M  V30 3779 C 353.714 0.173548 1.73132 0
M  V30 3780 O 354.89 0.397962 1.97429 0
M  V30 3781 C 351.955 1.00769 3.31733 0
M  V30 3782 C 351.016 2.1884 3.69334 0
M  V30 3783 C 350.249 1.9444 4.9702 0
M  V30 3784 O 350.472 0.896961 5.63303 0
M  V30 3785 O 349.406 2.81093 5.32231 0
M  V30 3786 H 353.232 2.22444 2.06767 0
M  V30 3787 H 350.817 1.13795 0.968037 0
M  V30 3788 H 352.699 0.882186 4.12062 0
M  V30 3789 H 351.374 0.0773783 3.23608 0
M  V30 3790 H 350.281 2.36946 2.89495 0
M  V30 3791 H 351.614 3.10221 3.82131 0
M  V30 3792 N 353.266 -1.05314 1.17247 0
M  V30 3793 C 354.214 -2.15137 0.884238 0
M  V30 3794 C 355.208 -1.68729 -0.15063 0
M  V30 3795 O 356.414 -1.8 -0.00366673 0
M  V30 3796 H 352.789 -0.702471 0.2684 0
M  V30 3797 H 354.76 -2.36652 1.81764 0
M  V30 3798 C 353.509 -3.45243 0.412659 0
M  V30 3799 H 352.832 -3.81352 1.20043 0
M  V30 3800 H 354.272 -4.23263 0.249858 0
M  V30 3801 C 352.731 -3.25487 -0.86948 0
M  V30 3802 O 353.261 -3.51938 -1.93655 0
M  V30 3803 N 351.467 -2.78875 -0.817147 0
M  V30 3804 H 351.014 -2.57549 0.0514211 0
M  V30 3805 H 350.972 -2.66036 -1.67547 0
M  V30 3806 N 354.744 -0.972509 -1.24016 0
M  V30 3807 C 356.16 -0.679827 -1.44397 0
M  V30 3808 C 356.36 0.756716 -1.86751 0
M  V30 3809 O 355.416 1.53007 -2.00861 0
M  V30 3810 C 356.729 -1.66803 -2.50195 0
M  V30 3811 C 358.277 -1.68119 -2.64017 0
M  V30 3812 C 358.752 -2.65748 -3.73017 0
M  V30 3813 N 360.243 -2.64219 -3.8045 0
M  V30 3814 C 360.978 -3.36433 -4.64328 0
M  V30 3815 N 360.474 -4.1818 -5.52356 0
M  V30 3816 N 362.267 -3.25235 -4.58453 0
M  V30 3817 H 354.418 -1.90059 -0.948228 0
M  V30 3818 H 356.681 -0.818527 -0.478245 0
M  V30 3819 H 356.387 -2.69498 -2.25973 0
M  V30 3820 H 356.261 -1.4446 -3.48441 0
M  V30 3821 H 358.648 -0.661319 -2.87594 0
M  V30 3822 H 358.729 -1.94525 -1.66113 0
M  V30 3823 H 358.373 -3.67872 -3.50189 0
M  V30 3824 H 358.303 -2.36619 -4.70446 0
M  V30 3825 H 360.794 -2.04887 -3.17537 0
M  V30 3826 H 361.107 -4.70157 -6.13329 0
M  V30 3827 H 359.452 -4.22273 -5.52006 0
M  V30 3828 H 362.643 -2.60829 -3.88698 0
M  V30 3829 H 362.816 -3.81776 -5.23594 0
M  V30 3830 N 356.222 1.38976 -0.743202 0
M  V30 3831 C 357.17 2.32394 -0.0978389 0
M  V30 3832 C 358.164 1.53486 0.716824 0
M  V30 3833 O 359.37 1.69092 0.617088 0
M  V30 3834 H 355.745 0.75189 -0.0128402 0
M  V30 3835 H 357.716 2.84441 -0.901981 0
M  V30 3836 C 356.465 3.38629 0.789036 0
M  V30 3837 H 355.788 3.99432 0.171559 0
M  V30 3838 H 357.228 4.06426 1.20807 0
M  V30 3839 C 355.687 2.76347 1.92702 0
M  V30 3840 O 356.217 2.64836 3.02034 0
M  V30 3841 N 354.423 2.34311 1.71891 0
M  V30 3842 H 353.97 2.43873 0.829675 0
M  V30 3843 H 353.928 1.9298 2.48205 0
M  V30 3844 N 357.7 0.491464 1.49741 0
M  V30 3845 C 358.949 -0.0582189 2.01616 0
M  V30 3846 C 359.262 -1.38927 1.3769 0
M  V30 3847 O 360.468 -2.02509 1.80838 0
M  V30 3848 C 358.924 -0.154235 3.59569 0
M  V30 3849 C 358.532 1.1696 4.32463 0
M  V30 3850 C 360.276 -0.65479 4.1942 0
M  V30 3851 C 358.183 1.03627 5.8225 0
M  V30 3852 H 357.113 -0.0255317 0.753568 0
M  V30 3853 H 359.764 0.629445 1.72367 0
M  V30 3854 H 358.146 -0.906138 3.85493 0
M  V30 3855 H 359.32 1.93405 4.18248 0
M  V30 3856 H 357.635 1.60285 3.84315 0
M  V30 3857 H 360.232 -0.771903 5.29099 0
M  V30 3858 H 360.575 -1.65127 3.8215 0
M  V30 3859 H 361.108 0.040304 3.9778 0
M  V30 3860 H 357.847 2.00672 6.24028 0
M  V30 3861 H 357.367 0.312546 5.98985 0
M  V30 3862 H 359.046 0.711114 6.4308 0
M  V30 3863 N 359.178 -1.55987 0.224894 0
M  V30 3864 C 360.427 -1.97566 -0.406273 0
M  V30 3865 C 360.74 -1.11569 -1.6066 0
M  V30 3866 O 361.946 -1.43062 -2.3075 0
M  V30 3867 C 360.402 -3.51474 -0.774207 0
M  V30 3868 C 360.01 -4.46179 0.403496 0
M  V30 3869 C 361.754 -4.01758 -1.37079 0
M  V30 3870 C 359.661 -5.91399 0.0129412 0
M  V30 3871 H 358.591 -0.737777 -0.155565 0
M  V30 3872 H 361.242 -1.80659 0.321635 0
M  V30 3873 H 359.624 -3.63994 -1.55963 0
M  V30 3874 H 360.798 -4.45409 1.18101 0
M  V30 3875 H 359.113 -4.06255 0.913536 0
M  V30 3876 H 361.71 -5.07756 -1.67596 0
M  V30 3877 H 362.053 -3.47805 -2.28773 0
M  V30 3878 H 362.586 -3.92475 -0.648733 0
M  V30 3879 H 359.325 -6.49341 0.896451 0
M  V30 3880 H 358.845 -5.95356 -0.728821 0
M  V30 3881 H 360.524 -6.45683 -0.412582 0
M  V30 3882 N 360.656 0.0484629 -1.57525 0
M  V30 3883 C 361.566 1.07241 -2.08654 0
M  V30 3884 C 362.582 1.409 -1.02095 0
M  V30 3885 O 363.758 1.50609 -1.33712 0
M  V30 3886 C 360.823 2.36008 -2.5397 0
M  V30 3887 C 359.884 2.09108 -3.7493 0
M  V30 3888 C 359.117 3.31736 -4.18075 0
M  V30 3889 O 359.34 4.41714 -3.60895 0
M  V30 3890 O 358.274 3.18576 -5.10679 0
M  V30 3891 H 362.1 0.667965 -2.96263 0
M  V30 3892 H 359.685 0.26417 -1.47046 0
M  V30 3893 H 361.567 3.11747 -2.83535 0
M  V30 3894 H 360.242 2.75786 -1.69481 0
M  V30 3895 H 359.149 1.31 -3.50414 0
M  V30 3896 H 360.482 1.74198 -4.60343 0
M  V30 3897 N 362.134 1.5431 0.320358 0
M  V30 3898 C 363.38 1.72924 1.05949 0
M  V30 3899 C 363.713 0.503185 1.87568 0
M  V30 3900 O 362.988 -0.499839 1.87968 0
M  V30 3901 C 363.271 3.00676 1.98156 0
M  V30 3902 C 363.124 4.3354 1.19845 0
M  V30 3903 C 364.443 3.24198 2.9763 0
M  V30 3904 H 361.562 0.629195 0.383774 0
M  V30 3905 H 364.204 1.87008 0.335854 0
M  V30 3906 H 362.354 2.888 2.59859 0
M  V30 3907 H 364.026 4.57305 0.605773 0
M  V30 3908 H 362.269 4.309 0.500784 0
M  V30 3909 H 362.94 5.19156 1.87567 0
M  V30 3910 H 365.416 3.35557 2.4605 0
M  V30 3911 H 364.292 4.14938 3.59329 0
M  V30 3912 H 364.553 2.41577 3.7026 0
M  V30 3913 N 363.613 -0.582584 1.46437 0
M  V30 3914 C 364.523 -1.71949 1.59595 0
M  V30 3915 C 365.539 -1.67264 0.479443 0
M  V30 3916 O 366.715 -1.87171 0.743579 0
M  V30 3917 C 363.78 -3.08452 1.58298 0
M  V30 3918 C 362.841 -3.244 2.81182 0
M  V30 3919 C 362.074 -4.54391 2.79937 0
M  V30 3920 O 362.297 -5.38287 1.8869 0
M  V30 3921 O 361.231 -4.73588 3.71481 0
M  V30 3922 H 365.057 -1.63795 2.55744 0
M  V30 3923 H 362.642 -0.749643 1.29231 0
M  V30 3924 H 364.524 -3.89732 1.60271 0
M  V30 3925 H 363.199 -3.17043 0.653094 0
M  V30 3926 H 362.106 -2.42613 2.84763 0
M  V30 3927 H 363.439 -3.20699 3.7338 0
M  V30 3928 N 365.091 -1.34144 -0.827227 0
M  V30 3929 C 366.319 -1.29325 -1.61501 0
M  V30 3930 C 366.734 0.13354 -1.88327 0
M  V30 3931 O 366.091 1.0793 -1.47164 0
M  V30 3932 C 366.142 -2.07746 -2.95844 0
M  V30 3933 O 365.863 -3.4486 -2.70191 0
M  V30 3934 C 367.364 -2.10273 -3.90256 0
M  V30 3935 H 364.584 -0.445069 -0.50215 0
M  V30 3936 H 367.128 -1.76693 -1.02955 0
M  V30 3937 H 365.283 -1.6403 -3.5096 0
M  V30 3938 H 365.697 -3.85345 -3.55822 0
M  V30 3939 H 367.171 -2.69575 -4.81698 0
M  V30 3940 H 367.648 -1.096 -4.25305 0
M  V30 3941 H 368.254 -2.54059 -3.41078 0
M  V30 3942 N 366.569 1.04691 -1.17803 0
M  V30 3943 C 367.815 1.78045 -0.970969 0
M  V30 3944 C 368.148 1.87686 0.498751 0
M  V30 3945 O 367.423 1.38035 1.37027 0
M  V30 3946 C 367.706 3.2166 -1.61884 0
M  V30 3947 C 367.559 3.20001 -3.161 0
M  V30 3948 C 368.878 4.1962 -1.3269 0
M  V30 3949 H 365.997 0.64633 -0.354155 0
M  V30 3950 H 368.639 1.22333 -1.45378 0
M  V30 3951 H 366.789 3.69232 -1.20831 0
M  V30 3952 H 368.461 2.80467 -3.66246 0
M  V30 3953 H 366.704 2.58203 -3.48588 0
M  V30 3954 H 367.375 4.21386 -3.56564 0
M  V30 3955 H 369.851 3.80567 -1.68249 0
M  V30 3956 H 368.727 5.18339 -1.80599 0
M  V30 3957 H 368.988 4.414 -0.248622 0
M  V30 3958 N 368.047 0.979072 1.23499 0
M  V30 3959 C 369.01 0.523244 2.23147 0
M  V30 3960 C 370.01 -0.386406 1.56088 0
M  V30 3961 O 371.2 -0.180283 1.73265 0
M  V30 3962 C 368.332 -0.240739 3.40049 0
M  V30 3963 H 369.525 1.40432 2.64989 0
M  V30 3964 H 367.078 0.764824 1.36309 0
M  V30 3965 H 367.813 -1.13841 3.03662 0
M  V30 3966 H 367.598 0.412207 3.89927 0
M  V30 3967 H 369.088 -0.548297 4.13985 0
M  V30 3968 N 369.525 -1.3858 0.750561 0
M  V30 3969 C 370.472 -2.30483 0.120835 0
M  V30 3970 C 371.442 -1.50022 -0.712923 0
M  V30 3971 O 372.627 -1.78662 -0.669676 0
M  V30 3972 C 369.767 -3.36431 -0.768666 0
M  V30 3973 C 368.88 -4.31927 0.0793922 0
M  V30 3974 C 368.015 -5.24944 -0.81283 0
M  V30 3975 C 367.054 -6.12088 0.0390447 0
M  V30 3976 N 366.191 -6.97412 -0.809969 0
M  V30 3977 H 371.031 -2.83761 0.91015 0
M  V30 3978 H 368.568 -1.39707 0.460463 0
M  V30 3979 H 370.526 -3.96462 -1.29898 0
M  V30 3980 H 369.156 -2.8457 -1.5238 0
M  V30 3981 H 368.208 -3.73382 0.727303 0
M  V30 3982 H 369.52 -4.93319 0.737401 0
M  V30 3983 H 368.674 -5.90078 -1.41042 0
M  V30 3984 H 367.413 -4.63911 -1.50458 0
M  V30 3985 H 366.418 -5.45952 0.649328 0
M  V30 3986 H 367.643 -6.75189 0.727809 0
M  V30 3987 H 365.589 -6.38931 -1.48672 0
M  V30 3988 H 365.506 -7.55712 -0.208789 0
M  V30 3989 H 366.774 -7.66959 -1.39263 0
M  V30 3990 N 371.003 -0.499398 -1.49478 0
M  V30 3991 C 371.913 0.284489 -2.32869 0
M  V30 3992 C 372.929 0.968885 -1.44529 0
M  V30 3993 O 374.105 0.95062 -1.77553 0
M  V30 3994 C 371.17 1.33594 -3.19928 0
M  V30 3995 C 370.231 0.665149 -4.24116 0
M  V30 3996 C 369.464 1.6665 -5.07014 0
M  V30 3997 O 369.687 2.89618 -4.91404 0
M  V30 3998 O 368.621 1.22271 -5.8935 0
M  V30 3999 H 372.447 -0.39802 -3.01081 0
M  V30 4000 H 370.032 -0.260758 -1.47107 0
M  V30 4001 H 371.914 1.94431 -3.73864 0
M  V30 4002 H 370.589 2.0014 -2.54412 0
M  V30 4003 H 369.496 0.0170769 -3.74096 0
M  V30 4004 H 370.829 0.0421555 -4.92182 0
M  V30 4005 N 372.481 1.55866 -0.233164 0
M  V30 4006 C 373.727 1.99643 0.389148 0
M  V30 4007 C 374.082 1.11836 1.56558 0
M  V30 4008 O 373.375 0.170848 1.90837 0
M  V30 4009 C 373.569 3.46856 0.861724 0
M  V30 4010 C 373.398 4.48904 -0.267376 0
M  V30 4011 C 372.168 4.99888 -0.737577 0
M  V30 4012 C 374.366 5.02624 -1.08966 0
M  V30 4013 N 372.348 5.8566 -1.84052 0
M  V30 4014 C 373.719 5.85434 -2.04125 0
M  V30 4015 C 375.774 4.84959 -1.12779 0
M  V30 4016 C 374.477 6.52466 -3.02789 0
M  V30 4017 C 376.503 5.52759 -2.10266 0
M  V30 4018 C 375.865 6.35346 -3.04162 0
M  V30 4019 H 371.964 0.774402 0.108742 0
M  V30 4020 H 374.548 1.91572 -0.347596 0
M  V30 4021 H 372.719 3.55352 1.5678 0
M  V30 4022 H 374.451 3.77531 1.45783 0
M  V30 4023 H 371.206 4.7249 -0.324122 0
M  V30 4024 H 371.63 6.33246 -2.39434 0
M  V30 4025 H 376.272 4.20751 -0.415749 0
M  V30 4026 H 373.99 7.15849 -3.74948 0
M  V30 4027 H 377.576 5.41051 -2.13905 0
M  V30 4028 H 376.456 6.86883 -3.78366 0
M  V30 4029 N 373.959 -0.0401083 1.57549 0
M  V30 4030 C 375.375 -0.395556 1.54621 0
M  V30 4031 C 375.575 -1.77281 0.957799 0
M  V30 4032 O 374.631 -2.45888 0.574031 0
M  V30 4033 C 375.944 -0.307535 2.99123 0
M  V30 4034 C 377.492 -0.385425 3.10618 0
M  V30 4035 C 377.967 -0.326973 4.56831 0
M  V30 4036 N 379.458 -0.386102 4.61588 0
M  V30 4037 C 380.193 -0.363591 5.72246 0
M  V30 4038 N 379.689 -0.29402 6.92176 0
M  V30 4039 N 381.482 -0.412503 5.60584 0
M  V30 4040 H 373.633 0.861325 1.94152 0
M  V30 4041 H 375.896 0.326445 0.890021 0
M  V30 4042 H 375.602 0.638461 3.45856 0
M  V30 4043 H 375.476 -1.10552 3.60636 0
M  V30 4044 H 377.863 -1.32185 2.63839 0
M  V30 4045 H 377.944 0.44171 2.51957 0
M  V30 4046 H 377.588 0.605738 5.04275 0
M  V30 4047 H 377.518 -1.17207 5.13391 0
M  V30 4048 H 380.009 -0.442832 3.75296 0
M  V30 4049 H 380.322 -0.28164 7.72287 0
M  V30 4050 H 378.667 -0.260232 6.94513 0
M  V30 4051 H 381.858 -0.464769 4.65787 0
M  V30 4052 H 382.031 -0.391492 6.46816 0
M  V30 4053 N 375.437 -1.54477 -0.31217 0
M  V30 4054 C 376.686 -1.72438 -1.04633 0
M  V30 4055 C 376.999 -0.511163 -1.88803 0
M  V30 4056 O 378.205 -0.572341 -2.65399 0
M  V30 4057 C 376.661 -3.05043 -1.9099 0
M  V30 4058 C 376.269 -4.33806 -1.11877 0
M  V30 4059 C 378.013 -3.32364 -2.64073 0
M  V30 4060 C 375.92 -5.57467 -1.97445 0
M  V30 4061 H 374.85 -0.642647 -0.394361 0
M  V30 4062 H 377.501 -1.80966 -0.303929 0
M  V30 4063 H 375.883 -2.90451 -2.69173 0
M  V30 4064 H 377.057 -4.59199 -0.383843 0
M  V30 4065 H 375.372 -4.13336 -0.504252 0
M  V30 4066 H 377.969 -4.21951 -3.28423 0
M  V30 4067 H 378.312 -2.50745 -3.32314 0
M  V30 4068 H 378.845 -3.47875 -1.92944 0
M  V30 4069 H 375.584 -6.41722 -1.33692 0
M  V30 4070 H 375.104 -5.36277 -2.6864 0
M  V30 4071 H 376.783 -5.94303 -2.5576 0
M  V30 4072 N 376.915 0.57481 -1.46744 0
M  V30 4073 C 378.331 0.898981 -1.31873 0
M  V30 4074 C 378.531 1.99313 -0.29605 0
M  V30 4075 O 377.587 2.50728 0.298621 0
M  V30 4076 C 378.9 1.30886 -2.7072 0
M  V30 4077 C 380.448 1.42127 -2.78871 0
M  V30 4078 C 380.923 1.86478 -4.18318 0
M  V30 4079 N 382.414 1.93658 -4.20774 0
M  V30 4080 C 383.149 2.29267 -5.2557 0
M  V30 4081 N 382.645 2.63612 -6.40688 0
M  V30 4082 N 384.438 2.29889 -5.1294 0
M  V30 4083 H 376.589 -0.147839 -2.11885 0
M  V30 4084 H 378.852 -0.00347013 -0.947994 0
M  V30 4085 H 378.558 0.578853 -3.46904 0
M  V30 4086 H 378.432 2.26874 -3.01343 0
M  V30 4087 H 380.819 2.14213 -2.0297 0
M  V30 4088 H 380.9 0.443705 -2.51922 0
M  V30 4089 H 380.544 1.14968 -4.94717 0
M  V30 4090 H 380.474 2.85207 -4.42679 0
M  V30 4091 H 382.965 1.69574 -3.37718 0
M  V30 4092 H 383.278 2.89759 -7.16421 0
M  V30 4093 H 381.623 2.61232 -6.44036 0
M  V30 4094 H 384.814 2.02485 -4.22039 0
M  V30 4095 H 384.987 2.57312 -5.94722 0
M  V30 4096 N 378.394 1.34581 0.820102 0
M  V30 4097 C 379.324 1.29038 1.94606 0
M  V30 4098 C 380.305 0.1673 1.69275 0
M  V30 4099 O 381.49 0.360112 1.90832 0
M  V30 4100 C 378.62 1.04793 3.31113 0
M  V30 4101 C 377.574 2.13597 3.70891 0
M  V30 4102 C 376.9 1.74537 5.05412 0
M  V30 4103 C 378.2 3.55451 3.8269 0
M  V30 4104 H 379.894 2.23248 1.99501 0
M  V30 4105 H 377.44 1.0747 0.958449 0
M  V30 4106 H 379.393 0.995592 4.0947 0
M  V30 4107 H 378.117 0.0702565 3.26524 0
M  V30 4108 H 376.776 2.17905 2.9481 0
M  V30 4109 H 376.424 0.754226 4.97313 0
M  V30 4110 H 376.124 2.47361 5.32997 0
M  V30 4111 H 377.648 1.70803 5.86224 0
M  V30 4112 H 379.062 3.5354 4.51312 0
M  V30 4113 H 377.459 4.26922 4.21732 0
M  V30 4114 H 378.529 3.92587 2.84611 0
M  V30 4115 N 379.872 -1.04064 1.18357 0
M  V30 4116 C 381.12 -1.76915 0.977013 0
M  V30 4117 C 381.441 -1.88624 -0.494577 0
M  V30 4118 O 380.711 -1.41125 -1.3587 0
M  V30 4119 H 379.291 -0.65535 0.358504 0
M  V30 4120 H 381.953 -1.25592 1.49039 0
M  V30 4121 H 381.049 -2.78178 1.41504 0
M  V30 4122 N 381.35 -0.985608 -1.22978 0
M  V30 4123 C 382.627 -0.573599 -1.87001 0
M  V30 4124 C 383.007 0.949213 -1.88555 0
M  V30 4125 O 382.355 1.82811 -1.37086 0
M  V30 4126 C 382.565 -1.18564 -3.28243 0
M  V30 4127 C 383.913 -1.28163 -4.04796 0
M  V30 4128 O 384.937 -1.13949 -3.37482 0
M  V30 4129 O 383.796 -1.50832 -5.25273 0
M  V30 4130 H 380.89 -0.193868 -0.803955 0
M  V30 4131 H 383.436 -1.08102 -1.30813 0
M  V30 4132 H 382.208 -2.22758 -3.21706 0
M  V30 4133 H 381.831 -0.663363 -3.92027 0
M  V30 4134 N 382.828 1.3818 -0.7579 0
M  V30 4135 C 383.775 2.30416 -0.133057 0
M  V30 4136 C 384.745 1.50398 0.704957 0
M  V30 4137 O 385.93 1.79014 0.660192 0
M  V30 4138 C 383.07 3.36834 0.750813 0
M  V30 4139 C 382.183 4.31879 -0.102297 0
M  V30 4140 C 381.318 5.25368 0.784979 0
M  V30 4141 C 380.357 6.12058 -0.0715046 0
M  V30 4142 N 379.494 6.97832 0.772972 0
M  V30 4143 H 384.334 2.83274 -0.925186 0
M  V30 4144 H 381.871 1.39461 -0.467866 0
M  V30 4145 H 383.829 3.97145 1.27794 0
M  V30 4146 H 382.459 2.85374 1.50868 0
M  V30 4147 H 381.511 3.72991 -0.747095 0
M  V30 4148 H 382.823 4.92921 -0.763552 0
M  V30 4149 H 381.977 5.90818 1.37911 0
M  V30 4150 H 380.716 4.64703 1.47996 0
M  V30 4151 H 379.721 5.456 -0.678272 0
M  V30 4152 H 380.946 6.74793 -0.763606 0
M  V30 4153 H 378.892 6.3971 1.45282 0
M  V30 4154 H 378.809 7.55812 0.168709 0
M  V30 4155 H 380.077 7.67687 1.35194 0
M  V30 4156 N 384.306 0.507319 1.49211 0
M  V30 4157 C 385.552 -0.0350047 2.0277 0
M  V30 4158 C 385.885 -1.3606 1.38569 0
M  V30 4159 O 385.16 -1.87321 0.523542 0
M  V30 4160 C 385.443 -0.180916 3.59645 0
M  V30 4161 C 385.296 1.16825 4.34364 0
M  V30 4162 C 386.615 -0.918558 4.30407 0
M  V30 4163 H 383.734 -0.0112473 0.736914 0
M  V30 4164 H 386.376 0.659956 1.7817 0
M  V30 4165 H 384.526 -0.772826 3.80736 0
M  V30 4166 H 386.198 1.79952 4.24753 0
M  V30 4167 H 384.441 1.75594 3.96673 0
M  V30 4168 H 385.112 1.01939 5.42506 0
M  V30 4169 H 387.588 -0.41649 4.1401 0
M  V30 4170 H 386.464 -0.989505 5.39907 0
M  V30 4171 H 386.725 -1.96373 3.96093 0
M  V30 4172 N 385.784 -1.5574 0.241426 0
M  V30 4173 C 387.03 -1.99104 -0.385406 0
M  V30 4174 C 387.363 -1.1293 -1.57988 0
M  V30 4175 O 386.638 -0.191449 -1.93555 0
M  V30 4176 C 386.921 -3.51087 -0.800616 0
M  V30 4177 C 386.774 -4.48028 0.398874 0
M  V30 4178 C 388.093 -4.08015 -1.64959 0
M  V30 4179 H 385.212 -0.723848 -0.138614 0
M  V30 4180 H 387.854 -1.86903 0.341642 0
M  V30 4181 H 386.004 -3.61615 -1.4201 0
M  V30 4182 H 387.676 -4.49487 1.03726 0
M  V30 4183 H 385.919 -4.21077 1.04293 0
M  V30 4184 H 386.59 -5.51962 0.0651056 0
M  V30 4185 H 389.066 -4.00555 -1.12672 0
M  V30 4186 H 387.942 -5.14635 -1.90898 0
M  V30 4187 H 388.203 -3.56131 -2.61961 0
M  V30 4188 N 387.262 0.0317525 -1.57568 0
M  V30 4189 C 388.51 0.721676 -1.88776 0
M  V30 4190 C 388.831 1.76039 -0.838772 0
M  V30 4191 O 388.101 1.95482 0.127935 0
M  V30 4192 H 386.681 0.269534 -0.696678 0
M  V30 4193 H 389.343 -0.00165879 -1.949 0
M  V30 4194 H 388.439 1.21293 -2.87566 0
M  V30 4195 N 388.74 1.54641 0.303973 0
M  V30 4196 C 389.986 1.74038 1.04109 0
M  V30 4197 C 390.319 0.523051 1.87024 0
M  V30 4198 O 389.594 -0.479874 1.88487 0
M  V30 4199 C 389.877 3.02761 1.94955 0
M  V30 4200 C 389.73 4.34787 1.1524 0
M  V30 4201 C 391.049 3.27336 2.94175 0
M  V30 4202 H 388.168 0.63323 0.377079 0
M  V30 4203 H 390.81 1.87354 0.316001 0
M  V30 4204 H 388.96 2.9154 2.56782 0
M  V30 4205 H 390.632 4.57922 0.557236 0
M  V30 4206 H 388.875 4.31407 0.455053 0
M  V30 4207 H 389.546 5.21116 1.8205 0
M  V30 4208 H 392.022 3.38148 2.42477 0
M  V30 4209 H 390.898 4.18726 3.54908 0
M  V30 4210 H 391.159 2.45491 3.67677 0
M  V30 4211 N 390.218 -0.567019 1.47046 0
M  V30 4212 C 391.634 -0.891975 1.32348 0
M  V30 4213 C 391.834 -1.99154 0.306616 0
M  V30 4214 O 390.89 -2.50883 -0.28532 0
M  V30 4215 C 392.203 -1.29449 2.7141 0
M  V30 4216 C 393.751 -1.40646 2.79621 0
M  V30 4217 C 394.226 -1.84257 4.19301 0
M  V30 4218 N 395.717 -1.91424 4.21795 0
M  V30 4219 C 396.452 -2.26476 5.26779 0
M  V30 4220 N 395.948 -2.60211 6.42077 0
M  V30 4221 N 397.741 -2.27166 5.14152 0
M  V30 4222 H 389.892 0.159074 2.11803 0
M  V30 4223 H 392.155 0.00849752 0.947962 0
M  V30 4224 H 391.861 -0.560448 3.47206 0
M  V30 4225 H 391.735 -2.25273 3.02542 0
M  V30 4226 H 394.122 -2.13133 2.04104 0
M  V30 4227 H 394.203 -0.430339 2.52154 0
M  V30 4228 H 393.847 -1.12343 4.95319 0
M  V30 4229 H 393.777 -2.82855 4.44185 0
M  V30 4230 H 396.268 -1.6778 3.38612 0
M  V30 4231 H 396.581 -2.85956 7.17948 0
M  V30 4232 H 394.926 -2.57813 6.45413 0
M  V30 4233 H 398.117 -2.00244 4.23107 0
M  V30 4234 H 398.29 -2.54154 5.96079 0
M  V30 4235 N 391.696 -1.35014 -0.812953 0
M  V30 4236 C 392.644 -1.27435 -1.94585 0
M  V30 4237 C 393.638 -0.170494 -1.6854 0
M  V30 4238 O 394.844 -0.336085 -1.76835 0
M  V30 4239 H 391.219 -0.396144 -0.639198 0
M  V30 4240 H 393.19 -2.23158 -1.98098 0
M  V30 4241 C 391.939 -1.05677 -3.31252 0
M  V30 4242 H 391.262 -1.89853 -3.51846 0
M  V30 4243 H 392.702 -1.04413 -4.10943 0
M  V30 4244 C 391.161 0.239615 -3.36047 0
M  V30 4245 O 391.691 1.23759 -3.8216 0
M  V30 4246 N 389.897 0.276186 -2.89285 0
M  V30 4247 H 389.444 -0.53653 -2.51951 0
M  V30 4248 H 389.402 1.14332 -2.92875 0
M  V30 4249 N 393.175 1.03435 -1.18907 0
M  V30 4250 C 394.123 2.13703 -0.918353 0
M  V30 4251 C 395.117 1.68947 0.123767 0
M  V30 4252 O 396.323 1.79983 -0.0249701 0
M  V30 4253 H 392.698 0.698112 -0.279542 0
M  V30 4254 H 394.669 2.33731 -1.85506 0
M  V30 4255 C 393.418 3.44542 -0.467532 0
M  V30 4256 H 392.741 3.79394 -1.26095 0
M  V30 4257 H 394.181 4.22812 -0.317164 0
M  V30 4258 C 392.64 3.26829 0.817588 0
M  V30 4259 O 393.17 3.54975 1.88031 0
M  V30 4260 N 391.376 2.80139 0.772677 0
M  V30 4261 H 390.923 2.57434 -0.0923883 0
M  V30 4262 H 390.881 2.68668 1.63294 0
M  V30 4263 N 394.653 0.992116 1.22453 0
M  V30 4264 C 395.601 0.534644 2.26372 0
M  V30 4265 C 396.595 -0.414293 1.64256 0
M  V30 4266 O 397.801 -0.286899 1.77699 0
M  V30 4267 H 394.176 0.154502 0.735957 0
M  V30 4268 H 396.147 1.42256 2.62309 0
M  V30 4269 C 394.896 -0.135815 3.47435 0
M  V30 4270 H 394.219 0.585311 3.95492 0
M  V30 4271 H 395.659 -0.419374 4.21921 0
M  V30 4272 C 394.118 -1.37089 3.07747 0
M  V30 4273 O 394.648 -2.46629 3.17076 0
M  V30 4274 N 392.854 -1.24585 2.62539 0
M  V30 4275 H 392.401 -0.354542 2.55149 0
M  V30 4276 H 392.359 -2.07327 2.36353 0
M  V30 4277 N 396.131 -1.37776 0.765217 0
M  V30 4278 C 397.378 -1.99849 0.326588 0
M  V30 4279 C 397.706 -1.60746 -1.09504 0
M  V30 4280 O 396.961 -0.84202 -1.76659 0
M  V30 4281 C 397.26 -3.5504 0.410053 0
M  V30 4282 C 396.926 -4.13891 1.78899 0
M  V30 4283 C 395.588 -4.29678 2.16635 0
M  V30 4284 C 397.94 -4.46236 2.69301 0
M  V30 4285 C 395.268 -4.7511 3.44221 0
M  V30 4286 C 397.62 -4.93089 3.9629 0
M  V30 4287 C 396.284 -5.07082 4.34078 0
M  V30 4288 H 395.554 -0.7313 0.119507 0
M  V30 4289 H 398.201 -1.64645 0.977968 0
M  V30 4290 H 396.506 -3.90451 -0.324878 0
M  V30 4291 H 398.203 -4.00966 0.0520699 0
M  V30 4292 H 394.793 -4.02026 1.48569 0
M  V30 4293 H 398.977 -4.3363 2.41409 0
M  V30 4294 H 394.233 -4.84129 3.73402 0
M  V30 4295 H 398.407 -5.17084 4.66472 0
M  V30 4296 H 396.034 -5.42046 5.33001 0
M  V30 4297 N 397.609 -0.515225 -1.4894 0
M  V30 4298 C 398.572 0.244681 -2.2789 0
M  V30 4299 C 399.572 0.881166 -1.34507 0
M  V30 4300 O 400.762 0.743497 -1.57537 0
M  V30 4301 C 397.894 1.35247 -3.12923 0
M  V30 4302 H 399.087 -0.448289 -2.96531 0
M  V30 4303 H 396.64 -0.270656 -1.53939 0
M  V30 4304 H 397.375 2.07916 -2.48881 0
M  V30 4305 H 397.16 0.901374 -3.81599 0
M  V30 4306 H 398.65 1.88737 -3.72516 0
M  V30 4307 N 399.087 1.5561 -0.249682 0
M  V30 4308 C 400.498 1.84979 0.252949 0
M  V30 4309 C 400.849 1.17153 1.57384 0
M  V30 4310 O 399.974 0.450884 2.11651 0
M  V30 4311 C 400.569 3.35584 0.465732 0
M  V30 4312 C 399.128 3.65169 0.912624 0
M  V30 4313 C 398.275 2.77299 -0.00859085 0
M  V30 4314 H 401.226 1.51513 -0.47217 0
M  V30 4315 H 401.247 3.57313 1.30795 0
M  V30 4316 H 400.759 3.8492 -0.49579 0
M  V30 4317 H 398.86 3.21312 1.88652 0
M  V30 4318 H 398.973 4.72912 0.767559 0
M  V30 4319 H 397.337 2.49678 0.50327 0
M  V30 4320 H 398.12 3.29442 -0.965537 0
M  V30 4321 N 400.565 -0.0233959 1.57583 0
M  V30 4322 C 401.813 -0.711654 1.89156 0
M  V30 4323 C 402.134 -1.75591 0.848096 0
M  V30 4324 O 401.404 -1.95547 -0.117566 0
M  V30 4325 H 399.984 -0.265835 0.698098 0
M  V30 4326 H 402.646 0.0119948 1.94896 0
M  V30 4327 H 401.742 -1.19766 2.88206 0
M  V30 4328 N 402.043 -1.548 -0.295768 0
M  V30 4329 C 403.459 -1.4613 -0.641722 0
M  V30 4330 C 403.659 -0.656771 -1.90496 0
M  V30 4331 O 402.715 -0.166547 -2.5195 0
M  V30 4332 C 404.028 -2.90141 -0.789852 0
M  V30 4333 C 405.576 -3.00216 -0.885396 0
M  V30 4334 C 406.051 -4.45434 -1.06548 0
M  V30 4335 N 407.542 -4.49166 -1.13156 0
M  V30 4336 C 408.277 -5.58717 -1.28929 0
M  V30 4337 N 407.773 -6.78182 -1.41567 0
M  V30 4338 N 409.566 -5.46415 -1.31859 0
M  V30 4339 H 401.717 -2.05574 0.534147 0
M  V30 4340 H 403.98 -0.931259 0.177372 0
M  V30 4341 H 403.686 -3.51635 0.0675598 0
M  V30 4342 H 403.56 -3.37859 -1.67724 0
M  V30 4343 H 405.947 -2.38833 -1.73329 0
M  V30 4344 H 406.028 -2.55787 0.0261185 0
M  V30 4345 H 405.672 -5.07413 -0.222335 0
M  V30 4346 H 405.602 -4.87499 -1.9913 0
M  V30 4347 H 408.093 -3.631 -1.04721 0
M  V30 4348 H 408.406 -7.57428 -1.53372 0
M  V30 4349 H 406.751 -6.81037 -1.38613 0
M  V30 4350 H 409.942 -4.5203 -1.21601 0
M  V30 4351 H 410.115 -6.31841 -1.43808 0
M  V30 4352 N 403.521 0.559213 -1.47345 0
M  V30 4353 C 404.769 1.31388 -1.53563 0
M  V30 4354 C 405.09 1.93985 -0.198678 0
M  V30 4355 O 404.36 1.79825 0.777167 0
M  V30 4356 H 402.94 0.487901 -0.565652 0
M  V30 4357 H 405.602 0.65315 -1.8363 0
M  V30 4358 H 404.698 2.10844 -2.30111 0
M  V30 4359 N 404.999 1.35443 0.805782 0
M  V30 4360 C 405.962 1.28301 1.89925 0
M  V30 4361 C 406.962 0.194285 1.59622 0
M  V30 4362 O 408.152 0.448036 1.6834 0
M  V30 4363 C 405.284 0.984997 3.2636 0
M  V30 4364 H 406.477 2.2553 1.97677 0
M  V30 4365 H 404.03 1.19979 1.00173 0
M  V30 4366 H 404.765 0.016603 3.24296 0
M  V30 4367 H 404.55 1.77269 3.4974 0
M  V30 4368 H 406.04 0.960651 4.064 0
M  V30 4369 N 406.477 -1.02803 1.19454 0
M  V30 4370 C 407.723 -1.76478 0.999171 0
M  V30 4371 C 408.056 -1.88456 -0.468828 0
M  V30 4372 O 407.331 -1.40198 -1.34814 0
M  V30 4373 C 407.614 -3.19044 1.66981 0
M  V30 4374 C 407.467 -3.14932 3.21151 0
M  V30 4375 C 408.786 -4.17456 1.39349 0
M  V30 4376 H 405.905 -0.640614 0.364393 0
M  V30 4377 H 408.547 -1.20005 1.47305 0
M  V30 4378 H 406.697 -3.67263 1.2669 0
M  V30 4379 H 408.369 -2.74605 3.70661 0
M  V30 4380 H 406.612 -2.52625 3.52652 0
M  V30 4381 H 407.283 -4.1566 3.63223 0
M  V30 4382 H 409.759 -3.77842 1.74283 0
M  V30 4383 H 408.635 -5.154 1.88823 0
M  V30 4384 H 408.896 -4.40949 0.318813 0
M  V30 4385 N 407.956 -0.998596 -1.21925 0
M  V30 4386 C 408.919 -0.558679 -2.22287 0
M  V30 4387 C 409.919 0.361525 -1.56683 0
M  V30 4388 O 411.109 0.152695 -1.73529 0
M  V30 4389 C 408.241 0.18661 -3.40389 0
M  V30 4390 H 409.434 -1.4463 -2.62721 0
M  V30 4391 H 406.987 -0.786413 -1.35075 0
M  V30 4392 H 407.722 1.08996 -3.05435 0
M  V30 4393 H 407.507 -0.474188 -3.89222 0
M  V30 4394 H 408.997 0.482367 -4.14805 0
M  V30 4395 N 409.434 1.37368 -0.772513 0
M  V30 4396 C 410.662 2.03942 -0.348588 0
M  V30 4397 C 411.077 1.58264 1.02947 0
M  V30 4398 O 410.434 0.764246 1.65727 0
M  V30 4399 C 410.485 3.5946 -0.38351 0
M  V30 4400 O 410.206 4.03468 -1.70721 0
M  V30 4401 C 411.707 4.4327 0.0519152 0
M  V30 4402 H 408.927 0.654931 -0.145966 0
M  V30 4403 H 411.471 1.75686 -1.04665 0
M  V30 4404 H 409.626 3.86486 0.265978 0
M  V30 4405 H 410.04 4.97991 -1.64636 0
M  V30 4406 H 411.514 5.51995 -0.0236733 0
M  V30 4407 H 411.991 4.2514 1.10238 0
M  V30 4408 H 412.597 4.21471 -0.569415 0
M  V30 4409 N 410.912 0.523116 1.48665 0
M  V30 4410 C 412.16 -0.0134497 2.02096 0
M  V30 4411 C 412.481 -1.35418 1.40311 0
M  V30 4412 O 411.751 -1.87543 0.566074 0
M  V30 4413 H 410.331 -0.00795915 0.746958 0
M  V30 4414 H 412.993 0.685388 1.82451 0
M  V30 4415 H 412.089 -0.126849 3.11842 0
M  V30 4416 N 412.39 -1.55475 0.257931 0
M  V30 4417 C 413.618 -2.03609 -0.367559 0
M  V30 4418 C 414.033 -1.13687 -1.50734 0
M  V30 4419 O 413.39 -0.153479 -1.81853 0
M  V30 4420 C 413.441 -3.51001 -0.864908 0
M  V30 4421 O 413.162 -4.37499 0.229465 0
M  V30 4422 C 414.663 -4.14946 -1.55997 0
M  V30 4423 H 411.883 -0.665459 -0.0860521 0
M  V30 4424 H 414.427 -2.00843 0.385014 0
M  V30 4425 H 412.582 -3.54266 -1.56762 0
M  V30 4426 H 412.996 -5.24286 -0.14998 0
M  V30 4427 H 414.47 -5.19735 -1.85956 0
M  V30 4428 H 414.947 -3.6209 -2.4857 0
M  V30 4429 H 415.553 -4.15635 -0.901543 0
M  V30 4430 N 413.868 0.0150385 -1.57593 0
M  V30 4431 C 414.831 0.995996 -2.06428 0
M  V30 4432 C 415.831 1.2818 -0.970903 0
M  V30 4433 O 417.021 1.22949 -1.23406 0
M  V30 4434 C 414.153 2.32506 -2.49307 0
M  V30 4435 H 415.346 0.573873 -2.94358 0
M  V30 4436 H 412.899 0.262186 -1.54085 0
M  V30 4437 H 413.634 2.79438 -1.64575 0
M  V30 4438 H 413.419 2.13087 -3.29145 0
M  V30 4439 H 414.909 3.02906 -2.87468 0
M  V30 4440 N 415.346 1.54954 0.287554 0
M  V30 4441 C 416.571 1.79209 1.04397 0
M  V30 4442 C 416.996 0.556431 1.79682 0
M  V30 4443 O 416.354 -0.493518 1.74454 0
M  V30 4444 C 416.402 3.00739 1.98969 0
M  V30 4445 O 415.506 2.74805 3.075 0
M  V30 4446 H 414.847 0.592755 0.299227 0
M  V30 4447 H 417.377 2.02068 0.320886 0
M  V30 4448 H 417.387 3.29077 2.4119 0
M  V30 4449 H 416.062 3.90329 1.43582 0
M  V30 4450 H 414.639 2.57523 2.69697 0
M  V30 4451 N 416.824 -0.551391 1.4764 0
M  V30 4452 C 418.235 -1.13349 1.48354 0
M  V30 4453 C 418.586 -1.94709 0.241432 0
M  V30 4454 O 417.711 -2.06306 -0.653205 0
M  V30 4455 C 418.306 -2.0623 2.68802 0
M  V30 4456 C 416.865 -2.597 2.72457 0
M  V30 4457 C 416.012 -1.36201 2.41546 0
M  V30 4458 H 418.963 -0.337698 1.55065 0
M  V30 4459 H 418.984 -2.90196 2.46103 0
M  V30 4460 H 418.496 -1.46987 3.59188 0
M  V30 4461 H 416.597 -3.22724 1.86225 0
M  V30 4462 H 416.71 -3.00296 3.73308 0
M  V30 4463 H 415.074 -1.67068 1.9225 0
M  V30 4464 H 415.857 -0.787425 3.34147 0
M  V30 4465 N 418.302 -1.35869 -0.798587 0
M  V30 4466 C 419.579 -1.20145 -1.54352 0
M  V30 4467 C 419.959 0.216161 -2.0999 0
M  V30 4468 O 419.307 1.22068 -1.93162 0
M  V30 4469 C 419.517 -2.27602 -2.64572 0
M  V30 4470 C 420.865 -2.63811 -3.32699 0
M  V30 4471 O 421.889 -2.26576 -2.74849 0
M  V30 4472 O 420.748 -3.27866 -4.37226 0
M  V30 4473 H 417.842 -0.467248 -0.682355 0
M  V30 4474 H 420.388 -1.47574 -0.837859 0
M  V30 4475 H 419.16 -3.2265 -2.21388 0
M  V30 4476 H 418.783 -2.01488 -3.42766 0
M  V30 4477 N 419.78 1.02168 -1.19998 0
M  V30 4478 C 421.026 1.75945 -1.00852 0
M  V30 4479 C 421.359 1.88702 0.458828 0
M  V30 4480 O 420.634 1.40911 1.34069 0
M  V30 4481 C 420.917 3.18154 -1.68671 0
M  V30 4482 C 420.77 3.13224 -3.22817 0
M  V30 4483 C 422.089 4.16711 -1.41561 0
M  V30 4484 H 419.208 0.638673 -0.367785 0
M  V30 4485 H 421.85 1.19222 -1.4794 0
M  V30 4486 H 420 3.66586 -1.28636 0
M  V30 4487 H 421.672 2.72635 -3.72112 0
M  V30 4488 H 419.915 2.50751 -3.53986 0
M  V30 4489 H 420.586 4.13728 -3.65422 0
M  V30 4490 H 423.062 3.76913 -1.76284 0
M  V30 4491 H 421.938 5.14391 -1.91553 0
M  V30 4492 H 422.199 4.40774 -0.342193 0
M  V30 4493 N 421.258 1.00505 1.21394 0
M  V30 4494 C 422.674 0.717873 1.42544 0
M  V30 4495 C 422.874 -0.706936 1.88692 0
M  V30 4496 O 421.93 -1.47627 2.04847 0
M  V30 4497 C 423.243 1.73377 2.45684 0
M  V30 4498 C 424.791 1.75059 2.59467 0
M  V30 4499 C 425.266 2.75545 3.6584 0
M  V30 4500 N 426.757 2.74213 3.73311 0
M  V30 4501 C 427.492 3.48626 4.55245 0
M  V30 4502 N 426.988 4.32678 5.41075 0
M  V30 4503 N 428.781 3.37276 4.49668 0
M  V30 4504 H 420.932 1.92506 0.897503 0
M  V30 4505 H 423.195 0.830919 0.456375 0
M  V30 4506 H 422.901 2.75395 2.18748 0
M  V30 4507 H 422.775 1.53647 3.44489 0
M  V30 4508 H 425.162 0.737337 2.8574 0
M  V30 4509 H 425.243 1.98861 1.60897 0
M  V30 4510 H 424.887 3.77028 3.40313 0
M  V30 4511 H 424.817 2.49009 4.64007 0
M  V30 4512 H 427.308 2.13234 3.11993 0
M  V30 4513 H 427.621 4.86253 6.00648 0
M  V30 4514 H 425.966 4.3676 5.40616 0
M  V30 4515 H 429.157 2.71043 3.81646 0
M  V30 4516 H 429.33 3.95524 5.13288 0
M  V30 4517 N 422.737 -1.36956 0.779787 0
M  V30 4518 C 424.153 -1.52817 0.460342 0
M  V30 4519 C 424.353 -1.7361 -1.02283 0
M  V30 4520 O 423.409 -1.76207 -1.80852 0
M  V30 4521 C 424.722 -2.71983 1.28241 0
M  V30 4522 C 426.27 -2.85849 1.27512 0
M  V30 4523 C 426.745 -4.08008 2.08072 0
M  V30 4524 N 428.236 -4.15135 2.05467 0
M  V30 4525 C 428.971 -5.08711 2.64577 0
M  V30 4526 N 428.467 -6.07792 3.32506 0
M  V30 4527 N 430.26 -5.01254 2.54363 0
M  V30 4528 H 422.411 -1.21713 1.74068 0
M  V30 4529 H 424.674 -0.593294 0.739396 0
M  V30 4530 H 424.38 -2.63109 2.33381 0
M  V30 4531 H 424.254 -3.65882 0.917088 0
M  V30 4532 H 426.641 -2.94189 0.231686 0
M  V30 4533 H 426.722 -1.92886 1.68014 0
M  V30 4534 H 426.366 -4.00429 3.12441 0
M  V30 4535 H 426.296 -5.001 1.64947 0
M  V30 4536 H 428.787 -3.44189 1.5602 0
M  V30 4537 H 429.1 -6.75739 3.74963 0
M  V30 4538 H 427.445 -6.08047 3.36606 0
M  V30 4539 H 430.636 -4.22795 2.00902 0
M  V30 4540 H 430.809 -5.73995 3.00722 0
M  V30 4541 N 424.215 -0.530993 -1.48385 0
M  V30 4542 C 425.461 0.00274135 -2.028 0
M  V30 4543 C 425.794 1.33838 -1.40716 0
M  V30 4544 O 425.069 1.86465 -0.553277 0
M  V30 4545 C 425.352 0.123676 -3.59888 0
M  V30 4546 C 425.205 -1.2372 -4.3245 0
M  V30 4547 C 426.524 0.849967 -4.31814 0
M  V30 4548 H 423.643 -0.000477758 -0.737 0
M  V30 4549 H 426.285 -0.688217 -1.77098 0
M  V30 4550 H 424.435 0.712157 -3.81917 0
M  V30 4551 H 426.107 -1.86687 -4.21836 0
M  V30 4552 H 424.35 -1.81882 -3.93829 0
M  V30 4553 H 425.021 -1.10557 -5.40815 0
M  V30 4554 H 427.497 0.350572 -4.14621 0
M  V30 4555 H 426.373 0.903486 -5.41413 0
M  V30 4556 H 426.634 1.90047 -3.99167 0
M  V30 4557 N 425.693 1.55336 -0.266172 0
M  V30 4558 C 426.625 2.19544 0.658247 0
M  V30 4559 C 427.638 1.17746 1.12427 0
M  V30 4560 O 428.827 1.44517 1.04772 0
M  V30 4561 C 425.927 2.80032 1.9088 0
M  V30 4562 C 425.1 4.07436 1.59106 0
M  V30 4563 C 424.159 4.52056 2.69317 0
M  V30 4564 O 423.185 5.18023 2.35883 0
M  V30 4565 N 424.387 4.21448 3.99201 0
M  V30 4566 H 427.152 2.99503 0.108754 0
M  V30 4567 H 424.713 1.61667 -0.0869059 0
M  V30 4568 H 426.705 3.06831 2.63888 0
M  V30 4569 H 425.275 2.04119 2.36758 0
M  V30 4570 H 424.495 3.88021 0.695243 0
M  V30 4571 H 425.783 4.90462 1.35367 0
M  V30 4572 H 425.181 3.68528 4.29189 0
M  V30 4573 H 423.738 4.53039 4.68614 0
M  V30 4574 N 427.171 -0.0066808 1.57599 0
M  V30 4575 C 428.42 -0.692078 1.89455 0
M  V30 4576 C 428.733 -1.75306 0.867586 0
M  V30 4577 O 429.939 -2.49262 1.07614 0
M  V30 4578 C 428.395 -1.2821 3.36289 0
M  V30 4579 C 428.003 -0.256291 4.47266 0
M  V30 4580 C 429.747 -1.94608 3.77264 0
M  V30 4581 C 427.654 -0.855927 5.85173 0
M  V30 4582 H 426.584 -0.262252 0.706923 0
M  V30 4583 H 429.235 0.052769 1.83424 0
M  V30 4584 H 427.617 -2.0774 3.37135 0
M  V30 4585 H 428.791 0.513923 4.57925 0
M  V30 4586 H 427.106 0.306862 4.15268 0
M  V30 4587 H 429.703 -2.40364 4.77629 0
M  V30 4588 H 430.046 -2.77382 3.10427 0
M  V30 4589 H 430.579 -1.21822 3.78688 0
M  V30 4590 H 427.318 -0.0671161 6.55466 0
M  V30 4591 H 426.838 -1.59546 5.78191 0
M  V30 4592 H 428.517 -1.35658 6.32618 0
M  V30 4593 N 428.649 -1.55105 -0.279332 0
M  V30 4594 C 429.897 -1.75066 -1.00977 0
M  V30 4595 C 430.218 -0.551276 -1.87045 0
M  V30 4596 O 429.488 0.433984 -1.91032 0
M  V30 4597 H 428.068 -0.645578 -0.375816 0
M  V30 4598 H 430.73 -1.92497 -0.305089 0
M  V30 4599 H 429.826 -2.64894 -1.65038 0
M  V30 4600 N 430.127 0.543554 -1.4793 0
M  V30 4601 C 431.037 1.67657 -1.64098 0
M  V30 4602 C 432.053 1.65934 -0.523622 0
M  V30 4603 O 433.229 1.85133 -0.792943 0
M  V30 4604 C 430.294 3.04146 -1.66421 0
M  V30 4605 C 429.355 3.16831 -2.89684 0
M  V30 4606 C 428.588 4.46809 -2.91886 0
M  V30 4607 O 428.811 5.33095 -2.02895 0
M  V30 4608 O 427.745 4.63573 -3.83906 0
M  V30 4609 H 431.571 1.56957 -2.59997 0
M  V30 4610 H 429.156 0.715116 -1.31173 0
M  V30 4611 H 431.038 3.85346 -1.70548 0
M  V30 4612 H 429.713 3.152 -0.736923 0
M  V30 4613 H 428.62 2.34977 -2.91095 0
M  V30 4614 H 429.953 3.10687 -3.81752 0
M  V30 4615 N 431.605 1.3629 0.791371 0
M  V30 4616 C 432.882 1.20962 1.53712 0
M  V30 4617 C 433.262 -0.205021 2.10102 0
M  V30 4618 O 432.61 -1.21042 1.93807 0
M  V30 4619 C 432.82 2.29002 2.63361 0
M  V30 4620 C 434.168 2.65572 3.31295 0
M  V30 4621 O 435.192 2.2803 2.73643 0
M  V30 4622 O 434.051 3.3018 4.35481 0
M  V30 4623 H 431.145 0.47086 0.679867 0
M  V30 4624 H 433.691 1.48016 0.830021 0
M  V30 4625 H 432.463 3.2382 2.19674 0
M  V30 4626 H 432.086 2.03303 3.41692 0
M  V30 4627 N 433.083 -1.0153 1.20538 0
M  V30 4628 C 434.031 -2.12215 0.952235 0
M  V30 4629 C 435.025 -1.69123 -0.0968735 0
M  V30 4630 O 436.231 -1.7992 0.0536006 0
M  V30 4631 H 432.606 -0.693576 0.290613 0
M  V30 4632 H 434.577 -2.3075 1.89201 0
M  V30 4633 C 433.326 -3.43755 0.522287 0
M  V30 4634 H 432.649 -3.7734 1.32115 0
M  V30 4635 H 434.089 -4.22254 0.384389 0
M  V30 4636 C 432.548 -3.28088 -0.765489 0
M  V30 4637 O 433.078 -3.57921 -1.8236 0
M  V30 4638 N 431.284 -2.81333 -0.728011 0
M  V30 4639 H 430.831 -2.57255 0.133332 0
M  V30 4640 H 430.789 -2.71232 -1.58999 0
M  V30 4641 O 434.6 -1.13875 -1.14519 0
M  V30 4642 H 435.291 -0.85746 -1.73687 0
M  V30 END ATOM
M  V30 BEGIN BOND
M  V30 END BOND
M  V30 END CTAB
M  END
$$$$
