drugbank_target|P11086 Phenylethanolamine N-methyltransferase (DB01752; DB03468; DB03824; DB04273; DB07597; DB07739; DB07747; DB07798; DB07906; DB08128; DB08129; DB08550; DB08631; DB08654)
 OpenBabel12092119423D

  0  0  0     0  0            999 V3000
M  V30 BEGIN CTAB
M  V30 COUNTS 4309 4363 0 0 0
M  V30 BEGIN ATOM
M  V30 1 H -0.908 1.98254 -0.117106 0
M  V30 2 N 0 1.576 0 0
M  V30 3 C 0.933 2.03868 1.02534 0
M  V30 4 C 1.911 0.928543 1.3348 0
M  V30 5 O 3.095 1.19667 1.45644 0
M  V30 6 C 0.222 2.43627 2.35294 0
M  V30 7 C -0.732 3.65373 2.2001 0
M  V30 8 S 0.101 5.13292 1.52614 0
M  V30 9 C 1.257 5.56322 2.86805 0
M  V30 10 H 1.49 2.90518 0.631377 0
M  V30 11 H -0.977 1.52953 0.210867 0
M  V30 12 H 0.981 2.67203 3.11629 0
M  V30 13 H -0.358 1.57376 2.7183 0
M  V30 14 H -1.165 3.90944 3.18086 0
M  V30 15 H -1.563 3.418 1.51819 0
M  V30 16 H 0.729 5.58782 3.83104 0
M  V30 17 H 1.672 6.56266 2.65933 0
M  V30 18 H 2.08 4.83886 2.90714 0
M  V30 19 N 1.4781 -0.272755 1.55222 0
M  V30 20 C 2.7031 -1.02683 1.80197 0
M  V30 21 C 3.1281 -1.79142 0.573551 0
M  V30 22 O 2.4861 -1.74917 -0.476849 0
M  V30 23 C 2.5341 -1.9609 3.02624 0
M  V30 24 O 1.6381 -3.04863 2.77727 0
M  V30 25 H 0.9791 -0.293557 0.595584 0
M  V30 26 H 3.5091 -0.30159 2.02365 0
M  V30 27 H 3.5191 -2.38039 3.31363 0
M  V30 28 H 2.1941 -1.39851 3.91682 0
M  V30 29 H 0.7711 -2.67228 2.60084 0
M  V30 30 N 2.9562 -1.48159 -0.537278 0
M  V30 31 C 4.2042 -1.55497 -1.29094 0
M  V30 32 C 4.5252 -0.227454 -1.93669 0
M  V30 33 O 3.7952 0.750386 -1.80959 0
M  V30 34 H 2.3752 -0.572832 -0.47945 0
M  V30 35 H 5.0372 -1.84579 -0.625818 0
M  V30 36 H 4.1332 -2.33216 -2.07405 0
M  V30 37 N 4.4343 0.785586 -1.36625 0
M  V30 38 C 5.3973 1.87999 -1.31107 0
M  V30 39 C 6.3973 1.59316 -0.217959 0
M  V30 40 O 7.5873 1.67656 -0.472977 0
M  V30 41 C 4.7193 3.24861 -1.03334 0
M  V30 42 H 5.9123 1.94307 -2.2844 0
M  V30 43 H 3.4653 0.983813 -1.21453 0
M  V30 44 H 4.2003 3.24235 -0.0647432 0
M  V30 45 H 3.9853 3.4707 -1.82441 0
M  V30 46 H 5.4753 4.04929 -1.02088 0
M  V30 47 N 5.9124 1.20967 1.01018 0
M  V30 48 C 7.1894 0.93264 1.71934 0
M  V30 49 C 7.5694 -0.55692 2.03621 0
M  V30 50 O 6.9174 -1.52035 1.7058 0
M  V30 51 C 7.1274 1.81233 2.98254 0
M  V30 52 C 8.4754 2.05804 3.71389 0
M  V30 53 O 9.4994 1.78539 3.08225 0
M  V30 54 O 8.3584 2.51888 4.84989 0
M  V30 55 H 5.4524 0.349272 0.749625 0
M  V30 56 H 7.9984 1.31871 1.06808 0
M  V30 57 H 6.7704 2.82067 2.71208 0
M  V30 58 H 6.3934 1.42674 3.7112 0
M  V30 59 N 7.3905 -1.2043 1.01659 0
M  V30 60 C 8.8065 -1.41852 0.731442 0
M  V30 61 C 9.0065 -1.89358 -0.688898 0
M  V30 62 O 8.0625 -2.06247 -1.45666 0
M  V30 63 C 9.3755 -2.44019 1.75714 0
M  V30 64 C 10.9235 -2.57785 1.77527 0
M  V30 65 C 11.3985 -3.63194 2.79023 0
M  V30 66 N 12.8895 -3.70678 2.77763 0
M  V30 67 C 13.6245 -4.51897 3.52954 0
M  V30 68 N 13.1205 -5.36921 4.37821 0
M  V30 69 N 14.9135 -4.4643 3.41551 0
M  V30 70 H 7.0645 -0.879093 1.93354 0
M  V30 71 H 9.3275 -0.448425 0.835236 0
M  V30 72 H 9.0335 -2.1611 2.77469 0
M  V30 73 H 8.9075 -3.43007 1.56927 0
M  V30 74 H 11.2945 -2.85023 0.764569 0
M  V30 75 H 11.3755 -1.58992 2.00387 0
M  V30 76 H 11.0195 -3.36699 3.80258 0
M  V30 77 H 10.9495 -4.61609 2.53425 0
M  V30 78 H 13.4405 -3.09944 2.16201 0
M  V30 79 H 13.7535 -5.95981 4.91962 0
M  V30 80 H 12.0985 -5.36424 4.41899 0
M  V30 81 H 15.2895 -3.79042 2.74672 0
M  V30 82 H 15.4625 -5.09491 4.00404 0
M  V30 83 N 8.8686 -0.792821 -1.36206 0
M  V30 84 C 10.0936 -0.377701 -2.03932 0
M  V30 85 C 10.5186 0.998947 -1.59382 0
M  V30 86 O 9.8766 1.64421 -0.763903 0
M  V30 87 C 9.9246 -0.453635 -3.57735 0
M  V30 88 O 9.0286 0.538151 -4.08874 0
M  V30 89 H 8.3696 -0.159855 -0.644471 0
M  V30 90 H 10.8996 -1.07488 -1.7409 0
M  V30 91 H 10.9096 -0.318464 -4.06755 0
M  V30 92 H 9.5846 -1.45784 -3.89512 0
M  V30 93 H 8.1616 0.364359 -3.71116 0
M  V30 94 N 10.3467 1.47872 -0.545128 0
M  V30 95 C 11.7577 1.86384 -0.108581 0
M  V30 96 C 12.1087 1.45309 1.31832 0
M  V30 97 O 11.2337 0.850641 1.9898 0
M  V30 98 C 11.8287 3.38265 -0.190274 0
M  V30 99 C 10.3877 3.75914 0.191164 0
M  V30 100 C 9.5347 2.71926 -0.543273 0
M  V30 101 H 12.4857 1.39561 -0.755537 0
M  V30 102 H 12.5067 3.75831 0.594217 0
M  V30 103 H 12.0187 3.6813 -1.2289 0
M  V30 104 H 10.1197 3.51665 1.23136 0
M  V30 105 H 10.2327 4.78836 -0.158987 0
M  V30 106 H 8.5967 2.54697 0.0122495 0
M  V30 107 H 9.3797 3.04634 -1.58282 0
M  V30 108 N 11.8248 0.280983 1.55075 0
M  V30 109 C 12.7728 -0.619864 2.24188 0
M  V30 110 C 13.7668 -1.15315 1.24092 0
M  V30 111 O 14.9728 -1.1061 1.42005 0
M  V30 112 H 11.3478 -0.218459 0.719569 0
M  V30 113 H 13.3188 -0.0141831 2.98397 0
M  V30 114 C 12.0678 -1.7899 2.98091 0
M  V30 115 H 11.3908 -1.38874 3.74905 0
M  V30 116 H 12.8308 -2.39672 3.49762 0
M  V30 117 C 11.2898 -2.68192 2.03899 0
M  V30 118 O 11.8198 -3.6872 1.594 0
M  V30 119 N 10.0258 -2.35488 1.70275 0
M  V30 120 H 9.5728 -1.53787 2.06658 0
M  V30 121 H 9.5308 -2.95442 1.07524 0
M  V30 122 N 13.3029 -1.57598 0.00835791 0
M  V30 123 C 14.2659 -2.07884 -0.965242 0
M  V30 124 C 15.2659 -0.989825 -1.26725 0
M  V30 125 O 16.4559 -1.25218 -1.21104 0
M  V30 126 C 13.5879 -2.52731 -2.28779 0
M  V30 127 H 14.7809 -2.95178 -0.530112 0
M  V30 128 H 12.3339 -1.54458 -0.239283 0
M  V30 129 H 13.0689 -1.68705 -2.76964 0
M  V30 130 H 12.8539 -3.32272 -2.08177 0
M  V30 131 H 14.3439 -2.91933 -2.98605 0
M  V30 132 N 14.781 0.264519 -1.55364 0
M  V30 133 C 16.029 0.993021 -1.76021 0
M  V30 134 C 16.35 1.86511 -0.569099 0
M  V30 135 O 15.62 1.91438 0.415735 0
M  V30 136 H 14.2 0.369639 -0.649135 0
M  V30 137 H 16.862 0.286707 -1.9278 0
M  V30 138 H 15.958 1.62502 -2.66457 0
M  V30 139 N 16.2591 1.48442 0.529413 0
M  V30 140 C 17.2221 1.62524 1.61612 0
M  V30 141 C 18.2221 0.498509 1.52877 0
M  V30 142 O 19.4121 0.76431 1.56537 0
M  V30 143 C 16.5441 1.59597 3.01233 0
M  V30 144 H 17.7371 2.59423 1.50465 0
M  V30 145 H 15.2901 1.37047 0.751514 0
M  V30 146 H 16.0251 0.641781 3.17886 0
M  V30 147 H 15.8101 2.41397 3.08982 0
M  V30 148 H 17.3001 1.72646 3.80241 0
M  V30 149 N 17.7372 -0.778329 1.37039 0
M  V30 150 C 18.7002 -1.87301 1.32102 0
M  V30 151 C 19.7002 -1.59198 0.226405 0
M  V30 152 O 20.8902 -1.67403 0.481861 0
M  V30 153 C 18.0222 -3.24309 1.05055 0
M  V30 154 H 19.2152 -1.93093 2.29467 0
M  V30 155 H 16.7682 -0.977358 1.21973 0
M  V30 156 H 17.5032 -3.24196 0.0819373 0
M  V30 157 H 17.2882 -3.46098 1.84279 0
M  V30 158 H 18.7782 -4.04382 1.04234 0
M  V30 159 N 19.2153 -1.21501 -1.00376 0
M  V30 160 C 20.6263 -1.03146 -1.55621 0
M  V30 161 C 20.9773 0.408375 -1.91903 0
M  V30 162 O 20.1023 1.29177 -1.73616 0
M  V30 163 C 20.6973 -1.86612 -2.82775 0
M  V30 164 C 19.2563 -1.72586 -3.34501 0
M  V30 165 C 18.4033 -1.83747 -2.07683 0
M  V30 166 H 21.3543 -1.35505 -0.826081 0
M  V30 167 H 21.3753 -1.3771 -3.54706 0
M  V30 168 H 20.8873 -2.91399 -2.56336 0
M  V30 169 H 18.9883 -0.704877 -3.65872 0
M  V30 170 H 19.1013 -2.54623 -4.05837 0
M  V30 171 H 17.4653 -1.27069 -2.20739 0
M  V30 172 H 18.2483 -2.90044 -1.83655 0
M  V30 173 N 20.6934 1.19889 -1.02296 0
M  V30 174 C 21.9704 1.85148 -0.630832 0
M  V30 175 C 22.3504 1.91385 0.890782 0
M  V30 176 O 21.6984 1.42642 1.78509 0
M  V30 177 C 21.9084 3.24442 -1.28602 0
M  V30 178 C 23.2564 4.00663 -1.4055 0
M  V30 179 O 24.2804 3.33818 -1.24273 0
M  V30 180 O 23.1394 5.20387 -1.66913 0
M  V30 181 H 20.2334 0.797613 -0.218499 0
M  V30 182 H 22.7794 1.27427 -1.12074 0
M  V30 183 H 21.5514 3.14704 -2.32545 0
M  V30 184 H 21.1744 3.89802 -0.7836 0
M  V30 185 N 22.1715 0.800033 1.35784 0
M  V30 186 C 23.3965 0.388511 2.03729 0
M  V30 187 C 23.8215 -0.990481 1.5991 0
M  V30 188 O 23.1795 -1.64013 0.772612 0
M  V30 189 C 23.2275 0.4726 3.5749 0
M  V30 190 O 22.3315 -0.51646 4.09153 0
M  V30 191 H 21.6725 0.163271 0.643614 0
M  V30 192 H 24.2025 1.0841 1.73518 0
M  V30 193 H 24.2125 0.34003 4.06581 0
M  V30 194 H 22.8875 1.47848 3.88734 0
M  V30 195 H 21.4645 -0.344673 3.71304 0
M  V30 196 N 23.6496 -1.47581 0.552962 0
M  V30 197 C 24.6126 -2.28439 -0.186605 0
M  V30 198 C 25.6126 -1.36706 -0.84665 0
M  V30 199 O 26.8026 -1.59378 -0.703164 0
M  V30 200 C 23.9346 -3.16264 -1.2724 0
M  V30 201 H 25.1276 -2.95294 0.523609 0
M  V30 202 H 22.6806 -1.532 0.309745 0
M  V30 203 H 23.4156 -2.54091 -2.01514 0
M  V30 204 H 23.2006 -3.83769 -0.803968 0
M  V30 205 H 24.6906 -3.77198 -1.79196 0
M  V30 206 N 25.1277 -0.289203 -1.54924 0
M  V30 207 C 26.5387 0.205791 -1.85562 0
M  V30 208 C 26.8897 1.54351 -1.2112 0
M  V30 209 O 26.0147 2.10435 -0.504601 0
M  V30 210 C 26.6097 0.380177 -3.3666 0
M  V30 211 C 25.1687 0.819395 -3.67373 0
M  V30 212 C 24.3157 -0.079159 -2.77187 0
M  V30 213 H 27.2667 -0.510577 -1.50262 0
M  V30 214 H 27.2877 1.21659 -3.60526 0
M  V30 215 H 26.7997 -0.593589 -3.83534 0
M  V30 216 H 24.9007 1.80413 -3.26009 0
M  V30 217 H 25.0137 0.646957 -4.74712 0
M  V30 218 H 23.3777 0.439565 -2.50878 0
M  V30 219 H 24.1607 -1.04906 -3.26878 0
M  V30 220 N 26.6058 1.57591 -0.0167156 0
M  V30 221 C 27.8538 1.90906 0.663285 0
M  V30 222 C 28.1748 0.892509 1.73376 0
M  V30 223 O 27.4448 -0.0677623 1.95783 0
M  V30 224 H 26.0248 0.704637 0.247983 0
M  V30 225 H 28.6868 1.94803 -0.0615909 0
M  V30 226 H 27.7828 2.9116 1.12393 0
M  V30 227 N 28.0839 -0.256276 1.55502 0
M  V30 228 C 29.0159 -1.33981 1.85962 0
M  V30 229 C 30.0289 -1.44743 0.745212 0
M  V30 230 O 31.2179 -1.4626 1.02324 0
M  V30 231 C 28.3179 -2.7194 2.02242 0
M  V30 232 C 27.4909 -2.83562 3.33033 0
M  V30 233 C 26.5499 -4.02304 3.39172 0
M  V30 234 O 25.5759 -3.92273 4.12444 0
M  V30 235 N 26.7779 -5.15045 2.67784 0
M  V30 236 H 29.5429 -1.08191 2.7949 0
M  V30 237 H 27.1039 -0.446388 1.55624 0
M  V30 238 H 29.0959 -3.49697 2.03701 0
M  V30 239 H 27.6659 -2.90479 1.15502 0
M  V30 240 H 26.8859 -1.92555 3.43971 0
M  V30 241 H 28.1739 -2.88271 4.19258 0
M  V30 242 H 27.5719 -5.26085 2.07968 0
M  V30 243 H 26.1289 -5.90972 2.74947 0
M  V30 244 N 29.562 -1.4872 -0.521534 0
M  V30 245 C 30.525 -1.63379 -1.60748 0
M  V30 246 C 31.525 -0.50661 -1.52611 0
M  V30 247 O 32.715 -0.772601 -1.5613 0
M  V30 248 C 29.847 -1.61192 -3.00383 0
M  V30 249 H 31.04 -2.60217 -1.49087 0
M  V30 250 H 28.593 -1.37444 -0.744235 0
M  V30 251 H 29.328 -0.65863 -3.17541 0
M  V30 252 H 29.113 -2.43032 -3.07698 0
M  V30 253 H 30.603 -1.7466 -3.7932 0
M  V30 254 N 31.0401 0.771051 -1.3745 0
M  V30 255 C 32.0031 1.86598 -1.33093 0
M  V30 256 C 33.0031 1.59076 -0.234845 0
M  V30 257 O 34.1931 1.67145 -0.490732 0
M  V30 258 C 31.3251 3.23747 -1.06773 0
M  V30 259 H 32.5181 1.91873 -2.30488 0
M  V30 260 H 30.0711 0.970876 -1.2249 0
M  V30 261 H 30.8061 3.24148 -0.099129 0
M  V30 262 H 30.5911 3.45115 -1.86112 0
M  V30 263 H 32.0811 4.03824 -1.06377 0
M  V30 264 N 32.5182 1.22032 0.997298 0
M  V30 265 C 33.7642 1.04376 1.73878 0
M  V30 266 C 34.0972 -0.420716 1.89588 0
M  V30 267 O 33.3722 -1.31202 1.43583 0
M  V30 268 C 33.6552 1.75047 3.14691 0
M  V30 269 C 33.5082 3.29062 3.06656 0
M  V30 270 C 34.8272 1.49928 4.13775 0
M  V30 271 H 31.9462 0.380578 0.631133 0
M  V30 272 H 34.5882 1.50312 1.16217 0
M  V30 273 H 32.7382 1.35996 3.63919 0
M  V30 274 H 34.4102 3.7753 2.65083 0
M  V30 275 H 32.6532 3.58967 2.43568 0
M  V30 276 H 33.3242 3.73683 4.06282 0
M  V30 277 H 35.8002 1.83842 3.73285 0
M  V30 278 H 34.6762 2.01878 5.10428 0
M  V30 279 H 34.9372 0.430929 4.39995 0
M  V30 280 N 33.9963 -1.19345 1.0293 0
M  V30 281 C 34.9593 -2.20793 0.615069 0
M  V30 282 C 35.9593 -1.57553 -0.321533 0
M  V30 283 O 37.1493 -1.73862 -0.108483 0
M  V30 284 C 34.2813 -3.40754 -0.0999222 0
M  V30 285 H 35.4743 -2.58955 1.51269 0
M  V30 286 H 33.0273 -1.3303 0.820534 0
M  V30 287 H 33.7623 -3.0811 -1.01187 0
M  V30 288 H 33.5473 -3.87889 0.57309 0
M  V30 289 H 35.0373 -4.15898 -0.376645 0
M  V30 290 N 35.4744 -0.807222 -1.35358 0
M  V30 291 C 36.6994 -0.399309 -2.0352 0
M  V30 292 C 37.1244 0.981986 -1.60433 0
M  V30 293 O 36.4824 1.63601 -0.781299 0
M  V30 294 C 36.5304 -0.491552 -3.57234 0
M  V30 295 O 35.6344 0.494754 -4.09421 0
M  V30 296 H 34.9754 -0.166682 -0.642739 0
M  V30 297 H 37.5054 -1.09328 -1.72941 0
M  V30 298 H 37.5154 -0.361588 -4.06395 0
M  V30 299 H 36.1904 -1.49907 -3.87944 0
M  V30 300 H 34.7674 0.324977 -3.71481 0
M  V30 301 N 36.9525 1.47285 -0.560781 0
M  V30 302 C 37.9155 2.28535 0.174488 0
M  V30 303 C 38.9155 1.37153 0.839388 0
M  V30 304 O 40.1055 1.59748 0.694702 0
M  V30 305 C 37.2375 3.16934 1.25561 0
M  V30 306 H 38.4305 2.95012 -0.539262 0
M  V30 307 H 35.9835 1.53034 -0.317865 0
M  V30 308 H 36.7185 2.55157 2.00164 0
M  V30 309 H 36.5035 3.8419 0.783604 0
M  V30 310 H 37.9935 3.78143 1.77193 0
M  V30 311 N 38.4306 0.297415 1.54768 0
M  V30 312 C 39.6606 -0.315165 2.04182 0
M  V30 313 C 40.0686 -1.4834 1.17439 0
M  V30 314 O 39.4116 -1.82695 0.191891 0
M  V30 315 C 39.4736 -0.837583 3.49607 0
M  V30 316 C 39.1376 0.204912 4.5654 0
M  V30 317 C 40.1346 1.03214 5.09552 0
M  V30 318 C 37.8196 0.345578 5.0111 0
M  V30 319 C 39.8136 1.986 6.05671 0
M  V30 320 C 37.5006 1.30289 5.97049 0
M  V30 321 C 38.4986 2.12159 6.49213 0
M  V30 322 O 38.1866 3.06268 7.43273 0
M  V30 323 H 37.9186 -0.0729646 0.672051 0
M  V30 324 H 40.4726 0.433907 2.00765 0
M  V30 325 H 38.7026 -1.63712 3.50336 0
M  V30 326 H 40.3916 -1.36566 3.82236 0
M  V30 327 H 41.1576 0.934312 4.75916 0
M  V30 328 H 37.0366 -0.28171 4.60138 0
M  V30 329 H 40.5806 2.62542 6.46311 0
M  V30 330 H 36.4776 1.40145 6.30103 0
M  V30 331 H 37.2456 3.01205 7.61064 0
M  V30 332 N 39.9087 -1.5758 0.0250728 0
M  V30 333 C 40.8407 -2.06869 -0.986796 0
M  V30 334 C 41.8537 -0.991332 -1.29137 0
M  V30 335 O 43.0427 -1.26761 -1.25674 0
M  V30 336 C 40.1427 -2.47486 -2.31525 0
M  V30 337 C 39.3157 -3.78253 -2.19643 0
M  V30 338 C 38.3747 -4.05464 -3.35388 0
M  V30 339 O 37.4007 -4.75774 -3.12454 0
M  V30 340 N 38.6027 -3.55321 -4.59051 0
M  V30 341 H 41.3677 -2.94302 -0.566276 0
M  V30 342 H 38.9287 -1.6109 -0.161776 0
M  V30 343 H 40.9207 -2.62785 -3.07776 0
M  V30 344 H 39.4907 -1.65441 -2.65232 0
M  V30 345 H 38.7107 -3.7279 -1.28144 0
M  V30 346 H 39.9987 -4.63936 -2.08903 0
M  V30 347 H 39.3967 -2.98431 -4.80578 0
M  V30 348 H 37.9537 -3.75905 -5.32483 0
M  V30 349 N 41.3868 0.248026 -1.55636 0
M  V30 350 C 42.8028 0.596483 -1.48035 0
M  V30 351 C 43.0028 1.88386 -0.715039 0
M  V30 352 O 42.0588 2.51319 -0.243944 0
M  V30 353 C 43.3718 0.700258 -2.92433 0
M  V30 354 C 44.9198 0.792659 -3.02797 0
M  V30 355 C 45.3948 0.928005 -4.485 0
M  V30 356 N 46.8858 0.992903 -4.52433 0
M  V30 357 C 47.6208 1.11687 -5.62418 0
M  V30 358 N 47.1168 1.20645 -6.82214 0
M  V30 359 N 48.9098 1.14994 -5.50212 0
M  V30 360 H 41.0608 -0.597109 -2.03834 0
M  V30 361 H 43.3238 -0.205925 -0.925364 0
M  V30 362 H 43.0298 -0.175658 -3.51261 0
M  V30 363 H 42.9038 1.57255 -3.42857 0
M  V30 364 H 45.2908 1.65903 -2.4405 0
M  V30 365 H 45.3718 -0.104762 -2.55585 0
M  V30 366 H 45.0158 0.0661971 -5.07857 0
M  V30 367 H 44.9458 1.84045 -4.93391 0
M  V30 368 H 47.4368 0.935064 -3.66149 0
M  V30 369 H 47.7498 1.30008 -7.61786 0
M  V30 370 H 46.0948 1.17605 -6.84977 0
M  V30 371 H 49.2858 1.07643 -4.55555 0
M  V30 372 H 49.4588 1.24311 -6.35965 0
M  V30 373 N 42.8649 1.48995 0.513639 0
M  V30 374 C 44.1119 1.57843 1.26854 0
M  V30 375 C 44.4399 0.259501 1.92761 0
M  V30 376 O 43.6949 -0.75159 1.80692 0
M  V30 377 C 43.9939 2.67756 2.36731 0
M  V30 378 C 43.6599 4.09669 1.88368 0
M  V30 379 C 42.3219 4.48291 1.74896 0
M  V30 380 C 44.6739 4.98537 1.52021 0
M  V30 381 C 42.0019 5.73568 1.23438 0
M  V30 382 C 44.3539 6.24319 1.0202 0
M  V30 383 C 43.0179 6.61783 0.871778 0
M  V30 384 H 42.2879 0.577587 0.464192 0
M  V30 385 H 44.9349 1.82778 0.571366 0
M  V30 386 H 43.2399 2.36743 3.12185 0
M  V30 387 H 44.9369 2.71813 2.9482 0
M  V30 388 H 41.5269 3.79176 1.99808 0
M  V30 389 H 45.7109 4.69363 1.61281 0
M  V30 390 H 40.9669 6.01304 1.10648 0
M  V30 391 H 45.1409 6.92566 0.729722 0
M  V30 392 H 42.7679 7.5874 0.470852 0
M  V30 393 N 44.343 -0.763751 1.37857 0
M  V30 394 C 45.253 -1.90817 1.36478 0
M  V30 395 C 46.269 -1.71997 0.263248 0
M  V30 396 O 47.445 -1.95095 0.499979 0
M  V30 397 C 44.51 -3.2605 1.17864 0
M  V30 398 C 43.571 -3.57467 2.3773 0
M  V30 399 C 42.804 -4.86249 2.19995 0
M  V30 400 O 43.027 -5.57884 1.18836 0
M  V30 401 O 41.961 -5.16911 3.08361 0
M  V30 402 H 45.787 -1.94933 2.32884 0
M  V30 403 H 43.372 -0.907619 1.1867 0
M  V30 404 H 45.254 -4.06924 1.09504 0
M  V30 405 H 43.929 -3.22769 0.245372 0
M  V30 406 H 42.836 -2.76796 2.51664 0
M  V30 407 H 44.169 -3.655 3.29652 0
M  V30 408 N 45.8211 -1.22559 -0.990812 0
M  V30 409 C 47.2321 -1.04791 -1.54518 0
M  V30 410 C 47.5831 0.387998 -1.92325 0
M  V30 411 O 46.7081 1.27328 -1.74976 0
M  V30 412 C 47.3031 -1.896 -2.80779 0
M  V30 413 C 45.8621 -1.76124 -3.32652 0
M  V30 414 C 45.0091 -1.8594 -2.05722 0
M  V30 415 H 47.9601 -1.36374 -0.811662 0
M  V30 416 H 47.9811 -1.41464 -3.53225 0
M  V30 417 H 47.4931 -2.94101 -2.53231 0
M  V30 418 H 45.5941 -0.743643 -3.65104 0
M  V30 419 H 45.7071 -2.58913 -4.03114 0
M  V30 420 H 44.0711 -1.29403 -2.19379 0
M  V30 421 H 44.8541 -2.91976 -1.80568 0
M  V30 422 N 47.2992 1.18797 -1.03562 0
M  V30 423 C 48.7152 1.40671 -0.753917 0
M  V30 424 C 48.9152 1.9043 0.658686 0
M  V30 425 O 47.9712 2.08538 1.42366 0
M  V30 426 C 49.2842 2.41192 -1.79574 0
M  V30 427 C 50.8322 2.54928 -1.81606 0
M  V30 428 C 51.3072 3.58709 -2.84766 0
M  V30 429 N 52.7982 3.66212 -2.83625 0
M  V30 430 C 53.5332 4.46225 -3.60098 0
M  V30 431 N 53.0292 5.29888 -4.46308 0
M  V30 432 N 54.8222 4.40939 -3.4861 0
M  V30 433 H 46.9732 0.848221 -1.94728 0
M  V30 434 H 49.2362 0.435081 -0.842264 0
M  V30 435 H 48.9422 2.11669 -2.80872 0
M  V30 436 H 48.8162 3.40467 -1.62365 0
M  V30 437 H 51.2032 2.83771 -0.809817 0
M  V30 438 H 51.2842 1.55784 -2.02891 0
M  V30 439 H 50.9282 3.30607 -3.85566 0
M  V30 440 H 50.8582 4.57519 -2.60737 0
M  V30 441 H 53.3492 3.06466 -2.21105 0
M  V30 442 H 53.6622 5.88078 -5.01382 0
M  V30 443 H 52.0072 5.29326 -4.50377 0
M  V30 444 H 55.1982 3.74624 -2.80668 0
M  V30 445 H 55.3712 5.03056 -4.08459 0
M  V30 446 N 48.7773 0.814389 1.34928 0
M  V30 447 C 49.7403 0.235759 2.27984 0
M  V30 448 C 50.7403 -0.581412 1.49921 0
M  V30 449 O 51.9303 -0.398758 1.69575 0
M  V30 450 C 49.0623 -0.670433 3.34242 0
M  V30 451 H 50.2553 1.05659 2.80671 0
M  V30 452 H 47.8083 0.585614 1.44915 0
M  V30 453 H 48.5433 -1.51466 2.86755 0
M  V30 454 H 48.3283 -0.0860822 3.92005 0
M  V30 455 H 49.8183 -1.06935 4.03676 0
M  V30 456 N 50.2554 -1.46986 0.568584 0
M  V30 457 C 51.4854 -2.0653 0.0539173 0
M  V30 458 C 51.8934 -1.42004 -1.25026 0
M  V30 459 O 51.2364 -0.514541 -1.76347 0
M  V30 460 C 51.2984 -3.58938 -0.200854 0
M  V30 461 C 50.9624 -4.45572 1.01559 0
M  V30 462 C 51.9594 -4.82986 1.92407 0
M  V30 463 C 49.6444 -4.8692 1.23346 0
M  V30 464 C 51.6384 -5.60559 3.03402 0
M  V30 465 C 49.3254 -5.64255 2.34649 0
M  V30 466 C 50.3234 -6.00986 3.24507 0
M  V30 467 O 50.0114 -6.76761 4.33878 0
M  V30 468 H 49.7434 -0.674292 0.0480234 0
M  V30 469 H 52.2974 -1.89812 0.784896 0
M  V30 470 H 50.5274 -3.73911 -0.986279 0
M  V30 471 H 52.2164 -4.0046 -0.662294 0
M  V30 472 H 52.9824 -4.51633 1.76785 0
M  V30 473 H 48.8614 -4.57789 0.543178 0
M  V30 474 H 52.4054 -5.89147 3.73565 0
M  V30 475 H 48.3024 -5.95021 2.5024 0
M  V30 476 H 49.0704 -6.95168 4.32068 0
M  V30 477 N 51.7335 -0.305618 -1.54608 0
M  V30 478 C 52.6635 0.561482 -2.26649 0
M  V30 479 C 53.6445 1.13415 -1.26772 0
M  V30 480 O 54.8295 1.16262 -1.55553 0
M  V30 481 C 51.9595 1.73122 -3.01075 0
M  V30 482 C 50.9135 1.2887 -4.08138 0
M  V30 483 C 50.2395 2.54396 -4.70305 0
M  V30 484 C 51.5395 0.416578 -5.20636 0
M  V30 485 H 53.2335 -0.0393902 -2.99374 0
M  V30 486 H 50.7795 -0.020385 -1.43986 0
M  V30 487 H 52.7325 2.34396 -3.50195 0
M  V30 488 H 51.4565 2.3584 -2.25936 0
M  V30 489 H 50.1155 0.698991 -3.59875 0
M  V30 490 H 49.7635 3.15439 -3.918 0
M  V30 491 H 49.4635 2.25486 -5.42614 0
M  V30 492 H 50.9875 3.16464 -5.2219 0
M  V30 493 H 52.4015 0.935116 -5.65622 0
M  V30 494 H 50.7985 0.221046 -5.99693 0
M  V30 495 H 51.8685 -0.557162 -4.81688 0
M  V30 496 N 53.2116 1.57565 -0.0334293 0
M  V30 497 C 54.6276 1.56297 0.322997 0
M  V30 498 C 54.8276 1.03945 1.7262 0
M  V30 499 O 53.8836 0.688109 2.42943 0
M  V30 500 C 55.1966 3.00232 0.167664 0
M  V30 501 C 56.7446 3.12078 0.240107 0
M  V30 502 C 57.2196 4.57859 0.113513 0
M  V30 503 N 58.7106 4.62887 0.170359 0
M  V30 504 C 59.4456 5.73319 0.0962517 0
M  V30 505 N 58.9416 6.92794 -0.0291881 0
M  V30 506 N 60.7346 5.61898 0.150551 0
M  V30 507 H 52.8856 1.89923 -0.950956 0
M  V30 508 H 55.1486 0.873824 -0.367608 0
M  V30 509 H 54.8546 3.42501 -0.799102 0
M  V30 510 H 54.7286 3.654 0.936083 0
M  V30 511 H 57.1156 2.69718 1.19733 0
M  V30 512 H 57.1966 2.49623 -0.558763 0
M  V30 513 H 56.8406 5.009 -0.840314 0
M  V30 514 H 56.7706 5.18299 0.931302 0
M  V30 515 H 59.2616 3.76954 0.26728 0
M  V30 516 H 59.5746 7.7276 -0.0789252 0
M  V30 517 H 57.9196 6.94971 -0.0640299 0
M  V30 518 H 61.1106 4.67448 0.246981 0
M  V30 519 H 61.2836 6.47938 0.0893365 0
M  V30 520 N 54.6897 -0.239769 1.55765 0
M  V30 521 C 55.6377 -1.31668 1.91745 0
M  V30 522 C 56.6317 -1.49462 0.797338 0
M  V30 523 O 57.8377 -1.50852 0.982021 0
M  V30 524 H 54.2127 -0.441048 0.609082 0
M  V30 525 H 56.1837 -0.985923 2.81642 0
M  V30 526 C 54.9327 -2.66368 2.2348 0
M  V30 527 H 54.2557 -2.53478 3.09175 0
M  V30 528 H 55.6957 -3.40578 2.52553 0
M  V30 529 C 54.1547 -3.20002 1.05359 0
M  V30 530 O 54.6847 -4.00538 0.305261 0
M  V30 531 N 52.8907 -2.78126 0.842292 0
M  V30 532 H 52.4377 -2.12742 1.45253 0
M  V30 533 H 52.3957 -3.14354 0.053652 0
M  V30 534 N 56.1678 -1.49265 -0.50573 0
M  V30 535 C 57.1158 -1.66065 -1.62866 0
M  V30 536 C 58.1098 -0.526636 -1.61006 0
M  V30 537 O 59.3158 -0.706126 -1.65571 0
M  V30 538 H 55.6908 -0.52356 -0.539805 0
M  V30 539 H 57.6618 -2.60329 -1.45848 0
M  V30 540 C 56.4108 -1.74008 -3.01026 0
M  V30 541 H 55.7338 -2.6064 -3.03161 0
M  V30 542 H 57.1738 -1.89798 -3.79147 0
M  V30 543 C 55.6328 -0.483868 -3.33407 0
M  V30 544 O 56.1628 0.392548 -3.99777 0
M  V30 545 N 54.3688 -0.348236 -2.88506 0
M  V30 546 H 53.9158 -1.06242 -2.34671 0
M  V30 547 H 53.8738 0.491204 -3.10539 0
M  V30 548 N 57.6459 0.756429 -1.3826 0
M  V30 549 C 58.8759 1.54341 -1.3734 0
M  V30 550 C 59.2839 1.89159 0.0393917 0
M  V30 551 O 58.6269 1.5307 1.01565 0
M  V30 552 C 58.6889 2.87238 -2.16182 0
M  V30 553 C 58.3529 2.74973 -3.65019 0
M  V30 554 C 59.3499 2.44962 -4.58574 0
M  V30 555 C 57.0349 2.92515 -4.08338 0
M  V30 556 C 59.0289 2.32642 -5.93428 0
M  V30 557 C 56.7159 2.79815 -5.43274 0
M  V30 558 C 57.7139 2.49921 -6.35632 0
M  V30 559 O 57.4019 2.37275 -7.68086 0
M  V30 560 H 57.1339 0.484281 -0.471643 0
M  V30 561 H 59.6879 0.944152 -1.82414 0
M  V30 562 H 57.9179 3.49342 -1.65822 0
M  V30 563 H 59.6069 3.48731 -2.07705 0
M  V30 564 H 60.3729 2.31081 -4.26412 0
M  V30 565 H 56.2519 3.14781 -3.368 0
M  V30 566 H 59.7959 2.0923 -6.65484 0
M  V30 567 H 55.6929 2.93269 -5.75034 0
M  V30 568 H 56.4609 2.52509 -7.78577 0
M  V30 569 N 59.124 1.23083 0.984299 0
M  V30 570 C 60.087 1.00979 2.05757 0
M  V30 571 C 61.087 -0.0269573 1.60777 0
M  V30 572 O 62.277 0.212403 1.729 0
M  V30 573 C 59.409 0.527072 3.36801 0
M  V30 574 H 60.602 1.9622 2.26799 0
M  V30 575 H 58.155 1.05072 1.15714 0
M  V30 576 H 58.89 -0.429294 3.21446 0
M  V30 577 H 58.675 1.27515 3.70786 0
M  V30 578 H 60.165 0.392942 4.15747 0
M  V30 579 N 60.6021 -1.18246 1.0419 0
M  V30 580 C 62.0131 -1.69914 0.773698 0
M  V30 581 C 62.3641 -1.83085 -0.705297 0
M  V30 582 O 61.4891 -1.51123 -1.5489 0
M  V30 583 C 62.0841 -3.08619 1.39784 0
M  V30 584 C 60.6431 -3.57494 1.17792 0
M  V30 585 C 59.7901 -2.34013 1.48773 0
M  V30 586 H 62.7411 -1.02904 1.20816 0
M  V30 587 H 62.7621 -3.71958 0.801714 0
M  V30 588 H 62.2741 -2.99001 2.47426 0
M  V30 589 H 60.3751 -3.72406 0.120295 0
M  V30 590 H 60.4881 -4.40852 1.87581 0
M  V30 591 H 58.8521 -2.37986 0.907463 0
M  V30 592 H 59.6351 -2.27013 2.57527 0
M  V30 593 N 62.0802 -0.821533 -1.34494 0
M  V30 594 C 63.4912 -0.467956 -1.8074 0
M  V30 595 C 63.8422 1.01151 -1.68116 0
M  V30 596 O 62.9672 1.78707 -1.22036 0
M  V30 597 C 63.5622 -0.842627 -3.28154 0
M  V30 598 C 62.1212 -0.541439 -3.72485 0
M  V30 599 C 61.2682 -1.06028 -2.56229 0
M  V30 600 H 64.2192 -1.01183 -1.22261 0
M  V30 601 H 64.2402 -0.145876 -3.8022 0
M  V30 602 H 63.7522 -1.91945 -3.37311 0
M  V30 603 H 61.8532 0.526034 -3.68868 0
M  V30 604 H 61.9662 -1.08453 -4.66663 0
M  V30 605 H 60.3302 -0.481892 -2.501 0
M  V30 606 H 61.1132 -2.14352 -2.68157 0
M  V30 607 N 63.5583 1.46682 -0.576371 0
M  V30 608 C 64.9743 1.57822 -0.237562 0
M  V30 609 C 65.1743 1.57237 1.26011 0
M  V30 610 O 64.2303 1.48596 2.04146 0
M  V30 611 C 65.5433 2.87499 -0.881168 0
M  V30 612 C 67.0913 3.01119 -0.85417 0
M  V30 613 C 67.5663 4.33524 -1.4772 0
M  V30 614 N 69.0573 4.40207 -1.44125 0
M  V30 615 C 69.7923 5.4126 -1.89276 0
M  V30 616 N 69.2883 6.49021 -2.42371 0
M  V30 617 N 71.0813 5.32422 -1.80231 0
M  V30 618 H 63.2323 1.45306 -1.54919 0
M  V30 619 H 65.4953 0.692733 -0.647167 0
M  V30 620 H 65.2013 2.9372 -1.93447 0
M  V30 621 H 65.0753 3.75224 -0.385592 0
M  V30 622 H 67.4623 2.94485 0.190491 0
M  V30 623 H 67.5433 2.14887 -1.3877 0
M  V30 624 H 67.1873 4.40916 -2.52103 0
M  V30 625 H 67.1173 5.1852 -0.918947 0
M  V30 626 H 69.6083 3.62931 -1.05307 0
M  V30 627 H 69.9213 7.2233 -2.74698 0
M  V30 628 H 68.2663 6.49858 -2.46393 0
M  V30 629 H 71.4573 4.47137 -1.38514 0
M  V30 630 H 71.6303 6.11034 -2.15735 0
M  V30 631 N 65.0364 0.313813 1.54444 0
M  V30 632 C 66.2844 -0.291099 1.99993 0
M  V30 633 C 66.6054 -1.53418 1.20366 0
M  V30 634 O 65.8754 -1.93544 0.302927 0
M  V30 635 H 64.4554 -0.110552 0.738774 0
M  V30 636 H 67.1174 0.428106 1.9014 0
M  V30 637 H 66.2134 -0.554268 3.07139 0
M  V30 638 N 66.5145 -1.57545 0.0417849 0
M  V30 639 C 67.7915 -1.83642 -0.673433 0
M  V30 640 C 68.1715 -0.928298 -1.89594 0
M  V30 641 O 67.5195 0.0129955 -2.28496 0
M  V30 642 C 67.7295 -3.33155 -1.03964 0
M  V30 643 C 69.0775 -3.99941 -1.42592 0
M  V30 644 O 70.1015 -3.37725 -1.13226 0
M  V30 645 O 68.9605 -5.09619 -1.9736 0
M  V30 646 H 66.0545 -0.757638 -0.331533 0
M  V30 647 H 68.6005 -1.69554 0.070433 0
M  V30 648 H 67.3725 -3.9093 -0.170098 0
M  V30 649 H 66.9955 -3.52396 -1.84126 0
M  V30 650 N 67.9926 0.231505 -1.5589 0
M  V30 651 C 68.9226 1.29022 -1.94617 0
M  V30 652 C 69.9036 1.4941 -0.813067 0
M  V30 653 O 71.0886 1.6176 -1.07459 0
M  V30 654 C 68.2186 2.64199 -2.25424 0
M  V30 655 C 67.1726 2.58484 -3.41131 0
M  V30 656 C 66.4986 3.97599 -3.57518 0
M  V30 657 C 67.7986 2.1413 -4.76388 0
M  V30 658 H 69.4926 0.968563 -2.83301 0
M  V30 659 H 67.0386 0.464479 -1.36303 0
M  V30 660 H 68.9916 3.38413 -2.51107 0
M  V30 661 H 67.7156 2.98032 -1.33583 0
M  V30 662 H 66.3746 1.86727 -3.15481 0
M  V30 663 H 66.0226 4.28723 -2.6307 0
M  V30 664 H 65.7226 3.94659 -4.35337 0
M  V30 665 H 67.2466 4.7349 -3.85538 0
M  V30 666 H 68.6606 2.78083 -5.01341 0
M  V30 667 H 67.0576 2.2227 -5.57419 0
M  V30 668 H 68.1276 1.09331 -4.72414 0
M  V30 669 N 69.4707 1.49531 0.497807 0
M  V30 670 C 70.7107 1.60799 1.26187 0
M  V30 671 C 71.0747 0.289627 1.89803 0
M  V30 672 O 72.2757 0.277512 2.67364 0
M  V30 673 C 70.5467 2.73729 2.29798 0
M  V30 674 S 72.1057 3.04968 3.155 0
M  V30 675 H 68.9237 0.567145 0.428798 0
M  V30 676 H 71.5257 1.87204 0.563477 0
M  V30 677 H 70.2297 3.68036 1.81597 0
M  V30 678 H 69.7607 2.49328 3.04301 0
M  V30 679 H 71.7757 2.46735 4.30507 0
M  V30 680 N 70.9488 -0.749086 1.3866 0
M  V30 681 C 71.8968 -1.88428 1.36373 0
M  V30 682 C 72.8908 -1.67561 0.248929 0
M  V30 683 O 74.0968 -1.75074 0.41821 0
M  V30 684 H 70.4718 -0.620023 0.42553 0
M  V30 685 H 72.4428 -1.87473 2.32156 0
M  V30 686 C 71.1918 -3.25961 1.21014 0
M  V30 687 H 70.5148 -3.42607 2.06059 0
M  V30 688 H 71.9548 -4.05625 1.23469 0
M  V30 689 C 70.4138 -3.36799 -0.0825941 0
M  V30 690 O 70.9438 -3.87517 -1.05797 0
M  V30 691 N 69.1498 -2.90258 -0.140939 0
M  V30 692 H 68.6968 -2.49174 0.653477 0
M  V30 693 H 68.6548 -2.97889 -1.00545 0
M  V30 694 N 72.4269 -1.23603 -0.977757 0
M  V30 695 C 73.8379 -1.06424 -1.53398 0
M  V30 696 C 74.1889 0.367578 -1.92726 0
M  V30 697 O 73.3139 1.25465 -1.76316 0
M  V30 698 C 73.9089 -1.92568 -2.78753 0
M  V30 699 C 72.4679 -1.79642 -3.30765 0
M  V30 700 C 71.6149 -1.88111 -2.03739 0
M  V30 701 H 74.5659 -1.37227 -0.797152 0
M  V30 702 H 74.5869 -1.45203 -3.51705 0
M  V30 703 H 74.0989 -2.96771 -2.50098 0
M  V30 704 H 72.1999 -0.782325 -3.64294 0
M  V30 705 H 72.3129 -2.63174 -4.00345 0
M  V30 706 H 70.6769 -1.31723 -2.17994 0
M  V30 707 H 71.4599 -2.93875 -1.77461 0
M  V30 708 N 73.905 1.17692 -1.04816 0
M  V30 709 C 74.853 2.23632 -0.63966 0
M  V30 710 C 75.847 1.6601 0.337219 0
M  V30 711 O 77.053 1.78844 0.203693 0
M  V30 712 H 73.428 0.727949 -0.188665 0
M  V30 713 H 75.399 2.55387 -1.54337 0
M  V30 714 C 74.148 3.4769 -0.0264051 0
M  V30 715 H 73.471 3.92331 -0.769164 0
M  V30 716 H 74.911 4.23418 0.222098 0
M  V30 717 C 73.37 3.13807 1.22584 0
M  V30 718 O 73.9 3.28236 2.31569 0
M  V30 719 N 72.106 2.68065 1.12202 0
M  V30 720 H 71.653 2.56525 0.235133 0
M  V30 721 H 71.611 2.45767 1.96076 0
M  V30 722 N 75.3831 0.828654 1.34056 0
M  V30 723 C 76.6311 0.41863 1.97717 0
M  V30 724 C 76.9521 -1.02314 1.66002 0
M  V30 725 O 76.2221 -1.71119 0.953683 0
M  V30 726 H 74.8021 0.151809 0.731412 0
M  V30 727 H 77.4641 1.05936 1.63596 0
M  V30 728 H 76.5601 0.542318 3.07352 0
M  V30 729 N 76.8612 -1.46375 0.584142 0
M  V30 730 C 78.1072 -2.02678 0.0703716 0
M  V30 731 C 78.4402 -1.4545 -1.28678 0
M  V30 732 O 77.7152 -0.62014 -1.84349 0
M  V30 733 C 77.9982 -3.60099 0.00614674 0
M  V30 734 C 77.8512 -4.27709 1.3923 0
M  V30 735 C 79.1702 -4.34598 -0.693742 0
M  V30 736 H 76.2892 -0.736504 0.027047 0
M  V30 737 H 78.9312 -1.74501 0.751615 0
M  V30 738 H 77.0812 -3.84236 -0.574009 0
M  V30 739 H 78.7532 -4.14832 2.01773 0
M  V30 740 H 76.9962 -3.87016 1.95962 0
M  V30 741 H 77.6672 -5.36478 1.29982 0
M  V30 742 H 80.1432 -4.15615 -0.200869 0
M  V30 743 H 79.0192 -5.44318 -0.707714 0
M  V30 744 H 79.2802 -4.05759 -1.75533 0
M  V30 745 N 78.3393 -0.321999 -1.54275 0
M  V30 746 C 79.5873 0.280489 -2.00144 0
M  V30 747 C 79.9083 1.52777 -1.21178 0
M  V30 748 O 79.1783 1.9338 -0.313187 0
M  V30 749 H 77.7583 0.106632 -0.73935 0
M  V30 750 H 80.4203 -0.438184 -1.8991 0
M  V30 751 H 79.5163 0.537972 -3.07428 0
M  V30 752 N 79.8174 1.5752 -0.0501392 0
M  V30 753 C 81.2284 1.80271 0.485705 0
M  V30 754 C 81.5794 0.96228 1.70981 0
M  V30 755 O 80.7044 0.178578 2.15662 0
M  V30 756 C 81.2994 3.26957 0.887938 0
M  V30 757 C 79.8584 3.5063 1.36877 0
M  V30 758 C 79.0054 2.75165 0.343468 0
M  V30 759 H 81.9564 1.56281 -0.276028 0
M  V30 760 H 81.9774 3.37821 1.75093 0
M  V30 761 H 81.4894 3.881 -0.0031809 0
M  V30 762 H 79.5904 2.94766 2.27911 0
M  V30 763 H 79.7034 4.59343 1.36164 0
M  V30 764 H 78.0674 2.4127 0.816128 0
M  V30 765 H 78.8504 3.39034 -0.539548 0
M  V30 766 N 81.2955 -0.223234 1.56011 0
M  V30 767 C 82.5415 -0.944891 1.8012 0
M  V30 768 C 82.8965 -1.82039 0.622862 0
M  V30 769 O 82.1895 -1.8773 -0.383143 0
M  V30 770 C 82.3835 -1.81948 3.0762 0
M  V30 771 C 82.2125 -1.03014 4.37742 0
M  V30 772 C 80.9825 -0.72574 5.00061 0
M  V30 773 C 83.1805 -0.396256 5.12771 0
M  V30 774 N 81.1625 0.0851816 6.13841 0
M  V30 775 C 82.5335 0.278137 6.19376 0
M  V30 776 C 84.5885 -0.309117 4.9694 0
M  V30 777 C 83.2915 1.03133 7.11868 0
M  V30 778 C 85.3175 0.430607 5.8983 0
M  V30 779 C 84.6795 1.09355 6.9586 0
M  V30 780 H 80.7785 -0.326081 0.710771 0
M  V30 781 H 83.3625 -0.215914 1.93499 0
M  V30 782 H 81.5335 -2.52029 2.95527 0
M  V30 783 H 83.2655 -2.47848 3.19927 0
M  V30 784 H 80.0205 -1.04335 4.61964 0
M  V30 785 H 80.4445 0.479428 6.753 0
M  V30 786 H 85.0865 -0.807313 4.15021 0
M  V30 787 H 82.8045 1.54105 7.9327 0
M  V30 788 H 86.3905 0.499012 5.79656 0
M  V30 789 H 85.2705 1.65679 7.66499 0
M  V30 790 N 82.7736 -1.49793 -0.48987 0
M  V30 791 C 83.7206 -1.67281 -1.59014 0
M  V30 792 C 84.6906 -0.514177 -1.57941 0
M  V30 793 O 85.8756 -0.742533 -1.75759 0
M  V30 794 C 83.0156 -1.75569 -2.97102 0
M  V30 795 C 82.1286 -3.0281 -3.08107 0
M  V30 796 C 81.2636 -3.02008 -4.36995 0
M  V30 797 C 80.3026 -4.23782 -4.41673 0
M  V30 798 N 79.4396 -4.20826 -5.62005 0
M  V30 799 H 84.2796 -2.61224 -1.43409 0
M  V30 800 H 81.8166 -1.29508 -0.697565 0
M  V30 801 H 83.7746 -1.78354 -3.77155 0
M  V30 802 H 82.4046 -0.850827 -3.11385 0
M  V30 803 H 81.4566 -3.09584 -2.21047 0
M  V30 804 H 82.7686 -3.92801 -3.07423 0
M  V30 805 H 81.9226 -3.03418 -5.25378 0
M  V30 806 H 80.6616 -2.09815 -4.4026 0
M  V30 807 H 79.6666 -4.22604 -3.5169 0
M  V30 808 H 80.8916 -5.17181 -4.40115 0
M  V30 809 H 78.8376 -3.31476 -5.66091 0
M  V30 810 H 78.7546 -5.04564 -5.62984 0
M  V30 811 H 80.0226 -4.26355 -6.52565 0
M  V30 812 N 84.2517 0.741722 -1.39055 0
M  V30 813 C 85.1817 1.869 -1.39966 0
M  V30 814 C 86.1627 1.6804 -0.26392 0
M  V30 815 O 87.3477 1.88458 -0.468755 0
M  V30 816 C 84.4777 3.24572 -1.23574 0
M  V30 817 C 83.4317 3.58056 -2.34477 0
M  V30 818 C 82.7577 4.94593 -2.0318 0
M  V30 819 C 84.0577 3.61716 -3.76774 0
M  V30 820 H 85.7517 1.86395 -2.34302 0
M  V30 821 H 83.2977 0.895361 -1.1278 0
M  V30 822 H 85.2507 4.031 -1.22834 0
M  V30 823 H 83.9747 3.25587 -0.257045 0
M  V30 824 H 82.6337 2.81854 -2.34423 0
M  V30 825 H 82.2817 4.92181 -1.03765 0
M  V30 826 H 81.9817 5.17964 -2.77465 0
M  V30 827 H 83.5057 5.75486 -2.04079 0
M  V30 828 H 84.9197 4.30335 -3.78794 0
M  V30 829 H 83.3167 3.96603 -4.50362 0
M  V30 830 H 84.3867 2.61672 -4.08235 0
M  V30 831 N 85.7298 1.2412 0.971189 0
M  V30 832 C 87.1458 1.00584 1.23916 0
M  V30 833 C 87.3458 -0.287481 1.99439 0
M  V30 834 O 86.4018 -1.00454 2.31658 0
M  V30 835 C 87.7148 2.21864 2.0297 0
M  V30 836 C 89.2628 2.26452 2.16076 0
M  V30 837 C 89.7378 3.47343 2.98524 0
M  V30 838 N 91.2288 3.47639 3.06107 0
M  V30 839 C 91.9638 4.37837 3.70251 0
M  V30 840 N 91.4598 5.38286 4.36142 0
M  V30 841 N 93.2528 4.25558 3.67228 0
M  V30 842 H 85.4038 2.07236 0.465499 0
M  V30 843 H 87.6668 0.909236 0.268315 0
M  V30 844 H 87.3728 3.15771 1.54861 0
M  V30 845 H 87.2468 2.23698 3.03709 0
M  V30 846 H 89.6338 1.33078 2.6339 0
M  V30 847 H 89.7148 2.28645 1.14696 0
M  V30 848 H 89.3588 4.41029 2.51905 0
M  V30 849 H 89.2888 3.42393 4.00093 0
M  V30 850 H 91.7798 2.74966 2.59233 0
M  V30 851 H 92.0928 6.03352 4.82894 0
M  V30 852 H 90.4378 5.42176 4.34822 0
M  V30 853 H 93.6288 3.46322 3.14927 0
M  V30 854 H 93.8018 4.96054 4.16935 0
M  V30 855 N 87.2079 -1.17134 1.05439 0
M  V30 856 C 88.4479 -1.89137 0.77502 0
M  V30 857 C 88.8119 -1.79345 -0.685526 0
M  V30 858 O 90.0129 -2.46188 -1.0791 0
M  V30 859 C 88.2839 -3.35003 1.2453 0
M  V30 860 S 89.8429 -4.24952 1.09367 0
M  V30 861 H 86.6609 -0.652949 0.281387 0
M  V30 862 H 89.2629 -1.4145 1.34953 0
M  V30 863 H 87.9669 -3.39666 2.30338 0
M  V30 864 H 87.4979 -3.87736 0.665166 0
M  V30 865 H 89.5129 -4.96196 0.0193397 0
M  V30 866 N 88.686 -0.835752 -1.33615 0
M  V30 867 C 89.616 -0.281739 -2.31794 0
M  V30 868 C 90.597 0.608833 -1.58831 0
M  V30 869 O 91.782 0.533035 -1.86741 0
M  V30 870 C 88.912 0.546612 -3.42971 0
M  V30 871 C 87.866 -0.247904 -4.27281 0
M  V30 872 C 87.192 0.704001 -5.30045 0
M  V30 873 C 88.492 -1.46324 -5.01385 0
M  V30 874 H 90.186 -1.10206 -2.78379 0
M  V30 875 H 87.732 -0.531388 -1.33837 0
M  V30 876 H 89.685 0.944467 -4.1068 0
M  V30 877 H 88.409 1.40011 -2.95067 0
M  V30 878 H 87.068 -0.627281 -3.61194 0
M  V30 879 H 86.716 1.55381 -4.78399 0
M  V30 880 H 86.416 0.176524 -5.87335 0
M  V30 881 H 87.94 1.09944 -6.0062 0
M  V30 882 H 89.354 -1.13871 -5.61877 0
M  V30 883 H 87.751 -1.92728 -5.6831 0
M  V30 884 H 88.821 -2.23467 -4.30338 0
M  V30 885 N 90.1641 1.46063 -0.591896 0
M  V30 886 C 91.1271 2.28854 0.125973 0
M  V30 887 C 92.1271 1.38903 0.810107 0
M  V30 888 O 93.3171 1.61186 0.66066 0
M  V30 889 C 90.4491 3.19526 1.1881 0
M  V30 890 H 91.6421 2.93802 -0.601717 0
M  V30 891 H 89.1951 1.52325 -0.350254 0
M  V30 892 H 89.9301 2.59345 1.94707 0
M  V30 893 H 89.7151 3.85766 0.701936 0
M  V30 894 H 91.2051 3.81817 1.69132 0
M  V30 895 N 91.6422 0.330177 1.54103 0
M  V30 896 C 92.5742 -0.566902 2.22079 0
M  V30 897 C 93.5872 -1.07462 1.22294 0
M  V30 898 O 94.7762 -0.987065 1.48726 0
M  V30 899 C 91.8762 -1.79138 2.87685 0
M  V30 900 C 91.0492 -1.42123 4.13666 0
M  V30 901 C 90.1082 -2.50394 4.62806 0
M  V30 902 O 89.1342 -2.14261 5.27334 0
M  V30 903 N 90.3362 -3.81433 4.37595 0
M  V30 904 H 93.1012 0.0151844 2.99696 0
M  V30 905 H 90.6622 0.153681 1.61169 0
M  V30 906 H 92.6542 -2.50975 3.1748 0
M  V30 907 H 91.2242 -2.28115 2.13734 0
M  V30 908 H 90.4442 -0.534201 3.90564 0
M  V30 909 H 91.7322 -1.14971 4.9564 0
M  V30 910 H 91.1302 -4.13584 3.8596 0
M  V30 911 H 89.6872 -4.4948 4.72029 0
M  V30 912 N 93.1203 -1.57491 0.0584922 0
M  V30 913 C 94.3483 -1.97296 -0.623037 0
M  V30 914 C 94.7633 -0.936338 -1.63946 0
M  V30 915 O 94.1203 0.0785981 -1.82331 0
M  V30 916 C 94.1713 -3.37183 -1.30345 0
M  V30 917 O 93.8923 -4.36872 -0.32773 0
M  V30 918 C 95.3933 -3.91788 -2.07406 0
M  V30 919 H 92.6133 -0.649153 -0.169826 0
M  V30 920 H 95.1573 -2.04106 0.12696 0
M  V30 921 H 93.3123 -3.31502 -2.00463 0
M  V30 922 H 93.7263 -5.18141 -0.814269 0
M  V30 923 H 95.2003 -4.91926 -2.50425 0
M  V30 924 H 95.6773 -3.27609 -2.92521 0
M  V30 925 H 96.2833 -4.00829 -1.42184 0
M  V30 926 N 94.5984 0.214957 -1.56127 0
M  V30 927 C 95.8454 0.938372 -1.79446 0
M  V30 928 C 96.1734 1.8407 -0.628378 0
M  V30 929 O 95.4284 1.91837 0.386925 0
M  V30 930 C 95.7274 1.80314 -3.0858 0
M  V30 931 C 95.3934 1.05349 -4.3842 0
M  V30 932 C 94.0554 0.846435 -4.73697 0
M  V30 933 C 96.4074 0.524588 -5.18553 0
M  V30 934 C 93.7354 0.098683 -5.86617 0
M  V30 935 C 96.0874 -0.209853 -6.32252 0
M  V30 936 C 94.7514 -0.428102 -6.66126 0
M  V30 937 H 94.0214 0.343375 -0.656639 0
M  V30 938 H 96.6684 0.206077 -1.90388 0
M  V30 939 H 94.9734 2.6035 -2.92789 0
M  V30 940 H 96.6704 2.36513 -3.23825 0
M  V30 941 H 93.2604 1.22486 -4.10725 0
M  V30 942 H 97.4444 0.672008 -4.91729 0
M  V30 943 H 92.7004 -0.0805753 -6.11347 0
M  V30 944 H 96.8744 -0.627157 -6.9357 0
M  V30 945 H 94.5014 -1.00944 -7.53468 0
M  V30 946 N 96.0765 1.50051 0.48192 0
M  V30 947 C 97.0395 1.67584 1.5636 0
M  V30 948 C 98.0395 0.546894 1.51214 0
M  V30 949 O 99.2295 0.813725 1.54026 0
M  V30 950 C 96.3615 1.691 2.96003 0
M  V30 951 H 97.5545 2.64078 1.42136 0
M  V30 952 H 95.1075 1.39369 0.707533 0
M  V30 953 H 95.8425 0.742589 3.15684 0
M  V30 954 H 95.6275 2.51105 3.01146 0
M  V30 955 H 97.1175 1.84656 3.74556 0
M  V30 956 N 97.5546 -0.734337 1.39446 0
M  V30 957 C 98.7826 -1.52358 1.39981 0
M  V30 958 C 99.1976 -1.88799 -0.0054975 0
M  V30 959 O 98.5546 -1.54146 -0.976998 0
M  V30 960 C 98.6056 -2.81072 2.27333 0
M  V30 961 O 98.3266 -2.46178 3.62392 0
M  V30 962 C 99.8276 -3.75096 2.36259 0
M  V30 963 H 97.0476 -0.470806 0.478103 0
M  V30 964 H 99.5916 -0.907339 1.83269 0
M  V30 965 H 97.7466 -3.39026 1.87457 0
M  V30 966 H 98.1606 -3.28866 4.08592 0
M  V30 967 H 99.6346 -4.62305 3.01626 0
M  V30 968 H 100.112 -4.16892 1.38194 0
M  V30 969 H 100.718 -3.23061 2.76608 0
M  V30 970 N 99.0327 -1.24633 -0.964593 0
M  V30 971 C 100.281 -1.08573 -1.70459 0
M  V30 972 C 100.602 0.375655 -1.91347 0
M  V30 973 O 99.8717 1.26779 -1.49345 0
M  V30 974 H 98.4517 -0.398784 -0.631649 0
M  V30 975 H 101.114 -1.56601 -1.16026 0
M  V30 976 H 100.21 -1.58623 -2.68785 0
M  V30 977 N 100.511 1.16574 -1.06058 0
M  V30 978 C 101.421 2.2452 -0.680282 0
M  V30 979 C 102.437 1.71348 0.302604 0
M  V30 980 O 103.613 2.00822 0.152513 0
M  V30 981 C 100.678 3.46629 -0.0700315 0
M  V30 982 C 99.7388 4.14849 -1.10448 0
M  V30 983 C 98.9718 5.31129 -0.523256 0
M  V30 984 O 99.1948 5.66514 0.664709 0
M  V30 985 O 98.1288 5.88526 -1.26179 0
M  V30 986 H 101.955 2.59355 -1.58015 0
M  V30 987 H 99.5398 1.24043 -0.832694 0
M  V30 988 H 101.422 4.20543 0.268667 0
M  V30 989 H 100.097 3.13573 0.803353 0
M  V30 990 H 99.0038 3.42916 -1.49532 0
M  V30 991 H 100.337 4.51954 -1.94931 0
M  V30 992 N 101.989 0.842826 1.3317 0
M  V30 993 C 103.235 0.441099 1.97945 0
M  V30 994 C 103.568 -0.998024 1.66593 0
M  V30 995 O 102.843 -1.69839 0.947898 0
M  V30 996 C 103.126 0.666841 3.53872 0
M  V30 997 C 102.979 2.15352 3.94897 0
M  V30 998 C 104.298 0.115544 4.39948 0
M  V30 999 H 101.417 0.161739 0.719034 0
M  V30 1000 H 104.059 1.05907 1.57746 0
M  V30 1001 H 102.209 0.140828 3.88245 0
M  V30 1002 H 103.881 2.7447 3.70761 0
M  V30 1003 H 102.124 2.63653 3.44484 0
M  V30 1004 H 102.795 2.26221 5.03516 0
M  V30 1005 H 105.271 0.565213 4.12243 0
M  V30 1006 H 104.147 0.303152 5.48062 0
M  V30 1007 H 104.408 -0.980935 4.3108 0
M  V30 1008 N 103.467 -1.45747 0.599634 0
M  V30 1009 C 104.692 -2.07178 0.0960198 0
M  V30 1010 C 105.117 -1.44268 -1.207 0
M  V30 1011 O 104.475 -0.532503 -1.73303 0
M  V30 1012 C 104.523 -3.60579 -0.0385348 0
M  V30 1013 O 103.627 -3.97713 -1.0908 0
M  V30 1014 H 102.968 -0.660251 0.0704593 0
M  V30 1015 H 105.498 -1.87124 0.827385 0
M  V30 1016 H 105.508 -4.07298 -0.239304 0
M  V30 1017 H 104.183 -4.05756 0.912947 0
M  V30 1018 H 102.76 -3.62678 -0.867135 0
M  V30 1019 N 104.945 -0.338344 -1.53925 0
M  V30 1020 C 106.193 0.259245 -2.0043 0
M  V30 1021 C 106.514 1.51484 -1.22791 0
M  V30 1022 O 105.784 1.93037 -0.33368 0
M  V30 1023 H 104.364 0.0987845 -0.740439 0
M  V30 1024 H 107.026 -0.458302 -1.89435 0
M  V30 1025 H 106.122 0.505334 -3.07982 0
M  V30 1026 N 106.423 1.57458 -0.0668435 0
M  V30 1027 C 107.839 1.56947 0.289772 0
M  V30 1028 C 108.039 1.07584 1.70376 0
M  V30 1029 O 107.095 0.739486 2.41429 0
M  V30 1030 C 108.408 3.0052 0.103943 0
M  V30 1031 C 109.956 3.12517 0.173857 0
M  V30 1032 C 110.431 4.57997 0.0163682 0
M  V30 1033 N 111.922 4.63144 0.0721352 0
M  V30 1034 C 112.657 5.73394 -0.0253794 0
M  V30 1035 N 112.153 6.92576 -0.176133 0
M  V30 1036 N 113.946 5.62091 0.0313305 0
M  V30 1037 H 106.097 1.87863 -0.991027 0
M  V30 1038 H 108.36 0.86583 -0.38606 0
M  V30 1039 H 108.066 3.40729 -0.871572 0
M  V30 1040 H 107.94 3.67304 0.858366 0
M  V30 1041 H 110.327 2.72197 1.13985 0
M  V30 1042 H 110.408 2.48381 -0.611586 0
M  V30 1043 H 110.052 4.99005 -0.946374 0
M  V30 1044 H 109.982 5.20158 0.821153 0
M  V30 1045 H 112.473 3.77436 0.187263 0
M  V30 1046 H 112.786 7.72418 -0.242821 0
M  V30 1047 H 111.131 6.94678 -0.211429 0
M  V30 1048 H 114.322 4.67867 0.147773 0
M  V30 1049 H 114.495 6.47982 -0.048121 0
M  V30 1050 N 107.901 -0.206675 1.56239 0
M  V30 1051 C 109.129 -0.945345 1.8404 0
M  V30 1052 C 109.544 -1.77336 0.647885 0
M  V30 1053 O 108.901 -1.78425 -0.383511 0
M  V30 1054 C 108.952 -1.8509 3.10522 0
M  V30 1055 O 108.673 -1.05634 4.25174 0
M  V30 1056 C 110.174 -2.70222 3.51418 0
M  V30 1057 H 107.394 -0.276372 0.61144 0
M  V30 1058 H 109.938 -0.217417 2.03341 0
M  V30 1059 H 108.093 -2.53259 2.93153 0
M  V30 1060 H 108.507 -1.67238 4.97124 0
M  V30 1061 H 109.981 -3.29438 4.42916 0
M  V30 1062 H 110.458 -3.43358 2.73864 0
M  V30 1063 H 111.064 -2.07443 3.71278 0
M  V30 1064 N 109.379 -1.50304 -0.473955 0
M  V30 1065 C 110.309 -1.71886 -1.58042 0
M  V30 1066 C 111.29 -0.567799 -1.60344 0
M  V30 1067 O 112.475 -0.806623 -1.76656 0
M  V30 1068 C 109.605 -1.81036 -2.96384 0
M  V30 1069 C 108.559 -2.962 -3.08949 0
M  V30 1070 C 107.885 -2.9049 -4.48909 0
M  V30 1071 C 109.185 -4.36752 -2.86434 0
M  V30 1072 H 110.879 -2.64527 -1.40234 0
M  V30 1073 H 108.425 -1.27295 -0.673201 0
M  V30 1074 H 110.378 -1.94719 -3.73714 0
M  V30 1075 H 109.102 -0.850147 -3.15341 0
M  V30 1076 H 107.761 -2.82164 -2.3405 0
M  V30 1077 H 107.409 -1.92321 -4.64781 0
M  V30 1078 H 107.109 -3.67802 -4.58253 0
M  V30 1079 H 108.633 -3.06218 -5.28264 0
M  V30 1080 H 110.047 -4.5133 -3.53517 0
M  V30 1081 H 108.444 -5.15493 -3.07225 0
M  V30 1082 H 109.514 -4.49321 -1.82316 0
M  V30 1083 N 110.857 0.726932 -1.39834 0
M  V30 1084 C 112.106 1.48214 -1.36805 0
M  V30 1085 C 112.419 1.95576 0.0305291 0
M  V30 1086 O 113.625 2.7088 0.183417 0
M  V30 1087 C 112.081 2.67854 -2.40379 0
M  V30 1088 C 111.689 2.27408 -3.85992 0
M  V30 1089 C 113.433 3.45641 -2.46439 0
M  V30 1090 C 111.34 3.43819 -4.81189 0
M  V30 1091 H 110.27 0.556606 -0.508631 0
M  V30 1092 H 112.921 0.792216 -1.65518 0
M  V30 1093 H 111.303 3.3896 -2.04749 0
M  V30 1094 H 112.477 1.63795 -4.30706 0
M  V30 1095 H 110.792 1.62692 -3.83302 0
M  V30 1096 H 113.389 4.32244 -3.14753 0
M  V30 1097 H 113.732 3.88669 -1.49139 0
M  V30 1098 H 114.265 2.8157 -2.81004 0
M  V30 1099 H 111.004 3.05834 -5.79781 0
M  V30 1100 H 110.524 4.06385 -4.41148 0
M  V30 1101 H 112.203 4.10043 -5.00474 0
M  V30 1102 N 112.336 1.25143 0.95797 0
M  V30 1103 C 113.613 1.00472 1.67823 0
M  V30 1104 C 113.993 -0.470056 2.058 0
M  V30 1105 O 113.341 -1.44663 1.76875 0
M  V30 1106 C 113.551 1.9372 2.90299 0
M  V30 1107 C 114.899 2.21371 3.62326 0
M  V30 1108 O 115.923 1.91451 3.00375 0
M  V30 1109 O 114.782 2.72231 4.7387 0
M  V30 1110 H 111.876 0.380752 0.734137 0
M  V30 1111 H 114.422 1.36283 1.01119 0
M  V30 1112 H 113.194 2.93316 2.59001 0
M  V30 1113 H 112.817 1.58286 3.64735 0
M  V30 1114 N 113.814 -1.1601 1.06675 0
M  V30 1115 C 115.063 -1.85973 0.780818 0
M  V30 1116 C 115.376 -1.82819 -0.695444 0
M  V30 1117 O 116.582 -2.484 -1.09589 0
M  V30 1118 C 115.038 -3.33757 1.34665 0
M  V30 1119 C 114.646 -3.45374 2.85343 0
M  V30 1120 C 116.39 -4.0895 1.13843 0
M  V30 1121 C 114.297 -4.87266 3.35151 0
M  V30 1122 H 113.227 -0.696661 0.288407 0
M  V30 1123 H 115.878 -1.30903 1.28595 0
M  V30 1124 H 114.26 -3.88456 0.769274 0
M  V30 1125 H 115.434 -3.00816 3.49065 0
M  V30 1126 H 113.749 -2.83619 3.04876 0
M  V30 1127 H 116.346 -5.13654 1.4854 0
M  V30 1128 H 116.689 -4.16229 0.0770282 0
M  V30 1129 H 117.222 -3.605 1.68179 0
M  V30 1130 H 113.961 -4.85168 4.40786 0
M  V30 1131 H 113.481 -5.32433 2.76179 0
M  V30 1132 H 115.16 -5.56097 3.30704 0
M  V30 1133 N 115.292 -0.849877 -1.32721 0
M  V30 1134 C 116.54 -0.450032 -1.97026 0
M  V30 1135 C 116.861 0.996604 -1.67609 0
M  V30 1136 O 116.131 1.6958 -0.980786 0
M  V30 1137 H 114.711 -0.163426 -0.728904 0
M  V30 1138 H 117.373 -1.08526 -1.6189 0
M  V30 1139 H 116.469 -0.591146 -3.0645 0
M  V30 1140 N 116.77 1.45427 -0.607355 0
M  V30 1141 C 117.995 2.07124 -0.107006 0
M  V30 1142 C 118.42 1.44906 1.19933 0
M  V30 1143 O 117.778 0.541687 1.73019 0
M  V30 1144 C 117.826 3.60595 0.0194119 0
M  V30 1145 O 116.93 3.98285 1.0697 0
M  V30 1146 H 116.271 0.659868 -0.0739597 0
M  V30 1147 H 118.801 1.86683 -0.837297 0
M  V30 1148 H 118.811 4.07419 0.2177 0
M  V30 1149 H 117.486 4.05266 -0.934453 0
M  V30 1150 H 116.063 3.63133 0.847889 0
M  V30 1151 N 118.248 0.346503 1.53744 0
M  V30 1152 C 119.496 -0.248612 2.00565 0
M  V30 1153 C 119.817 -1.5083 1.23593 0
M  V30 1154 O 119.087 -1.92858 0.343912 0
M  V30 1155 H 117.667 -0.0948564 0.740953 0
M  V30 1156 H 120.329 0.468341 1.89189 0
M  V30 1157 H 119.425 -0.488994 3.08245 0
M  V30 1158 N 119.726 -1.57421 0.075193 0
M  V30 1159 C 121.137 -1.81021 -0.456964 0
M  V30 1160 C 121.488 -0.98936 -1.69429 0
M  V30 1161 O 120.613 -0.212865 -2.15351 0
M  V30 1162 C 121.208 -3.28329 -0.83581 0
M  V30 1163 C 119.767 -3.52764 -1.31281 0
M  V30 1164 C 118.914 -2.75676 -0.299648 0
M  V30 1165 H 121.865 -1.55822 0.300856 0
M  V30 1166 H 121.886 -3.40564 -1.69696 0
M  V30 1167 H 121.398 -3.88046 0.0649238 0
M  V30 1168 H 119.499 -2.98355 -2.23193 0
M  V30 1169 H 119.612 -4.61451 -1.28839 0
M  V30 1170 H 117.976 -2.42538 -0.777641 0
M  V30 1171 H 118.759 -3.38132 0.593417 0
M  V30 1172 N 121.204 0.198386 -1.56346 0
M  V30 1173 C 122.432 0.935572 -1.84539 0
M  V30 1174 C 122.847 1.76989 -0.657281 0
M  V30 1175 O 122.204 1.78626 0.374043 0
M  V30 1176 C 122.255 1.8344 -3.11499 0
M  V30 1177 O 121.976 1.03377 -4.25728 0
M  V30 1178 C 123.477 2.68355 -3.52846 0
M  V30 1179 H 120.697 0.273126 -0.612897 0
M  V30 1180 H 123.241 0.20663 -2.03453 0
M  V30 1181 H 121.396 2.51701 -2.94492 0
M  V30 1182 H 121.81 1.64599 -4.98003 0
M  V30 1183 H 123.284 3.27085 -4.44657 0
M  V30 1184 H 123.761 3.41901 -2.75681 0
M  V30 1185 H 124.367 2.05471 -3.72373 0
M  V30 1186 N 122.682 1.50554 0.465978 0
M  V30 1187 C 123.928 1.62038 1.21949 0
M  V30 1188 C 124.261 0.322116 1.9151 0
M  V30 1189 O 123.536 -0.676723 1.82348 0
M  V30 1190 C 123.819 2.80421 2.25912 0
M  V30 1191 C 123.672 4.20144 1.60622 0
M  V30 1192 C 124.991 2.94354 3.27176 0
M  V30 1193 H 122.11 0.589752 0.441998 0
M  V30 1194 H 124.752 1.82956 0.51257 0
M  V30 1195 H 122.902 2.62717 2.86203 0
M  V30 1196 H 124.574 4.49449 1.03889 0
M  V30 1197 H 122.817 4.24165 0.909211 0
M  V30 1198 H 123.488 4.98914 2.36196 0
M  V30 1199 H 125.964 3.10578 2.76913 0
M  V30 1200 H 124.84 3.788 3.97242 0
M  V30 1201 H 125.101 2.05186 3.916 0
M  V30 1202 N 124.16 -0.719506 1.40217 0
M  V30 1203 C 125.39 -1.50646 1.41384 0
M  V30 1204 C 125.798 -1.89197 0.0107743 0
M  V30 1205 O 125.141 -1.55709 -0.974708 0
M  V30 1206 C 125.203 -2.81405 2.23722 0
M  V30 1207 C 124.867 -2.65199 3.72181 0
M  V30 1208 C 125.864 -2.32717 4.64907 0
M  V30 1209 C 123.549 -2.81586 4.1595 0
M  V30 1210 C 125.543 -2.16827 5.99387 0
M  V30 1211 C 123.23 -2.65313 5.50502 0
M  V30 1212 C 124.228 -2.32981 6.42035 0
M  V30 1213 O 123.916 -2.16827 7.74107 0
M  V30 1214 H 123.648 -0.471606 0.484318 0
M  V30 1215 H 126.202 -0.895456 1.84853 0
M  V30 1216 H 124.432 -3.44823 1.75026 0
M  V30 1217 H 126.121 -3.43102 2.16878 0
M  V30 1218 H 126.887 -2.19694 4.32388 0
M  V30 1219 H 122.766 -3.0574 3.45027 0
M  V30 1220 H 126.31 -1.91513 6.70797 0
M  V30 1221 H 122.207 -2.7792 5.82607 0
M  V30 1222 H 122.975 -2.31778 7.84998 0
M  V30 1223 N 125.638 -1.25649 -0.95132 0
M  V30 1224 C 126.57 -1.02112 -2.05197 0
M  V30 1225 C 127.583 0.0150571 -1.62793 0
M  V30 1226 O 128.772 -0.223874 -1.77091 0
M  V30 1227 C 125.872 -0.522361 -3.3485 0
M  V30 1228 C 125.045 -1.62546 -4.06076 0
M  V30 1229 C 124.104 -1.12649 -5.14001 0
M  V30 1230 O 123.13 -1.82156 -5.39266 0
M  V30 1231 N 124.332 0.03047 -5.80492 0
M  V30 1232 H 127.097 -1.96885 -2.25957 0
M  V30 1233 H 124.658 -1.16899 -1.1201 0
M  V30 1234 H 126.65 -0.172961 -4.0433 0
M  V30 1235 H 125.22 0.33151 -3.10837 0
M  V30 1236 H 124.44 -2.14628 -3.30649 0
M  V30 1237 H 125.728 -2.36644 -4.50419 0
M  V30 1238 H 125.126 0.611169 -5.62389 0
M  V30 1239 H 123.683 0.320875 -6.5101 0
M  V30 1240 N 127.117 1.15442 -1.07289 0
M  V30 1241 C 128.047 2.22312 -0.714107 0
M  V30 1242 C 129.028 1.67467 0.298155 0
M  V30 1243 O 130.213 1.93445 0.171048 0
M  V30 1244 C 127.343 3.47124 -0.110448 0
M  V30 1245 C 126.297 4.14926 -1.04979 0
M  V30 1246 C 125.623 5.33807 -0.308924 0
M  V30 1247 C 126.923 4.64762 -2.38314 0
M  V30 1248 H 128.617 2.5258 -1.6076 0
M  V30 1249 H 126.163 1.21404 -0.77441 0
M  V30 1250 H 128.116 4.21124 0.152482 0
M  V30 1251 H 126.84 3.16187 0.81812 0
M  V30 1252 H 125.499 3.42866 -1.29764 0
M  V30 1253 H 125.147 4.99126 0.623084 0
M  V30 1254 H 124.847 5.80113 -0.935036 0
M  V30 1255 H 126.371 6.10576 -0.0537771 0
M  V30 1256 H 127.785 5.30292 -2.1786 0
M  V30 1257 H 126.182 5.21728 -2.96514 0
M  V30 1258 H 127.252 3.80434 -3.00663 0
M  V30 1259 N 128.595 0.856903 1.32268 0
M  V30 1260 C 129.525 0.31858 2.31316 0
M  V30 1261 C 130.506 -0.583487 1.59779 0
M  V30 1262 O 131.691 -0.503259 1.87566 0
M  V30 1263 C 128.821 -0.491979 3.43798 0
M  V30 1264 C 127.775 0.315849 4.26833 0
M  V30 1265 C 127.101 -0.619586 5.31098 0
M  V30 1266 C 128.401 1.54282 4.98993 0
M  V30 1267 H 130.095 1.14621 2.76591 0
M  V30 1268 H 127.641 0.552613 1.32974 0
M  V30 1269 H 129.594 -0.879012 4.1213 0
M  V30 1270 H 128.318 -1.35299 2.97257 0
M  V30 1271 H 126.977 0.684664 3.6015 0
M  V30 1272 H 126.625 -1.47751 4.8081 0
M  V30 1273 H 126.325 -0.0830621 5.87541 0
M  V30 1274 H 127.849 -1.00375 6.02293 0
M  V30 1275 H 129.263 1.22796 5.59995 0
M  V30 1276 H 127.66 2.01745 5.65172 0
M  V30 1277 H 128.73 2.30285 4.26728 0
M  V30 1278 N 130.073 -1.45103 0.615059 0
M  V30 1279 C 131.298 -2.07064 0.117988 0
M  V30 1280 C 131.723 -1.4554 -1.19163 0
M  V30 1281 O 131.081 -0.550855 -1.72729 0
M  V30 1282 C 131.129 -3.606 -0.000288387 0
M  V30 1283 O 130.233 -3.98847 -1.04856 0
M  V30 1284 H 129.574 -0.659467 0.0774581 0
M  V30 1285 H 132.104 -1.86236 0.847186 0
M  V30 1286 H 132.114 -4.07529 -0.196091 0
M  V30 1287 H 130.789 -4.04765 0.955932 0
M  V30 1288 H 129.366 -3.63577 -0.828619 0
M  V30 1289 N 131.551 -0.354651 -1.53558 0
M  V30 1290 C 132.514 0.484566 -2.24019 0
M  V30 1291 C 133.514 1.01861 -1.24422 0
M  V30 1292 O 134.704 0.906097 -1.4878 0
M  V30 1293 C 131.836 1.67615 -2.96847 0
M  V30 1294 H 133.029 -0.131843 -2.9961 0
M  V30 1295 H 130.582 -0.106165 -1.55939 0
M  V30 1296 H 131.317 2.33095 -2.25471 0
M  V30 1297 H 131.102 1.30029 -3.69912 0
M  V30 1298 H 132.592 2.27114 -3.50441 0
M  V30 1299 N 133.029 1.57378 -0.0835403 0
M  V30 1300 C 134.269 1.95808 0.586381 0
M  V30 1301 C 134.633 0.963706 1.66062 0
M  V30 1302 O 135.834 1.23608 2.38693 0
M  V30 1303 C 134.105 3.38808 1.13771 0
M  V30 1304 S 135.664 3.99225 1.82112 0
M  V30 1305 H 132.482 0.684675 0.191679 0
M  V30 1306 H 135.084 1.94843 -0.160194 0
M  V30 1307 H 133.788 4.08954 0.344197 0
M  V30 1308 H 133.319 3.43344 1.92038 0
M  V30 1309 H 135.334 3.87087 3.10449 0
M  V30 1310 N 134.507 -0.190092 1.56449 0
M  V30 1311 C 135.732 -0.929864 1.85387 0
M  V30 1312 C 136.157 -1.7585 0.667704 0
M  V30 1313 O 135.515 -1.77198 -0.383459 0
M  V30 1314 C 135.563 -1.79773 3.12593 0
M  V30 1315 O 134.667 -2.89713 2.93496 0
M  V30 1316 H 134.008 -0.261574 0.610307 0
M  V30 1317 H 136.538 -0.193896 2.03679 0
M  V30 1318 H 136.548 -2.20139 3.43515 0
M  V30 1319 H 135.223 -1.18892 3.98544 0
M  V30 1320 H 133.8 -2.53065 2.73884 0
M  V30 1321 N 135.985 -1.50799 -0.457987 0
M  V30 1322 C 136.935 -1.67003 -1.55222 0
M  V30 1323 C 137.919 -0.52434 -1.52117 0
M  V30 1324 O 139.111 -0.779345 -1.58919 0
M  V30 1325 C 136.24 -1.77956 -2.93576 0
M  V30 1326 C 135.326 -2.98243 -3.01516 0
M  V30 1327 N 135.717 -4.21732 -2.79241 0
M  V30 1328 C 134.015 -2.97072 -3.32662 0
M  V30 1329 C 134.716 -5.02817 -2.92489 0
M  V30 1330 N 133.692 -4.37038 -3.23262 0
M  V30 1331 H 137.494 -2.60163 -1.36721 0
M  V30 1332 H 135.008 -1.48163 -0.664952 0
M  V30 1333 H 137.005 -1.87671 -3.72271 0
M  V30 1334 H 135.665 -0.859634 -3.13114 0
M  V30 1335 H 136.676 -4.51016 -2.54567 0
M  V30 1336 H 133.353 -2.14631 -3.58106 0
M  V30 1337 H 134.743 -6.11054 -2.79396 0
M  V30 1338 N 137.463 0.71206 -1.40597 0
M  V30 1339 C 138.71 1.47197 -1.39065 0
M  V30 1340 C 139.038 1.94499 0.00583891 0
M  V30 1341 O 138.293 1.68752 0.99102 0
M  V30 1342 C 138.592 2.71039 -2.32965 0
M  V30 1343 C 138.258 2.42484 -3.80148 0
M  V30 1344 C 136.92 2.34406 -4.20247 0
M  V30 1345 C 139.272 2.18598 -4.73143 0
M  V30 1346 C 136.6 2.00516 -5.51371 0
M  V30 1347 C 138.952 1.8622 -6.0457 0
M  V30 1348 C 137.616 1.76626 -6.43708 0
M  V30 1349 H 136.886 0.538634 -0.508876 0
M  V30 1350 H 139.533 0.815325 -1.73276 0
M  V30 1351 H 137.838 3.41558 -1.91951 0
M  V30 1352 H 139.535 3.29138 -2.29061 0
M  V30 1353 H 136.125 2.49659 -3.4838 0
M  V30 1354 H 140.309 2.23793 -4.42979 0
M  V30 1355 H 135.565 1.91628 -5.80593 0
M  V30 1356 H 139.739 1.66752 -6.76141 0
M  V30 1357 H 137.366 1.50133 -7.45228 0
M  V30 1358 N 138.941 1.26152 0.944643 0
M  V30 1359 C 139.851 1.09176 2.07648 0
M  V30 1360 C 140.867 0.0261935 1.7398 0
M  V30 1361 O 142.043 0.229208 2.00091 0
M  V30 1362 C 139.108 0.722915 3.39079 0
M  V30 1363 C 138.169 1.86752 3.86552 0
M  V30 1364 C 137.402 1.51617 5.11711 0
M  V30 1365 O 137.625 0.416331 5.68879 0
M  V30 1366 O 136.559 2.34975 5.54139 0
M  V30 1367 H 140.385 2.0412 2.24875 0
M  V30 1368 H 137.97 1.05182 1.061 0
M  V30 1369 H 139.852 0.529787 4.18056 0
M  V30 1370 H 138.527 -0.197159 3.23099 0
M  V30 1371 H 137.434 2.11558 3.08535 0
M  V30 1372 H 138.767 2.76719 4.07047 0
M  V30 1373 N 140.419 -1.14872 1.07899 0
M  V30 1374 C 141.696 -1.81928 0.71845 0
M  V30 1375 C 142.076 -1.95417 -0.798455 0
M  V30 1376 O 141.424 -1.50997 -1.715 0
M  V30 1377 C 141.634 -3.17937 1.43935 0
M  V30 1378 C 142.982 -3.93501 1.59506 0
M  V30 1379 O 144.006 -3.27509 1.40058 0
M  V30 1380 O 142.865 -5.1183 1.91551 0
M  V30 1381 H 139.959 -0.78628 0.256305 0
M  V30 1382 H 142.505 -1.21934 1.18026 0
M  V30 1383 H 141.277 -3.0325 2.47295 0
M  V30 1384 H 140.9 -3.85619 0.968687 0
M  V30 1385 N 141.898 -0.863906 -1.31812 0
M  V30 1386 C 143.147 -0.46801 -1.96195 0
M  V30 1387 C 143.46 0.983474 -1.69077 0
M  V30 1388 O 144.666 1.48523 -2.27273 0
M  V30 1389 C 143.122 -0.785995 -3.51212 0
M  V30 1390 C 142.73 -2.25383 -3.87178 0
M  V30 1391 C 144.474 -0.458274 -4.22019 0
M  V30 1392 C 142.381 -2.51455 -5.3528 0
M  V30 1393 H 141.311 -0.171283 -0.734287 0
M  V30 1394 H 143.962 -1.05597 -1.50072 0
M  V30 1395 H 142.344 -0.127359 -3.95795 0
M  V30 1396 H 143.518 -2.95502 -3.53575 0
M  V30 1397 H 141.833 -2.54698 -3.2942 0
M  V30 1398 H 144.43 -0.630369 -5.30971 0
M  V30 1399 H 144.773 0.600834 -4.11941 0
M  V30 1400 H 145.306 -1.07319 -3.8305 0
M  V30 1401 H 142.045 -3.56025 -5.50387 0
M  V30 1402 H 141.565 -1.85923 -5.70257 0
M  V30 1403 H 143.244 -2.35874 -6.02472 0
M  V30 1404 N 143.376 1.44774 -0.622745 0
M  V30 1405 C 144.604 2.06487 -0.130722 0
M  V30 1406 C 145.019 1.46476 1.19123 0
M  V30 1407 O 144.376 0.584502 1.72887 0
M  V30 1408 C 144.427 3.615 -0.000807207 0
M  V30 1409 O 144.148 4.19274 -1.27048 0
M  V30 1410 C 145.649 4.40229 0.520898 0
M  V30 1411 H 142.869 0.666704 -0.0758106 0
M  V30 1412 H 145.413 1.85779 -0.854774 0
M  V30 1413 H 143.568 3.81498 0.673643 0
M  V30 1414 H 143.982 5.12622 -1.1099 0
M  V30 1415 H 145.456 5.49144 0.560838 0
M  V30 1416 H 145.933 4.1108 1.54627 0
M  V30 1417 H 146.539 4.25131 -0.120018 0
M  V30 1418 N 144.854 0.36279 1.53368 0
M  V30 1419 C 145.787 -0.528507 2.21996 0
M  V30 1420 C 146.765 -1.0852 1.21087 0
M  V30 1421 O 147.949 -1.14186 1.4998 0
M  V30 1422 C 145.076 -1.72893 2.91249 0
M  V30 1423 C 144.122 -1.29994 4.06207 0
M  V30 1424 S 144.955 -0.303575 5.34639 0
M  V30 1425 C 146.111 -1.51039 6.07403 0
M  V30 1426 H 146.344 0.0543423 2.9725 0
M  V30 1427 H 143.877 0.146889 1.537 0
M  V30 1428 H 145.835 -2.41751 3.31763 0
M  V30 1429 H 144.496 -2.28303 2.15724 0
M  V30 1430 H 143.689 -2.19549 4.53667 0
M  V30 1431 H 143.291 -0.690608 3.67569 0
M  V30 1432 H 145.583 -2.44186 6.31965 0
M  V30 1433 H 146.526 -1.07721 6.99858 0
M  V30 1434 H 146.934 -1.71518 5.37812 0
M  V30 1435 N 146.332 -1.57332 0.0918853 0
M  V30 1436 C 147.56 -1.98574 -0.581048 0
M  V30 1437 C 147.975 -0.970903 -1.61923 0
M  V30 1438 O 147.332 0.0399054 -1.82456 0
M  V30 1439 C 147.383 -3.39872 -1.23164 0
M  V30 1440 O 147.104 -4.37469 -0.234989 0
M  V30 1441 C 148.605 -3.96099 -1.99049 0
M  V30 1442 H 145.825 -0.65261 -0.156018 0
M  V30 1443 H 148.369 -2.0379 0.170225 0
M  V30 1444 H 146.524 -3.35679 -1.93386 0
M  V30 1445 H 146.938 -5.19751 -0.70418 0
M  V30 1446 H 148.412 -4.97127 -2.39934 0
M  V30 1447 H 148.889 -3.3374 -2.85507 0
M  V30 1448 H 149.495 -4.03755 -1.3365 0
M  V30 1449 N 147.81 0.181792 -1.56548 0
M  V30 1450 C 149.087 0.926765 -1.72251 0
M  V30 1451 C 149.467 2.00831 -0.650386 0
M  V30 1452 O 148.815 2.26008 0.336521 0
M  V30 1453 C 149.025 1.50106 -3.1507 0
M  V30 1454 C 150.373 1.97805 -3.75711 0
M  V30 1455 O 151.397 1.59922 -3.18282 0
M  V30 1456 O 150.256 2.67555 -4.76525 0
M  V30 1457 H 147.35 0.435506 -0.703039 0
M  V30 1458 H 149.896 0.170443 -1.68842 0
M  V30 1459 H 148.668 0.72212 -3.84579 0
M  V30 1460 H 148.291 2.32186 -3.22763 0
M  V30 1461 N 149.288 1.51039 0.449983 0
M  V30 1462 C 150.535 1.63081 1.20045 0
M  V30 1463 C 150.863 0.341024 1.91487 0
M  V30 1464 O 150.118 -0.674276 1.83717 0
M  V30 1465 C 150.417 2.77556 2.25161 0
M  V30 1466 C 150.083 4.17289 1.70823 0
M  V30 1467 C 148.745 4.55305 1.55725 0
M  V30 1468 C 151.097 5.04536 1.3074 0
M  V30 1469 C 148.425 5.78287 0.989999 0
M  V30 1470 C 150.777 6.28085 0.754482 0
M  V30 1471 C 149.441 6.64885 0.590308 0
M  V30 1472 H 148.711 0.596755 0.439277 0
M  V30 1473 H 151.358 1.85037 0.49333 0
M  V30 1474 H 149.663 2.49771 3.01863 0
M  V30 1475 H 151.36 2.84073 2.83026 0
M  V30 1476 H 147.95 3.8731 1.83546 0
M  V30 1477 H 152.134 4.75782 1.41229 0
M  V30 1478 H 147.39 6.05456 0.850451 0
M  V30 1479 H 151.564 6.95038 0.435324 0
M  V30 1480 H 149.191 7.60055 0.14862 0
M  V30 1481 N 150.766 -0.704594 1.40972 0
M  V30 1482 C 151.696 -1.83124 1.44872 0
M  V30 1483 C 152.677 -1.67281 0.30838 0
M  V30 1484 O 153.862 -1.87149 0.518556 0
M  V30 1485 C 150.992 -3.21181 1.32136 0
M  V30 1486 C 149.946 -3.51714 2.43888 0
M  V30 1487 C 149.272 -4.89032 2.16222 0
M  V30 1488 C 150.572 -3.516 3.86232 0
M  V30 1489 H 152.266 -1.80117 2.39161 0
M  V30 1490 H 149.812 -0.865145 1.15114 0
M  V30 1491 H 151.765 -3.99702 1.33479 0
M  V30 1492 H 150.489 -3.24791 0.343279 0
M  V30 1493 H 149.148 -2.75539 2.41813 0
M  V30 1494 H 148.796 -4.89256 1.16778 0
M  V30 1495 H 148.496 -5.10426 2.911 0
M  V30 1496 H 150.02 -5.69873 2.19265 0
M  V30 1497 H 151.434 -4.2014 3.9007 0
M  V30 1498 H 149.831 -3.84523 4.60719 0
M  V30 1499 H 150.901 -2.50757 4.15029 0
M  V30 1500 N 152.244 -1.26651 -0.937939 0
M  V30 1501 C 153.154 -1.10276 -2.07066 0
M  V30 1502 C 154.17 -0.0354197 -1.73964 0
M  V30 1503 O 155.346 -0.239816 -1.99967 0
M  V30 1504 C 152.411 -0.740887 -3.38691 0
M  V30 1505 C 151.472 -1.88799 -3.85556 0
M  V30 1506 C 150.705 -1.54329 -5.10899 0
M  V30 1507 O 150.928 -0.446494 -5.6865 0
M  V30 1508 O 149.862 -2.37911 -5.52885 0
M  V30 1509 H 153.688 -2.05309 -2.23789 0
M  V30 1510 H 151.273 -1.05743 -1.0554 0
M  V30 1511 H 153.155 -0.55195 -4.1777 0
M  V30 1512 H 151.83 0.180022 -3.23199 0
M  V30 1513 H 150.737 -2.13191 -3.07409 0
M  V30 1514 H 152.07 -2.78874 -4.05574 0
M  V30 1515 N 153.722 1.14298 -1.08507 0
M  V30 1516 C 154.968 1.85633 -0.816581 0
M  V30 1517 C 155.301 1.82784 0.656021 0
M  V30 1518 O 154.576 1.25926 1.48233 0
M  V30 1519 C 154.859 3.34223 -1.34041 0
M  V30 1520 C 154.712 3.45639 -2.87843 0
M  V30 1521 C 156.031 4.29356 -0.9665 0
M  V30 1522 H 153.15 0.67402 -0.298104 0
M  V30 1523 H 155.792 1.34214 -1.34487 0
M  V30 1524 H 153.942 3.78144 -0.89104 0
M  V30 1525 H 155.614 3.10498 -3.41158 0
M  V30 1526 H 153.857 2.86817 -3.25451 0
M  V30 1527 H 154.528 4.50089 -3.19569 0
M  V30 1528 H 157.004 3.93457 -1.35391 0
M  V30 1529 H 155.88 5.3178 -1.3602 0
M  V30 1530 H 156.141 4.41919 0.126362 0
M  V30 1531 N 155.201 0.870884 1.31352 0
M  V30 1532 C 156.149 0.316445 2.30437 0
M  V30 1533 C 157.143 -0.568965 1.59559 0
M  V30 1534 O 158.349 -0.454964 1.74155 0
M  V30 1535 H 154.724 0.0836521 0.747333 0
M  V30 1536 H 156.695 1.16606 2.74673 0
M  V30 1537 C 155.444 -0.46635 3.44558 0
M  V30 1538 H 154.767 0.205687 3.99271 0
M  V30 1539 H 156.207 -0.819614 4.16003 0
M  V30 1540 C 154.666 -1.65797 2.9328 0
M  V30 1541 O 155.196 -2.75728 2.92125 0
M  V30 1542 N 153.402 -1.49041 2.4947 0
M  V30 1543 H 152.949 -0.59612 2.50608 0
M  V30 1544 H 152.907 -2.28911 2.15516 0
M  V30 1545 N 156.679 -1.44442 0.630414 0
M  V30 1546 C 158.095 -1.56832 0.295973 0
M  V30 1547 C 158.295 -1.61806 -1.20088 0
M  V30 1548 O 157.351 -1.5607 -1.9849 0
M  V30 1549 C 158.664 -2.84031 0.987264 0
M  V30 1550 C 160.212 -2.97742 0.96534 0
M  V30 1551 C 160.687 -4.27743 1.63708 0
M  V30 1552 N 162.178 -4.34555 1.60364 0
M  V30 1553 C 162.913 -5.33862 2.09234 0
M  V30 1554 N 162.409 -6.39578 2.66292 0
M  V30 1555 N 164.202 -5.25366 1.99867 0
M  V30 1556 H 156.353 -1.39457 1.60205 0
M  V30 1557 H 158.616 -0.668237 0.672431 0
M  V30 1558 H 158.322 -2.86338 2.04215 0
M  V30 1559 H 158.196 -3.73534 0.524588 0
M  V30 1560 H 160.583 -2.94989 -0.0810639 0
M  V30 1561 H 160.664 -2.09589 1.4665 0
M  V30 1562 H 160.308 -4.31255 2.68293 0
M  V30 1563 H 160.238 -5.14752 1.11076 0
M  V30 1564 H 162.729 -3.58772 1.18705 0
M  V30 1565 H 163.042 -7.11637 3.01317 0
M  V30 1566 H 161.387 -6.40265 2.70343 0
M  V30 1567 H 164.578 -4.41688 1.55013 0
M  V30 1568 H 164.751 -6.02606 2.38265 0
M  V30 1569 N 158.157 -0.370918 -1.53173 0
M  V30 1570 C 159.089 0.507823 -2.23503 0
M  V30 1571 C 160.102 1.04182 -1.251 0
M  V30 1572 O 161.291 0.947286 -1.5129 0
M  V30 1573 C 158.391 1.71447 -2.92334 0
M  V30 1574 C 157.564 1.31105 -4.17289 0
M  V30 1575 C 156.623 2.38035 -4.69282 0
M  V30 1576 O 155.649 2.00204 -5.32829 0
M  V30 1577 N 156.851 3.69697 -4.47554 0
M  V30 1578 H 159.616 -0.0946382 -2.99551 0
M  V30 1579 H 157.177 -0.196358 -1.60705 0
M  V30 1580 H 159.169 2.42469 -3.24023 0
M  V30 1581 H 157.739 2.22368 -2.19707 0
M  V30 1582 H 156.959 0.430462 -3.91843 0
M  V30 1583 H 158.247 1.0179 -4.98514 0
M  V30 1584 H 157.645 4.03205 -3.9679 0
M  V30 1585 H 156.202 4.36807 -4.8378 0
M  V30 1586 N 159.635 1.57281 -0.100228 0
M  V30 1587 C 160.545 2.17833 0.870965 0
M  V30 1588 C 161.561 1.14921 1.30649 0
M  V30 1589 O 162.737 1.47313 1.37335 0
M  V30 1590 C 159.802 2.75085 2.1102 0
M  V30 1591 C 158.863 3.9297 1.72838 0
M  V30 1592 C 158.096 4.47482 2.90854 0
M  V30 1593 O 158.319 4.00922 4.05731 0
M  V30 1594 O 157.253 5.38433 2.69023 0
M  V30 1595 H 161.079 3.0124 0.38575 0
M  V30 1596 H 158.664 1.48881 0.124397 0
M  V30 1597 H 160.546 3.11656 2.83634 0
M  V30 1598 H 159.221 1.94721 2.58584 0
M  V30 1599 H 158.128 3.61201 0.973883 0
M  V30 1600 H 159.461 4.74713 1.30033 0
M  V30 1601 N 161.113 -0.173488 1.56642 0
M  V30 1602 C 162.043 -1.2171 1.99271 0
M  V30 1603 C 163.024 -1.46289 0.867959 0
M  V30 1604 O 164.209 -1.5766 1.13388 0
M  V30 1605 C 161.339 -2.55651 2.35074 0
M  V30 1606 C 160.293 -2.45645 3.50489 0
M  V30 1607 C 159.619 -3.84056 3.72028 0
M  V30 1608 C 160.919 -1.96302 4.84007 0
M  V30 1609 H 162.613 -0.86275 2.867 0
M  V30 1610 H 160.159 -0.413571 1.37933 0
M  V30 1611 H 162.112 -3.2886 2.63494 0
M  V30 1612 H 160.836 -2.92869 1.44552 0
M  V30 1613 H 159.495 -1.7489 3.22194 0
M  V30 1614 H 159.143 -4.18664 2.788 0
M  V30 1615 H 158.843 -3.7823 4.49684 0
M  V30 1616 H 160.367 -4.58854 4.02846 0
M  V30 1617 H 161.781 -2.59284 5.11317 0
M  V30 1618 H 160.178 -2.01429 5.65284 0
M  V30 1619 H 161.248 -0.917226 4.76146 0
M  V30 1620 N 162.591 -1.51276 -0.441967 0
M  V30 1621 C 163.839 -1.63392 -1.18943 0
M  V30 1622 C 164.16 -0.350159 -1.9183 0
M  V30 1623 O 163.43 0.633784 -1.85364 0
M  V30 1624 H 162.01 -0.602164 -0.442049 0
M  V30 1625 H 164.672 -1.88186 -0.507165 0
M  V30 1626 H 163.768 -2.45934 -1.92154 0
M  V30 1627 N 164.069 0.697108 -1.41344 0
M  V30 1628 C 165.485 1.00751 -1.2378 0
M  V30 1629 C 165.685 2.01105 -0.126066 0
M  V30 1630 O 164.741 2.47295 0.51004 0
M  V30 1631 C 166.054 1.53359 -2.58653 0
M  V30 1632 C 167.602 1.6525 -2.65822 0
M  V30 1633 C 168.077 2.2126 -4.01009 0
M  V30 1634 N 169.568 2.28622 -4.02847 0
M  V30 1635 C 170.303 2.72984 -5.04249 0
M  V30 1636 N 169.799 3.16962 -6.16041 0
M  V30 1637 N 171.592 2.72534 -4.91611 0
M  V30 1638 H 163.743 0.0322662 -2.12375 0
M  V30 1639 H 166.006 0.0768853 -0.944877 0
M  V30 1640 H 165.712 0.870773 -3.4075 0
M  V30 1641 H 165.586 2.51597 -2.81032 0
M  V30 1642 H 167.973 2.30644 -1.84086 0
M  V30 1643 H 168.054 0.655614 -2.47256 0
M  V30 1644 H 167.698 1.56482 -4.83193 0
M  V30 1645 H 167.628 3.21698 -4.16915 0
M  V30 1646 H 170.119 1.97585 -3.22131 0
M  V30 1647 H 170.432 3.49434 -6.89287 0
M  V30 1648 H 168.777 3.14875 -6.1958 0
M  V30 1649 H 171.968 2.37525 -4.0336 0
M  V30 1650 H 172.141 3.06789 -5.70775 0
M  V30 1651 N 165.547 1.27147 0.931209 0
M  V30 1652 C 166.793 1.14455 1.68141 0
M  V30 1653 C 167.148 -0.307172 1.89932 0
M  V30 1654 O 166.441 -1.22158 1.47607 0
M  V30 1655 C 166.635 1.8579 3.05314 0
M  V30 1656 C 166.464 3.3775 2.96909 0
M  V30 1657 C 165.234 4.07062 2.99381 0
M  V30 1658 C 167.432 4.33783 2.76291 0
M  V30 1659 N 165.414 5.45618 2.8138 0
M  V30 1660 C 166.785 5.59582 2.6696 0
M  V30 1661 C 168.84 4.23915 2.61152 0
M  V30 1662 C 167.543 6.76639 2.44033 0
M  V30 1663 C 169.569 5.40689 2.39602 0
M  V30 1664 C 168.931 6.65443 2.3101 0
M  V30 1665 H 165.03 0.473667 0.622225 0
M  V30 1666 H 167.614 1.60568 1.10118 0
M  V30 1667 H 165.785 1.42138 3.61457 0
M  V30 1668 H 167.517 1.65634 3.69253 0
M  V30 1669 H 164.272 3.585 3.09475 0
M  V30 1670 H 164.696 6.184 2.75519 0
M  V30 1671 H 169.338 3.28189 2.66555 0
M  V30 1672 H 167.056 7.72451 2.3737 0
M  V30 1673 H 170.642 5.34932 2.28778 0
M  V30 1674 H 169.522 7.54277 2.14558 0
M  V30 1675 N 167.025 -1.13721 1.09112 0
M  V30 1676 C 167.955 -2.21148 0.749385 0
M  V30 1677 C 168.936 -1.6792 -0.271475 0
M  V30 1678 O 170.121 -1.93693 -0.140251 0
M  V30 1679 C 167.251 -3.46905 0.165659 0
M  V30 1680 C 166.205 -4.13203 1.11567 0
M  V30 1681 C 165.531 -5.33248 0.393809 0
M  V30 1682 C 166.831 -4.60912 2.45678 0
M  V30 1683 H 168.525 -2.4999 1.64758 0
M  V30 1684 H 166.071 -1.20156 0.793626 0
M  V30 1685 H 168.024 -4.21313 -0.085466 0
M  V30 1686 H 166.748 -3.17449 -0.767714 0
M  V30 1687 H 165.407 -3.40758 1.35202 0
M  V30 1688 H 165.055 -5.00054 -0.543599 0
M  V30 1689 H 164.755 -5.78552 1.02721 0
M  V30 1690 H 166.279 -6.10413 0.150908 0
M  V30 1691 H 167.693 -5.26759 2.26269 0
M  V30 1692 H 166.09 -5.16944 3.04776 0
M  V30 1693 H 167.16 -3.75603 3.06677 0
M  V30 1694 N 168.503 -0.877838 -1.30888 0
M  V30 1695 C 169.435 -0.296607 -2.27273 0
M  V30 1696 C 170.448 0.544799 -1.53414 0
M  V30 1697 O 171.637 0.365511 -1.74718 0
M  V30 1698 C 168.737 0.597481 -3.33592 0
M  V30 1699 C 167.91 -0.213251 -4.3688 0
M  V30 1700 C 166.969 0.610208 -5.2265 0
M  V30 1701 O 165.995 0.035441 -5.69189 0
M  V30 1702 N 167.197 1.92071 -5.47804 0
M  V30 1703 H 169.962 -1.12492 -2.77787 0
M  V30 1704 H 167.523 -0.740105 -1.43993 0
M  V30 1705 H 169.515 1.15425 -3.87891 0
M  V30 1706 H 168.085 1.32647 -2.83061 0
M  V30 1707 H 167.305 -0.951466 -3.82545 0
M  V30 1708 H 168.593 -0.769262 -5.02951 0
M  V30 1709 H 167.991 2.4107 -5.11763 0
M  V30 1710 H 166.548 2.42508 -6.05007 0
M  V30 1711 N 169.982 1.44106 -0.638065 0
M  V30 1712 C 170.892 2.34513 0.0637334 0
M  V30 1713 C 171.908 1.53018 0.828346 0
M  V30 1714 O 173.084 1.85723 0.779036 0
M  V30 1715 C 170.149 3.31095 1.02844 0
M  V30 1716 C 169.21 4.28497 0.26244 0
M  V30 1717 C 168.443 5.20465 1.1812 0
M  V30 1718 O 168.666 5.16514 2.42011 0
M  V30 1719 O 167.6 5.98251 0.661774 0
M  V30 1720 H 171.426 2.95989 -0.68003 0
M  V30 1721 H 169.011 1.43994 -0.398252 0
M  V30 1722 H 170.893 3.90526 1.58327 0
M  V30 1723 H 169.568 2.72144 1.7527 0
M  V30 1724 H 168.475 3.72592 -0.335602 0
M  V30 1725 H 169.808 4.90388 -0.421936 0
M  V30 1726 N 171.46 0.379036 1.52974 0
M  V30 1727 C 172.37 -0.468639 2.29872 0
M  V30 1728 C 173.386 -1.08067 1.36373 0
M  V30 1729 O 174.562 -1.08871 1.69438 0
M  V30 1730 C 171.627 -1.58594 3.083 0
M  V30 1731 C 170.688 -1.00007 4.17489 0
M  V30 1732 C 169.921 -2.06413 4.92168 0
M  V30 1733 O 170.144 -3.27751 4.66835 0
M  V30 1734 O 169.078 -1.68717 5.7777 0
M  V30 1735 H 172.904 0.157508 3.03291 0
M  V30 1736 H 170.489 0.143035 1.48714 0
M  V30 1737 H 172.371 -2.23525 3.57232 0
M  V30 1738 H 171.046 -2.19724 2.37703 0
M  V30 1739 H 169.953 -0.314299 3.72777 0
M  V30 1740 H 171.286 -0.433135 4.90291 0
M  V30 1741 N 172.938 -1.57226 0.108567 0
M  V30 1742 C 174.349 -1.8195 -0.418464 0
M  V30 1743 C 174.7 -1.02508 -1.67292 0
M  V30 1744 O 173.825 -0.258496 -2.14851 0
M  V30 1745 C 174.42 -3.30028 -0.765979 0
M  V30 1746 C 172.979 -3.55469 -1.23769 0
M  V30 1747 C 172.126 -2.7625 -0.241106 0
M  V30 1748 H 175.077 -1.55149 0.33384 0
M  V30 1749 H 175.098 -3.44086 -1.62434 0
M  V30 1750 H 174.61 -3.87821 0.147219 0
M  V30 1751 H 172.711 -3.03022 -2.16814 0
M  V30 1752 H 172.824 -4.6408 -1.19022 0
M  V30 1753 H 171.188 -2.44133 -0.72602 0
M  V30 1754 H 171.971 -3.36797 0.665007 0
M  V30 1755 N 174.416 0.165178 -1.56732 0
M  V30 1756 C 175.664 0.879068 -1.8198 0
M  V30 1757 C 175.985 1.82514 -0.686561 0
M  V30 1758 O 175.255 1.93694 0.293146 0
M  V30 1759 H 173.835 0.327608 -0.671329 0
M  V30 1760 H 176.497 0.163526 -1.94213 0
M  V30 1761 H 175.593 1.45228 -2.76252 0
M  V30 1762 N 175.894 1.51508 0.433938 0
M  V30 1763 C 176.857 1.72473 1.50949 0
M  V30 1764 C 177.857 0.594725 1.49398 0
M  V30 1765 O 179.047 0.862315 1.5136 0
M  V30 1766 C 176.179 1.78431 2.90474 0
M  V30 1767 H 177.372 2.68467 1.33662 0
M  V30 1768 H 174.925 1.41549 0.662836 0
M  V30 1769 H 175.66 0.842645 3.13161 0
M  V30 1770 H 175.445 2.60558 2.93005 0
M  V30 1771 H 176.935 1.96479 3.68491 0
M  V30 1772 N 177.372 -0.689602 1.41712 0
M  V30 1773 C 178.619 -1.44966 1.4139 0
M  V30 1774 C 178.947 -1.94484 0.025105 0
M  V30 1775 O 178.202 -1.70307 -0.964048 0
M  V30 1776 C 178.501 -2.67298 2.37247 0
M  V30 1777 C 178.167 -2.36405 3.83958 0
M  V30 1778 C 176.829 -2.27691 4.23923 0
M  V30 1779 C 179.181 -2.11043 4.76561 0
M  V30 1780 C 176.509 -1.91719 5.54492 0
M  V30 1781 C 178.861 -1.76578 6.07456 0
M  V30 1782 C 177.525 -1.66363 6.46436 0
M  V30 1783 H 176.795 -0.53047 0.517381 0
M  V30 1784 H 179.442 -0.787655 1.74552 0
M  V30 1785 H 177.747 -3.38461 1.9736 0
M  V30 1786 H 179.444 -3.25452 2.34269 0
M  V30 1787 H 176.034 -2.44085 3.52308 0
M  V30 1788 H 180.218 -2.16717 4.46483 0
M  V30 1789 H 175.474 -1.82367 5.83568 0
M  V30 1790 H 179.648 -1.55974 6.78708 0
M  V30 1791 H 177.275 -1.38258 7.47522 0
M  V30 1792 N 178.85 -1.27639 -0.924453 0
M  V30 1793 C 179.798 -1.10485 -2.04685 0
M  V30 1794 C 180.792 -0.0270421 -1.69378 0
M  V30 1795 O 181.998 -0.185008 -1.79047 0
M  V30 1796 H 178.373 -0.340546 -0.670472 0
M  V30 1797 H 180.344 -2.05566 -2.16298 0
M  V30 1798 C 179.093 -0.772229 -3.39016 0
M  V30 1799 H 178.416 -1.59351 -3.66671 0
M  V30 1800 H 179.856 -0.692097 -4.18313 0
M  V30 1801 C 178.315 0.523554 -3.32807 0
M  V30 1802 O 178.845 1.55702 -3.70297 0
M  V30 1803 N 177.051 0.520363 -2.85903 0
M  V30 1804 H 176.598 -0.32107 -2.55591 0
M  V30 1805 H 176.556 1.38742 -2.82131 0
M  V30 1806 N 180.328 1.1314 -1.09713 0
M  V30 1807 C 181.574 1.84967 -0.846104 0
M  V30 1808 C 181.929 1.82082 0.621601 0
M  V30 1809 O 181.222 1.2501 1.452 0
M  V30 1810 C 181.416 3.32167 -1.3191 0
M  V30 1811 C 181.245 3.49386 -2.83125 0
M  V30 1812 C 180.015 3.63456 -3.51038 0
M  V30 1813 C 182.213 3.45179 -3.81256 0
M  V30 1814 N 180.195 3.68966 -4.9065 0
M  V30 1815 C 181.566 3.57094 -5.06837 0
M  V30 1816 C 183.621 3.28598 -3.74069 0
M  V30 1817 C 182.324 3.5414 -6.26081 0
M  V30 1818 C 184.35 3.26953 -4.92804 0
M  V30 1819 C 183.712 3.39422 -6.17229 0
M  V30 1820 H 179.811 0.692899 -0.362512 0
M  V30 1821 H 182.395 1.35506 -1.39808 0
M  V30 1822 H 180.566 3.80186 -0.794535 0
M  V30 1823 H 182.298 3.91815 -1.01308 0
M  V30 1824 H 179.053 3.65256 -3.01471 0
M  V30 1825 H 179.477 3.75404 -5.63383 0
M  V30 1826 H 184.119 3.17858 -2.78794 0
M  V30 1827 H 181.837 3.63653 -7.21653 0
M  V30 1828 H 185.423 3.15316 -4.88945 0
M  V30 1829 H 184.303 3.38114 -7.07565 0
M  V30 1830 N 181.806 0.884767 1.30421 0
M  V30 1831 C 183.031 0.517288 2.00845 0
M  V30 1832 C 183.456 -0.886779 1.65885 0
M  V30 1833 O 182.814 -1.58768 0.875354 0
M  V30 1834 C 182.862 0.698994 3.5376 0
M  V30 1835 O 181.966 -0.255208 4.1161 0
M  V30 1836 H 181.307 0.203872 0.631927 0
M  V30 1837 H 183.837 1.19225 1.66272 0
M  V30 1838 H 183.847 0.597912 4.03595 0
M  V30 1839 H 182.522 1.72271 3.78544 0
M  V30 1840 H 181.099 -0.10784 3.72744 0
M  V30 1841 N 183.284 -1.43765 0.645699 0
M  V30 1842 C 184.217 -2.2798 -0.100072 0
M  V30 1843 C 185.195 -1.39391 -0.837194 0
M  V30 1844 O 186.379 -1.68833 -0.838306 0
M  V30 1845 C 183.506 -3.18643 -1.14823 0
M  V30 1846 C 182.552 -4.2344 -0.510009 0
M  V30 1847 S 183.385 -5.30761 0.710824 0
M  V30 1848 C 184.541 -6.24992 -0.33699 0
M  V30 1849 H 184.774 -2.90884 0.614322 0
M  V30 1850 H 182.307 -1.48166 0.434304 0
M  V30 1851 H 184.265 -3.71424 -1.74799 0
M  V30 1852 H 182.926 -2.54932 -1.8349 0
M  V30 1853 H 182.119 -4.86948 -1.29991 0
M  V30 1854 H 181.721 -3.73997 0.0154577 0
M  V30 1855 H 184.013 -6.66691 -1.20537 0
M  V30 1856 H 184.956 -7.07612 0.262879 0
M  V30 1857 H 185.364 -5.60517 -0.669425 0
M  V30 1858 N 184.763 -0.387143 -1.52771 0
M  V30 1859 C 185.993 0.195585 -2.05672 0
M  V30 1860 C 186.401 1.41241 -1.25887 0
M  V30 1861 O 185.744 1.81265 -0.298081 0
M  V30 1862 C 185.806 0.632327 -3.53895 0
M  V30 1863 C 185.47 -0.470739 -4.54569 0
M  V30 1864 C 186.467 -1.32746 -5.02667 0
M  V30 1865 C 184.152 -0.637151 -4.98243 0
M  V30 1866 C 186.146 -2.33574 -5.93061 0
M  V30 1867 C 183.833 -1.64877 -5.88438 0
M  V30 1868 C 184.831 -2.49649 -6.35739 0
M  V30 1869 O 184.519 -3.49082 -7.24153 0
M  V30 1870 H 184.251 0.033658 -0.675162 0
M  V30 1871 H 186.805 -0.550221 -1.97893 0
M  V30 1872 H 185.035 1.43008 -3.59285 0
M  V30 1873 H 186.724 1.14048 -3.89548 0
M  V30 1874 H 187.49 -1.21019 -4.69659 0
M  V30 1875 H 183.369 0.0129567 -4.60998 0
M  V30 1876 H 186.913 -2.99777 -6.29904 0
M  V30 1877 H 182.81 -1.76643 -6.2086 0
M  V30 1878 H 183.578 -3.45065 -7.42208 0
M  V30 1879 N 186.241 1.57166 -0.116904 0
M  V30 1880 C 187.466 1.999 0.55271 0
M  V30 1881 C 187.891 0.996039 1.59564 0
M  V30 1882 O 187.249 -0.032556 1.81271 0
M  V30 1883 C 187.297 3.4152 1.15742 0
M  V30 1884 O 186.401 3.44106 2.27299 0
M  V30 1885 H 185.742 0.649447 0.138258 0
M  V30 1886 H 188.272 2.03573 -0.204759 0
M  V30 1887 H 188.282 3.79684 1.49346 0
M  V30 1888 H 186.957 4.14034 0.393493 0
M  V30 1889 H 185.534 3.17759 1.9515 0
M  V30 1890 N 187.719 -0.156864 1.56817 0
M  V30 1891 C 188.651 -1.21883 1.94106 0
M  V30 1892 C 189.664 -1.3971 0.835754 0
M  V30 1893 O 190.853 -1.39457 1.11418 0
M  V30 1894 C 187.953 -2.58527 2.19127 0
M  V30 1895 C 187.126 -2.61809 3.50393 0
M  V30 1896 C 186.185 -3.7992 3.64071 0
M  V30 1897 O 185.211 -3.65249 4.36557 0
M  V30 1898 N 186.413 -4.96973 2.99997 0
M  V30 1899 H 189.178 -0.901974 2.85805 0
M  V30 1900 H 186.739 -0.346513 1.58148 0
M  V30 1901 H 188.731 -3.36034 2.25529 0
M  V30 1902 H 187.301 -2.82545 1.33742 0
M  V30 1903 H 186.521 -1.7029 3.5552 0
M  V30 1904 H 187.809 -2.61024 4.36742 0
M  V30 1905 H 187.207 -5.11794 2.41004 0
M  V30 1906 H 185.764 -5.7229 3.11974 0
M  V30 1907 N 189.197 -1.51736 -0.425897 0
M  V30 1908 C 190.147 -1.70258 -1.51645 0
M  V30 1909 C 191.131 -0.556488 -1.5097 0
M  V30 1910 O 192.323 -0.812879 -1.5723 0
M  V30 1911 C 189.452 -1.84143 -2.89735 0
M  V30 1912 C 188.538 -3.04572 -2.95122 0
M  V30 1913 N 188.929 -4.2756 -2.70233 0
M  V30 1914 C 187.227 -3.04061 -3.26286 0
M  V30 1915 C 187.928 -5.08908 -2.81757 0
M  V30 1916 N 186.904 -4.43797 -3.13919 0
M  V30 1917 H 190.706 -2.63004 -1.31172 0
M  V30 1918 H 188.22 -1.4954 -0.633375 0
M  V30 1919 H 190.217 -1.95525 -3.68206 0
M  V30 1920 H 188.877 -0.925857 -3.1122 0
M  V30 1921 H 189.888 -4.56315 -2.44943 0
M  V30 1922 H 186.565 -2.22179 -3.53473 0
M  V30 1923 H 187.955 -6.16843 -2.66372 0
M  V30 1924 N 190.675 0.682077 -1.42076 0
M  V30 1925 C 191.638 1.77756 -1.44691 0
M  V30 1926 C 192.638 1.5726 -0.335535 0
M  V30 1927 O 193.828 1.63686 -0.596037 0
M  V30 1928 C 190.96 3.16301 -1.27146 0
M  V30 1929 H 192.153 1.76826 -2.42224 0
M  V30 1930 H 189.706 0.891012 -1.28416 0
M  V30 1931 H 190.441 3.22862 -0.305075 0
M  V30 1932 H 190.226 3.32581 -2.07683 0
M  V30 1933 H 191.716 3.96241 -1.31843 0
M  V30 1934 N 192.153 1.28127 0.917671 0
M  V30 1935 C 193.393 1.163 1.68088 0
M  V30 1936 C 193.757 -0.284515 1.8988 0
M  V30 1937 O 194.958 -0.525413 2.63615 0
M  V30 1938 C 193.229 1.93546 3.00457 0
M  V30 1939 S 194.788 1.98048 3.91564 0
M  V30 1940 H 191.606 0.415005 0.577315 0
M  V30 1941 H 194.208 1.62173 1.09179 0
M  V30 1942 H 192.912 2.97888 2.82295 0
M  V30 1943 H 192.443 1.48207 3.64415 0
M  V30 1944 H 194.458 1.08415 4.84211 0
M  V30 1945 N 193.631 -1.12557 1.10312 0
M  V30 1946 C 194.561 -2.20341 0.772798 0
M  V30 1947 C 195.542 -1.68198 -0.25365 0
M  V30 1948 O 196.727 -1.93831 -0.119699 0
M  V30 1949 C 193.857 -3.46709 0.202443 0
M  V30 1950 C 192.811 -4.11996 1.15943 0
M  V30 1951 C 192.137 -5.328 0.450345 0
M  V30 1952 C 193.437 -4.5828 2.50552 0
M  V30 1953 H 195.131 -2.48229 1.674 0
M  V30 1954 H 192.677 -1.19308 0.806326 0
M  V30 1955 H 194.63 -4.2138 -0.0407752 0
M  V30 1956 H 193.354 -3.18245 -0.734001 0
M  V30 1957 H 192.013 -3.39305 1.38808 0
M  V30 1958 H 191.661 -5.00602 -0.490531 0
M  V30 1959 H 191.361 -5.7743 1.08851 0
M  V30 1960 H 192.885 -6.10219 0.215642 0
M  V30 1961 H 194.299 -5.2433 2.31843 0
M  V30 1962 H 192.696 -5.13683 3.10242 0
M  V30 1963 H 193.766 -3.72329 3.10643 0
M  V30 1964 N 195.109 -0.891671 -1.2995 0
M  V30 1965 C 196.358 -0.509521 -1.95158 0
M  V30 1966 C 196.671 0.947388 -1.71125 0
M  V30 1967 O 197.877 1.43669 -2.30372 0
M  V30 1968 C 196.333 -0.860315 -3.49466 0
M  V30 1969 C 195.941 -2.33545 -3.8231 0
M  V30 1970 C 197.685 -0.547687 -4.20952 0
M  V30 1971 C 195.592 -2.62752 -5.29826 0
M  V30 1972 H 194.522 -0.18682 -0.730489 0
M  V30 1973 H 197.173 -1.08756 -1.47798 0
M  V30 1974 H 195.555 -0.211285 -3.95436 0
M  V30 1975 H 196.729 -3.02936 -3.47227 0
M  V30 1976 H 195.044 -2.61629 -3.23944 0
M  V30 1977 H 197.641 -0.742854 -5.29515 0
M  V30 1978 H 197.984 0.51332 -4.13123 0
M  V30 1979 H 198.517 -1.1542 -3.80688 0
M  V30 1980 H 195.256 -3.6762 -5.42712 0
M  V30 1981 H 194.776 -1.97977 -5.66185 0
M  V30 1982 H 196.455 -2.48601 -5.97333 0
M  V30 1983 N 196.587 1.43421 -0.653314 0
M  V30 1984 C 197.497 2.34568 0.0388565 0
M  V30 1985 C 198.513 1.53888 0.81207 0
M  V30 1986 O 199.689 1.86539 0.759294 0
M  V30 1987 C 196.754 3.32167 0.993269 0
M  V30 1988 C 195.815 4.28751 0.216977 0
M  V30 1989 C 195.048 5.21688 1.12593 0
M  V30 1990 O 195.271 5.19052 2.36519 0
M  V30 1991 O 194.205 5.98919 0.598284 0
M  V30 1992 H 198.031 2.95251 -0.711386 0
M  V30 1993 H 195.616 1.43564 -0.413502 0
M  V30 1994 H 197.498 3.92183 1.54176 0
M  V30 1995 H 196.173 2.73987 1.72374 0
M  V30 1996 H 195.08 3.72215 -0.375101 0
M  V30 1997 H 196.413 4.89913 -0.473924 0
M  V30 1998 N 198.065 0.39524 1.52563 0
M  V30 1999 C 199.313 -0.184678 2.01254 0
M  V30 2000 C 199.634 -1.46822 1.28329 0
M  V30 2001 O 198.904 -1.91666 0.405094 0
M  V30 2002 H 197.484 -0.0712355 0.743596 0
M  V30 2003 H 200.146 0.528293 1.87603 0
M  V30 2004 H 199.242 -0.390681 3.09645 0
M  V30 2005 N 199.544 -1.57102 0.125237 0
M  V30 2006 C 200.491 -2.15641 -0.822655 0
M  V30 2007 C 201.461 -1.08313 -1.25927 0
M  V30 2008 O 202.646 -1.36251 -1.33567 0
M  V30 2009 C 199.786 -2.76504 -2.06494 0
M  V30 2010 C 198.899 -3.98158 -1.67612 0
M  V30 2011 C 198.034 -4.47088 -2.86854 0
M  V30 2012 C 197.073 -5.6126 -2.44242 0
M  V30 2013 N 196.21 -6.04905 -3.56419 0
M  V30 2014 H 201.05 -2.96313 -0.316625 0
M  V30 2015 H 198.587 -1.46388 -0.144588 0
M  V30 2016 H 200.545 -3.09925 -2.79289 0
M  V30 2017 H 199.175 -1.98512 -2.54545 0
M  V30 2018 H 198.227 -3.70858 -0.846661 0
M  V30 2019 H 199.539 -4.80934 -1.32301 0
M  V30 2020 H 198.693 -4.82451 -3.67867 0
M  V30 2021 H 197.432 -3.63275 -3.25396 0
M  V30 2022 H 196.437 -5.25495 -1.61663 0
M  V30 2023 H 197.662 -6.46843 -2.0681 0
M  V30 2024 H 195.608 -5.24032 -3.94623 0
M  V30 2025 H 195.525 -6.82552 -3.25051 0
M  V30 2026 H 196.793 -6.44907 -4.37853 0
M  V30 2027 N 201.022 0.148545 -1.56898 0
M  V30 2028 C 202.27 0.859717 -1.82902 0
M  V30 2029 C 202.591 1.81775 -0.70588 0
M  V30 2030 O 201.861 1.93994 0.272586 0
M  V30 2031 H 200.441 0.320469 -0.674766 0
M  V30 2032 H 203.103 0.142918 -1.94375 0
M  V30 2033 H 202.199 1.4229 -2.77777 0
M  V30 2034 N 202.5 1.5196 0.417844 0
M  V30 2035 C 203.41 1.77554 1.53336 0
M  V30 2036 C 204.426 0.660655 1.6097 0
M  V30 2037 O 205.602 0.945099 1.77848 0
M  V30 2038 C 202.667 1.91291 2.89152 0
M  V30 2039 C 201.728 3.15183 2.91475 0
M  V30 2040 C 200.961 3.28256 4.20813 0
M  V30 2041 O 201.184 2.46798 5.14244 0
M  V30 2042 O 200.118 4.21356 4.29817 0
M  V30 2043 H 203.944 2.7222 1.34647 0
M  V30 2044 H 201.529 1.36698 0.602828 0
M  V30 2045 H 203.411 2.02199 3.69721 0
M  V30 2046 H 202.086 0.998129 3.07927 0
M  V30 2047 H 200.993 3.09739 2.09791 0
M  V30 2048 H 202.326 4.06414 2.77648 0
M  V30 2049 N 203.978 -0.674533 1.42435 0
M  V30 2050 C 205.218 -1.4466 1.44405 0
M  V30 2051 C 205.582 -1.91911 0.0585784 0
M  V30 2052 O 206.783 -2.68759 -0.0469991 0
M  V30 2053 C 205.054 -2.61136 2.44013 0
M  V30 2054 S 206.613 -3.49981 2.64687 0
M  V30 2055 H 203.431 -0.494074 0.511284 0
M  V30 2056 H 206.033 -0.785162 1.7904 0
M  V30 2057 H 204.737 -2.24662 3.43446 0
M  V30 2058 H 204.268 -3.32153 2.10803 0
M  V30 2059 H 206.283 -4.57124 1.93007 0
M  V30 2060 N 205.456 -1.28612 -0.910864 0
M  V30 2061 C 206.702 -1.17116 -1.66299 0
M  V30 2062 C 207.057 0.276917 -1.90397 0
M  V30 2063 O 206.35 1.19795 -1.49532 0
M  V30 2064 C 206.544 -1.90624 -3.0232 0
M  V30 2065 C 206.373 -3.42431 -2.91498 0
M  V30 2066 C 205.143 -4.11773 -2.92867 0
M  V30 2067 C 207.341 -4.38124 -2.69355 0
M  V30 2068 N 205.323 -5.50025 -2.72664 0
M  V30 2069 C 206.694 -5.63759 -2.58023 0
M  V30 2070 C 208.749 -4.28016 -2.54375 0
M  V30 2071 C 207.452 -6.80436 -2.33238 0
M  V30 2072 C 209.478 -5.44433 -2.30969 0
M  V30 2073 C 208.84 -6.69034 -2.20394 0
M  V30 2074 H 204.939 -0.483506 -0.61461 0
M  V30 2075 H 207.523 -1.62299 -1.0755 0
M  V30 2076 H 205.694 -1.4787 -3.5915 0
M  V30 2077 H 207.426 -1.71488 -3.66571 0
M  V30 2078 H 204.181 -3.63378 -3.03732 0
M  V30 2079 H 204.605 -6.22705 -2.65646 0
M  V30 2080 H 209.247 -3.32388 -2.613 0
M  V30 2081 H 206.965 -7.7613 -2.25051 0
M  V30 2082 H 210.551 -5.38504 -2.20238 0
M  V30 2083 H 209.431 -7.57595 -2.02531 0
M  V30 2084 N 206.934 1.1197 -1.10907 0
M  V30 2085 C 207.866 2.17592 -0.720175 0
M  V30 2086 C 208.879 1.60938 0.245495 0
M  V30 2087 O 210.068 1.78476 0.0292245 0
M  V30 2088 C 207.168 3.38873 -0.0427917 0
M  V30 2089 C 206.341 4.25006 -1.03388 0
M  V30 2090 C 205.4 5.24774 -0.387075 0
M  V30 2091 O 204.426 5.59631 -1.03934 0
M  V30 2092 N 205.628 5.74208 0.852407 0
M  V30 2093 H 208.393 2.51567 -1.62893 0
M  V30 2094 H 205.954 1.27439 -0.998543 0
M  V30 2095 H 207.946 4.02703 0.401501 0
M  V30 2096 H 206.516 3.03007 0.768456 0
M  V30 2097 H 205.736 3.57716 -1.65629 0
M  V30 2098 H 207.024 4.79397 -1.70458 0
M  V30 2099 H 206.422 5.48062 1.40161 0
M  V30 2100 H 204.979 6.39901 1.23977 0
M  V30 2101 N 208.412 0.89855 1.29475 0
M  V30 2102 C 209.689 0.443416 1.90508 0
M  V30 2103 C 210.069 -1.07685 1.81569 0
M  V30 2104 O 209.417 -1.9182 1.24166 0
M  V30 2105 C 209.627 0.956708 3.35631 0
M  V30 2106 C 210.975 0.999728 4.12663 0
M  V30 2107 O 211.999 0.904299 3.4453 0
M  V30 2108 O 210.858 1.14289 5.34416 0
M  V30 2109 H 207.952 0.138025 0.815401 0
M  V30 2110 H 210.498 0.98834 1.37949 0
M  V30 2111 H 209.27 2.00067 3.36287 0
M  V30 2112 H 208.893 0.391728 3.95666 0
M  V30 2113 N 209.89 -1.43072 0.660911 0
M  V30 2114 C 210.837 -2.30785 -0.0259884 0
M  V30 2115 C 211.807 -1.45184 -0.806888 0
M  V30 2116 O 212.992 -1.74041 -0.781943 0
M  V30 2117 C 210.132 -3.30861 -0.981067 0
M  V30 2118 C 209.245 -4.31558 -0.195458 0
M  V30 2119 C 208.38 -5.18712 -1.14503 0
M  V30 2120 C 207.419 -6.11097 -0.350299 0
M  V30 2121 N 206.556 -6.90849 -1.25186 0
M  V30 2122 H 211.396 -2.88975 0.727846 0
M  V30 2123 H 208.933 -1.42353 0.370682 0
M  V30 2124 H 210.891 -3.87399 -1.54849 0
M  V30 2125 H 209.521 -2.74304 -1.70169 0
M  V30 2126 H 208.573 -3.77252 0.488374 0
M  V30 2127 H 209.885 -4.9701 0.422176 0
M  V30 2128 H 209.039 -5.79914 -1.78284 0
M  V30 2129 H 207.778 -4.53404 -1.79656 0
M  V30 2130 H 206.783 -5.48976 0.300808 0
M  V30 2131 H 208.008 -6.7845 0.296941 0
M  V30 2132 H 205.954 -6.28182 -1.89005 0
M  V30 2133 H 205.871 -7.52854 -0.688971 0
M  V30 2134 H 207.139 -7.5655 -1.87757 0
M  V30 2135 N 211.368 -0.403325 -1.52352 0
M  V30 2136 C 212.278 0.432009 -2.30588 0
M  V30 2137 C 213.294 1.05884 -1.38075 0
M  V30 2138 O 214.47 1.06161 -1.71148 0
M  V30 2139 C 211.535 1.53669 -3.10784 0
M  V30 2140 C 210.596 0.933525 -4.19027 0
M  V30 2141 C 209.829 1.98557 -4.9539 0
M  V30 2142 O 210.052 3.20283 -4.71991 0
M  V30 2143 O 208.986 1.59504 -5.80381 0
M  V30 2144 H 212.812 -0.205739 -3.03002 0
M  V30 2145 H 210.397 -0.166675 -1.48467 0
M  V30 2146 H 212.279 2.17814 -3.60742 0
M  V30 2147 H 210.954 2.15915 -2.41169 0
M  V30 2148 H 209.861 0.254954 -3.7323 0
M  V30 2149 H 211.194 0.35508 -4.90918 0
M  V30 2150 N 212.846 1.57033 -0.133567 0
M  V30 2151 C 214.262 1.58035 0.222944 0
M  V30 2152 C 214.462 1.14713 1.6566 0
M  V30 2153 O 213.518 0.841218 2.38075 0
M  V30 2154 C 214.831 3.00691 -0.0236116 0
M  V30 2155 C 216.379 3.12973 0.0411512 0
M  V30 2156 C 216.854 4.57654 -0.177899 0
M  V30 2157 N 218.345 4.63033 -0.124365 0
M  V30 2158 C 219.08 5.72771 -0.268553 0
M  V30 2159 N 218.576 6.91206 -0.46972 0
M  V30 2160 N 220.369 5.61718 -0.2071 0
M  V30 2161 H 212.52 1.8349 -1.06981 0
M  V30 2162 H 214.783 0.848677 -0.422436 0
M  V30 2163 H 214.489 3.36726 -1.0153 0
M  V30 2164 H 214.363 3.70614 0.701808 0
M  V30 2165 H 216.75 2.76787 1.02338 0
M  V30 2166 H 216.831 2.45564 -0.716383 0
M  V30 2167 H 216.475 4.94542 -1.15717 0
M  V30 2168 H 216.405 5.23173 0.599797 0
M  V30 2169 H 218.896 3.7789 0.027011 0
M  V30 2170 H 219.209 7.70693 -0.570212 0
M  V30 2171 H 217.554 6.93156 -0.505876 0
M  V30 2172 H 220.745 4.68072 -0.0507986 0
M  V30 2173 H 220.918 6.47195 -0.322909 0
M  V30 2174 N 214.325 -0.140222 1.56975 0
M  V30 2175 C 215.257 -1.19818 1.95388 0
M  V30 2176 C 216.27 -1.38816 0.850525 0
M  V30 2177 O 217.459 -1.38267 1.12891 0
M  V30 2178 C 214.559 -2.56189 2.21857 0
M  V30 2179 C 213.732 -2.58077 3.5315 0
M  V30 2180 C 212.791 -3.76037 3.6808 0
M  V30 2181 O 211.817 -3.60598 4.40406 0
M  V30 2182 N 213.019 -4.93763 3.05251 0
M  V30 2183 H 215.784 -0.871609 2.86746 0
M  V30 2184 H 213.345 -0.32972 1.58507 0
M  V30 2185 H 215.337 -3.33623 2.2908 0
M  V30 2186 H 213.907 -2.81111 1.36731 0
M  V30 2187 H 213.127 -1.6651 3.57307 0
M  V30 2188 H 214.415 -2.56377 4.39486 0
M  V30 2189 H 213.813 -5.09209 2.46419 0
M  V30 2190 H 212.37 -5.68949 3.18026 0
M  V30 2191 N 215.803 -1.52179 -0.40978 0
M  V30 2192 C 216.733 -1.78435 -1.5061 0
M  V30 2193 C 217.714 -0.635295 -1.57791 0
M  V30 2194 O 218.899 -0.880823 -1.73076 0
M  V30 2195 C 216.029 -1.93444 -2.88439 0
M  V30 2196 C 214.983 -3.09038 -2.96108 0
M  V30 2197 C 214.309 -3.09268 -4.36185 0
M  V30 2198 C 215.609 -4.48508 -2.67652 0
M  V30 2199 H 217.303 -2.70237 -1.28889 0
M  V30 2200 H 214.849 -1.30036 -0.618605 0
M  V30 2201 H 216.802 -2.10394 -3.65119 0
M  V30 2202 H 215.526 -0.983129 -3.11452 0
M  V30 2203 H 214.185 -2.91837 -2.21872 0
M  V30 2204 H 213.833 -2.11861 -4.56206 0
M  V30 2205 H 213.533 -3.86907 -4.42241 0
M  V30 2206 H 215.057 -3.28348 -5.14801 0
M  V30 2207 H 216.471 -4.65918 -3.34056 0
M  V30 2208 H 214.868 -5.28059 -2.85085 0
M  V30 2209 H 215.938 -4.56649 -1.63095 0
M  V30 2210 N 217.281 0.66697 -1.42791 0
M  V30 2211 C 218.697 0.981027 -1.25889 0
M  V30 2212 C 218.897 2.00793 -0.168695 0
M  V30 2213 O 217.953 2.48321 0.45747 0
M  V30 2214 C 219.266 1.47838 -2.61848 0
M  V30 2215 C 220.814 1.59575 -2.69267 0
M  V30 2216 C 221.289 2.12704 -4.05612 0
M  V30 2217 N 222.78 2.20026 -4.07606 0
M  V30 2218 C 223.515 2.62227 -5.09926 0
M  V30 2219 N 223.011 3.03824 -6.22626 0
M  V30 2220 N 224.804 2.62045 -4.97281 0
M  V30 2221 H 216.955 -0.0127891 -2.12396 0
M  V30 2222 H 219.218 0.0568258 -0.946295 0
M  V30 2223 H 218.924 0.798299 -3.4252 0
M  V30 2224 H 218.798 2.45579 -2.86305 0
M  V30 2225 H 221.185 2.26687 -1.88936 0
M  V30 2226 H 221.266 0.60302 -2.48591 0
M  V30 2227 H 220.91 1.46198 -4.86404 0
M  V30 2228 H 220.84 3.12782 -4.23645 0
M  V30 2229 H 223.331 1.90708 -3.2625 0
M  V30 2230 H 223.644 3.34734 -6.96544 0
M  V30 2231 H 221.989 3.01662 -6.26119 0
M  V30 2232 H 225.18 2.28916 -4.08308 0
M  V30 2233 H 225.353 2.94613 -5.77154 0
M  V30 2234 N 218.759 1.29093 0.90403 0
M  V30 2235 C 219.722 1.1386 1.98919 0
M  V30 2236 C 220.722 0.0753457 1.60623 0
M  V30 2237 O 221.912 0.321931 1.71199 0
M  V30 2238 C 219.044 0.740198 3.32767 0
M  V30 2239 H 220.237 2.10246 2.13861 0
M  V30 2240 H 217.79 1.12218 1.08797 0
M  V30 2241 H 218.525 -0.223997 3.23525 0
M  V30 2242 H 218.31 1.50838 3.61926 0
M  V30 2243 H 219.8 0.656546 4.12407 0
M  V30 2244 N 220.237 -1.11381 1.11499 0
M  V30 2245 C 221.653 -1.35143 0.849031 0
M  V30 2246 C 221.853 -1.94515 -0.525938 0
M  V30 2247 O 220.909 -2.1785 -1.27662 0
M  V30 2248 C 222.222 -2.28249 1.95762 0
M  V30 2249 C 223.77 -2.41812 1.98736 0
M  V30 2250 C 224.245 -3.3824 3.088 0
M  V30 2251 N 225.736 -3.45803 3.08179 0
M  V30 2252 C 226.471 -4.20358 3.89982 0
M  V30 2253 N 225.967 -4.97884 4.8175 0
M  V30 2254 N 227.76 -4.15877 3.78157 0
M  V30 2255 H 219.911 -0.712062 2.00109 0
M  V30 2256 H 222.174 -0.376025 0.870235 0
M  V30 2257 H 221.88 -1.91817 2.94787 0
M  V30 2258 H 221.754 -3.28473 1.85433 0
M  V30 2259 H 224.141 -2.77518 1.00338 0
M  V30 2260 H 224.222 -1.41437 2.13141 0
M  V30 2261 H 223.866 -3.03261 4.07425 0
M  V30 2262 H 223.796 -4.38471 2.91635 0
M  V30 2263 H 226.287 -2.90506 2.41691 0
M  V30 2264 H 226.6 -5.52142 5.40702 0
M  V30 2265 H 224.945 -4.97043 4.85771 0
M  V30 2266 H 228.136 -3.544 3.05808 0
M  V30 2267 H 228.309 -4.73723 4.42143 0
M  V30 2268 N 221.715 -0.905404 -1.28997 0
M  V30 2269 C 222.961 -0.535039 -1.95615 0
M  V30 2270 C 223.294 0.917404 -1.71165 0
M  V30 2271 O 222.569 1.65123 -1.02785 0
M  V30 2272 C 222.852 -0.834918 -3.50287 0
M  V30 2273 C 222.705 -2.33948 -3.84172 0
M  V30 2274 C 224.024 -0.325318 -4.38896 0
M  V30 2275 H 221.143 -0.195861 -0.710498 0
M  V30 2276 H 223.785 -1.13313 -1.52513 0
M  V30 2277 H 221.935 -0.325904 -3.87131 0
M  V30 2278 H 223.607 -2.91847 -3.57243 0
M  V30 2279 H 221.85 -2.79789 -3.31513 0
M  V30 2280 H 222.521 -2.49987 -4.92149 0
M  V30 2281 H 224.997 -0.761256 -4.09077 0
M  V30 2282 H 223.873 -0.564295 -5.45992 0
M  V30 2283 H 224.134 0.774144 -4.35269 0
M  V30 2284 N 223.193 1.4272 -0.668489 0
M  V30 2285 C 224.14 2.30796 0.0137489 0
M  V30 2286 C 225.11 1.4561 0.799177 0
M  V30 2287 O 226.295 1.74453 0.772702 0
M  V30 2288 C 223.435 3.31377 0.963507 0
M  V30 2289 C 222.548 4.31655 0.172569 0
M  V30 2290 C 221.683 5.19312 1.1175 0
M  V30 2291 C 220.722 6.11274 0.317886 0
M  V30 2292 N 219.859 6.91504 1.2152 0
M  V30 2293 H 224.699 2.88585 -0.743161 0
M  V30 2294 H 222.236 1.42154 -0.378226 0
M  V30 2295 H 224.194 3.88214 1.52792 0
M  V30 2296 H 222.824 2.75202 1.68712 0
M  V30 2297 H 221.876 3.76988 -0.508374 0
M  V30 2298 H 223.188 4.96779 -0.448527 0
M  V30 2299 H 222.342 5.80851 1.75206 0
M  V30 2300 H 221.081 4.5435 1.77249 0
M  V30 2301 H 220.086 5.48809 -0.329918 0
M  V30 2302 H 221.311 6.78283 -0.332917 0
M  V30 2303 H 219.257 6.29176 1.85671 0
M  V30 2304 H 219.174 7.53209 0.649036 0
M  V30 2305 H 220.442 7.57535 1.83742 0
M  V30 2306 N 224.671 0.411399 1.52136 0
M  V30 2307 C 226.087 0.0623865 1.59478 0
M  V30 2308 C 226.287 -1.42554 1.4241 0
M  V30 2309 O 225.343 -2.19263 1.2522 0
M  V30 2310 C 226.656 0.559331 2.95452 0
M  V30 2311 C 228.204 0.517503 3.08692 0
M  V30 2312 C 228.679 0.990994 4.4715 0
M  V30 2313 N 230.17 0.947908 4.53397 0
M  V30 2314 C 230.905 1.28544 5.58806 0
M  V30 2315 N 230.401 1.69454 6.71757 0
M  V30 2316 N 232.194 1.20526 5.49026 0
M  V30 2317 H 224.345 1.37982 1.61477 0
M  V30 2318 H 226.608 0.566977 0.759764 0
M  V30 2319 H 226.314 1.59938 3.1323 0
M  V30 2320 H 226.188 -0.0298014 3.77188 0
M  V30 2321 H 228.575 -0.513505 2.90598 0
M  V30 2322 H 228.656 1.14272 2.28857 0
M  V30 2323 H 228.3 2.02034 4.65988 0
M  V30 2324 H 228.23 0.34257 5.25485 0
M  V30 2325 H 230.721 0.647157 3.72317 0
M  V30 2326 H 231.034 1.93513 7.48179 0
M  V30 2327 H 229.379 1.73359 6.73032 0
M  V30 2328 H 232.57 0.884505 4.59667 0
M  V30 2329 H 232.743 1.47161 6.31069 0
M  V30 2330 N 226.149 -1.5696 0.141893 0
M  V30 2331 C 227.395 -1.9625 -0.511248 0
M  V30 2332 C 227.728 -1.02654 -1.64851 0
M  V30 2333 O 227.003 -0.0679676 -1.94381 0
M  V30 2334 C 227.286 -3.45285 -1.02227 0
M  V30 2335 C 227.139 -4.49658 0.113138 0
M  V30 2336 C 228.458 -3.96698 -1.90574 0
M  V30 2337 H 225.577 -0.713567 -0.184367 0
M  V30 2338 H 228.219 -1.88698 0.222087 0
M  V30 2339 H 226.369 -3.51852 -1.64719 0
M  V30 2340 H 228.041 -4.55174 0.749302 0
M  V30 2341 H 226.284 -4.26857 0.773026 0
M  V30 2342 H 226.955 -5.51258 -0.286053 0
M  V30 2343 H 229.431 -3.92578 -1.37918 0
M  V30 2344 H 228.307 -5.01453 -2.2324 0
M  V30 2345 H 228.568 -3.3875 -2.84079 0
M  V30 2346 N 227.627 0.131896 -1.57047 0
M  V30 2347 C 228.557 1.16384 -2.02428 0
M  V30 2348 C 229.538 1.43936 -0.90644 0
M  V30 2349 O 230.723 1.54599 -1.17528 0
M  V30 2350 C 227.853 2.49328 -2.4177 0
M  V30 2351 C 226.807 2.36266 -3.56879 0
M  V30 2352 C 226.133 3.74057 -3.8208 0
M  V30 2353 C 227.433 1.834 -4.89042 0
M  V30 2354 H 229.127 0.786433 -2.88887 0
M  V30 2355 H 226.673 0.376855 -1.38981 0
M  V30 2356 H 228.626 3.21759 -2.7212 0
M  V30 2357 H 227.35 2.88934 -1.52266 0
M  V30 2358 H 226.009 1.66286 -3.26718 0
M  V30 2359 H 225.657 4.11125 -2.89803 0
M  V30 2360 H 225.357 3.66174 -4.59554 0
M  V30 2361 H 226.881 4.48012 -4.1487 0
M  V30 2362 H 228.295 2.45636 -5.18011 0
M  V30 2363 H 226.692 1.8637 -5.70426 0
M  V30 2364 H 227.762 0.790662 -4.7841 0
M  V30 2365 N 229.106 1.52395 0.401703 0
M  V30 2366 C 230.517 1.58899 0.980202 0
M  V30 2367 C 230.868 0.434032 1.91339 0
M  V30 2368 O 229.993 -0.444619 2.11783 0
M  V30 2369 C 230.588 2.87994 1.78451 0
M  V30 2370 C 229.147 2.96953 2.31292 0
M  V30 2371 C 228.294 2.53903 1.11483 0
M  V30 2372 H 231.245 1.57657 0.18168 0
M  V30 2373 H 231.266 2.73765 2.64259 0
M  V30 2374 H 230.778 3.72035 1.10506 0
M  V30 2375 H 228.879 2.17422 3.02586 0
M  V30 2376 H 228.992 4.01344 2.61649 0
M  V30 2377 H 227.356 2.07925 1.47104 0
M  V30 2378 H 228.139 3.40326 0.450928 0
M  V30 2379 N 230.584 -0.659388 1.43143 0
M  V30 2380 C 231.833 -1.41518 1.43721 0
M  V30 2381 C 232.146 -1.95499 0.0628176 0
M  V30 2382 O 233.352 -2.71446 -0.0539683 0
M  V30 2383 C 231.808 -2.5608 2.52885 0
M  V30 2384 C 231.416 -2.08733 3.96402 0
M  V30 2385 C 233.16 -3.3349 2.62649 0
M  V30 2386 C 231.067 -3.20469 4.97045 0
M  V30 2387 H 229.997 -0.531705 0.534608 0
M  V30 2388 H 232.648 -0.712343 1.69109 0
M  V30 2389 H 231.03 -3.28805 2.20688 0
M  V30 2390 H 232.204 -1.43059 4.3803 0
M  V30 2391 H 230.519 -1.44219 3.90627 0
M  V30 2392 H 233.116 -4.16734 3.35017 0
M  V30 2393 H 233.459 -3.8111 1.67513 0
M  V30 2394 H 233.992 -2.67842 2.94118 0
M  V30 2395 H 230.731 -2.77824 5.93712 0
M  V30 2396 H 230.251 -3.84874 4.60034 0
M  V30 2397 H 231.93 -3.85698 5.19467 0
M  V30 2398 N 232.062 -1.29571 -0.897171 0
M  V30 2399 C 233.339 -1.08365 -1.62839 0
M  V30 2400 C 233.719 0.371331 -2.07808 0
M  V30 2401 O 233.067 1.3606 -1.83576 0
M  V30 2402 C 233.277 -2.0735 -2.80726 0
M  V30 2403 C 234.625 -2.38406 -3.51351 0
M  V30 2404 O 235.649 -2.05564 -2.90898 0
M  V30 2405 O 234.508 -2.9453 -4.60341 0
M  V30 2406 H 231.602 -0.415345 -0.715134 0
M  V30 2407 H 234.148 -1.40952 -0.945018 0
M  V30 2408 H 232.92 -3.05339 -2.44711 0
M  V30 2409 H 232.543 -1.75507 -3.56767 0
M  V30 2410 N 233.54 1.10788 -1.12088 0
M  V30 2411 C 234.786 1.82942 -0.875226 0
M  V30 2412 C 235.119 1.84779 0.597538 0
M  V30 2413 O 234.394 1.30578 1.44152 0
M  V30 2414 C 234.677 3.29789 -1.44606 0
M  V30 2415 C 234.53 3.36307 -2.98693 0
M  V30 2416 C 235.849 4.26064 -1.10261 0
M  V30 2417 H 232.968 0.664195 -0.319397 0
M  V30 2418 H 235.61 1.29867 -1.38689 0
M  V30 2419 H 233.76 3.75118 -1.01089 0
M  V30 2420 H 235.432 2.99487 -3.50864 0
M  V30 2421 H 233.675 2.76318 -3.34411 0
M  V30 2422 H 234.346 4.39694 -3.33726 0
M  V30 2423 H 236.822 3.88951 -1.4784 0
M  V30 2424 H 235.698 5.27183 -1.52869 0
M  V30 2425 H 235.959 4.42098 -0.0142953 0
M  V30 2426 N 235.018 0.912232 1.28515 0
M  V30 2427 C 235.968 0.370649 2.24967 0
M  V30 2428 C 236.952 -0.516375 1.52389 0
M  V30 2429 O 238.144 -0.356345 1.73376 0
M  V30 2430 C 235.273 -0.389526 3.41083 0
M  V30 2431 C 234.359 0.51313 4.20984 0
M  V30 2432 N 234.75 1.62604 4.78951 0
M  V30 2433 C 233.048 0.313235 4.44899 0
M  V30 2434 C 233.749 2.18619 5.39055 0
M  V30 2435 N 232.725 1.47765 5.23132 0
M  V30 2436 H 236.527 1.22061 2.67354 0
M  V30 2437 H 234.041 0.764712 1.43269 0
M  V30 2438 H 236.038 -0.794353 4.09262 0
M  V30 2439 H 234.698 -1.2366 3.0023 0
M  V30 2440 H 235.709 2.00864 4.77362 0
M  V30 2441 H 232.386 -0.494452 4.14562 0
M  V30 2442 H 233.776 3.12228 5.94948 0
M  V30 2443 N 236.496 -1.42363 0.676048 0
M  V30 2444 C 237.428 -2.29164 -0.0404605 0
M  V30 2445 C 238.441 -1.43747 -0.764245 0
M  V30 2446 O 239.63 -1.67453 -0.618195 0
M  V30 2447 C 236.73 -3.21196 -1.08103 0
M  V30 2448 C 235.903 -4.35273 -0.430812 0
M  V30 2449 C 234.962 -5.08017 -1.37133 0
M  V30 2450 O 233.988 -5.62494 -0.87116 0
M  V30 2451 N 235.19 -5.13647 -2.70456 0
M  V30 2452 H 237.955 -2.91298 0.704667 0
M  V30 2453 H 235.516 -1.53303 0.520559 0
M  V30 2454 H 237.508 -3.66728 -1.71152 0
M  V30 2455 H 236.078 -2.60505 -1.72788 0
M  V30 2456 H 235.298 -3.92372 0.379209 0
M  V30 2457 H 236.586 -5.08795 0.0221132 0
M  V30 2458 H 235.984 -4.708 -3.1363 0
M  V30 2459 H 234.541 -5.62821 -3.28749 0
M  V30 2460 N 237.974 -0.419461 -1.51915 0
M  V30 2461 C 239.385 0.0477853 -1.86639 0
M  V30 2462 C 239.736 1.43531 -1.33766 0
M  V30 2463 O 238.861 2.05401 -0.68113 0
M  V30 2464 C 239.456 0.0934885 -3.38671 0
M  V30 2465 C 238.015 0.505097 -3.72996 0
M  V30 2466 C 237.162 -0.313792 -2.75519 0
M  V30 2467 H 240.113 -0.636088 -1.45395 0
M  V30 2468 H 240.134 0.906667 -3.6954 0
M  V30 2469 H 239.646 -0.916501 -3.77123 0
M  V30 2470 H 237.747 1.52135 -3.40126 0
M  V30 2471 H 237.86 0.242309 -4.78487 0
M  V30 2472 H 236.224 0.225363 -2.53701 0
M  V30 2473 H 237.007 -1.32232 -3.16812 0
M  V30 2474 N 239.452 1.56882 -0.150215 0
M  V30 2475 C 240.384 2.14057 0.819286 0
M  V30 2476 C 241.397 1.09082 1.20851 0
M  V30 2477 O 242.586 1.36347 1.15203 0
M  V30 2478 C 239.686 2.65102 2.11127 0
M  V30 2479 C 238.859 3.94511 1.88891 0
M  V30 2480 C 237.918 4.30834 3.02107 0
M  V30 2481 O 236.944 4.99099 2.73659 0
M  V30 2482 N 238.146 3.90676 4.29363 0
M  V30 2483 H 240.911 2.97871 0.330618 0
M  V30 2484 H 238.472 1.61866 0.0332538 0
M  V30 2485 H 240.464 2.86411 2.85921 0
M  V30 2486 H 239.034 1.85994 2.51247 0
M  V30 2487 H 238.254 3.81795 0.981152 0
M  V30 2488 H 239.542 4.7907 1.71376 0
M  V30 2489 H 238.94 3.35677 4.55343 0
M  V30 2490 H 237.497 4.1703 5.00928 0
M  V30 2491 N 240.93 -0.123565 1.57115 0
M  V30 2492 C 242.341 -0.681198 1.73829 0
M  V30 2493 C 242.692 -1.80535 0.768214 0
M  V30 2494 O 241.817 -2.16317 -0.0599103 0
M  V30 2495 C 242.412 -1.24246 3.15196 0
M  V30 2496 C 240.971 -1.74643 3.33432 0
M  V30 2497 C 240.118 -0.644284 2.69711 0
M  V30 2498 H 243.069 0.102315 1.5837 0
M  V30 2499 H 243.09 -2.11216 3.16493 0
M  V30 2500 H 242.602 -0.424062 3.85776 0
M  V30 2501 H 240.703 -2.58974 2.67886 0
M  V30 2502 H 240.816 -1.85902 4.41562 0
M  V30 2503 H 239.18 -1.07676 2.3082 0
M  V30 2504 H 239.963 0.163058 3.42913 0
M  V30 2505 N 242.408 -1.52605 -0.393616 0
M  V30 2506 C 243.338 -1.80022 -1.48709 0
M  V30 2507 C 244.319 -0.651995 -1.57108 0
M  V30 2508 O 245.504 -0.89913 -1.72132 0
M  V30 2509 C 242.634 -1.96492 -2.86371 0
M  V30 2510 C 241.588 -3.12161 -2.92813 0
M  V30 2511 C 240.914 -3.13877 -4.3288 0
M  V30 2512 C 242.214 -4.51322 -2.6288 0
M  V30 2513 H 243.908 -2.71589 -1.26015 0
M  V30 2514 H 241.454 -1.30684 -0.604778 0
M  V30 2515 H 243.407 -2.14255 -3.62867 0
M  V30 2516 H 242.131 -1.01611 -3.10391 0
M  V30 2517 H 240.79 -2.94173 -2.18764 0
M  V30 2518 H 240.438 -2.16687 -4.53933 0
M  V30 2519 H 240.138 -3.91576 -4.38112 0
M  V30 2520 H 241.662 -3.33789 -5.1129 0
M  V30 2521 H 243.076 -4.69435 -3.29096 0
M  V30 2522 H 241.473 -5.31053 -2.79468 0
M  V30 2523 H 242.543 -4.58353 -1.58242 0
M  V30 2524 N 243.887 0.651787 -1.4349 0
M  V30 2525 C 245.135 1.40888 -1.44897 0
M  V30 2526 C 245.456 1.94856 -0.0749086 0
M  V30 2527 O 244.726 1.74518 0.889956 0
M  V30 2528 H 243.306 0.522887 -0.533478 0
M  V30 2529 H 245.968 0.768609 -1.79104 0
M  V30 2530 H 245.064 2.25052 -2.16236 0
M  V30 2531 N 245.365 1.30045 0.890287 0
M  V30 2532 C 246.328 1.15963 1.977 0
M  V30 2533 C 247.328 0.0923777 1.60534 0
M  V30 2534 O 248.518 0.340071 1.70848 0
M  V30 2535 C 245.65 0.775451 3.31963 0
M  V30 2536 H 246.843 2.12502 2.11619 0
M  V30 2537 H 244.396 1.13366 1.07601 0
M  V30 2538 H 245.131 -0.189671 3.23745 0
M  V30 2539 H 244.916 1.54668 3.60306 0
M  V30 2540 H 246.406 0.700251 4.11687 0
M  V30 2541 N 246.843 -1.10192 1.12674 0
M  V30 2542 C 248.091 -1.81845 0.881861 0
M  V30 2543 C 248.412 -1.85737 -0.593867 0
M  V30 2544 O 247.682 -1.33724 -1.4316 0
M  V30 2545 H 246.262 -0.673432 0.323261 0
M  V30 2546 H 248.924 -1.33316 1.42172 0
M  V30 2547 H 248.02 -2.85288 1.2656 0
M  V30 2548 N 248.321 -0.919034 -1.28029 0
M  V30 2549 C 249.546 -0.570357 -1.99403 0
M  V30 2550 C 249.971 0.842486 -1.68178 0
M  V30 2551 O 249.329 1.56391 -0.917141 0
M  V30 2552 C 249.377 -0.792541 -3.51783 0
M  V30 2553 O 248.481 0.145988 -4.12142 0
M  V30 2554 H 247.822 -0.220555 -0.6263 0
M  V30 2555 H 250.352 -1.23592 -1.63053 0
M  V30 2556 H 250.362 -0.704708 -4.01868 0
M  V30 2557 H 249.037 -1.82247 -3.73844 0
M  V30 2558 H 247.614 0.00897528 -3.72899 0
M  V30 2559 N 249.799 1.42003 -0.683588 0
M  V30 2560 C 251.21 1.84501 -0.285736 0
M  V30 2561 C 251.561 1.57213 1.17382 0
M  V30 2562 O 250.686 1.03642 1.89966 0
M  V30 2563 C 251.281 3.34912 -0.511821 0
M  V30 2564 C 249.84 3.76025 -0.168005 0
M  V30 2565 C 248.987 2.6551 -0.799983 0
M  V30 2566 H 251.938 1.31724 -0.885119 0
M  V30 2567 H 251.959 3.79784 0.233292 0
M  V30 2568 H 251.471 3.54741 -1.57418 0
M  V30 2569 H 249.572 3.61801 0.890567 0
M  V30 2570 H 249.685 4.75141 -0.614661 0
M  V30 2571 H 248.049 2.53654 -0.230568 0
M  V30 2572 H 248.832 2.8816 -1.86597 0
M  V30 2573 N 251.277 0.427512 1.51691 0
M  V30 2574 C 252.24 -0.377132 2.26076 0
M  V30 2575 C 253.24 -0.958089 1.29141 0
M  V30 2576 O 254.43 -0.83408 1.52934 0
M  V30 2577 C 251.562 -1.53262 3.04506 0
M  V30 2578 H 252.755 0.27464 2.9864 0
M  V30 2579 H 250.308 0.180445 1.55255 0
M  V30 2580 H 251.043 -2.22072 2.36335 0
M  V30 2581 H 250.828 -1.12232 3.75694 0
M  V30 2582 H 252.318 -2.10135 3.60878 0
M  V30 2583 N 252.755 -1.56801 0.158532 0
M  V30 2584 C 254.166 -1.83189 -0.360366 0
M  V30 2585 C 254.517 -1.07778 -1.63946 0
M  V30 2586 O 253.642 -0.326718 -2.13919 0
M  V30 2587 C 254.237 -3.32297 -0.660595 0
M  V30 2588 C 252.796 -3.59227 -1.12398 0
M  V30 2589 C 251.943 -2.76877 -0.153097 0
M  V30 2590 H 254.894 -1.54008 0.383031 0
M  V30 2591 H 254.915 -3.4908 -1.51405 0
M  V30 2592 H 254.427 -3.87156 0.270527 0
M  V30 2593 H 252.528 -3.09766 -2.07064 0
M  V30 2594 H 252.641 -4.67632 -1.04197 0
M  V30 2595 H 251.005 -2.46319 -0.647983 0
M  V30 2596 H 251.788 -3.34511 0.77182 0
M  V30 2597 N 254.233 0.115231 -1.57178 0
M  V30 2598 C 255.163 1.1423 -2.03651 0
M  V30 2599 C 256.144 1.42967 -0.921655 0
M  V30 2600 O 257.329 1.53343 -1.19162 0
M  V30 2601 C 254.459 2.4675 -2.44401 0
M  V30 2602 C 253.413 2.32467 -3.59365 0
M  V30 2603 C 252.739 3.69984 -3.86026 0
M  V30 2604 C 254.039 1.78203 -4.90959 0
M  V30 2605 H 255.733 0.755749 -2.89705 0
M  V30 2606 H 253.279 0.362093 -1.39373 0
M  V30 2607 H 255.232 3.18854 -2.75517 0
M  V30 2608 H 253.956 2.87302 -1.55322 0
M  V30 2609 H 252.615 1.62811 -3.28463 0
M  V30 2610 H 252.263 4.08028 -2.94147 0
M  V30 2611 H 251.963 3.61279 -4.63412 0
M  V30 2612 H 253.487 4.43587 -4.19599 0
M  V30 2613 H 254.901 2.40128 -5.20587 0
M  V30 2614 H 253.298 1.8031 -5.72371 0
M  V30 2615 H 254.368 0.739876 -4.79222 0
M  V30 2616 N 255.711 1.52812 0.385517 0
M  V30 2617 C 257.122 1.5993 0.963293 0
M  V30 2618 C 257.473 0.454302 1.90868 0
M  V30 2619 O 256.598 -0.422132 2.12243 0
M  V30 2620 C 257.193 2.89871 1.75387 0
M  V30 2621 C 255.752 2.99389 2.28129 0
M  V30 2622 C 254.899 2.55071 1.08783 0
M  V30 2623 H 257.85 1.5784 0.164948 0
M  V30 2624 H 257.871 2.76553 2.61341 0
M  V30 2625 H 257.383 3.73186 1.06554 0
M  V30 2626 H 255.484 2.20619 3.00263 0
M  V30 2627 H 255.597 4.04096 2.57377 0
M  V30 2628 H 253.961 2.09473 1.4489 0
M  V30 2629 H 254.744 3.40785 0.414807 0
M  V30 2630 N 257.189 -0.644168 1.43834 0
M  V30 2631 C 258.152 -1.73857 1.49353 0
M  V30 2632 C 259.152 -1.56315 0.377112 0
M  V30 2633 O 260.342 -1.62048 0.639226 0
M  V30 2634 C 257.474 -3.12819 1.35488 0
M  V30 2635 H 258.667 -1.70342 2.46827 0
M  V30 2636 H 256.22 -0.856652 1.30733 0
M  V30 2637 H 256.955 -3.2194 0.390569 0
M  V30 2638 H 256.74 -3.26958 2.16428 0
M  V30 2639 H 258.23 -3.92606 1.42302 0
M  V30 2640 N 258.668 -1.30515 -0.883378 0
M  V30 2641 C 259.945 -1.10086 -1.6168 0
M  V30 2642 C 260.325 0.349269 -2.08191 0
M  V30 2643 O 259.673 1.34105 -1.85008 0
M  V30 2644 C 259.883 -2.10315 -2.78511 0
M  V30 2645 C 261.231 -2.42119 -3.48803 0
M  V30 2646 O 262.255 -2.08638 -2.88702 0
M  V30 2647 O 261.114 -2.99396 -4.57192 0
M  V30 2648 H 258.208 -0.422907 -0.710689 0
M  V30 2649 H 260.754 -1.41947 -0.930015 0
M  V30 2650 H 259.526 -3.07917 -2.41459 0
M  V30 2651 H 259.149 -1.79282 -3.54886 0
M  V30 2652 N 260.146 1.09593 -1.13257 0
M  V30 2653 C 261.109 2.14359 -0.811358 0
M  V30 2654 C 262.109 1.59808 0.178377 0
M  V30 2655 O 263.299 1.74132 -0.0484911 0
M  V30 2656 C 260.431 3.40269 -0.207276 0
M  V30 2657 H 261.624 2.44284 -1.73969 0
M  V30 2658 H 259.177 1.25102 -0.936973 0
M  V30 2659 H 259.912 3.15969 0.73036 0
M  V30 2660 H 259.697 3.81154 -0.919992 0
M  V30 2661 H 261.187 4.176 0.000667944 0
M  V30 2662 N 261.624 0.925811 1.2754 0
M  V30 2663 C 262.554 0.440748 2.29303 0
M  V30 2664 C 263.535 -0.497971 1.62648 0
M  V30 2665 O 264.72 -0.403126 1.8997 0
M  V30 2666 C 261.85 -0.309048 3.45922 0
M  V30 2667 C 260.804 0.54166 4.24559 0
M  V30 2668 C 260.13 -0.337191 5.33636 0
M  V30 2669 C 261.43 1.80516 4.90114 0
M  V30 2670 H 263.124 1.29121 2.70126 0
M  V30 2671 H 260.67 0.622323 1.29858 0
M  V30 2672 H 262.623 -0.659315 4.1621 0
M  V30 2673 H 261.347 -1.19352 3.04011 0
M  V30 2674 H 260.006 0.874609 3.56014 0
M  V30 2675 H 259.654 -1.22056 4.87966 0
M  V30 2676 H 259.354 0.228497 5.87156 0
M  V30 2677 H 260.878 -0.683072 6.06767 0
M  V30 2678 H 262.292 1.52307 5.52698 0
M  V30 2679 H 260.689 2.3142 5.53683 0
M  V30 2680 H 261.759 2.52581 4.13921 0
M  V30 2681 N 263.102 -1.41638 0.69111 0
M  V30 2682 C 264.348 -2.01598 0.220519 0
M  V30 2683 C 264.681 -1.54594 -1.17535 0
M  V30 2684 O 263.956 -0.755177 -1.79241 0
M  V30 2685 C 264.239 -3.59062 0.273243 0
M  V30 2686 C 264.092 -4.16203 1.70573 0
M  V30 2687 C 265.411 -4.38546 -0.369457 0
M  V30 2688 H 262.53 -0.732468 0.0816045 0
M  V30 2689 H 265.172 -1.68445 0.878986 0
M  V30 2690 H 263.322 -3.87435 -0.287411 0
M  V30 2691 H 264.994 -3.98722 2.31989 0
M  V30 2692 H 263.237 -3.71414 2.2413 0
M  V30 2693 H 263.908 -5.25358 1.69419 0
M  V30 2694 H 266.384 -4.1596 0.107977 0
M  V30 2695 H 265.26 -5.48069 -0.302002 0
M  V30 2696 H 265.521 -4.17662 -1.44951 0
M  V30 2697 N 264.58 -0.43555 -1.51462 0
M  V30 2698 C 265.805 0.132627 -2.06976 0
M  V30 2699 C 266.23 1.35848 -1.30104 0
M  V30 2700 O 265.588 1.78112 -0.338493 0
M  V30 2701 C 265.636 0.43523 -3.57964 0
M  V30 2702 O 264.74 1.52198 -3.83288 0
M  V30 2703 H 264.081 0.00265 -0.663995 0
M  V30 2704 H 266.611 -0.616369 -1.95095 0
M  V30 2705 H 266.621 0.686206 -4.02188 0
M  V30 2706 H 265.296 -0.460739 -4.1334 0
M  V30 2707 H 263.873 1.2611 -3.50928 0
M  V30 2708 N 266.058 1.56714 -0.166846 0
M  V30 2709 C 267.021 2.16539 0.751232 0
M  V30 2710 C 268.021 1.11228 1.16125 0
M  V30 2711 O 269.211 1.36765 1.07894 0
M  V30 2712 C 266.343 2.74462 2.02196 0
M  V30 2713 H 267.536 2.99013 0.230499 0
M  V30 2714 H 265.089 1.56081 0.0826982 0
M  V30 2715 H 265.824 1.95709 2.58589 0
M  V30 2716 H 265.609 3.51527 1.73698 0
M  V30 2717 H 267.099 3.20489 2.67725 0
M  V30 2718 N 267.536 -0.106894 1.57237 0
M  V30 2719 C 268.783 -0.812526 1.85484 0
M  V30 2720 C 269.111 -1.79304 0.753687 0
M  V30 2721 O 268.366 -1.94047 -0.253853 0
M  V30 2722 C 268.665 -1.58628 3.20268 0
M  V30 2723 C 268.331 -0.748967 4.44636 0
M  V30 2724 C 266.993 -0.518104 4.78403 0
M  V30 2725 C 269.345 -0.166122 5.20935 0
M  V30 2726 C 266.673 0.305659 5.85903 0
M  V30 2727 C 269.025 0.644899 6.29304 0
M  V30 2728 C 267.689 0.885965 6.61594 0
M  V30 2729 H 266.959 -0.297324 0.678734 0
M  V30 2730 H 269.606 -0.0744332 1.91355 0
M  V30 2731 H 267.911 -2.39562 3.10028 0
M  V30 2732 H 269.608 -2.13643 3.39349 0
M  V30 2733 H 266.198 -0.939006 4.18187 0
M  V30 2734 H 270.382 -0.33167 4.95191 0
M  V30 2735 H 265.638 0.501528 6.0934 0
M  V30 2736 H 269.812 1.10345 6.87602 0
M  V30 2737 H 267.439 1.52609 7.44725 0
M  V30 2738 N 269.014 -1.53014 -0.377408 0
M  V30 2739 C 270.254 -1.70318 -1.1301 0
M  V30 2740 C 270.618 -0.439538 -1.86901 0
M  V30 2741 O 271.819 -0.489095 -2.64313 0
M  V30 2742 C 270.09 -2.91125 -2.07319 0
M  V30 2743 S 271.649 -3.29075 -2.90268 0
M  V30 2744 H 268.467 -0.599426 -0.382374 0
M  V30 2745 H 271.069 -1.91089 -0.412933 0
M  V30 2746 H 269.773 -3.81303 -1.51777 0
M  V30 2747 H 269.304 -2.7272 -2.83526 0
M  V30 2748 H 271.319 -2.80165 -4.09539 0
M  V30 2749 N 270.492 0.636531 -1.44174 0
M  V30 2750 C 271.422 1.76003 -1.53444 0
M  V30 2751 C 272.403 1.65619 -0.387841 0
M  V30 2752 O 273.588 1.84461 -0.607257 0
M  V30 2753 C 270.718 3.14511 -1.4731 0
M  V30 2754 C 269.672 3.39677 -2.60391 0
M  V30 2755 C 268.998 4.78159 -2.39308 0
M  V30 2756 C 270.298 3.32772 -4.02567 0
M  V30 2757 H 271.992 1.68501 -2.47483 0
M  V30 2758 H 269.538 0.809237 -1.19111 0
M  V30 2759 H 271.491 3.92878 -1.52397 0
M  V30 2760 H 270.215 3.22783 -0.49785 0
M  V30 2761 H 268.874 2.63688 -2.54684 0
M  V30 2762 H 268.522 4.83128 -1.39988 0
M  V30 2763 H 268.222 4.95956 -3.15122 0
M  V30 2764 H 269.746 5.58762 -2.46205 0
M  V30 2765 H 271.16 4.01051 -4.09672 0
M  V30 2766 H 269.557 3.62104 -4.7854 0
M  V30 2767 H 270.627 2.30669 -4.2652 0
M  V30 2768 N 271.97 1.30982 0.876444 0
M  V30 2769 C 272.88 1.2003 2.01569 0
M  V30 2770 C 273.896 0.11838 1.73597 0
M  V30 2771 O 275.072 0.33495 1.98595 0
M  V30 2772 C 272.137 0.901637 3.34771 0
M  V30 2773 C 271.198 2.06979 3.76109 0
M  V30 2774 C 270.431 1.78529 5.02954 0
M  V30 2775 O 270.654 0.717296 5.65872 0
M  V30 2776 O 269.588 2.64019 5.40905 0
M  V30 2777 H 273.414 2.15753 2.13739 0
M  V30 2778 H 270.999 1.10658 1.00375 0
M  V30 2779 H 272.881 0.750645 4.1466 0
M  V30 2780 H 271.556 -0.0256141 3.2369 0
M  V30 2781 H 270.463 2.27616 2.96887 0
M  V30 2782 H 271.796 2.97907 3.91807 0
M  V30 2783 N 273.449 -1.08991 1.13837 0
M  V30 2784 C 274.412 -2.13925 0.822715 0
M  V30 2785 C 275.412 -1.599 -0.1699 0
M  V30 2786 O 276.602 -1.74104 0.0577251 0
M  V30 2787 C 273.734 -3.40155 0.225318 0
M  V30 2788 H 274.927 -2.43358 1.75262 0
M  V30 2789 H 272.48 -1.24603 0.943594 0
M  V30 2790 H 273.215 -3.16352 -0.713594 0
M  V30 2791 H 273 -3.80661 0.940193 0
M  V30 2792 H 274.49 -4.17594 0.0214784 0
M  V30 2793 N 274.927 -0.932562 -1.27047 0
M  V30 2794 C 276.173 -0.576412 -1.94436 0
M  V30 2795 C 276.506 0.880891 -1.73072 0
M  V30 2796 O 275.781 1.62905 -1.06264 0
M  V30 2797 C 276.064 -0.909031 -3.48437 0
M  V30 2798 C 275.917 -2.42044 -3.79123 0
M  V30 2799 C 277.236 -0.418341 -4.38107 0
M  V30 2800 H 274.355 -0.210888 -0.706184 0
M  V30 2801 H 276.997 -1.16522 -1.50075 0
M  V30 2802 H 275.147 -0.407947 -3.86352 0
M  V30 2803 H 276.819 -2.99359 -3.50973 0
M  V30 2804 H 275.062 -2.86758 -3.25503 0
M  V30 2805 H 275.733 -2.6037 -4.86736 0
M  V30 2806 H 278.209 -0.847856 -4.0737 0
M  V30 2807 H 277.085 -0.679981 -5.44672 0
M  V30 2808 H 277.346 0.681642 -4.36814 0
M  V30 2809 N 276.405 1.4127 -0.698611 0
M  V30 2810 C 277.63 2.06024 -0.238512 0
M  V30 2811 C 278.055 1.5224 1.10475 0
M  V30 2812 O 277.413 0.650623 1.69223 0
M  V30 2813 C 277.461 3.59988 -0.209952 0
M  V30 2814 O 276.565 4.04282 0.814235 0
M  V30 2815 H 275.906 0.653829 -0.115775 0
M  V30 2816 H 278.436 1.8098 -0.954326 0
M  V30 2817 H 278.446 4.07979 -0.0418436 0
M  V30 2818 H 277.121 3.98503 -1.1903 0
M  V30 2819 H 275.698 3.6779 0.615234 0
M  V30 2820 N 277.883 0.443576 1.51229 0
M  V30 2821 C 279.294 -0.0180867 1.86691 0
M  V30 2822 C 279.645 -1.41384 1.36033 0
M  V30 2823 O 278.77 -2.04291 0.713722 0
M  V30 2824 C 279.365 -0.039597 3.38777 0
M  V30 2825 C 277.924 -0.445692 3.73752 0
M  V30 2826 C 277.071 0.357584 2.74985 0
M  V30 2827 H 280.022 0.659138 1.44364 0
M  V30 2828 H 280.043 -0.847761 3.70936 0
M  V30 2829 H 279.555 0.976382 3.75617 0
M  V30 2830 H 277.656 -1.46704 3.42503 0
M  V30 2831 H 277.769 -0.166155 4.78812 0
M  V30 2832 H 276.133 -0.184973 2.54027 0
M  V30 2833 H 276.916 1.37256 3.14668 0
M  V30 2834 N 279.361 -1.56624 0.175154 0
M  V30 2835 C 280.638 -1.88688 -0.515373 0
M  V30 2836 C 281.018 -1.08564 -1.81044 0
M  V30 2837 O 280.366 -0.180703 -2.27784 0
M  V30 2838 C 280.576 -3.40768 -0.753552 0
M  V30 2839 C 281.924 -4.10587 -1.08184 0
M  V30 2840 O 282.948 -3.46106 -0.841961 0
M  V30 2841 O 281.807 -5.24512 -1.53459 0
M  V30 2842 H 278.901 -0.78301 -0.26613 0
M  V30 2843 H 281.447 -1.68347 0.213877 0
M  V30 2844 H 280.219 -3.90965 0.161829 0
M  V30 2845 H 279.842 -3.66733 -1.53598 0
M  V30 2846 N 280.839 0.0985539 -1.57292 0
M  V30 2847 C 281.769 1.12064 -2.04851 0
M  V30 2848 C 282.75 1.41981 -0.936767 0
M  V30 2849 O 283.935 1.52071 -1.20781 0
M  V30 2850 C 281.065 2.44144 -2.47004 0
M  V30 2851 C 280.019 2.28643 -3.6181 0
M  V30 2852 C 279.345 3.65869 -3.89929 0
M  V30 2853 C 280.645 1.72986 -4.92822 0
M  V30 2854 H 282.339 0.724979 -2.9049 0
M  V30 2855 H 279.885 0.34729 -1.39749 0
M  V30 2856 H 281.838 3.15914 -2.78884 0
M  V30 2857 H 280.562 2.85639 -1.5836 0
M  V30 2858 H 279.221 1.59318 -3.30172 0
M  V30 2859 H 278.869 4.04885 -2.98458 0
M  V30 2860 H 278.569 3.56344 -4.67218 0
M  V30 2861 H 280.093 4.39112 -4.2428 0
M  V30 2862 H 281.507 2.34593 -5.23105 0
M  V30 2863 H 279.904 1.74229 -5.74251 0
M  V30 2864 H 280.974 0.689007 -4.7998 0
M  V30 2865 N 282.317 1.53212 0.369288 0
M  V30 2866 C 283.28 1.7872 1.43498 0
M  V30 2867 C 284.28 0.657554 1.46741 0
M  V30 2868 O 285.47 0.925736 1.47566 0
M  V30 2869 C 282.602 1.90591 2.82645 0
M  V30 2870 H 283.795 2.73894 1.22156 0
M  V30 2871 H 281.348 1.44233 0.602203 0
M  V30 2872 H 282.083 0.974709 3.09306 0
M  V30 2873 H 281.868 2.72751 2.8169 0
M  V30 2874 H 283.358 2.11931 3.59826 0
M  V30 2875 N 283.795 -0.628877 1.44509 0
M  V30 2876 C 285.02 -1.42048 1.5112 0
M  V30 2877 C 285.445 -1.87594 0.137818 0
M  V30 2878 O 284.803 -1.58873 -0.873437 0
M  V30 2879 C 284.851 -2.61541 2.48251 0
M  V30 2880 O 283.955 -3.61453 1.98559 0
M  V30 2881 H 283.296 -0.424942 0.510216 0
M  V30 2882 H 285.826 -0.767374 1.89664 0
M  V30 2883 H 285.836 -3.09057 2.66361 0
M  V30 2884 H 284.511 -2.27736 3.48007 0
M  V30 2885 H 283.088 -3.20731 1.90227 0
M  V30 2886 N 285.273 -1.31445 -0.869486 0
M  V30 2887 C 286.52 -1.21158 -1.62256 0
M  V30 2888 C 286.848 0.230155 -1.93133 0
M  V30 2889 O 286.103 1.17906 -1.56194 0
M  V30 2890 C 286.402 -2.00145 -2.96102 0
M  V30 2891 C 286.068 -3.4964 -2.84715 0
M  V30 2892 C 284.73 -3.90403 -2.81317 0
M  V30 2893 C 287.082 -4.44769 -2.71716 0
M  V30 2894 C 284.41 -5.24561 -2.62778 0
M  V30 2895 C 286.762 -5.79054 -2.54714 0
M  V30 2896 C 285.426 -6.19037 -2.49699 0
M  V30 2897 H 284.696 -0.443348 -0.593737 0
M  V30 2898 H 287.343 -1.62715 -1.00976 0
M  V30 2899 H 285.648 -1.5127 -3.6142 0
M  V30 2900 H 287.345 -1.89566 -3.53363 0
M  V30 2901 H 283.935 -3.17256 -2.88178 0
M  V30 2902 H 288.119 -4.14208 -2.73397 0
M  V30 2903 H 283.375 -5.54613 -2.57321 0
M  V30 2904 H 287.549 -6.52393 -2.43632 0
M  V30 2905 H 285.176 -7.22935 -2.35093 0
M  V30 2906 N 286.751 1.08385 -1.14413 0
M  V30 2907 C 287.683 2.1519 -0.789036 0
M  V30 2908 C 288.696 1.61638 0.19417 0
M  V30 2909 O 289.885 1.78479 -0.0275711 0
M  V30 2910 C 286.985 3.38565 -0.15058 0
M  V30 2911 C 286.158 4.21501 -1.16857 0
M  V30 2912 C 285.217 5.23277 -0.553832 0
M  V30 2913 O 284.243 5.56041 -1.21686 0
M  V30 2914 N 285.445 5.76629 0.669296 0
M  V30 2915 H 288.21 2.46257 -1.70814 0
M  V30 2916 H 285.771 1.24198 -1.03858 0
M  V30 2917 H 287.763 4.03777 0.273181 0
M  V30 2918 H 286.333 3.05299 0.671667 0
M  V30 2919 H 285.553 3.52265 -1.76926 0
M  V30 2920 H 286.841 4.73731 -1.85624 0
M  V30 2921 H 286.239 5.52243 1.22654 0
M  V30 2922 H 284.796 6.43521 1.03556 0
M  V30 2923 N 288.23 0.939286 1.26551 0
M  V30 2924 C 289.646 0.641304 1.46149 0
M  V30 2925 C 289.846 -0.805964 1.84679 0
M  V30 2926 O 288.902 -1.58278 1.96734 0
M  V30 2927 C 290.215 1.6011 2.54529 0
M  V30 2928 C 291.763 1.6106 2.68382 0
M  V30 2929 C 292.238 2.55765 3.79932 0
M  V30 2930 N 293.729 2.5404 3.87322 0
M  V30 2931 C 294.464 3.24004 4.73085 0
M  V30 2932 N 293.96 4.03388 5.63249 0
M  V30 2933 N 295.753 3.12965 4.66914 0
M  V30 2934 H 287.904 1.87478 0.998285 0
M  V30 2935 H 290.167 0.805559 0.499779 0
M  V30 2936 H 289.873 2.63412 2.33039 0
M  V30 2937 H 289.747 1.35171 3.52149 0
M  V30 2938 H 292.134 0.584835 2.89247 0
M  V30 2939 H 292.215 1.90053 1.71212 0
M  V30 2940 H 291.859 3.58458 3.5982 0
M  V30 2941 H 291.789 2.24063 4.76554 0
M  V30 2942 H 294.28 1.96396 3.22858 0
M  V30 2943 H 294.593 4.5373 6.25579 0
M  V30 2944 H 292.938 4.07489 5.63008 0
M  V30 2945 H 296.129 2.50432 3.95476 0
M  V30 2946 H 296.302 3.67759 5.33533 0
M  V30 2947 N 289.708 -1.40897 0.706093 0
M  V30 2948 C 290.671 -2.29131 0.0562841 0
M  V30 2949 C 291.671 -1.44901 -0.697166 0
M  V30 2950 O 292.861 -1.65926 -0.530484 0
M  V30 2951 C 289.993 -3.27957 -0.93043 0
M  V30 2952 H 291.186 -2.88091 0.833284 0
M  V30 2953 H 288.739 -1.4906 0.470192 0
M  V30 2954 H 289.474 -2.73997 -1.73482 0
M  V30 2955 H 289.259 -3.90124 -0.393166 0
M  V30 2956 H 290.749 -3.94049 -1.38256 0
M  V30 2957 N 291.186 -0.45159 -1.50991 0
M  V30 2958 C 292.116 0.342898 -2.30969 0
M  V30 2959 C 293.097 1.00815 -1.37005 0
M  V30 2960 O 294.282 1.00907 -1.65926 0
M  V30 2961 C 291.412 1.43637 -3.16205 0
M  V30 2962 C 290.366 0.893818 -4.18563 0
M  V30 2963 C 289.692 2.08411 -4.92411 0
M  V30 2964 C 290.992 -0.0815568 -5.22236 0
M  V30 2965 H 292.686 -0.324556 -2.97636 0
M  V30 2966 H 290.232 -0.157531 -1.43136 0
M  V30 2967 H 292.185 1.9995 -3.70942 0
M  V30 2968 H 290.909 2.13232 -2.47386 0
M  V30 2969 H 289.568 0.352798 -3.64898 0
M  V30 2970 H 289.216 2.76658 -4.20082 0
M  V30 2971 H 288.916 1.72741 -5.61636 0
M  V30 2972 H 290.44 2.65251 -5.49976 0
M  V30 2973 H 291.854 0.391742 -5.7196 0
M  V30 2974 H 290.251 -0.351551 -5.99069 0
M  V30 2975 H 291.321 -1.01374 -4.74185 0
M  V30 2976 N 292.664 1.56529 -0.183458 0
M  V30 2977 C 293.941 1.88959 0.50536 0
M  V30 2978 C 294.321 1.09523 1.80466 0
M  V30 2979 O 293.669 0.19278 2.27685 0
M  V30 2980 C 293.879 3.41162 0.73547 0
M  V30 2981 C 295.227 4.11155 1.06005 0
M  V30 2982 O 296.251 3.46548 0.823594 0
M  V30 2983 O 295.11 5.25318 1.50675 0
M  V30 2984 H 292.204 0.78441 0.261973 0
M  V30 2985 H 294.75 1.68231 -0.222802 0
M  V30 2986 H 293.522 3.90874 -0.182561 0
M  V30 2987 H 293.145 3.67543 1.51651 0
M  V30 2988 N 294.142 -0.090211 1.57342 0
M  V30 2989 C 295.092 -1.11557 1.98844 0
M  V30 2990 C 296.076 -1.35503 0.867624 0
M  V30 2991 O 297.268 -1.36113 1.13148 0
M  V30 2992 C 294.397 -2.43446 2.42051 0
M  V30 2993 C 293.483 -2.22853 3.60828 0
M  V30 2994 N 293.874 -1.72141 4.75606 0
M  V30 2995 C 292.172 -2.53401 3.67021 0
M  V30 2996 C 292.873 -1.65932 5.57531 0
M  V30 2997 N 291.849 -2.11323 5.00843 0
M  V30 2998 H 295.651 -0.716499 2.85032 0
M  V30 2999 H 293.165 -0.297567 1.59651 0
M  V30 3000 H 295.162 -3.17644 2.70014 0
M  V30 3001 H 293.822 -2.84087 1.57241 0
M  V30 3002 H 294.833 -1.41268 4.98261 0
M  V30 3003 H 291.51 -2.97532 2.92884 0
M  V30 3004 H 292.9 -1.27733 6.59647 0
M  V30 3005 N 295.62 -1.53406 -0.361157 0
M  V30 3006 C 296.869 -1.69022 -1.10066 0
M  V30 3007 C 297.182 -0.450838 -1.90333 0
M  V30 3008 O 298.388 -0.487617 -2.67085 0
M  V30 3009 C 296.844 -2.98812 -2.00598 0
M  V30 3010 C 296.452 -4.30027 -1.25621 0
M  V30 3011 C 298.196 -3.23795 -2.74513 0
M  V30 3012 C 296.103 -5.50903 -2.1508 0
M  V30 3013 H 295.033 -0.629776 -0.414606 0
M  V30 3014 H 297.684 -1.79907 -0.361348 0
M  V30 3015 H 296.066 -2.8174 -2.78278 0
M  V30 3016 H 297.24 -4.57745 -0.529739 0
M  V30 3017 H 295.555 -4.11522 -0.635496 0
M  V30 3018 H 298.152 -4.11289 -3.41681 0
M  V30 3019 H 298.495 -2.40045 -3.40123 0
M  V30 3020 H 299.028 -3.41561 -2.03914 0
M  V30 3021 H 295.767 -6.37143 -1.54041 0
M  V30 3022 H 295.287 -5.27459 -2.85565 0
M  V30 3023 H 296.966 -5.85865 -2.74538 0
M  V30 3024 N 297.098 0.621204 -1.44841 0
M  V30 3025 C 298.326 1.40752 -1.51646 0
M  V30 3026 C 298.741 1.88246 -0.144549 0
M  V30 3027 O 298.098 1.61422 0.851416 0
M  V30 3028 C 298.149 2.62119 -2.4895 0
M  V30 3029 O 297.87 2.16602 -3.80808 0
M  V30 3030 C 299.371 3.55135 -2.65319 0
M  V30 3031 H 296.591 0.431325 -0.514004 0
M  V30 3032 H 299.135 0.758835 -1.899 0
M  V30 3033 H 297.29 3.23058 -2.13805 0
M  V30 3034 H 297.704 2.95358 -4.33433 0
M  V30 3035 H 299.178 4.36874 -3.37409 0
M  V30 3036 H 299.655 4.04592 -1.70886 0
M  V30 3037 H 300.261 3.00058 -3.01405 0
M  V30 3038 N 298.576 1.31904 0.862503 0
M  V30 3039 C 299.804 1.24998 1.64873 0
M  V30 3040 C 300.219 -0.183425 1.87907 0
M  V30 3041 O 299.576 -1.11794 1.44251 0
M  V30 3042 C 299.627 1.99829 3.01248 0
M  V30 3043 O 299.348 3.37575 2.79239 0
M  V30 3044 C 300.849 1.99852 3.95694 0
M  V30 3045 H 298.069 0.431599 0.513773 0
M  V30 3046 H 300.613 1.73901 1.07604 0
M  V30 3047 H 298.768 1.54668 3.55185 0
M  V30 3048 H 299.182 3.75776 3.65914 0
M  V30 3049 H 300.656 2.56709 4.88676 0
M  V30 3050 H 301.133 0.982852 4.28062 0
M  V30 3051 H 301.739 2.44926 3.47694 0
M  V30 3052 N 300.054 -1.07777 1.14986 0
M  V30 3053 C 300.984 -2.16865 0.865557 0
M  V30 3054 C 301.965 -1.69123 -0.182083 0
M  V30 3055 O 303.15 -1.94164 -0.0373815 0
M  V30 3056 C 300.28 -3.45539 0.349313 0
M  V30 3057 C 299.234 -4.06708 1.33313 0
M  V30 3058 C 298.56 -5.30411 0.675918 0
M  V30 3059 C 299.86 -4.47241 2.69764 0
M  V30 3060 H 301.554 -2.40905 1.77778 0
M  V30 3061 H 299.1 -1.15781 0.856203 0
M  V30 3062 H 301.053 -4.21174 0.137983 0
M  V30 3063 H 299.777 -3.21072 -0.598362 0
M  V30 3064 H 298.436 -3.33112 1.53075 0
M  V30 3065 H 298.084 -5.02232 -0.277767 0
M  V30 3066 H 297.784 -5.72293 1.33244 0
M  V30 3067 H 299.308 -6.08755 0.474262 0
M  V30 3068 H 300.722 -5.14025 2.53873 0
M  V30 3069 H 299.119 -5.00062 3.3175 0
M  V30 3070 H 300.189 -3.58818 3.26156 0
M  V30 3071 N 301.532 -0.945985 -1.26051 0
M  V30 3072 C 302.462 -0.477172 -2.28572 0
M  V30 3073 C 303.443 0.472032 -1.63419 0
M  V30 3074 O 304.628 0.372853 -1.90587 0
M  V30 3075 C 301.758 0.253975 -3.4637 0
M  V30 3076 C 300.712 -0.609135 -4.23643 0
M  V30 3077 C 300.038 0.252252 -5.34105 0
M  V30 3078 C 301.338 -1.8829 -4.8718 0
M  V30 3079 H 303.032 -1.33402 -2.68038 0
M  V30 3080 H 300.578 -0.642904 -1.28852 0
M  V30 3081 H 302.531 0.593016 -4.17207 0
M  V30 3082 H 301.255 1.145 -3.05871 0
M  V30 3083 H 299.914 -0.931138 -3.54578 0
M  V30 3084 H 299.562 1.14278 -4.89846 0
M  V30 3085 H 299.262 -0.32188 -5.86718 0
M  V30 3086 H 300.786 0.586454 -6.07777 0
M  V30 3087 H 302.2 -1.61081 -5.50205 0
M  V30 3088 H 300.597 -2.40199 -5.49931 0
M  V30 3089 H 301.667 -2.59134 -4.09851 0
M  V30 3090 N 303.011 1.40521 -0.713556 0
M  V30 3091 C 304.427 1.54839 -0.386907 0
M  V30 3092 C 304.627 1.68532 1.1045 0
M  V30 3093 O 303.683 1.67377 1.89053 0
M  V30 3094 C 304.996 2.77792 -1.15118 0
M  V30 3095 C 306.544 2.91607 -1.13729 0
M  V30 3096 C 307.019 4.1747 -1.88368 0
M  V30 3097 N 308.51 4.24466 -1.85427 0
M  V30 3098 C 309.245 5.20755 -2.40004 0
M  V30 3099 N 308.741 6.22965 -3.03129 0
M  V30 3100 N 310.534 5.1282 -2.30158 0
M  V30 3101 H 302.685 1.29879 -1.68063 0
M  V30 3102 H 304.948 0.627896 -0.710247 0
M  V30 3103 H 304.654 2.73944 -2.20561 0
M  V30 3104 H 304.528 3.6984 -0.741477 0
M  V30 3105 H 306.915 2.94959 -0.0910608 0
M  V30 3106 H 306.996 2.00682 -1.5862 0
M  V30 3107 H 306.64 4.1488 -2.9298 0
M  V30 3108 H 306.57 5.074 -1.40898 0
M  V30 3109 H 309.061 3.51241 -1.3942 0
M  V30 3110 H 309.374 6.92859 -3.42295 0
M  V30 3111 H 307.719 6.23415 -3.07212 0
M  V30 3112 H 310.91 4.31899 -1.80501 0
M  V30 3113 H 311.083 5.87689 -2.72993 0
M  V30 3114 N 304.489 0.459591 1.5075 0
M  V30 3115 C 305.9 0.00171547 1.867 0
M  V30 3116 C 306.251 -1.39934 1.37525 0
M  V30 3117 O 305.376 -2.03523 0.735349 0
M  V30 3118 C 305.971 -0.00366298 3.388 0
M  V30 3119 C 304.53 -0.406026 3.74204 0
M  V30 3120 C 303.677 0.38673 2.7459 0
M  V30 3121 H 306.628 0.674413 1.43657 0
M  V30 3122 H 306.649 -0.808371 3.71814 0
M  V30 3123 H 306.161 1.01617 3.74561 0
M  V30 3124 H 304.262 -1.43063 3.4404 0
M  V30 3125 H 304.375 -0.115362 4.78961 0
M  V30 3126 H 302.739 -0.158019 2.54209 0
M  V30 3127 H 303.522 1.40585 3.13194 0
M  V30 3128 N 305.967 -1.56429 0.191757 0
M  V30 3129 C 307.215 -1.97095 -0.447006 0
M  V30 3130 C 307.536 -1.07967 -1.62383 0
M  V30 3131 O 306.806 -0.150248 -1.95323 0
M  V30 3132 H 305.386 -0.727832 -0.168135 0
M  V30 3133 H 308.048 -1.92911 0.27771 0
M  V30 3134 H 307.144 -3.01848 -0.793371 0
M  V30 3135 N 307.445 0.0818655 -1.57387 0
M  V30 3136 C 308.693 0.781368 -1.86384 0
M  V30 3137 C 309.014 1.78618 -0.782342 0
M  V30 3138 O 308.284 1.94976 0.190061 0
M  V30 3139 H 306.864 0.291562 -0.687751 0
M  V30 3140 H 309.526 0.060348 -1.94807 0
M  V30 3141 H 308.622 1.3038 -2.83562 0
M  V30 3142 N 308.923 1.53595 0.353017 0
M  V30 3143 C 309.873 1.77299 1.43349 0
M  V30 3144 C 310.857 0.627884 1.48143 0
M  V30 3145 O 312.049 0.88697 1.53173 0
M  V30 3146 C 309.178 1.97757 2.80619 0
M  V30 3147 C 308.264 3.18305 2.80254 0
M  V30 3148 N 308.655 4.39967 2.49526 0
M  V30 3149 C 306.953 3.19283 3.11407 0
M  V30 3150 C 307.654 5.21772 2.57156 0
M  V30 3151 N 306.63 4.58269 2.92388 0
M  V30 3152 H 310.432 2.68963 1.18474 0
M  V30 3153 H 307.946 1.52391 0.561306 0
M  V30 3154 H 309.943 2.1287 3.58458 0
M  V30 3155 H 308.603 1.07329 3.06448 0
M  V30 3156 H 309.614 4.67482 2.22893 0
M  V30 3157 H 306.291 2.3879 3.4247 0
M  V30 3158 H 307.681 6.2885 2.36638 0
M  V30 3159 N 310.401 -0.613514 1.45168 0
M  V30 3160 C 311.331 -1.7354 1.56225 0
M  V30 3161 C 312.312 -1.64981 0.41414 0
M  V30 3162 O 313.497 -1.83472 0.636526 0
M  V30 3163 C 310.627 -3.12128 1.52295 0
M  V30 3164 C 309.581 -3.35491 2.65762 0
M  V30 3165 C 308.907 -4.74291 2.46885 0
M  V30 3166 C 310.207 -3.26325 4.0781 0
M  V30 3167 H 311.901 -1.64543 2.50132 0
M  V30 3168 H 309.447 -0.790185 1.20383 0
M  V30 3169 H 311.4 -3.90404 1.58628 0
M  V30 3170 H 310.124 -3.2195 0.549139 0
M  V30 3171 H 308.783 -2.59603 2.58847 0
M  V30 3172 H 308.431 -4.80839 1.47657 0
M  V30 3173 H 308.131 -4.9088 3.22972 0
M  V30 3174 H 309.655 -5.54775 2.55063 0
M  V30 3175 H 311.069 -3.94483 4.16 0
M  V30 3176 H 309.466 -3.54445 4.8424 0
M  V30 3177 H 310.536 -2.23855 4.30136 0
M  V30 3178 N 311.879 -1.3236 -0.855495 0
M  V30 3179 C 312.809 -1.23833 -1.97958 0
M  V30 3180 C 313.79 -0.122361 -1.69659 0
M  V30 3181 O 314.975 -0.30939 -1.9172 0
M  V30 3182 C 312.105 -0.959772 -3.33775 0
M  V30 3183 C 311.059 -2.03689 -3.76424 0
M  V30 3184 C 310.385 -1.61075 -5.09862 0
M  V30 3185 C 311.685 -3.4518 -3.9198 0
M  V30 3186 H 313.379 -2.1788 -2.0535 0
M  V30 3187 H 310.925 -1.04891 -0.986605 0
M  V30 3188 H 312.878 -0.886678 -4.11966 0
M  V30 3189 H 311.602 0.0163404 -3.26596 0
M  V30 3190 H 310.261 -2.10012 -3.00484 0
M  V30 3191 H 309.909 -0.622107 -4.99138 0
M  V30 3192 H 309.609 -2.33143 -5.39368 0
M  V30 3193 H 311.133 -1.55201 -5.90546 0
M  V30 3194 H 312.547 -3.4145 -4.60526 0
M  V30 3195 H 310.944 -4.1559 -4.32903 0
M  V30 3196 H 312.014 -3.84903 -2.94919 0
M  V30 3197 N 313.357 1.07166 -1.15556 0
M  V30 3198 C 314.287 2.16403 -0.877046 0
M  V30 3199 C 315.268 1.69217 0.173111 0
M  V30 3200 O 316.453 1.94181 0.027084 0
M  V30 3201 C 313.583 3.45349 -0.367632 0
M  V30 3202 C 312.537 4.05995 -1.35468 0
M  V30 3203 C 311.863 5.30045 -0.704038 0
M  V30 3204 C 313.163 4.45804 -2.72132 0
M  V30 3205 H 314.857 2.39959 -1.79053 0
M  V30 3206 H 312.403 1.15325 -0.862331 0
M  V30 3207 H 314.356 4.21095 -0.160317 0
M  V30 3208 H 313.08 3.21385 0.581326 0
M  V30 3209 H 311.739 3.32296 -1.54839 0
M  V30 3210 H 311.387 5.02373 0.251128 0
M  V30 3211 H 311.087 5.71579 -1.36277 0
M  V30 3212 H 312.611 6.08495 -0.50654 0
M  V30 3213 H 314.025 5.12671 -2.56595 0
M  V30 3214 H 312.422 4.98296 -3.34397 0
M  V30 3215 H 313.492 3.57083 -3.28054 0
M  V30 3216 N 314.835 0.952656 1.25548 0
M  V30 3217 C 316.084 0.602053 1.92505 0
M  V30 3218 C 316.397 -0.864663 1.75451 0
M  V30 3219 O 317.603 -1.32514 2.36965 0
M  V30 3220 C 316.059 1.02607 3.44963 0
M  V30 3221 C 315.667 2.51519 3.70732 0
M  V30 3222 C 317.411 0.747905 4.1786 0
M  V30 3223 C 315.318 2.87732 5.16686 0
M  V30 3224 H 314.248 0.22146 0.720744 0
M  V30 3225 H 316.899 1.15684 1.42441 0
M  V30 3226 H 315.281 0.399712 3.93978 0
M  V30 3227 H 316.455 3.19157 3.32378 0
M  V30 3228 H 314.77 2.76786 3.11092 0
M  V30 3229 H 317.367 0.994647 5.25367 0
M  V30 3230 H 317.71 -0.315629 4.15102 0
M  V30 3231 H 318.243 1.33452 3.74747 0
M  V30 3232 H 314.982 3.93095 5.24554 0
M  V30 3233 H 314.502 2.24765 5.56094 0
M  V30 3234 H 316.181 2.76817 5.84792 0
M  V30 3235 N 316.313 -1.40141 0.720998 0
M  V30 3236 C 317.561 -2.0039 0.262323 0
M  V30 3237 C 317.882 -1.57469 -1.15015 0
M  V30 3238 O 317.152 -0.816582 -1.78069 0
M  V30 3239 H 315.732 -0.741063 0.093996 0
M  V30 3240 H 318.394 -1.71398 0.927835 0
M  V30 3241 H 317.49 -3.10658 0.299671 0
M  V30 3242 N 317.792 -0.46758 -1.50504 0
M  V30 3243 C 318.755 0.317059 -2.26996 0
M  V30 3244 C 319.755 0.923513 -1.31635 0
M  V30 3245 O 320.945 0.793239 -1.55091 0
M  V30 3246 C 318.077 1.45134 -3.08462 0
M  V30 3247 H 319.27 -0.353723 -2.97807 0
M  V30 3248 H 316.823 -0.221545 -1.54722 0
M  V30 3249 H 317.558 2.15728 -2.4214 0
M  V30 3250 H 317.343 1.02232 -3.78538 0
M  V30 3251 H 318.833 2.00493 -3.66323 0
M  V30 3252 N 319.27 1.56325 -0.20005 0
M  V30 3253 C 320.2 2.22318 0.713916 0
M  V30 3254 C 321.181 1.18788 1.21752 0
M  V30 3255 O 322.366 1.47309 1.26545 0
M  V30 3256 C 319.496 2.88639 1.93144 0
M  V30 3257 C 318.45 3.98457 1.56255 0
M  V30 3258 C 317.776 4.51967 2.85709 0
M  V30 3259 C 319.076 5.16612 0.768747 0
M  V30 3260 H 320.77 2.98952 0.163755 0
M  V30 3261 H 318.316 1.43792 0.0773219 0
M  V30 3262 H 320.269 3.33491 2.57608 0
M  V30 3263 H 318.993 2.09419 2.50621 0
M  V30 3264 H 317.652 3.54305 0.941471 0
M  V30 3265 H 317.3 3.69503 3.41287 0
M  V30 3266 H 317 5.26071 2.6177 0
M  V30 3267 H 318.524 4.99523 3.51154 0
M  V30 3268 H 319.938 5.57977 1.3166 0
M  V30 3269 H 318.335 5.96812 0.627286 0
M  V30 3270 H 319.405 4.84358 -0.229168 0
M  V30 3271 N 320.748 -0.0735177 1.57428 0
M  V30 3272 C 321.658 -1.10547 2.06922 0
M  V30 3273 C 322.674 -1.42506 0.998402 0
M  V30 3274 O 323.85 -1.52717 1.31299 0
M  V30 3275 C 320.915 -2.40019 2.50184 0
M  V30 3276 C 319.976 -2.15046 3.71556 0
M  V30 3277 C 319.209 -3.38345 4.12745 0
M  V30 3278 O 319.432 -4.47399 3.53822 0
M  V30 3279 O 318.366 -3.2666 5.05546 0
M  V30 3280 H 322.192 -0.715013 2.95163 0
M  V30 3281 H 319.777 -0.287531 1.46607 0
M  V30 3282 H 321.659 -3.16218 2.78539 0
M  V30 3283 H 320.334 -2.78447 1.65072 0
M  V30 3284 H 319.241 -1.36558 3.48285 0
M  V30 3285 H 320.574 -1.81499 4.57514 0
M  V30 3286 N 322.226 -1.5378 -0.344866 0
M  V30 3287 C 323.136 -1.84667 -1.4469 0
M  V30 3288 C 324.152 -0.736704 -1.57635 0
M  V30 3289 O 325.328 -1.02888 -1.73136 0
M  V30 3290 C 322.393 -2.04869 -2.79696 0
M  V30 3291 C 321.454 -3.28731 -2.76106 0
M  V30 3292 C 320.687 -3.4796 -4.04673 0
M  V30 3293 O 320.91 -2.71052 -5.01883 0
M  V30 3294 O 319.844 -4.41383 -4.09224 0
M  V30 3295 H 323.67 -2.78334 -1.21506 0
M  V30 3296 H 321.255 -1.39418 -0.536921 0
M  V30 3297 H 323.137 -2.19609 -3.59652 0
M  V30 3298 H 321.812 -1.14391 -3.02814 0
M  V30 3299 H 320.719 -3.19396 -1.94774 0
M  V30 3300 H 322.052 -4.19198 -2.57941 0
M  V30 3301 N 323.704 0.605807 -1.45491 0
M  V30 3302 C 324.929 1.39625 -1.53361 0
M  V30 3303 C 325.354 1.87351 -0.167645 0
M  V30 3304 O 324.712 1.60243 0.848051 0
M  V30 3305 C 324.76 2.57559 -2.5238 0
M  V30 3306 O 323.864 3.58248 -2.04285 0
M  V30 3307 H 323.205 0.416771 -0.516912 0
M  V30 3308 H 325.735 0.737103 -1.90861 0
M  V30 3309 H 325.745 3.0478 -2.71244 0
M  V30 3310 H 324.42 2.22171 -3.51586 0
M  V30 3311 H 322.997 3.17664 -1.95305 0
M  V30 3312 N 325.182 1.32811 0.848464 0
M  V30 3313 C 326.428 1.24917 1.60522 0
M  V30 3314 C 326.783 -0.185761 1.91501 0
M  V30 3315 O 326.076 -1.12524 1.55077 0
M  V30 3316 C 326.27 2.04831 2.92881 0
M  V30 3317 C 326.099 3.55949 2.74828 0
M  V30 3318 C 324.869 4.25277 2.72887 0
M  V30 3319 C 327.067 4.50476 2.48145 0
M  V30 3320 N 325.049 5.62408 2.46111 0
M  V30 3321 C 326.42 5.75427 2.30832 0
M  V30 3322 C 328.475 4.39665 2.33664 0
M  V30 3323 C 327.178 6.90789 2.00508 0
M  V30 3324 C 329.204 5.54833 2.04731 0
M  V30 3325 C 328.566 6.78787 1.88223 0
M  V30 3326 H 324.665 0.512279 0.590842 0
M  V30 3327 H 327.249 1.67246 0.996839 0
M  V30 3328 H 325.42 1.64837 3.51686 0
M  V30 3329 H 327.152 1.88782 3.57971 0
M  V30 3330 H 323.907 3.77456 2.86049 0
M  V30 3331 H 324.331 6.3467 2.35634 0
M  V30 3332 H 328.973 3.44477 2.45144 0
M  V30 3333 H 326.691 7.85984 1.87765 0
M  V30 3334 H 330.277 5.48398 1.94295 0
M  V30 3335 H 329.157 7.66396 1.66155 0
M  V30 3336 N 326.66 -1.06551 1.16123 0
M  V30 3337 C 327.89 -1.8274 0.963838 0
M  V30 3338 C 328.298 -1.82712 -0.491228 0
M  V30 3339 O 327.641 -1.24294 -1.35265 0
M  V30 3340 C 327.703 -3.3065 1.41106 0
M  V30 3341 C 327.367 -3.54384 2.88549 0
M  V30 3342 C 328.364 -3.4765 3.86569 0
M  V30 3343 C 326.049 -3.81789 3.26408 0
M  V30 3344 C 328.043 -3.67982 5.2045 0
M  V30 3345 C 325.73 -4.01772 4.60459 0
M  V30 3346 C 326.728 -3.94866 5.57288 0
M  V30 3347 O 326.416 -4.14306 6.88916 0
M  V30 3348 H 326.148 -0.583136 0.341948 0
M  V30 3349 H 328.702 -1.35351 1.54497 0
M  V30 3350 H 326.932 -3.78887 0.773394 0
M  V30 3351 H 328.621 -3.88324 1.1815 0
M  V30 3352 H 329.387 -3.2647 3.58667 0
M  V30 3353 H 325.266 -3.86276 2.51619 0
M  V30 3354 H 328.81 -3.62507 5.96015 0
M  V30 3355 H 324.707 -4.2244 4.88072 0
M  V30 3356 H 325.475 -4.31609 6.95454 0
M  V30 3357 N 328.138 -0.959301 -1.25041 0
M  V30 3358 C 329.068 -0.501388 -2.28053 0
M  V30 3359 C 330.049 0.454673 -1.63911 0
M  V30 3360 O 331.234 0.352618 -1.90972 0
M  V30 3361 C 328.364 0.217224 -3.4662 0
M  V30 3362 C 327.318 -0.654034 -4.22973 0
M  V30 3363 C 326.644 0.195589 -5.34342 0
M  V30 3364 C 327.944 -1.93447 -4.85155 0
M  V30 3365 H 329.638 -1.36238 -2.66608 0
M  V30 3366 H 327.184 -0.656534 -1.28163 0
M  V30 3367 H 329.137 0.548732 -4.17812 0
M  V30 3368 H 327.861 1.1125 -3.07068 0
M  V30 3369 H 326.52 -0.968693 -3.5357 0
M  V30 3370 H 326.168 1.09076 -4.91031 0
M  V30 3371 H 325.868 -0.384091 -5.86343 0
M  V30 3372 H 327.392 0.521958 -6.08365 0
M  V30 3373 H 328.806 -1.66908 -5.48466 0
M  V30 3374 H 327.203 -2.46018 -5.47353 0
M  V30 3375 H 328.273 -2.63466 -4.07079 0
M  V30 3376 N 329.616 1.39756 -0.72842 0
M  V30 3377 C 330.579 2.29012 -0.0927297 0
M  V30 3378 C 331.579 1.45992 0.674025 0
M  V30 3379 O 332.769 1.66749 0.50402 0
M  V30 3380 C 329.901 3.29396 0.878137 0
M  V30 3381 H 331.094 2.86729 -0.879011 0
M  V30 3382 H 328.647 1.48293 -0.493847 0
M  V30 3383 H 329.382 2.76722 1.69101 0
M  V30 3384 H 329.167 3.907 0.331051 0
M  V30 3385 H 330.657 3.96199 1.3197 0
M  V30 3386 N 331.094 0.475555 1.50254 0
M  V30 3387 C 332.342 -0.077738 2.0195 0
M  V30 3388 C 332.663 -1.39813 1.35931 0
M  V30 3389 O 331.933 -1.89249 0.506123 0
M  V30 3390 H 330.513 -0.031719 0.746326 0
M  V30 3391 H 333.175 0.626995 1.84539 0
M  V30 3392 H 332.271 -0.225995 3.11281 0
M  V30 3393 N 332.573 -1.56217 0.208337 0
M  V30 3394 C 333.483 -2.23316 -0.718836 0
M  V30 3395 C 334.499 -1.23648 -1.22422 0
M  V30 3396 O 335.675 -1.56423 -1.26861 0
M  V30 3397 C 332.74 -2.88968 -1.91568 0
M  V30 3398 C 331.801 -4.03943 -1.45357 0
M  V30 3399 C 331.034 -4.66455 -2.59337 0
M  V30 3400 O 331.257 -4.27919 -3.77149 0
M  V30 3401 O 330.191 -5.55686 -2.31293 0
M  V30 3402 H 334.017 -3.03182 -0.177315 0
M  V30 3403 H 331.602 -1.49384 -0.0215402 0
M  V30 3404 H 333.484 -3.30455 -2.61491 0
M  V30 3405 H 332.159 -2.12071 -2.44556 0
M  V30 3406 H 331.066 -3.67052 -0.722746 0
M  V30 3407 H 332.399 -4.82543 -0.970219 0
M  V30 3408 N 334.051 0.0651679 -1.57465 0
M  V30 3409 C 335.014 1.06117 -2.03155 0
M  V30 3410 C 336.014 1.31204 -0.929632 0
M  V30 3411 O 337.204 1.26813 -1.19432 0
M  V30 3412 C 334.336 2.4032 -2.41783 0
M  V30 3413 H 335.529 0.667231 -2.92383 0
M  V30 3414 H 333.082 0.311075 -1.53173 0
M  V30 3415 H 333.817 2.84532 -1.55601 0
M  V30 3416 H 333.602 2.23451 -3.22199 0
M  V30 3417 H 335.092 3.11898 -2.77685 0
M  V30 3418 N 335.529 1.53961 0.336706 0
M  V30 3419 C 336.945 1.44378 0.680241 0
M  V30 3420 C 337.145 0.606034 1.9217 0
M  V30 3421 O 336.201 0.099688 2.52303 0
M  V30 3422 C 337.514 2.87945 0.8665 0
M  V30 3423 C 339.062 2.97763 0.964682 0
M  V30 3424 C 339.537 4.42453 1.18321 0
M  V30 3425 N 341.028 4.46008 1.25025 0
M  V30 3426 C 341.763 5.55102 1.43697 0
M  V30 3427 N 341.259 6.7419 1.59498 0
M  V30 3428 N 343.052 5.42727 1.463 0
M  V30 3429 H 335.203 2.06918 -0.479455 0
M  V30 3430 H 337.466 0.935634 -0.152619 0
M  V30 3431 H 337.172 3.51691 0.0256937 0
M  V30 3432 H 337.046 3.33293 1.76623 0
M  V30 3433 H 339.433 2.34153 1.796 0
M  V30 3434 H 339.514 2.55766 0.041708 0
M  V30 3435 H 339.158 5.06645 0.356788 0
M  V30 3436 H 339.088 4.82048 2.11985 0
M  V30 3437 H 341.579 3.60196 1.14312 0
M  V30 3438 H 341.892 7.53095 1.734 0
M  V30 3439 H 340.237 6.77123 1.56621 0
M  V30 3440 H 343.428 4.48647 1.33543 0
M  V30 3441 H 343.601 6.27806 1.6051 0
M  V30 3442 N 337.007 -0.598083 1.45811 0
M  V30 3443 C 337.937 -1.71873 1.58057 0
M  V30 3444 C 338.918 -1.64533 0.431615 0
M  V30 3445 O 340.103 -1.82787 0.65595 0
M  V30 3446 C 337.233 -3.10495 1.55597 0
M  V30 3447 C 336.187 -3.32654 2.69305 0
M  V30 3448 C 335.513 -4.71646 2.51902 0
M  V30 3449 C 336.813 -3.21981 4.11248 0
M  V30 3450 H 338.507 -1.61881 2.51863 0
M  V30 3451 H 336.053 -0.777372 1.21214 0
M  V30 3452 H 338.006 -3.88699 1.6276 0
M  V30 3453 H 336.73 -3.2135 0.583255 0
M  V30 3454 H 335.389 -2.56843 2.61586 0
M  V30 3455 H 335.037 -4.79246 1.52748 0
M  V30 3456 H 334.737 -4.87426 3.2816 0
M  V30 3457 H 336.261 -5.52038 2.60933 0
M  V30 3458 H 337.675 -3.90049 4.20161 0
M  V30 3459 H 336.072 -3.49289 4.87972 0
M  V30 3460 H 337.142 -2.1928 4.32486 0
M  V30 3461 N 338.485 -1.33259 -0.841409 0
M  V30 3462 C 339.713 -1.27605 -1.62864 0
M  V30 3463 C 340.128 0.153507 -1.88175 0
M  V30 3464 O 339.485 1.09485 -1.46011 0
M  V30 3465 C 339.536 -2.04596 -2.98031 0
M  V30 3466 O 339.257 -3.41975 -2.73834 0
M  V30 3467 C 340.758 -2.06122 -3.92465 0
M  V30 3468 H 337.978 -0.439718 -0.506842 0
M  V30 3469 H 340.522 -1.75591 -1.04824 0
M  V30 3470 H 338.677 -1.60299 -3.5268 0
M  V30 3471 H 339.091 -3.81549 -3.59889 0
M  V30 3472 H 340.565 -2.64451 -4.84531 0
M  V30 3473 H 341.042 -1.05083 -4.26444 0
M  V30 3474 H 341.648 -2.50427 -3.43753 0
M  V30 3475 N 339.963 1.05934 -1.16686 0
M  V30 3476 C 341.209 1.79065 -0.95203 0
M  V30 3477 C 341.542 1.87147 0.518629 0
M  V30 3478 O 340.817 1.36574 1.38484 0
M  V30 3479 C 341.1 3.23359 -1.58464 0
M  V30 3480 C 340.953 3.23336 -3.12689 0
M  V30 3481 C 342.272 4.21004 -1.28232 0
M  V30 3482 H 339.391 0.65005 -0.34728 0
M  V30 3483 H 342.033 1.23868 -1.44072 0
M  V30 3484 H 340.183 3.70493 -1.16908 0
M  V30 3485 H 341.855 2.84336 -3.6325 0
M  V30 3486 H 340.098 2.61886 -3.4583 0
M  V30 3487 H 340.769 4.25144 -3.52075 0
M  V30 3488 H 343.245 3.8233 -1.64203 0
M  V30 3489 H 342.121 5.20225 -1.75092 0
M  V30 3490 H 342.382 4.41639 -0.201791 0
M  V30 3491 N 341.441 0.965919 1.2453 0
M  V30 3492 C 342.687 0.62776 1.92839 0
M  V30 3493 C 343.02 -0.834694 1.75347 0
M  V30 3494 O 342.295 -1.60031 1.10546 0
M  V30 3495 C 342.578 1.00109 3.45905 0
M  V30 3496 C 342.431 2.52011 3.72573 0
M  V30 3497 C 343.75 0.53435 4.36844 0
M  V30 3498 H 340.869 0.229537 0.700344 0
M  V30 3499 H 343.511 1.2046 1.46933 0
M  V30 3500 H 341.661 0.510238 3.85135 0
M  V30 3501 H 343.333 3.08559 3.42912 0
M  V30 3502 H 341.576 2.95287 3.17786 0
M  V30 3503 H 342.247 2.73183 4.79661 0
M  V30 3504 H 344.723 0.955565 4.04979 0
M  V30 3505 H 343.599 0.824152 5.42678 0
M  V30 3506 H 343.86 -0.565589 4.38467 0
M  V30 3507 N 342.919 -1.39368 0.735821 0
M  V30 3508 C 344.33 -1.83313 0.354015 0
M  V30 3509 C 344.681 -1.61461 -1.11466 0
M  V30 3510 O 343.806 -1.10621 -1.85989 0
M  V30 3511 C 344.401 -3.32781 0.635769 0
M  V30 3512 C 342.96 -3.75142 0.307448 0
M  V30 3513 C 342.107 -2.62358 0.897974 0
M  V30 3514 H 345.058 -1.28349 0.933398 0
M  V30 3515 H 345.079 -3.80388 -0.0921773 0
M  V30 3516 H 344.591 -3.48654 1.70476 0
M  V30 3517 H 342.692 -3.64857 -0.755674 0
M  V30 3518 H 342.805 -4.72532 0.790583 0
M  V30 3519 H 341.169 -2.52624 0.324551 0
M  V30 3520 H 341.952 -2.81036 1.97164 0
M  V30 3521 N 344.397 -0.483516 -1.5 0
M  V30 3522 C 345.643 0.0672592 -2.02688 0
M  V30 3523 C 345.976 1.38247 -1.36387 0
M  V30 3524 O 345.251 1.88131 -0.493675 0
M  V30 3525 C 345.534 0.238109 -3.59312 0
M  V30 3526 C 345.387 -1.099 -4.36168 0
M  V30 3527 C 346.706 0.986916 -4.28892 0
M  V30 3528 H 343.825 0.0229696 -0.736642 0
M  V30 3529 H 346.467 -0.631527 -1.79197 0
M  V30 3530 H 344.617 0.8333 -3.79458 0
M  V30 3531 H 346.289 -1.73172 -4.27562 0
M  V30 3532 H 344.532 -1.69261 -3.99416 0
M  V30 3533 H 345.203 -0.932954 -5.44059 0
M  V30 3534 H 347.679 0.482302 -4.13295 0
M  V30 3535 H 346.555 1.07527 -5.38265 0
M  V30 3536 H 346.816 2.0265 -3.92919 0
M  V30 3537 N 345.875 1.56104 -0.216619 0
M  V30 3538 C 347.1 2.0301 0.424462 0
M  V30 3539 C 347.525 1.0955 1.52907 0
M  V30 3540 O 346.883 0.0827914 1.81111 0
M  V30 3541 C 346.931 3.4819 0.937883 0
M  V30 3542 O 346.035 3.57865 2.04955 0
M  V30 3543 H 345.376 0.656925 0.0966755 0
M  V30 3544 H 347.906 2.01859 -0.33381 0
M  V30 3545 H 347.916 3.88413 1.24897 0
M  V30 3546 H 346.591 4.15699 0.129387 0
M  V30 3547 H 345.168 3.29527 1.74546 0
M  V30 3548 N 347.353 -0.0568162 1.57498 0
M  V30 3549 C 348.263 -1.08346 2.08083 0
M  V30 3550 C 349.279 -1.41439 1.01346 0
M  V30 3551 O 350.455 -1.51316 1.32912 0
M  V30 3552 C 347.52 -2.37352 2.52715 0
M  V30 3553 C 346.581 -2.11093 3.73816 0
M  V30 3554 C 345.814 -3.33949 4.1631 0
M  V30 3555 O 346.037 -4.43622 3.58547 0
M  V30 3556 O 344.971 -3.21279 5.08983 0
M  V30 3557 H 348.797 -0.683667 2.95905 0
M  V30 3558 H 346.382 -0.271965 1.46904 0
M  V30 3559 H 348.264 -3.13246 2.81877 0
M  V30 3560 H 346.939 -2.76681 1.68016 0
M  V30 3561 H 345.846 -1.32856 3.49714 0
M  V30 3562 H 347.179 -1.76637 4.59413 0
M  V30 3563 N 348.832 -1.54138 -0.328536 0
M  V30 3564 C 349.742 -1.86192 -1.42723 0
M  V30 3565 C 350.758 -0.753382 -1.56844 0
M  V30 3566 O 351.934 -1.04718 -1.72035 0
M  V30 3567 C 348.999 -2.07824 -2.77507 0
M  V30 3568 C 348.06 -3.31641 -2.72603 0
M  V30 3569 C 347.293 -3.52232 -4.00959 0
M  V30 3570 O 347.516 -2.7636 -4.9898 0
M  V30 3571 O 346.45 -4.45699 -4.0452 0
M  V30 3572 H 350.276 -2.79608 -1.18547 0
M  V30 3573 H 347.861 -1.3998 -0.522104 0
M  V30 3574 H 349.743 -2.23411 -3.57303 0
M  V30 3575 H 348.418 -1.17596 -3.01584 0
M  V30 3576 H 347.325 -3.21444 -1.91376 0
M  V30 3577 H 348.658 -4.2191 -2.53481 0
M  V30 3578 N 350.31 0.590341 -1.46126 0
M  V30 3579 C 351.22 1.72793 -1.58681 0
M  V30 3580 C 352.236 1.67516 -0.470566 0
M  V30 3581 O 353.412 1.87562 -0.733642 0
M  V30 3582 C 350.477 3.09287 -1.5666 0
M  V30 3583 C 349.538 3.25886 -2.79458 0
M  V30 3584 C 348.771 4.55869 -2.77524 0
M  V30 3585 O 348.994 5.3928 -1.85832 0
M  V30 3586 O 347.928 4.75552 -3.68964 0
M  V30 3587 H 351.754 1.65149 -2.54872 0
M  V30 3588 H 349.339 0.756486 -1.28832 0
M  V30 3589 H 351.221 3.90577 -1.58202 0
M  V30 3590 H 349.896 3.17385 -0.636271 0
M  V30 3591 H 348.803 2.44119 -2.83472 0
M  V30 3592 H 350.136 3.22675 -3.71674 0
M  V30 3593 N 351.788 1.33704 0.83433 0
M  V30 3594 C 353.034 1.25603 1.59222 0
M  V30 3595 C 353.367 -0.176659 1.93395 0
M  V30 3596 O 352.642 -1.11915 1.59076 0
M  V30 3597 C 352.925 2.13576 2.89926 0
M  V30 3598 C 352.778 3.65326 2.62406 0
M  V30 3599 C 354.097 2.01238 3.91397 0
M  V30 3600 H 351.216 0.457613 0.577719 0
M  V30 3601 H 353.858 1.63848 0.961972 0
M  V30 3602 H 352.008 1.8109 3.43713 0
M  V30 3603 H 353.68 4.08124 2.15017 0
M  V30 3604 H 351.923 3.8698 1.96033 0
M  V30 3605 H 352.594 4.22232 3.55562 0
M  V30 3606 H 355.07 2.29738 3.46929 0
M  V30 3607 H 353.946 2.65036 4.80673 0
M  V30 3608 H 354.207 0.985951 4.30966 0
M  V30 3609 N 353.266 -1.05314 1.17247 0
M  V30 3610 C 354.682 -1.30452 0.919473 0
M  V30 3611 C 354.882 -1.9703 -0.42209 0
M  V30 3612 O 353.938 -2.24311 -1.15935 0
M  V30 3613 C 355.251 -2.17551 2.07586 0
M  V30 3614 C 356.799 -2.30937 2.11275 0
M  V30 3615 C 357.274 -3.21396 3.26296 0
M  V30 3616 N 358.765 -3.28981 3.26076 0
M  V30 3617 C 359.5 -3.99095 4.11716 0
M  V30 3618 N 358.996 -4.71648 5.07465 0
M  V30 3619 N 360.789 -3.95247 3.9967 0
M  V30 3620 H 352.94 -0.604988 2.03602 0
M  V30 3621 H 355.203 -0.329368 0.888944 0
M  V30 3622 H 354.909 -1.75921 3.0454 0
M  V30 3623 H 354.783 -3.18182 2.02584 0
M  V30 3624 H 357.17 -2.71809 1.14907 0
M  V30 3625 H 357.251 -1.2994 2.20339 0
M  V30 3626 H 356.895 -2.81238 4.22927 0
M  V30 3627 H 356.825 -4.22395 3.14467 0
M  V30 3628 H 359.316 -2.77286 2.5675 0
M  V30 3629 H 359.629 -5.22705 5.6921 0
M  V30 3630 H 357.974 -4.70594 5.11435 0
M  V30 3631 H 361.165 -3.37691 3.24164 0
M  V30 3632 H 361.338 -4.4962 4.66632 0
M  V30 3633 N 354.744 -0.972509 -1.24016 0
M  V30 3634 C 355.654 -0.5143 -2.28893 0
M  V30 3635 C 356.67 0.427078 -1.68677 0
M  V30 3636 O 357.846 0.298939 -1.99169 0
M  V30 3637 C 354.911 0.183598 -3.46214 0
M  V30 3638 C 353.972 -0.798202 -4.21814 0
M  V30 3639 C 353.205 -0.133514 -5.33533 0
M  V30 3640 O 353.428 1.07714 -5.60137 0
M  V30 3641 O 352.362 -0.828103 -5.96176 0
M  V30 3642 H 356.188 -1.38629 -2.70214 0
M  V30 3643 H 353.773 -0.739769 -1.29799 0
M  V30 3644 H 355.655 0.575433 -4.17453 0
M  V30 3645 H 354.33 1.03048 -3.0686 0
M  V30 3646 H 353.237 -1.24059 -3.52931 0
M  V30 3647 H 354.57 -1.61364 -4.64997 0
M  V30 3648 N 356.222 1.38976 -0.743202 0
M  V30 3649 C 357.185 2.28901 -0.117014 0
M  V30 3650 C 358.185 1.46698 0.658503 0
M  V30 3651 O 359.375 1.67274 0.486305 0
M  V30 3652 C 356.507 3.30309 0.84315 0
M  V30 3653 H 357.7 2.8578 -0.909373 0
M  V30 3654 H 355.253 1.47761 -0.509547 0
M  V30 3655 H 355.988 2.785 1.66157 0
M  V30 3656 H 355.773 3.91029 0.289594 0
M  V30 3657 H 357.263 3.97577 1.2776 0
M  V30 3658 N 357.7 0.491464 1.49741 0
M  V30 3659 C 358.63 -0.28154 2.31796 0
M  V30 3660 C 359.611 -0.971473 1.3963 0
M  V30 3661 O 360.796 -0.964719 1.68543 0
M  V30 3662 C 357.926 -1.35203 3.19902 0
M  V30 3663 C 356.88 -0.782529 4.20786 0
M  V30 3664 C 356.206 -1.95283 4.97764 0
M  V30 3665 C 357.506 0.21999 5.21837 0
M  V30 3666 H 359.2 0.403355 2.96671 0
M  V30 3667 H 356.746 0.195425 1.42668 0
M  V30 3668 H 358.699 -1.90045 3.76113 0
M  V30 3669 H 357.423 -2.06598 2.52953 0
M  V30 3670 H 356.082 -0.255928 3.65706 0
M  V30 3671 H 355.73 -2.65423 4.2727 0
M  V30 3672 H 355.43 -1.57789 5.66018 0
M  V30 3673 H 356.954 -2.50577 5.56816 0
M  V30 3674 H 358.368 -0.23996 5.72798 0
M  V30 3675 H 356.765 0.51026 5.97927 0
M  V30 3676 H 357.835 1.13911 4.7133 0
M  V30 3677 N 359.178 -1.55987 0.224894 0
M  V30 3678 C 360.424 -1.98684 -0.406502 0
M  V30 3679 C 360.757 -1.11248 -1.59177 0
M  V30 3680 O 360.032 -0.170909 -1.93748 0
M  V30 3681 C 360.315 -3.50218 -0.837808 0
M  V30 3682 C 360.168 -4.48426 0.351332 0
M  V30 3683 C 361.487 -4.06243 -1.69278 0
M  V30 3684 H 358.606 -0.722337 -0.146283 0
M  V30 3685 H 361.248 -1.87255 0.321799 0
M  V30 3686 H 359.398 -3.60089 -1.45837 0
M  V30 3687 H 361.07 -4.50562 0.989526 0
M  V30 3688 H 359.313 -4.22159 0.998207 0
M  V30 3689 H 359.984 -5.52 0.00655905 0
M  V30 3690 H 362.46 -3.99337 -1.16914 0
M  V30 3691 H 361.336 -5.12581 -1.96346 0
M  V30 3692 H 361.597 -3.53332 -2.65723 0
M  V30 3693 N 360.656 0.0484629 -1.57525 0
M  V30 3694 C 362.072 0.40375 -1.54409 0
M  V30 3695 C 362.272 1.77786 -0.948384 0
M  V30 3696 O 361.328 2.46189 -0.560983 0
M  V30 3697 C 362.641 0.323394 -2.98956 0
M  V30 3698 C 364.189 0.401892 -3.10409 0
M  V30 3699 C 364.664 0.351195 -4.56652 0
M  V30 3700 N 366.155 0.410576 -4.61377 0
M  V30 3701 C 366.89 0.393933 -5.72045 0
M  V30 3702 N 366.386 0.330724 -6.9201 0
M  V30 3703 N 368.179 0.442227 -5.60358 0
M  V30 3704 H 360.33 -0.851016 -1.94606 0
M  V30 3705 H 362.593 -0.321721 -0.89174 0
M  V30 3706 H 362.299 -0.62011 -3.4619 0
M  V30 3707 H 362.173 1.12463 -3.60044 0
M  V30 3708 H 364.56 1.33582 -2.63134 0
M  V30 3709 H 364.641 -0.428342 -2.52188 0
M  V30 3710 H 364.285 -0.578987 -5.04589 0
M  V30 3711 H 364.215 1.19928 -5.12762 0
M  V30 3712 H 366.706 0.462729 -3.75056 0
M  V30 3713 H 367.019 0.322592 -7.72126 0
M  V30 3714 H 365.364 0.29706 -6.94365 0
M  V30 3715 H 368.555 0.489464 -4.65534 0
M  V30 3716 H 368.728 0.425788 -6.466 0
M  V30 3717 N 362.134 1.5431 0.320358 0
M  V30 3718 C 363.359 1.76954 1.08175 0
M  V30 3719 C 363.784 0.518193 1.80821 0
M  V30 3720 O 363.142 -0.530411 1.73368 0
M  V30 3721 C 363.19 2.96451 2.05303 0
M  V30 3722 O 362.294 2.68221 3.13259 0
M  V30 3723 H 361.635 0.586275 0.311733 0
M  V30 3724 H 364.165 2.01342 0.363676 0
M  V30 3725 H 364.175 3.23887 2.48116 0
M  V30 3726 H 362.85 3.87196 1.51829 0
M  V30 3727 H 361.427 2.51744 2.75099 0
M  V30 3728 N 363.613 -0.582584 1.46437 0
M  V30 3729 C 364.861 -1.33814 1.51453 0
M  V30 3730 C 365.182 -1.94277 0.167792 0
M  V30 3731 O 364.452 -1.78566 -0.805677 0
M  V30 3732 H 363.032 -0.496838 0.557818 0
M  V30 3733 H 365.694 -0.682281 1.82568 0
M  V30 3734 H 364.79 -2.14479 2.26728 0
M  V30 3735 N 365.091 -1.34144 -0.827227 0
M  V30 3736 C 366.321 -1.29138 -1.61267 0
M  V30 3737 C 366.729 0.137597 -1.88699 0
M  V30 3738 O 366.072 1.09379 -1.47587 0
M  V30 3739 C 366.134 -2.0097 -2.9808 0
M  V30 3740 C 365.798 -3.50242 -2.93563 0
M  V30 3741 C 366.795 -4.4523 -2.68452 0
M  V30 3742 C 364.48 -3.92592 -3.13331 0
M  V30 3743 C 366.474 -5.80542 -2.63154 0
M  V30 3744 C 364.161 -5.28005 -3.07658 0
M  V30 3745 C 365.159 -6.21792 -2.82602 0
M  V30 3746 O 364.847 -7.54723 -2.76853 0
M  V30 3747 H 364.579 -0.445851 -0.508127 0
M  V30 3748 H 367.133 -1.77263 -1.03763 0
M  V30 3749 H 365.363 -1.47451 -3.57484 0
M  V30 3750 H 367.052 -1.89309 -3.5905 0
M  V30 3751 H 367.818 -4.13832 -2.52919 0
M  V30 3752 H 363.697 -3.19994 -3.31851 0
M  V30 3753 H 367.241 -6.53717 -2.43516 0
M  V30 3754 H 363.138 -5.59023 -3.22743 0
M  V30 3755 H 363.906 -7.64409 -2.92611 0
M  V30 3756 N 366.569 1.04691 -1.17803 0
M  V30 3757 C 367.516 2.12557 -0.899343 0
M  V30 3758 C 368.486 1.65339 0.158771 0
M  V30 3759 O 369.671 1.90789 0.0204797 0
M  V30 3760 C 366.811 3.42481 -0.424315 0
M  V30 3761 C 365.924 4.03346 -1.54713 0
M  V30 3762 C 365.059 5.21208 -1.02546 0
M  V30 3763 C 364.098 5.74089 -2.12339 0
M  V30 3764 N 363.235 6.83247 -1.61612 0
M  V30 3765 H 368.075 2.35734 -1.823 0
M  V30 3766 H 365.612 1.1564 -0.909159 0
M  V30 3767 H 367.57 4.16996 -0.130421 0
M  V30 3768 H 366.2 3.19471 0.462377 0
M  V30 3769 H 365.252 3.2622 -1.95664 0
M  V30 3770 H 366.564 4.38628 -2.37501 0
M  V30 3771 H 365.718 6.02812 -0.685718 0
M  V30 3772 H 364.457 4.87414 -0.167084 0
M  V30 3773 H 363.462 4.91111 -2.47165 0
M  V30 3774 H 364.687 6.0993 -2.98601 0
M  V30 3775 H 362.633 6.5134 -0.780533 0
M  V30 3776 H 362.55 7.17559 -2.38003 0
M  V30 3777 H 363.818 7.68491 -1.30545 0
M  V30 3778 N 368.047 0.979072 1.23499 0
M  V30 3779 C 369.293 0.648178 1.92163 0
M  V30 3780 C 369.626 -0.816049 1.76222 0
M  V30 3781 O 368.901 -1.58849 1.12237 0
M  V30 3782 C 369.184 1.03773 3.44824 0
M  V30 3783 C 369.037 2.55948 3.69879 0
M  V30 3784 C 370.356 0.580653 4.36253 0
M  V30 3785 H 367.475 0.236952 0.69787 0
M  V30 3786 H 370.117 1.22012 1.45647 0
M  V30 3787 H 368.267 0.551058 3.84572 0
M  V30 3788 H 369.939 3.12179 3.3962 0
M  V30 3789 H 368.182 2.98641 3.14636 0
M  V30 3790 H 368.853 2.78255 4.76737 0
M  V30 3791 H 371.329 0.998465 4.03943 0
M  V30 3792 H 370.205 0.881663 5.41773 0
M  V30 3793 H 370.466 -0.519052 4.39042 0
M  V30 3794 N 369.525 -1.3858 0.750561 0
M  V30 3795 C 370.941 -1.53759 0.427824 0
M  V30 3796 C 371.141 -1.71401 -1.05943 0
M  V30 3797 O 370.197 -1.72331 -1.84549 0
M  V30 3798 C 371.51 -2.74642 1.22443 0
M  V30 3799 C 373.058 -2.88489 1.2142 0
M  V30 3800 C 373.533 -4.12329 1.9937 0
M  V30 3801 N 375.024 -4.194 1.96616 0
M  V30 3802 C 375.759 -5.14209 2.53727 0
M  V30 3803 N 375.255 -6.14709 3.19539 0
M  V30 3804 N 377.048 -5.06537 2.43673 0
M  V30 3805 H 369.199 -1.25377 1.71447 0
M  V30 3806 H 371.462 -0.608844 0.726645 0
M  V30 3807 H 371.168 -2.68 2.27747 0
M  V30 3808 H 371.042 -3.67745 0.839273 0
M  V30 3809 H 373.429 -2.94614 0.169232 0
M  V30 3810 H 373.51 -1.96406 1.63885 0
M  V30 3811 H 373.154 -4.06966 3.03877 0
M  V30 3812 H 373.084 -5.03486 1.54302 0
M  V30 3813 H 375.575 -3.47421 1.48684 0
M  V30 3814 H 375.888 -6.8354 3.60545 0
M  V30 3815 H 374.233 -6.1505 3.23633 0
M  V30 3816 H 377.424 -4.26962 1.91889 0
M  V30 3817 H 377.597 -5.80245 2.88479 0
M  V30 3818 N 371.003 -0.499398 -1.49478 0
M  V30 3819 C 372.28 0.108629 -1.95298 0
M  V30 3820 C 372.66 1.54282 -1.44084 0
M  V30 3821 O 372.008 2.18944 -0.653908 0
M  V30 3822 C 372.218 0.0229111 -3.48992 0
M  V30 3823 C 373.566 0.197643 -4.2414 0
M  V30 3824 O 374.59 0.0981735 -3.56065 0
M  V30 3825 O 373.449 0.401669 -5.45022 0
M  V30 3826 H 370.543 0.096181 -0.821388 0
M  V30 3827 H 373.089 -0.561822 -1.6013 0
M  V30 3828 H 371.861 -0.977321 -3.78899 0
M  V30 3829 H 371.484 0.733579 -3.90774 0
M  V30 3830 N 372.481 1.55866 -0.233164 0
M  V30 3831 C 373.411 2.23783 0.666599 0
M  V30 3832 C 374.392 1.21343 1.19205 0
M  V30 3833 O 375.577 1.4996 1.23392 0
M  V30 3834 C 372.707 2.92671 1.86978 0
M  V30 3835 C 371.661 4.01682 1.47768 0
M  V30 3836 C 370.987 4.57926 2.76058 0
M  V30 3837 C 372.287 5.18126 0.658993 0
M  V30 3838 H 373.981 2.99232 0.100306 0
M  V30 3839 H 371.527 1.43924 0.046804 0
M  V30 3840 H 373.48 3.3888 2.50476 0
M  V30 3841 H 372.204 2.14688 2.46123 0
M  V30 3842 H 370.863 3.56222 0.866106 0
M  V30 3843 H 370.511 3.76659 3.33372 0
M  V30 3844 H 370.211 5.31505 2.50552 0
M  V30 3845 H 371.735 5.06859 3.40479 0
M  V30 3846 H 373.149 5.60644 1.19795 0
M  V30 3847 H 371.546 5.98009 0.500552 0
M  V30 3848 H 372.616 4.83763 -0.331856 0
M  V30 3849 N 373.959 -0.0401083 1.57549 0
M  V30 3850 C 375.375 -0.395556 1.54621 0
M  V30 3851 C 375.575 -1.77281 0.957799 0
M  V30 3852 O 374.631 -2.45888 0.574031 0
M  V30 3853 C 375.944 -0.307535 2.99123 0
M  V30 3854 C 377.492 -0.385425 3.10618 0
M  V30 3855 C 377.967 -0.326973 4.56831 0
M  V30 3856 N 379.458 -0.386102 4.61588 0
M  V30 3857 C 380.193 -0.363591 5.72246 0
M  V30 3858 N 379.689 -0.29402 6.92176 0
M  V30 3859 N 381.482 -0.412503 5.60584 0
M  V30 3860 H 373.633 0.861325 1.94152 0
M  V30 3861 H 375.896 0.326445 0.890021 0
M  V30 3862 H 375.602 0.638461 3.45856 0
M  V30 3863 H 375.476 -1.10552 3.60636 0
M  V30 3864 H 377.863 -1.32185 2.63839 0
M  V30 3865 H 377.944 0.44171 2.51957 0
M  V30 3866 H 377.588 0.605738 5.04275 0
M  V30 3867 H 377.518 -1.17207 5.13391 0
M  V30 3868 H 380.009 -0.442832 3.75296 0
M  V30 3869 H 380.322 -0.28164 7.72287 0
M  V30 3870 H 378.667 -0.260232 6.94513 0
M  V30 3871 H 381.858 -0.464769 4.65787 0
M  V30 3872 H 382.031 -0.391492 6.46816 0
M  V30 3873 N 375.437 -1.54477 -0.31217 0
M  V30 3874 C 376.665 -1.77205 -1.068 0
M  V30 3875 C 377.08 -0.526114 -1.81321 0
M  V30 3876 O 376.437 0.503647 -1.75413 0
M  V30 3877 C 376.488 -2.97253 -2.05725 0
M  V30 3878 O 376.209 -4.1703 -1.34228 0
M  V30 3879 C 377.71 -3.32281 -2.93435 0
M  V30 3880 H 374.93 -0.591287 -0.317208 0
M  V30 3881 H 377.474 -2.01398 -0.354834 0
M  V30 3882 H 375.629 -2.753 -2.72559 0
M  V30 3883 H 376.043 -4.84636 -2.00571 0
M  V30 3884 H 377.517 -4.19551 -3.58721 0
M  V30 3885 H 377.994 -2.49945 -3.61143 0
M  V30 3886 H 378.6 -3.56353 -2.32147 0
M  V30 3887 N 376.915 0.57481 -1.46744 0
M  V30 3888 C 378.145 1.35659 -1.55821 0
M  V30 3889 C 378.553 1.88129 -0.201036 0
M  V30 3890 O 377.896 1.64723 0.813134 0
M  V30 3891 C 377.958 2.57473 -2.50894 0
M  V30 3892 C 377.622 2.26415 -3.9697 0
M  V30 3893 C 378.619 1.84771 -4.85958 0
M  V30 3894 C 376.304 2.38316 -4.42166 0
M  V30 3895 C 378.298 1.55434 -6.18158 0
M  V30 3896 C 375.985 2.08591 -5.74398 0
M  V30 3897 C 376.983 1.67216 -6.62214 0
M  V30 3898 O 376.671 1.37859 -7.91991 0
M  V30 3899 H 376.403 0.420496 -0.529301 0
M  V30 3900 H 378.957 0.704967 -1.92923 0
M  V30 3901 H 377.187 3.25468 -2.08824 0
M  V30 3902 H 378.876 3.19546 -2.50291 0
M  V30 3903 H 379.642 1.75085 -4.52295 0
M  V30 3904 H 375.521 2.69483 -3.74032 0
M  V30 3905 H 379.065 1.23065 -6.86659 0
M  V30 3906 H 374.962 2.17905 -6.07608 0
M  V30 3907 H 375.73 1.51638 -8.04331 0
M  V30 3908 N 378.394 1.34581 0.820102 0
M  V30 3909 C 379.643 1.26437 1.57151 0
M  V30 3910 C 379.956 -0.163111 1.94919 0
M  V30 3911 O 381.162 -0.366722 2.69012 0
M  V30 3912 C 379.618 2.21658 2.83541 0
M  V30 3913 C 379.226 3.69679 2.53065 0
M  V30 3914 C 380.97 2.22428 3.61561 0
M  V30 3915 C 378.877 4.56761 3.75664 0
M  V30 3916 H 377.807 0.469707 0.589823 0
M  V30 3917 H 380.458 1.59763 0.902656 0
M  V30 3918 H 378.84 1.81287 3.52067 0
M  V30 3919 H 380.014 4.18605 1.92631 0
M  V30 3920 H 378.329 3.71384 1.88316 0
M  V30 3921 H 380.926 2.8471 4.52597 0
M  V30 3922 H 381.269 1.22434 3.97889 0
M  V30 3923 H 381.802 2.61259 2.99981 0
M  V30 3924 H 378.541 5.57702 3.44454 0
M  V30 3925 H 378.061 4.12568 4.35371 0
M  V30 3926 H 379.74 4.71509 4.43044 0
M  V30 3927 N 379.872 -1.04064 1.18357 0
M  V30 3928 C 380.805 -2.11618 0.854 0
M  V30 3929 C 381.783 -1.61555 -0.184043 0
M  V30 3930 O 382.967 -1.88395 -0.0630048 0
M  V30 3931 C 380.094 -3.37574 0.27597 0
M  V30 3932 C 379.14 -4.06485 1.2912 0
M  V30 3933 S 379.973 -4.53543 2.84709 0
M  V30 3934 C 381.129 -5.82732 2.28417 0
M  V30 3935 H 381.362 -2.39247 1.76488 0
M  V30 3936 H 378.895 -1.16832 1.00944 0
M  V30 3937 H 380.853 -4.10468 -0.051026 0
M  V30 3938 H 379.514 -3.0806 -0.613028 0
M  V30 3939 H 378.707 -4.97024 0.835633 0
M  V30 3940 H 378.309 -3.39708 1.56443 0
M  V30 3941 H 380.601 -6.56677 1.66677 0
M  V30 3942 H 381.544 -6.33052 3.17256 0
M  V30 3943 H 381.952 -5.37838 1.71436 0
M  V30 3944 N 381.35 -0.985608 -1.22978 0
M  V30 3945 C 382.761 -0.693593 -1.73338 0
M  V30 3946 C 383.112 0.789935 -1.79595 0
M  V30 3947 O 382.237 1.61771 -1.43733 0
M  V30 3948 C 382.832 -1.25235 -3.14804 0
M  V30 3949 C 381.391 -1.00987 -3.626 0
M  V30 3950 C 380.538 -1.37695 -2.40698 0
M  V30 3951 H 383.489 -1.15884 -1.08428 0
M  V30 3952 H 383.51 -0.627329 -3.75293 0
M  V30 3953 H 383.022 -2.33209 -3.10218 0
M  V30 3954 H 381.123 0.0535565 -3.72562 0
M  V30 3955 H 381.236 -1.66812 -4.49122 0
M  V30 3956 H 379.6 -0.795459 -2.4196 0
M  V30 3957 H 380.383 -2.46657 -2.38779 0
M  V30 3958 N 382.828 1.3818 -0.7579 0
M  V30 3959 C 383.791 2.28764 -0.141286 0
M  V30 3960 C 384.791 1.47388 0.642907 0
M  V30 3961 O 385.981 1.67781 0.468536 0
M  V30 3962 C 383.113 3.31184 0.808069 0
M  V30 3963 H 384.306 2.848 -0.939633 0
M  V30 3964 H 381.859 1.47212 -0.525191 0
M  V30 3965 H 382.594 2.80247 1.63193 0
M  V30 3966 H 382.379 3.91314 0.248104 0
M  V30 3967 H 383.869 3.98909 1.23536 0
M  V30 3968 N 384.306 0.507319 1.49211 0
M  V30 3969 C 385.256 -0.287112 2.26185 0
M  V30 3970 C 386.24 -0.929983 1.31302 0
M  V30 3971 O 387.432 -0.836538 1.55984 0
M  V30 3972 C 384.561 -1.34718 3.15763 0
M  V30 3973 C 383.647 -0.710235 4.18111 0
M  V30 3974 N 384.038 0.190836 5.0544 0
M  V30 3975 C 382.336 -0.97009 4.35322 0
M  V30 3976 C 383.037 0.55606 5.79036 0
M  V30 3977 N 382.013 -0.0775232 5.43545 0
M  V30 3978 H 385.815 0.406445 2.91076 0
M  V30 3979 H 383.329 0.323814 1.59139 0
M  V30 3980 H 385.326 -1.92982 3.69545 0
M  V30 3981 H 383.986 -2.04235 2.52424 0
M  V30 3982 H 384.997 0.562047 5.14841 0
M  V30 3983 H 381.674 -1.65753 3.83187 0
M  V30 3984 H 383.064 1.2936 6.5933 0
M  V30 3985 N 385.784 -1.5574 0.241426 0
M  V30 3986 C 386.714 -2.24133 -0.654722 0
M  V30 3987 C 387.695 -1.21974 -1.1856 0
M  V30 3988 O 388.88 -1.50612 -1.22595 0
M  V30 3989 C 386.01 -2.93659 -1.85423 0
M  V30 3990 C 384.964 -4.0246 -1.45636 0
M  V30 3991 C 384.29 -4.59383 -2.73626 0
M  V30 3992 C 385.59 -5.18468 -0.631506 0
M  V30 3993 H 387.284 -2.99281 -0.0844353 0
M  V30 3994 H 384.83 -1.43947 -0.0391707 0
M  V30 3995 H 386.783 -3.40203 -2.48676 0
M  V30 3996 H 385.507 -2.15991 -2.44981 0
M  V30 3997 H 384.166 -3.56676 -0.847202 0
M  V30 3998 H 383.814 -3.78422 -3.3137 0
M  V30 3999 H 383.514 -5.32826 -2.4773 0
M  V30 4000 H 385.038 -5.08658 -3.37786 0
M  V30 4001 H 386.452 -5.61272 -1.1682 0
M  V30 4002 H 384.849 -5.98266 -0.468831 0
M  V30 4003 H 385.919 -4.8358 0.357506 0
M  V30 4004 N 387.262 0.0317525 -1.57568 0
M  V30 4005 C 388.194 1.06073 -2.03178 0
M  V30 4006 C 389.207 1.32627 -0.944132 0
M  V30 4007 O 390.396 1.30162 -1.22148 0
M  V30 4008 C 387.496 2.40297 -2.38978 0
M  V30 4009 C 386.669 2.33137 -3.70089 0
M  V30 4010 C 385.728 3.49787 -3.9311 0
M  V30 4011 O 384.754 3.29403 -4.64201 0
M  V30 4012 N 385.956 4.71562 -3.38541 0
M  V30 4013 H 388.721 0.672006 -2.92069 0
M  V30 4014 H 386.282 0.219745 -1.60402 0
M  V30 4015 H 388.274 3.1705 -2.51518 0
M  V30 4016 H 386.844 2.71024 -1.55771 0
M  V30 4017 H 386.064 1.415 -3.67928 0
M  V30 4018 H 387.352 2.25493 -4.56104 0
M  V30 4019 H 386.75 4.91024 -2.80912 0
M  V30 4020 H 385.307 5.45689 -3.56464 0
M  V30 4021 N 388.74 1.54641 0.303973 0
M  V30 4022 C 389.968 1.77768 1.05858 0
M  V30 4023 C 390.383 0.535722 1.8104 0
M  V30 4024 O 389.74 -0.494337 1.75677 0
M  V30 4025 C 389.791 2.9834 2.04146 0
M  V30 4026 O 389.512 4.17736 1.32015 0
M  V30 4027 C 391.013 3.33832 2.91669 0
M  V30 4028 H 388.233 0.592961 0.314067 0
M  V30 4029 H 390.777 2.01583 0.344149 0
M  V30 4030 H 388.932 2.76742 2.71096 0
M  V30 4031 H 389.346 4.85693 1.97998 0
M  V30 4032 H 390.82 4.21448 3.56491 0
M  V30 4033 H 391.297 2.51857 3.59812 0
M  V30 4034 H 391.903 3.57579 2.30254 0
M  V30 4035 N 390.218 -0.567019 1.47046 0
M  V30 4036 C 391.466 -1.322 1.52864 0
M  V30 4037 C 391.787 -1.94088 0.188388 0
M  V30 4038 O 391.057 -1.7941 -0.786693 0
M  V30 4039 H 389.637 -0.490894 0.563056 0
M  V30 4040 H 392.299 -0.662879 1.83281 0
M  V30 4041 H 391.395 -2.12062 2.2899 0
M  V30 4042 N 391.696 -1.35014 -0.812953 0
M  V30 4043 C 392.942 -1.2812 -1.57204 0
M  V30 4044 C 393.275 0.145869 -1.93651 0
M  V30 4045 O 392.55 1.0937 -1.60836 0
M  V30 4046 C 392.833 -2.18162 -2.86492 0
M  V30 4047 C 392.686 -3.69454 -2.56561 0
M  V30 4048 C 394.005 -2.07439 -3.88145 0
M  V30 4049 H 391.124 -0.466746 -0.570366 0
M  V30 4050 H 393.766 -1.65357 -0.935783 0
M  V30 4051 H 391.916 -1.86535 -3.40789 0
M  V30 4052 H 393.588 -4.11493 -2.08497 0
M  V30 4053 H 391.831 -3.9005 -1.89851 0
M  V30 4054 H 392.502 -4.27835 -3.48799 0
M  V30 4055 H 394.978 -2.35228 -3.4323 0
M  V30 4056 H 393.854 -2.7265 -4.76396 0
M  V30 4057 H 394.115 -1.05439 -4.29343 0
M  V30 4058 N 393.175 1.03435 -1.18907 0
M  V30 4059 C 394.452 1.73778 -0.89781 0
M  V30 4060 C 394.832 2.02458 0.597832 0
M  V30 4061 O 394.18 1.67482 1.55441 0
M  V30 4062 C 394.39 3.01845 -1.75187 0
M  V30 4063 C 395.738 3.7546 -1.9828 0
M  V30 4064 O 396.762 3.11759 -1.72293 0
M  V30 4065 O 395.621 4.89966 -2.42065 0
M  V30 4066 H 392.715 0.75651 -0.334098 0
M  V30 4067 H 395.261 1.09444 -1.29693 0
M  V30 4068 H 394.033 2.76836 -2.76545 0
M  V30 4069 H 393.656 3.73919 -1.35167 0
M  V30 4070 N 394.653 0.992116 1.22453 0
M  V30 4071 C 395.93 0.583508 1.86694 0
M  V30 4072 C 396.31 -0.9392 1.89056 0
M  V30 4073 O 395.658 -1.82081 1.38053 0
M  V30 4074 C 395.868 1.20304 3.2761 0
M  V30 4075 C 397.216 1.30308 4.0411 0
M  V30 4076 O 398.24 1.15737 3.36873 0
M  V30 4077 O 397.099 1.53615 5.24466 0
M  V30 4078 H 394.193 0.198129 0.802916 0
M  V30 4079 H 396.739 1.08794 1.30238 0
M  V30 4080 H 395.511 2.24461 3.2052 0
M  V30 4081 H 395.134 0.684144 3.9167 0
M  V30 4082 N 396.131 -1.37776 0.765217 0
M  V30 4083 C 397.377 -2.00145 0.327072 0
M  V30 4084 C 397.71 -1.60607 -1.09175 0
M  V30 4085 O 396.985 -0.849127 -1.74986 0
M  V30 4086 C 397.268 -3.57109 0.46319 0
M  V30 4087 C 397.121 -4.06576 1.92395 0
M  V30 4088 C 398.44 -4.39888 -0.136473 0
M  V30 4089 H 395.559 -0.727113 0.120316 0
M  V30 4090 H 398.201 -1.63549 0.967039 0
M  V30 4091 H 396.351 -3.88414 -0.0816358 0
M  V30 4092 H 398.023 -3.85864 2.52798 0
M  V30 4093 H 396.266 -3.59011 2.43503 0
M  V30 4094 H 396.937 -5.15639 1.97028 0
M  V30 4095 H 399.413 -4.14803 0.328317 0
M  V30 4096 H 398.289 -5.48899 -0.0110582 0
M  V30 4097 H 398.55 -4.24758 -1.22608 0
M  V30 4098 N 397.609 -0.515225 -1.4894 0
M  V30 4099 C 398.556 0.255567 -2.29381 0
M  V30 4100 C 399.526 0.947387 -1.36432 0
M  V30 4101 O 400.711 0.951288 -1.65394 0
M  V30 4102 C 397.851 1.30551 -3.19453 0
M  V30 4103 C 396.964 0.624029 -4.27469 0
M  V30 4104 C 396.099 1.65563 -5.0474 0
M  V30 4105 C 395.138 0.956802 -6.04576 0
M  V30 4106 N 394.275 1.93326 -6.74959 0
M  V30 4107 H 399.115 -0.436607 -2.94784 0
M  V30 4108 H 396.652 -0.227154 -1.45336 0
M  V30 4109 H 398.61 1.92639 -3.70062 0
M  V30 4110 H 397.24 1.96626 -2.56004 0
M  V30 4111 H 396.292 -0.110459 -3.8024 0
M  V30 4112 H 397.604 0.0746092 -4.98744 0
M  V30 4113 H 396.758 2.35119 -5.59289 0
M  V30 4114 H 395.497 2.23893 -4.3327 0
M  V30 4115 H 394.502 0.247097 -5.49244 0
M  V30 4116 H 395.727 0.379814 -6.78037 0
M  V30 4117 H 393.673 2.50591 -6.06251 0
M  V30 4118 H 393.59 1.43489 -7.42258 0
M  V30 4119 H 394.858 2.62126 -7.34105 0
M  V30 4120 N 399.087 1.5561 -0.249682 0
M  V30 4121 C 400.335 1.98618 0.373548 0
M  V30 4122 C 400.656 1.13919 1.58264 0
M  V30 4123 O 399.926 0.222637 1.94631 0
M  V30 4124 H 398.506 0.733571 0.141006 0
M  V30 4125 H 401.168 1.91748 -0.349117 0
M  V30 4126 H 400.264 3.04584 0.680796 0
M  V30 4127 N 400.565 -0.0233959 1.57583 0
M  V30 4128 C 401.811 -0.714119 1.89811 0
M  V30 4129 C 402.144 -1.74702 0.848113 0
M  V30 4130 O 401.419 -1.94023 -0.136135 0
M  V30 4131 C 401.702 -1.37853 3.32669 0
M  V30 4132 C 401.555 -0.358764 4.48367 0
M  V30 4133 C 402.874 -2.31101 3.7454 0
M  V30 4134 H 399.993 -0.25814 0.690314 0
M  V30 4135 H 402.635 0.0230927 1.89986 0
M  V30 4136 H 400.785 -2.00689 3.3265 0
M  V30 4137 H 402.457 0.268115 4.6052 0
M  V30 4138 H 400.7 0.321387 4.32608 0
M  V30 4139 H 401.371 -0.862242 5.45224 0
M  V30 4140 H 403.847 -1.78304 3.75961 0
M  V30 4141 H 402.723 -2.74567 4.75294 0
M  V30 4142 H 402.984 -3.18018 3.0711 0
M  V30 4143 N 402.043 -1.548 -0.295768 0
M  V30 4144 C 403.29 -1.74329 -1.03032 0
M  V30 4145 C 403.618 -0.531915 -1.87085 0
M  V30 4146 O 402.873 0.486052 -1.89568 0
M  V30 4147 C 403.172 -2.98797 -1.961 0
M  V30 4148 C 402.838 -4.32356 -1.2798 0
M  V30 4149 C 401.5 -4.68661 -1.09135 0
M  V30 4150 C 403.852 -5.15128 -0.793243 0
M  V30 4151 C 401.18 -5.85312 -0.403269 0
M  V30 4152 C 403.532 -6.32488 -0.118854 0
M  V30 4153 C 402.196 -6.6745 0.0815043 0
M  V30 4154 H 401.466 -0.637916 -0.37702 0
M  V30 4155 H 404.113 -1.8906 -0.304696 0
M  V30 4156 H 402.418 -2.78869 -2.75207 0
M  V30 4157 H 404.115 -3.11102 -2.53015 0
M  V30 4158 H 400.705 -4.03808 -1.43655 0
M  V30 4159 H 404.889 -4.87575 -0.92653 0
M  V30 4160 H 400.145 -6.1094 -0.237098 0
M  V30 4161 H 404.319 -6.95892 0.266035 0
M  V30 4162 H 401.946 -7.57695 0.616685 0
M  V30 4163 N 403.521 0.559213 -1.47345 0
M  V30 4164 C 404.768 1.31648 -1.53867 0
M  V30 4165 C 405.096 1.93468 -0.200104 0
M  V30 4166 O 404.351 1.78295 0.806799 0
M  V30 4167 C 404.65 2.44853 -2.6035 0
M  V30 4168 C 404.316 2.00876 -4.03683 0
M  V30 4169 C 402.978 1.88599 -4.42701 0
M  V30 4170 C 405.33 1.67279 -4.93626 0
M  V30 4171 C 402.658 1.41017 -5.69501 0
M  V30 4172 C 405.01 1.21169 -6.20887 0
M  V30 4173 C 403.674 1.07487 -6.58789 0
M  V30 4174 H 402.944 0.481734 -0.56304 0
M  V30 4175 H 405.591 0.627301 -1.80934 0
M  V30 4176 H 403.896 3.19318 -2.27032 0
M  V30 4177 H 405.593 3.03039 -2.62619 0
M  V30 4178 H 402.183 2.11374 -3.72853 0
M  V30 4179 H 406.367 1.75638 -4.64182 0
M  V30 4180 H 401.623 1.29086 -5.97618 0
M  V30 4181 H 405.797 0.942345 -6.89995 0
M  V30 4182 H 403.424 0.703946 -7.56934 0
M  V30 4183 N 404.999 1.35443 0.805782 0
M  V30 4184 C 405.962 1.28301 1.89925 0
M  V30 4185 C 406.962 0.194285 1.59622 0
M  V30 4186 O 408.152 0.448036 1.6834 0
M  V30 4187 C 405.284 0.984997 3.2636 0
M  V30 4188 H 406.477 2.2553 1.97677 0
M  V30 4189 H 404.03 1.19979 1.00173 0
M  V30 4190 H 404.765 0.016603 3.24296 0
M  V30 4191 H 404.55 1.77269 3.4974 0
M  V30 4192 H 406.04 0.960651 4.064 0
M  V30 4193 N 406.477 -1.02803 1.19454 0
M  V30 4194 C 407.723 -1.76598 1.0092 0
M  V30 4195 C 408.078 -1.86939 -0.455142 0
M  V30 4196 O 407.371 -1.37575 -1.33355 0
M  V30 4197 C 407.565 -3.18941 1.6128 0
M  V30 4198 C 407.394 -3.22476 3.13431 0
M  V30 4199 C 406.164 -3.30375 3.82336 0
M  V30 4200 C 408.362 -3.09451 4.10785 0
M  V30 4201 N 406.344 -3.23292 5.21877 0
M  V30 4202 C 407.715 -3.10012 5.36929 0
M  V30 4203 C 409.77 -2.93585 4.02135 0
M  V30 4204 C 408.473 -2.96334 6.55423 0
M  V30 4205 C 410.499 -2.81256 5.20239 0
M  V30 4206 C 409.861 -2.82472 6.45282 0
M  V30 4207 H 405.96 -0.657447 0.423424 0
M  V30 4208 H 408.544 -1.22369 1.5144 0
M  V30 4209 H 406.715 -3.71489 1.1336 0
M  V30 4210 H 408.447 -3.81102 1.36173 0
M  V30 4211 H 405.202 -3.3663 3.33132 0
M  V30 4212 H 405.626 -3.23156 5.94894 0
M  V30 4213 H 410.268 -2.91466 3.0628 0
M  V30 4214 H 407.986 -2.97203 7.51463 0
M  V30 4215 H 411.572 -2.70014 5.15348 0
M  V30 4216 H 410.452 -2.73036 7.35133 0
M  V30 4217 N 407.956 -0.998596 -1.21925 0
M  V30 4218 C 408.919 -0.558679 -2.22287 0
M  V30 4219 C 409.919 0.361525 -1.56683 0
M  V30 4220 O 411.109 0.152695 -1.73529 0
M  V30 4221 C 408.241 0.18661 -3.40389 0
M  V30 4222 H 409.434 -1.4463 -2.62721 0
M  V30 4223 H 406.987 -0.786413 -1.35075 0
M  V30 4224 H 407.722 1.08996 -3.05435 0
M  V30 4225 H 407.507 -0.474188 -3.89222 0
M  V30 4226 H 408.997 0.482367 -4.14805 0
M  V30 4227 N 409.434 1.37368 -0.772513 0
M  V30 4228 C 410.366 2.28899 -0.117502 0
M  V30 4229 C 411.379 1.4867 0.663405 0
M  V30 4230 O 412.568 1.71314 0.501372 0
M  V30 4231 C 409.668 3.2788 0.857192 0
M  V30 4232 C 408.841 4.37207 0.129938 0
M  V30 4233 C 407.9 5.16257 1.01811 0
M  V30 4234 O 406.926 5.67159 0.481601 0
M  V30 4235 N 408.128 5.31058 2.3443 0
M  V30 4236 H 410.893 2.85752 -0.903662 0
M  V30 4237 H 408.454 1.49353 -0.62493 0
M  V30 4238 H 410.446 3.77647 1.45482 0
M  V30 4239 H 409.016 2.7179 1.54432 0
M  V30 4240 H 408.236 3.88827 -0.648605 0
M  V30 4241 H 409.524 5.07434 -0.372559 0
M  V30 4242 H 408.922 4.91287 2.80452 0
M  V30 4243 H 407.479 5.84131 2.89197 0
M  V30 4244 N 410.912 0.523116 1.48665 0
M  V30 4245 C 411.859 -0.243398 2.29513 0
M  V30 4246 C 412.829 -0.940139 1.36933 0
M  V30 4247 O 414.014 -0.942503 1.65896 0
M  V30 4248 C 411.154 -1.28855 3.20141 0
M  V30 4249 C 410.267 -0.60135 4.27794 0
M  V30 4250 C 409.402 -1.62884 5.05611 0
M  V30 4251 C 408.441 -0.924726 6.05075 0
M  V30 4252 N 407.578 -1.89744 6.75975 0
M  V30 4253 H 412.418 0.452234 2.94549 0
M  V30 4254 H 409.955 0.234858 1.45213 0
M  V30 4255 H 411.913 -1.90674 3.71079 0
M  V30 4256 H 410.543 -1.95266 2.57043 0
M  V30 4257 H 409.595 0.130623 3.80176 0
M  V30 4258 H 410.907 -0.0481585 4.98777 0
M  V30 4259 H 410.061 -2.32149 5.60528 0
M  V30 4260 H 408.8 -2.21592 4.34452 0
M  V30 4261 H 407.805 -0.217966 5.49368 0
M  V30 4262 H 409.03 -0.343851 6.78229 0
M  V30 4263 H 406.976 -2.47373 6.07571 0
M  V30 4264 H 406.893 -1.3955 7.43009 0
M  V30 4265 H 408.161 -2.58229 7.35485 0
M  V30 4266 N 412.39 -1.55475 0.257931 0
M  V30 4267 C 413.636 -1.99502 -0.364266 0
M  V30 4268 C 413.969 -1.146 -1.56782 0
M  V30 4269 O 413.244 -0.211968 -1.93342 0
M  V30 4270 C 413.527 -3.51917 -0.763333 0
M  V30 4271 C 413.38 -4.4758 0.446371 0
M  V30 4272 C 414.699 -4.09742 -1.60623 0
M  V30 4273 H 411.818 -0.725277 -0.130929 0
M  V30 4274 H 414.46 -1.8653 0.361446 0
M  V30 4275 H 412.61 -3.63101 -1.38166 0
M  V30 4276 H 414.282 -4.48362 1.08487 0
M  V30 4277 H 412.525 -4.19947 1.08753 0
M  V30 4278 H 413.196 -5.51862 0.123645 0
M  V30 4279 H 415.672 -4.01727 -1.08418 0
M  V30 4280 H 414.548 -5.16631 -1.85429 0
M  V30 4281 H 414.809 -3.58889 -2.58169 0
M  V30 4282 N 413.868 0.0150385 -1.57593 0
M  V30 4283 C 415.116 0.701613 -1.8953 0
M  V30 4284 C 415.437 1.75139 -0.857396 0
M  V30 4285 O 414.707 1.95607 0.107194 0
M  V30 4286 H 413.287 0.26213 -0.699498 0
M  V30 4287 H 415.949 -0.0223304 -1.94887 0
M  V30 4288 H 415.045 1.18236 -2.88837 0
M  V30 4289 N 415.346 1.54954 0.287554 0
M  V30 4290 C 416.276 1.89839 1.35954 0
M  V30 4291 C 417.257 0.758675 1.52244 0
M  V30 4292 O 418.442 1.01557 1.65529 0
M  V30 4293 C 415.572 2.15753 2.72154 0
M  V30 4294 C 414.526 3.3159 2.70614 0
M  V30 4295 C 413.852 3.42952 4.10229 0
M  V30 4296 C 415.152 4.68359 2.31165 0
M  V30 4297 H 416.846 2.79625 1.07007 0
M  V30 4298 H 414.392 1.3454 0.513316 0
M  V30 4299 H 416.345 2.38743 3.47246 0
M  V30 4300 H 415.069 1.22752 3.02654 0
M  V30 4301 H 413.728 3.08545 1.97979 0
M  V30 4302 H 413.376 2.47443 4.37928 0
M  V30 4303 H 413.076 4.20826 4.10097 0
M  V30 4304 H 414.6 3.68218 4.87081 0
M  V30 4305 H 416.014 4.9099 2.95976 0
M  V30 4306 H 414.411 5.49044 2.42221 0
M  V30 4307 H 415.481 4.68165 1.26291 0
M  V30 4308 O 416.863 -0.433401 1.55576 0
M  V30 4309 H 417.554 -1.08681 1.60337 0
M  V30 END ATOM
M  V30 BEGIN BOND
M  V30 END BOND
M  V30 END CTAB
M  END
$$$$
