drugbank_target|P0A789 Aspartate carbamoyltransferase catalytic chain (DB03459)
 OpenBabel12092120023D

  0  0  0     0  0            999 V3000
M  V30 BEGIN CTAB
M  V30 COUNTS 4854 4900 0 0 0
M  V30 BEGIN ATOM
M  V30 1 H -0.908 1.98254 -0.117106 0
M  V30 2 N 0 1.576 0 0
M  V30 3 C 0.933 2.03868 1.02534 0
M  V30 4 C 1.911 0.928543 1.3348 0
M  V30 5 O 3.095 1.19667 1.45644 0
M  V30 6 C 0.222 2.43627 2.35294 0
M  V30 7 C -0.732 3.65373 2.2001 0
M  V30 8 S 0.101 5.13292 1.52614 0
M  V30 9 C 1.257 5.56322 2.86805 0
M  V30 10 H 1.49 2.90518 0.631377 0
M  V30 11 H -0.977 1.52953 0.210867 0
M  V30 12 H 0.981 2.67203 3.11629 0
M  V30 13 H -0.358 1.57376 2.7183 0
M  V30 14 H -1.165 3.90944 3.18086 0
M  V30 15 H -1.563 3.418 1.51819 0
M  V30 16 H 0.729 5.58782 3.83104 0
M  V30 17 H 1.672 6.56266 2.65933 0
M  V30 18 H 2.08 4.83886 2.90714 0
M  V30 19 N 1.4781 -0.272755 1.55222 0
M  V30 20 C 2.4411 -1.32041 1.87344 0
M  V30 21 C 3.4411 -1.42342 0.74803 0
M  V30 22 O 4.6311 -1.41488 1.0162 0
M  V30 23 C 1.7631 -2.70173 2.07893 0
M  V30 24 H 2.9561 -1.04789 2.80997 0
M  V30 25 H 0.5091 -0.51083 1.47717 0
M  V30 26 H 1.2441 -3.02605 1.16622 0
M  V30 27 H 1.0291 -2.64082 2.89833 0
M  V30 28 H 2.5191 -3.45869 2.34017 0
M  V30 29 N 2.9562 -1.48159 -0.537278 0
M  V30 30 C 3.9042 -1.62573 -1.66352 0
M  V30 31 C 4.8982 -0.492366 -1.62087 0
M  V30 32 O 6.1042 -0.670847 -1.67032 0
M  V30 33 H 2.4792 -0.511992 -0.550789 0
M  V30 34 H 4.4502 -2.57176 -1.51337 0
M  V30 35 C 3.1992 -1.67583 -3.04649 0
M  V30 36 H 2.5222 -2.54151 -3.08622 0
M  V30 37 H 3.9622 -1.81713 -3.83088 0
M  V30 38 C 2.4212 -0.413039 -3.34358 0
M  V30 39 O 2.9512 0.477259 -3.98855 0
M  V30 40 N 1.1572 -0.286961 -2.8918 0
M  V30 41 H 0.7042 -1.01241 -2.36871 0
M  V30 42 H 0.6622 0.556963 -3.09427 0
M  V30 43 N 4.4343 0.785586 -1.36625 0
M  V30 44 C 5.8453 1.36101 -1.27803 0
M  V30 45 C 6.1963 1.96035 0.0804875 0
M  V30 46 O 5.3213 1.92834 0.982042 0
M  V30 47 C 5.9163 2.47442 -2.31426 0
M  V30 48 C 4.4753 3.00789 -2.26281 0
M  V30 49 C 3.6223 1.73896 -2.15999 0
M  V30 50 H 6.5733 0.586928 -1.47448 0
M  V30 51 H 6.5943 3.2656 -1.95291 0
M  V30 52 H 6.1063 2.03791 -3.30289 0
M  V30 53 H 4.2073 3.48851 -1.30896 0
M  V30 54 H 4.3203 3.57343 -3.19128 0
M  V30 55 H 2.6843 1.9628 -1.62316 0
M  V30 56 H 3.4673 1.32368 -3.16755 0
M  V30 57 N 5.9124 1.20967 1.01018 0
M  V30 58 C 6.8424 0.988272 2.11555 0
M  V30 59 C 7.8234 -0.0849778 1.69888 0
M  V30 60 O 9.0084 0.0738202 1.9406 0
M  V30 61 C 6.1384 0.546528 3.42973 0
M  V30 62 C 5.0924 1.56375 3.9841 0
M  V30 63 C 4.4184 0.97842 5.25672 0
M  V30 64 C 5.7184 2.94922 4.31066 0
M  V30 65 H 7.4124 1.91276 2.30334 0
M  V30 66 H 4.9584 0.921073 1.1069 0
M  V30 67 H 6.9114 0.378839 4.19694 0
M  V30 68 H 5.6354 -0.413598 3.23971 0
M  V30 69 H 4.2944 1.71891 3.23804 0
M  V30 70 H 3.9424 0.0101688 5.02999 0
M  V30 71 H 3.6424 1.65784 5.63728 0
M  V30 72 H 5.1664 0.821939 6.05043 0
M  V30 73 H 6.5804 2.8288 4.9865 0
M  V30 74 H 4.9774 3.5983 4.80253 0
M  V30 75 H 6.0474 3.4616 3.39561 0
M  V30 76 N 7.3905 -1.2043 1.01659 0
M  V30 77 C 8.6205 -1.93496 0.724081 0
M  V30 78 C 9.0285 -1.74998 -0.71918 0
M  V30 79 O 8.3715 -1.06118 -1.49949 0
M  V30 80 C 8.4335 -3.45886 0.97994 0
M  V30 81 C 8.0975 -3.88145 2.41232 0
M  V30 82 C 9.0945 -3.93907 3.39313 0
M  V30 83 C 6.7795 -4.20134 2.75305 0
M  V30 84 C 8.7735 -4.31069 4.6953 0
M  V30 85 C 6.4605 -4.56971 4.05735 0
M  V30 86 C 7.4585 -4.62411 5.02658 0
M  V30 87 O 7.1465 -4.98403 6.30754 0
M  V30 88 H 6.8785 -0.621824 0.265162 0
M  V30 89 H 9.4325 -1.53867 1.36066 0
M  V30 90 H 7.6625 -3.85639 0.286198 0
M  V30 91 H 9.3515 -4.0018 0.679021 0
M  V30 92 H 10.1175 -3.69357 3.14325 0
M  V30 93 H 5.9965 -4.1509 2.00551 0
M  V30 94 H 9.5405 -4.3523 5.45179 0
M  V30 95 H 5.4375 -4.80977 4.30502 0
M  V30 96 H 6.2055 -5.16395 6.35042 0
M  V30 97 N 8.8686 -0.792821 -1.36206 0
M  V30 98 C 9.8006 -0.151469 -2.28699 0
M  V30 99 C 10.8136 0.641262 -1.49638 0
M  V30 100 O 12.0026 0.475885 -1.72039 0
M  V30 101 C 9.1026 0.808424 -3.29117 0
M  V30 102 C 8.2756 0.0650202 -4.37352 0
M  V30 103 C 7.3346 0.941358 -5.17711 0
M  V30 104 O 6.3606 0.397352 -5.67811 0
M  V30 105 N 7.5626 2.2652 -5.3448 0
M  V30 106 H 10.3276 -0.945982 -2.84379 0
M  V30 107 H 7.8886 -0.647032 -1.48409 0
M  V30 108 H 9.8806 1.3986 -3.79765 0
M  V30 109 H 8.4506 1.5038 -2.74052 0
M  V30 110 H 7.6706 -0.706255 -3.87822 0
M  V30 111 H 8.9586 -0.447847 -5.06825 0
M  V30 112 H 8.3566 2.73128 -4.95396 0
M  V30 113 H 6.9136 2.80493 -5.88359 0
M  V30 114 N 10.3467 1.47872 -0.545128 0
M  V30 115 C 11.2937 2.29849 0.2093 0
M  V30 116 C 12.2637 1.38313 0.919707 0
M  V30 117 O 13.4487 1.67277 0.917772 0
M  V30 118 C 10.5887 3.22019 1.24088 0
M  V30 119 C 9.7017 4.2864 0.537778 0
M  V30 120 C 8.8367 5.07973 1.5536 0
M  V30 121 C 7.8757 6.06381 0.8348 0
M  V30 122 N 7.0127 6.78717 1.79688 0
M  V30 123 H 11.8527 2.93845 -0.49591 0
M  V30 124 H 9.3897 1.44848 -0.256389 0
M  V30 125 H 11.3477 3.73868 1.85144 0
M  V30 126 H 9.9777 2.59914 1.91428 0
M  V30 127 H 9.0297 3.7994 -0.187046 0
M  V30 128 H 10.3417 4.98793 -0.0258907 0
M  V30 129 H 9.4957 5.63912 2.23803 0
M  V30 130 H 8.2347 4.37693 2.15118 0
M  V30 131 H 7.2397 5.49631 0.136388 0
M  V30 132 H 8.4647 6.78665 0.24313 0
M  V30 133 H 6.4107 6.11177 2.38326 0
M  V30 134 H 6.3277 7.44998 1.28505 0
M  V30 135 H 7.5957 7.39237 2.47282 0
M  V30 136 N 11.8248 0.280983 1.55075 0
M  V30 137 C 12.7748 -0.618585 2.19448 0
M  V30 138 C 13.7588 -1.11401 1.16098 0
M  V30 139 O 14.9508 -1.0581 1.41891 0
M  V30 140 C 12.0798 -1.79951 2.92357 0
M  V30 141 C 11.1658 -1.321 4.03002 0
M  V30 142 N 11.5568 -0.559044 5.02701 0
M  V30 143 C 9.8548 -1.60346 4.16179 0
M  V30 144 C 10.5558 -0.306722 5.80891 0
M  V30 145 N 9.5318 -0.880825 5.36416 0
M  V30 146 H 13.3338 -0.0286638 2.93886 0
M  V30 147 H 10.8478 0.0848104 1.62178 0
M  V30 148 H 12.8448 -2.45531 3.36927 0
M  V30 149 H 11.5048 -2.39333 2.19431 0
M  V30 150 H 12.5158 -0.205827 5.17491 0
M  V30 151 H 9.1928 -2.20621 3.54447 0
M  V30 152 H 10.5828 0.30391 6.71212 0
M  V30 153 N 13.3029 -1.57598 0.00835791 0
M  V30 154 C 14.5519 -1.90107 -0.673968 0
M  V30 155 C 14.8649 -0.884275 -1.7447 0
M  V30 156 O 16.0709 -1.09987 -2.48224 0
M  V30 157 C 14.5269 -3.37497 -1.24995 0
M  V30 158 C 14.1349 -4.47491 -0.2136 0
M  V30 159 C 15.8789 -3.79104 -1.90999 0
M  V30 160 C 13.7859 -5.85963 -0.80005 0
M  V30 161 H 12.7159 -0.709393 -0.255495 0
M  V30 162 H 15.3669 -1.83365 0.0702693 0
M  V30 163 H 13.7489 -3.39102 -2.04513 0
M  V30 164 H 14.9229 -4.57414 0.557596 0
M  V30 165 H 13.2379 -4.14956 0.346474 0
M  V30 166 H 15.8349 -4.79901 -2.35795 0
M  V30 167 H 16.1779 -3.1306 -2.74407 0
M  V30 168 H 16.7109 -3.79833 -1.18203 0
M  V30 169 H 13.4499 -6.555 -0.00456708 0
M  V30 170 H 12.9699 -5.79687 -1.54021 0
M  V30 171 H 14.6489 -6.33884 -1.29615 0
M  V30 172 N 14.781 0.264519 -1.55364 0
M  V30 173 C 16.03 0.992812 -1.75574 0
M  V30 174 C 16.343 1.87142 -0.568979 0
M  V30 175 O 17.549 2.63513 -0.653682 0
M  V30 176 C 16.005 1.81519 -3.10771 0
M  V30 177 C 15.613 0.984839 -4.37041 0
M  V30 178 C 17.357 2.53727 -3.40327 0
M  V30 179 C 15.264 1.80209 -5.63275 0
M  V30 180 H 14.194 0.374412 -0.65447 0
M  V30 181 H 16.845 0.248138 -1.81815 0
M  V30 182 H 15.227 2.60115 -2.98591 0
M  V30 183 H 16.401 0.242455 -4.60162 0
M  V30 184 H 14.716 0.37691 -4.14691 0
M  V30 185 H 17.313 3.15292 -4.3185 0
M  V30 186 H 17.656 3.24447 -2.60845 0
M  V30 187 H 18.189 1.82156 -3.53644 0
M  V30 188 H 14.928 1.13896 -6.45529 0
M  V30 189 H 14.448 2.52022 -5.44284 0
M  V30 190 H 16.127 2.37364 -6.01887 0
M  V30 191 N 16.2591 1.48442 0.529413 0
M  V30 192 C 17.4841 1.60406 1.31471 0
M  V30 193 C 17.9091 0.264738 1.86228 0
M  V30 194 O 17.2671 -0.763668 1.64432 0
M  V30 195 C 17.3151 2.65419 2.44101 0
M  V30 196 O 16.4191 2.22618 3.47153 0
M  V30 197 H 15.7601 0.537863 0.389357 0
M  V30 198 H 18.2901 1.94432 0.636965 0
M  V30 199 H 18.3001 2.86709 2.90279 0
M  V30 200 H 16.9751 3.62652 2.03608 0
M  V30 201 H 15.5521 2.11543 3.0709 0
M  V30 202 N 17.7372 -0.778329 1.37039 0
M  V30 203 C 18.9862 -1.53189 1.3121 0
M  V30 204 C 19.2992 -1.95328 -0.103095 0
M  V30 205 O 20.5052 -2.70012 -0.283826 0
M  V30 206 C 18.9612 -2.76591 2.30272 0
M  V30 207 C 18.5692 -2.41577 3.77286 0
M  V30 208 C 20.3132 -3.5455 2.33441 0
M  V30 209 C 18.2202 -3.61441 4.68096 0
M  V30 210 H 17.1502 -0.5751 0.487622 0
M  V30 211 H 19.8012 -0.853101 1.62464 0
M  V30 212 H 18.1832 -3.46326 1.92027 0
M  V30 213 H 19.3572 -1.79668 4.2433 0
M  V30 214 H 17.6722 -1.76806 3.76999 0
M  V30 215 H 20.2692 -4.43628 2.98493 0
M  V30 216 H 20.6122 -3.93936 1.34611 0
M  V30 217 H 21.1452 -2.91805 2.7036 0
M  V30 218 H 17.8842 -3.27142 5.6803 0
M  V30 219 H 17.4042 -4.22478 4.25761 0
M  V30 220 H 19.0832 -4.28335 4.8491 0
M  V30 221 N 19.2153 -1.21501 -1.00376 0
M  V30 222 C 20.1633 -0.972442 -2.11297 0
M  V30 223 C 21.1573 0.080731 -1.69208 0
M  V30 224 O 22.3633 -0.0707666 -1.79861 0
M  V30 225 H 18.7383 -0.297218 -0.690772 0
M  V30 226 H 20.7093 -1.91394 -2.28934 0
M  V30 227 C 19.4583 -0.555065 -3.43241 0
M  V30 228 H 18.7813 -1.35709 -3.76062 0
M  V30 229 H 20.2213 -0.424664 -4.21868 0
M  V30 230 C 18.6803 0.734147 -3.28804 0
M  V30 231 O 19.2103 1.78937 -3.59645 0
M  V30 232 N 17.4163 0.701133 -2.82015 0
M  V30 233 H 16.9633 -0.157874 -2.57116 0
M  V30 234 H 16.9213 1.56403 -2.72737 0
M  V30 235 N 20.6934 1.19889 -1.02296 0
M  V30 236 C 21.9704 1.85148 -0.630832 0
M  V30 237 C 22.3504 1.91385 0.890782 0
M  V30 238 O 21.6984 1.42642 1.78509 0
M  V30 239 C 21.9084 3.24442 -1.28602 0
M  V30 240 C 23.2564 4.00663 -1.4055 0
M  V30 241 O 24.2804 3.33818 -1.24273 0
M  V30 242 O 23.1394 5.20387 -1.66913 0
M  V30 243 H 20.2334 0.797613 -0.218499 0
M  V30 244 H 22.7794 1.27427 -1.12074 0
M  V30 245 H 21.5514 3.14704 -2.32545 0
M  V30 246 H 21.1744 3.89802 -0.7836 0
M  V30 247 N 22.1715 0.800033 1.35784 0
M  V30 248 C 23.1015 0.220184 2.3246 0
M  V30 249 C 24.0825 -0.65073 1.57161 0
M  V30 250 O 25.2675 -0.582359 1.85263 0
M  V30 251 C 22.3975 -0.637353 3.41402 0
M  V30 252 C 21.3515 0.134531 4.27789 0
M  V30 253 C 20.6775 -0.844285 5.27992 0
M  V30 254 C 21.9775 1.32979 5.05088 0
M  V30 255 H 23.6715 1.02787 2.81203 0
M  V30 256 H 21.2175 0.495717 1.35199 0
M  V30 257 H 23.1705 -1.05302 4.08031 0
M  V30 258 H 21.8945 -1.47785 2.91251 0
M  V30 259 H 20.5535 0.531296 3.6273 0
M  V30 260 H 20.2015 -1.68011 4.74111 0
M  V30 261 H 19.9015 -0.332184 5.8666 0
M  V30 262 H 21.4255 -1.2583 5.97494 0
M  V30 263 H 22.8395 0.98934 5.64699 0
M  V30 264 H 21.2365 1.77593 5.7322 0
M  V30 265 H 22.3065 2.11978 4.36111 0
M  V30 266 N 23.6496 -1.47581 0.552962 0
M  V30 267 C 24.8746 -2.07378 0.0300593 0
M  V30 268 C 25.2996 -1.40355 -1.25229 0
M  V30 269 O 24.6576 -0.477099 -1.7491 0
M  V30 270 C 24.7056 -3.60274 -0.153231 0
M  V30 271 O 23.8096 -3.94041 -1.21678 0
M  V30 272 H 23.1506 -0.662158 0.0494182 0
M  V30 273 H 25.6806 -1.89662 0.767434 0
M  V30 274 H 25.6906 -4.0633 -0.368761 0
M  V30 275 H 24.3656 -4.08455 0.783397 0
M  V30 276 H 22.9426 -3.59735 -0.982079 0
M  V30 277 N 25.1277 -0.289203 -1.54924 0
M  V30 278 C 26.5437 0.0645403 -1.59469 0
M  V30 279 C 26.7437 1.53419 -1.30632 0
M  V30 280 O 25.7997 2.2852 -1.074 0
M  V30 281 C 27.1127 -0.32278 -2.98963 0
M  V30 282 C 28.6607 -0.270564 -3.11828 0
M  V30 283 C 29.1357 -0.632532 -4.53611 0
M  V30 284 N 30.6267 -0.584617 -4.59496 0
M  V30 285 C 31.3617 -0.837314 -5.67254 0
M  V30 286 N 30.8577 -1.15536 -6.83098 0
M  V30 287 N 32.6507 -0.765166 -5.56868 0
M  V30 288 H 24.8017 -1.24714 -1.71931 0
M  V30 289 H 27.0647 -0.504809 -0.802416 0
M  V30 290 H 26.7707 -1.34541 -3.24948 0
M  V30 291 H 26.6447 0.32944 -3.75759 0
M  V30 292 H 29.0317 0.742805 -2.85598 0
M  V30 293 H 29.1127 -0.957242 -2.37214 0
M  V30 294 H 28.7567 -1.64365 -4.80569 0
M  V30 295 H 28.6867 0.07609 -5.26545 0
M  V30 296 H 31.1777 -0.349248 -3.76283 0
M  V30 297 H 31.4907 -1.33447 -7.61191 0
M  V30 298 H 29.8357 -1.19328 -6.84679 0
M  V30 299 H 33.0267 -0.516432 -4.65243 0
M  V30 300 H 33.1997 -0.965477 -6.40767 0
M  V30 301 N 26.6058 1.57591 -0.0167156 0
M  V30 302 C 27.8828 1.82547 0.702564 0
M  V30 303 C 28.2628 0.898018 1.91047 0
M  V30 304 O 27.6108 -0.0493456 2.28447 0
M  V30 305 C 27.8208 3.31459 1.09251 0
M  V30 306 C 29.1688 3.97622 1.48937 0
M  V30 307 O 30.1928 3.35881 1.18584 0
M  V30 308 O 29.0518 5.06415 2.05442 0
M  V30 309 H 26.1458 0.752268 0.343544 0
M  V30 310 H 28.6918 1.69644 -0.0434495 0
M  V30 311 H 27.4638 3.9061 0.23227 0
M  V30 312 H 27.0868 3.49422 1.89709 0
M  V30 313 N 28.0839 -0.256276 1.55502 0
M  V30 314 C 29.3609 -1.00789 1.67633 0
M  V30 315 C 29.7409 -2.03706 0.553826 0
M  V30 316 O 29.0889 -2.24145 -0.443969 0
M  V30 317 C 29.2989 -1.64968 3.07549 0
M  V30 318 C 30.6469 -2.15505 3.65845 0
M  V30 319 O 31.6709 -1.74925 3.1029 0
M  V30 320 O 30.5299 -2.89986 4.63217 0
M  V30 321 H 27.6239 -0.468553 0.681459 0
M  V30 322 H 30.1699 -0.250806 1.67836 0
M  V30 323 H 28.9419 -0.904785 3.80696 0
M  V30 324 H 28.5649 -2.47321 3.11317 0
M  V30 325 N 29.562 -1.4872 -0.521534 0
M  V30 326 C 30.492 -1.66771 -1.63431 0
M  V30 327 C 31.473 -0.516499 -1.62069 0
M  V30 328 O 32.658 -0.750013 -1.79132 0
M  V30 329 C 29.788 -1.71515 -3.01993 0
M  V30 330 C 28.742 -2.86222 -3.18216 0
M  V30 331 C 28.068 -2.76061 -4.57924 0
M  V30 332 C 29.368 -4.27419 -3.00184 0
M  V30 333 H 31.062 -2.59932 -1.48579 0
M  V30 334 H 28.608 -1.25089 -0.713358 0
M  V30 335 H 30.561 -1.82731 -3.7972 0
M  V30 336 H 29.285 -0.749393 -3.17886 0
M  V30 337 H 27.944 -2.74575 -2.42908 0
M  V30 338 H 27.592 -1.77437 -4.70665 0
M  V30 339 H 27.292 -3.53037 -4.69722 0
M  V30 340 H 28.816 -2.89256 -5.37739 0
M  V30 341 H 30.23 -4.39855 -3.67697 0
M  V30 342 H 28.627 -5.05458 -3.2347 0
M  V30 343 H 29.697 -4.43293 -1.96518 0
M  V30 344 N 31.0401 0.771051 -1.3745 0
M  V30 345 C 31.9881 1.90574 -1.33358 0
M  V30 346 C 32.9821 1.67936 -0.22224 0
M  V30 347 O 34.1881 1.75717 -0.390304 0
M  V30 348 H 30.5631 0.626714 -0.415612 0
M  V30 349 H 32.5341 1.91142 -2.29144 0
M  V30 350 C 31.2831 3.27845 -1.15813 0
M  V30 351 H 30.6061 3.45842 -2.00583 0
M  V30 352 H 32.0461 4.07538 -1.17 0
M  V30 353 C 30.5051 3.36625 0.136165 0
M  V30 354 O 31.0351 3.85785 1.11949 0
M  V30 355 N 29.2411 2.89997 0.187099 0
M  V30 356 H 28.7881 2.50182 -0.613753 0
M  V30 357 H 28.7461 2.96252 1.05272 0
M  V30 358 N 32.5182 1.22032 0.997298 0
M  V30 359 C 33.4482 1.01065 2.10495 0
M  V30 360 C 34.4292 -0.0669542 1.69968 0
M  V30 361 O 35.6142 0.0943987 1.9397 0
M  V30 362 C 32.7442 0.582874 3.42374 0
M  V30 363 C 31.6982 1.60592 3.96729 0
M  V30 364 C 31.0242 1.03412 5.24605 0
M  V30 365 C 32.3242 2.99478 4.27914 0
M  V30 366 H 34.0182 1.93708 2.28292 0
M  V30 367 H 31.5642 0.932761 1.09707 0
M  V30 368 H 33.5172 0.423332 4.19268 0
M  V30 369 H 32.2412 -0.379213 3.24391 0
M  V30 370 H 30.9002 1.75316 3.21963 0
M  V30 371 H 30.5482 0.063518 5.0296 0
M  V30 372 H 30.2482 1.71754 5.61938 0
M  V30 373 H 31.7722 0.886066 6.04137 0
M  V30 374 H 33.1862 2.88153 4.95622 0
M  V30 375 H 31.5832 3.64903 4.76409 0
M  V30 376 H 32.6532 3.49742 3.3587 0
M  V30 377 N 33.9963 -1.19345 1.0293 0
M  V30 378 C 35.2423 -1.89318 0.727083 0
M  V30 379 C 35.5753 -1.79446 -0.742483 0
M  V30 380 O 34.8503 -1.1871 -1.54072 0
M  V30 381 C 35.1333 -3.40238 1.17942 0
M  V30 382 C 34.9863 -3.58979 2.71024 0
M  V30 383 C 36.3053 -4.33479 0.760548 0
M  V30 384 H 33.4243 -0.687475 0.265606 0
M  V30 385 H 36.0663 -1.40477 1.2793 0
M  V30 386 H 34.2163 -3.81964 0.709608 0
M  V30 387 H 35.8883 -3.26421 3.25955 0
M  V30 388 H 34.1313 -3.02018 3.11396 0
M  V30 389 H 34.8023 -4.64823 2.9773 0
M  V30 390 H 37.2783 -3.99469 1.16464 0
M  V30 391 H 36.1543 -5.37664 1.10493 0
M  V30 392 H 36.4153 -4.40813 -0.337063 0
M  V30 393 N 35.4744 -0.807222 -1.35358 0
M  V30 394 C 36.4044 -0.232509 -2.3234 0
M  V30 395 C 37.3854 0.642386 -1.57504 0
M  V30 396 O 38.5704 0.572526 -1.85569 0
M  V30 397 C 35.7004 0.619238 -3.41735 0
M  V30 398 C 34.6544 -0.157215 -4.27711 0
M  V30 399 C 33.9804 0.816273 -5.28433 0
M  V30 400 C 35.2804 -1.35656 -5.04376 0
M  V30 401 H 36.9744 -1.04276 -2.80654 0
M  V30 402 H 34.5204 -0.50288 -1.34934 0
M  V30 403 H 36.4734 1.03137 -4.08584 0
M  V30 404 H 35.1974 1.46239 -2.92031 0
M  V30 405 H 33.8564 -0.550525 -3.62443 0
M  V30 406 H 33.5044 1.65494 -4.74996 0
M  V30 407 H 33.2044 0.301067 -5.86828 0
M  V30 408 H 34.7284 1.22659 -5.98153 0
M  V30 409 H 36.1424 -1.01927 -5.64166 0
M  V30 410 H 34.5394 -1.8063 -5.7227 0
M  V30 411 H 35.6094 -2.14288 -4.34981 0
M  V30 412 N 36.9525 1.47285 -0.560781 0
M  V30 413 C 37.9155 2.28535 0.174488 0
M  V30 414 C 38.9155 1.37153 0.839388 0
M  V30 415 O 40.1055 1.59748 0.694702 0
M  V30 416 C 37.2375 3.16934 1.25561 0
M  V30 417 H 38.4305 2.95012 -0.539262 0
M  V30 418 H 35.9835 1.53034 -0.317865 0
M  V30 419 H 36.7185 2.55157 2.00164 0
M  V30 420 H 36.5035 3.8419 0.783604 0
M  V30 421 H 37.9935 3.78143 1.77193 0
M  V30 422 N 38.4306 0.297415 1.54768 0
M  V30 423 C 39.6586 -0.315623 2.04478 0
M  V30 424 C 40.0736 -1.47792 1.17486 0
M  V30 425 O 39.4306 -1.81404 0.19971 0
M  V30 426 C 39.4816 -0.7753 3.53088 0
M  V30 427 O 39.2026 0.340732 4.36773 0
M  V30 428 C 40.7036 -1.45386 4.18781 0
M  V30 429 H 37.9236 -0.0690887 0.667434 0
M  V30 430 H 40.4676 0.436003 1.99798 0
M  V30 431 H 38.6226 -1.47696 3.58141 0
M  V30 432 H 39.0366 -0.0165035 5.24497 0
M  V30 433 H 40.5106 -1.72669 5.24299 0
M  V30 434 H 40.9876 -2.39275 3.68299 0
M  V30 435 H 41.5936 -0.795475 4.17795 0
M  V30 436 N 39.9087 -1.5758 0.0250728 0
M  V30 437 C 40.8717 -2.08896 -0.943139 0
M  V30 438 C 41.8717 -1.00321 -1.25668 0
M  V30 439 O 43.0617 -1.26495 -1.19769 0
M  V30 440 C 40.1937 -2.55143 -2.26086 0
M  V30 441 H 41.3867 -2.95723 -0.498775 0
M  V30 442 H 38.9397 -1.54703 -0.222888 0
M  V30 443 H 39.6747 -1.71633 -2.75159 0
M  V30 444 H 39.4597 -3.34461 -2.04641 0
M  V30 445 H 40.9497 -2.95083 -2.95492 0
M  V30 446 N 41.3868 0.248026 -1.55636 0
M  V30 447 C 42.3498 1.29044 -1.89421 0
M  V30 448 C 43.3498 1.41134 -0.770581 0
M  V30 449 O 44.5398 1.39854 -1.03858 0
M  V30 450 C 41.6718 2.66831 -2.12165 0
M  V30 451 H 42.8648 1.00305 -2.82629 0
M  V30 452 H 40.4178 0.487265 -1.48511 0
M  V30 453 H 41.1528 3.00711 -1.21422 0
M  V30 454 H 40.9378 2.59438 -2.93997 0
M  V30 455 H 42.4278 3.42103 -2.3949 0
M  V30 456 N 42.8649 1.48995 0.513639 0
M  V30 457 C 43.8119 1.6473 1.61656 0
M  V30 458 C 44.7819 0.488984 1.58739 0
M  V30 459 O 45.9669 0.714478 1.76918 0
M  V30 460 C 43.1069 1.7082 2.99858 0
M  V30 461 C 42.2199 2.9787 3.12885 0
M  V30 462 C 41.3549 2.95017 4.41744 0
M  V30 463 C 40.3939 4.16702 4.48359 0
M  V30 464 N 39.5309 4.11832 5.68629 0
M  V30 465 H 44.3709 2.58909 1.47547 0
M  V30 466 H 41.9079 1.28382 0.71808 0
M  V30 467 H 43.8659 1.72331 3.79944 0
M  V30 468 H 42.4959 0.801181 3.12699 0
M  V30 469 H 41.5479 3.06029 2.25944 0
M  V30 470 H 42.8599 3.8786 3.13633 0
M  V30 471 H 42.0139 2.95021 5.30139 0
M  V30 472 H 40.7529 2.02784 4.43542 0
M  V30 473 H 39.7579 4.16955 3.58369 0
M  V30 474 H 40.9829 5.10113 4.48287 0
M  V30 475 H 38.9289 3.22428 5.71293 0
M  V30 476 H 38.8459 4.95543 5.7094 0
M  V30 477 H 40.1139 4.1592 6.59266 0
M  V30 478 N 44.343 -0.763751 1.37857 0
M  V30 479 C 45.273 -1.89103 1.36975 0
M  V30 480 C 46.254 -1.68439 0.237152 0
M  V30 481 O 47.439 -1.8918 0.438713 0
M  V30 482 C 44.569 -3.26496 1.18395 0
M  V30 483 C 43.523 -3.61741 2.28751 0
M  V30 484 C 42.849 -4.97762 1.95286 0
M  V30 485 C 44.149 -3.67665 3.70972 0
M  V30 486 H 45.843 -1.90099 2.31307 0
M  V30 487 H 43.389 -0.91319 1.11341 0
M  V30 488 H 45.342 -4.05003 1.16406 0
M  V30 489 H 44.066 -3.25955 0.205215 0
M  V30 490 H 42.725 -2.85547 2.29909 0
M  V30 491 H 42.373 -4.93769 0.959221 0
M  V30 492 H 42.073 -5.22313 2.69189 0
M  V30 493 H 43.597 -5.7866 1.94898 0
M  V30 494 H 45.011 -4.36307 3.719 0
M  V30 495 H 43.408 -4.03718 4.43995 0
M  V30 496 H 44.478 -2.68134 4.0402 0
M  V30 497 N 45.8211 -1.22559 -0.990812 0
M  V30 498 C 46.7681 -0.997519 -2.0813 0
M  V30 499 C 47.7381 0.0814702 -1.659 0
M  V30 500 O 48.9231 -0.0685424 -1.90677 0
M  V30 501 C 46.0631 -0.583615 -3.40129 0
M  V30 502 C 45.1761 -1.7336 -3.9569 0
M  V30 503 C 44.3111 -1.26748 -5.15857 0
M  V30 504 C 43.3501 -2.38888 -5.63559 0
M  V30 505 N 42.4871 -1.93308 -6.74964 0
M  V30 506 H 47.3271 -1.93099 -2.26973 0
M  V30 507 H 44.8641 -0.962114 -1.11273 0
M  V30 508 H 46.8221 -0.324801 -4.15934 0
M  V30 509 H 45.4521 0.312845 -3.2128 0
M  V30 510 H 44.5041 -2.10669 -3.16738 0
M  V30 511 H 45.8161 -2.57704 -4.27071 0
M  V30 512 H 44.9701 -0.966173 -5.98957 0
M  V30 513 H 43.7091 -0.394272 -4.86104 0
M  V30 514 H 42.7141 -2.69805 -4.79046 0
M  V30 515 H 43.9391 -3.26728 -5.95336 0
M  V30 516 H 41.8851 -1.08352 -6.4699 0
M  V30 517 H 41.8021 -2.71217 -7.05675 0
M  V30 518 H 43.0701 -1.66252 -7.61564 0
M  V30 519 N 47.2992 1.18797 -1.03562 0
M  V30 520 C 48.2622 2.20464 -0.626769 0
M  V30 521 C 49.2622 1.57721 0.313173 0
M  V30 522 O 50.4522 1.73917 0.0992615 0
M  V30 523 C 47.5842 3.40802 0.0818498 0
M  V30 524 H 48.7772 2.58149 -1.5264 0
M  V30 525 H 46.3302 1.32593 -0.827578 0
M  V30 526 H 47.0652 3.08642 0.995518 0
M  V30 527 H 46.8502 3.8758 -0.593652 0
M  V30 528 H 48.3402 4.16092 0.354584 0
M  V30 529 N 48.7773 0.814389 1.34928 0
M  V30 530 C 49.7253 0.218424 2.31572 0
M  V30 531 C 50.7193 -0.636128 1.57002 0
M  V30 532 O 51.9253 -0.52842 1.72069 0
M  V30 533 H 48.3003 0.0518799 0.750208 0
M  V30 534 H 50.2713 1.04852 2.79372 0
M  V30 535 C 49.0203 -0.61207 3.4227 0
M  V30 536 H 48.3433 0.0361578 3.99784 0
M  V30 537 H 49.7833 -0.995317 4.12152 0
M  V30 538 C 48.2423 -1.78087 2.85984 0
M  V30 539 O 48.7723 -2.8787 2.80168 0
M  V30 540 N 46.9783 -1.59488 2.42924 0
M  V30 541 H 46.5253 -0.701874 2.47854 0
M  V30 542 H 46.4833 -2.37846 2.05613 0
M  V30 543 N 50.2554 -1.46986 0.568584 0
M  V30 544 C 51.6664 -1.86188 0.138219 0
M  V30 545 C 52.0174 -1.47388 -1.29504 0
M  V30 546 O 51.1424 -0.88219 -1.97602 0
M  V30 547 C 51.7374 -3.3792 0.244065 0
M  V30 548 C 50.2964 -3.76171 -0.131335 0
M  V30 549 C 49.4434 -2.71027 0.586465 0
M  V30 550 H 52.3944 -1.38342 0.777645 0
M  V30 551 H 52.4154 -3.76729 -0.534351 0
M  V30 552 H 51.9274 -3.66128 1.28731 0
M  V30 553 H 50.0284 -3.5358 -1.17526 0
M  V30 554 H 50.1414 -4.78523 0.235146 0
M  V30 555 H 48.5054 -2.54684 0.0282722 0
M  V30 556 H 49.2884 -3.02077 1.63109 0
M  V30 557 N 51.7335 -0.305618 -1.54608 0
M  V30 558 C 52.6655 0.602161 -2.21149 0
M  V30 559 C 53.6785 1.09394 -1.20569 0
M  V30 560 O 54.8675 1.0106 -1.47136 0
M  V30 561 C 51.9675 1.83692 -2.84799 0
M  V30 562 C 51.1405 1.48686 -4.11353 0
M  V30 563 C 50.1995 2.57725 -4.58764 0
M  V30 564 O 49.2255 2.22623 -5.23858 0
M  V30 565 N 50.4275 3.88346 -4.31471 0
M  V30 566 H 53.1925 0.0324966 -2.99682 0
M  V30 567 H 50.7535 -0.128021 -1.61393 0
M  V30 568 H 52.7455 2.55994 -3.13448 0
M  V30 569 H 51.3155 2.31486 -2.10078 0
M  V30 570 H 50.5355 0.596269 -3.89664 0
M  V30 571 H 51.8235 1.22842 -4.93748 0
M  V30 572 H 51.2215 4.19671 -3.79331 0
M  V30 573 H 49.7785 4.56932 -4.64818 0
M  V30 574 N 53.2116 1.57565 -0.0334293 0
M  V30 575 C 54.6226 1.79746 0.504798 0
M  V30 576 C 54.9736 0.944091 1.71992 0
M  V30 577 O 54.0986 0.155694 2.15839 0
M  V30 578 C 54.6936 3.25997 0.922567 0
M  V30 579 C 53.2526 3.49159 1.40588 0
M  V30 580 C 52.3996 2.74785 0.372633 0
M  V30 581 H 55.3506 1.56565 -0.259436 0
M  V30 582 H 55.3716 3.35945 1.78666 0
M  V30 583 H 54.8836 3.88081 0.0379825 0
M  V30 584 H 52.9846 2.92332 2.31025 0
M  V30 585 H 53.0976 4.57873 1.41028 0
M  V30 586 H 51.4616 2.40391 0.841672 0
M  V30 587 H 52.2446 3.39587 -0.503559 0
M  V30 588 N 54.6897 -0.239769 1.55765 0
M  V30 589 C 55.5997 -1.31831 1.94056 0
M  V30 590 C 56.6157 -1.52275 0.841925 0
M  V30 591 O 57.7917 -1.65759 1.14394 0
M  V30 592 C 54.8567 -2.65156 2.23368 0
M  V30 593 C 53.9177 -2.53173 3.46701 0
M  V30 594 C 53.1507 -3.8014 3.74606 0
M  V30 595 O 53.3737 -4.82343 3.04469 0
M  V30 596 O 52.3077 -3.78344 4.68123 0
M  V30 597 H 56.1337 -1.02347 2.85935 0
M  V30 598 H 53.7187 -0.441123 1.42739 0
M  V30 599 H 55.6007 -3.43929 2.43497 0
M  V30 600 H 54.2757 -2.94358 1.34666 0
M  V30 601 H 53.1827 -1.72662 3.31871 0
M  V30 602 H 54.5157 -2.28915 4.35728 0
M  V30 603 N 56.1678 -1.49265 -0.50573 0
M  V30 604 C 57.0978 -1.68495 -1.61653 0
M  V30 605 C 58.0788 -0.53366 -1.61512 0
M  V30 606 O 59.2638 -0.76897 -1.78327 0
M  V30 607 C 56.3938 -1.74709 -3.00157 0
M  V30 608 C 55.3478 -2.89581 -3.15162 0
M  V30 609 C 54.6738 -2.80903 -4.5497 0
M  V30 610 C 55.9738 -4.30578 -2.95634 0
M  V30 611 H 57.6678 -2.61493 -1.45814 0
M  V30 612 H 55.2138 -1.25838 -0.70005 0
M  V30 613 H 57.1668 -1.86748 -3.77761 0
M  V30 614 H 55.8908 -0.783067 -3.17074 0
M  V30 615 H 54.5498 -2.77136 -2.39982 0
M  V30 616 H 54.1978 -1.82419 -4.68756 0
M  V30 617 H 53.8978 -3.57999 -4.65951 0
M  V30 618 H 55.4218 -2.94944 -5.34641 0
M  V30 619 H 56.8358 -4.4373 -3.63011 0
M  V30 620 H 55.2328 -5.0886 -3.18091 0
M  V30 621 H 56.3028 -4.45352 -1.91806 0
M  V30 622 N 57.6459 0.756429 -1.3826 0
M  V30 623 C 58.5759 1.88374 -1.37976 0
M  V30 624 C 59.5569 1.68311 -0.246082 0
M  V30 625 O 60.7419 1.88944 -0.44874 0
M  V30 626 C 57.8719 3.25864 -1.20125 0
M  V30 627 C 56.8259 3.60523 -2.30666 0
M  V30 628 C 56.1519 4.9672 -1.97923 0
M  V30 629 C 57.4519 3.65692 -3.72916 0
M  V30 630 H 59.1459 1.88869 -2.32312 0
M  V30 631 H 56.6919 0.907272 -1.11824 0
M  V30 632 H 58.6449 4.0438 -1.18552 0
M  V30 633 H 57.3689 3.25841 -0.222498 0
M  V30 634 H 56.0279 2.84324 -2.3142 0
M  V30 635 H 55.6759 4.93253 -0.985393 0
M  V30 636 H 55.3759 5.20878 -2.71955 0
M  V30 637 H 56.8999 5.77618 -1.97964 0
M  V30 638 H 58.3139 4.34328 -3.74208 0
M  V30 639 H 56.7109 4.01358 -4.4613 0
M  V30 640 H 57.7809 2.65987 -4.05436 0
M  V30 641 N 59.124 1.23083 0.984299 0
M  V30 642 C 60.071 1.00854 2.07598 0
M  V30 643 C 61.041 -0.0726709 1.65941 0
M  V30 644 O 62.226 0.0786535 1.90638 0
M  V30 645 C 59.366 0.601645 3.39815 0
M  V30 646 C 58.479 1.75456 3.94765 0
M  V30 647 C 57.614 1.29482 5.15177 0
M  V30 648 C 56.653 2.41873 5.62284 0
M  V30 649 N 55.79 1.96885 6.73929 0
M  V30 650 H 60.63 1.943 2.25946 0
M  V30 651 H 58.167 0.968001 1.10762 0
M  V30 652 H 60.125 0.346854 4.15756 0
M  V30 653 H 58.755 -0.295803 3.21442 0
M  V30 654 H 57.807 2.12346 3.15616 0
M  V30 655 H 59.119 2.59965 4.25699 0
M  V30 656 H 58.273 0.997923 5.98437 0
M  V30 657 H 57.012 0.420046 4.85888 0
M  V30 658 H 56.017 2.72342 4.77608 0
M  V30 659 H 57.242 3.29881 5.93595 0
M  V30 660 H 55.188 1.11782 6.46406 0
M  V30 661 H 55.105 2.74956 7.04227 0
M  V30 662 H 56.373 1.70289 7.60672 0
M  V30 663 N 60.6021 -1.18246 1.0419 0
M  V30 664 C 61.5521 -2.19843 0.604392 0
M  V30 665 C 62.5361 -1.56962 -0.353814 0
M  V30 666 O 63.7281 -1.76156 -0.17267 0
M  V30 667 C 60.8571 -3.43287 -0.0298975 0
M  V30 668 C 59.9431 -4.13288 0.951531 0
M  V30 669 N 60.3341 -4.59271 2.11906 0
M  V30 670 C 58.6321 -4.39165 0.7778 0
M  V30 671 C 59.3331 -5.13173 2.73912 0
M  V30 672 N 58.3091 -5.04763 2.01779 0
M  V30 673 H 62.1111 -2.53089 1.4941 0
M  V30 674 H 59.6251 -1.34465 0.910658 0
M  V30 675 H 61.6221 -4.15334 -0.361037 0
M  V30 676 H 60.2821 -3.11537 -0.915127 0
M  V30 677 H 61.2931 -4.5368 2.49789 0
M  V30 678 H 57.9701 -4.17461 -0.0572331 0
M  V30 679 H 59.3601 -5.58947 3.72864 0
M  V30 680 N 62.0802 -0.821533 -1.34494 0
M  V30 681 C 63.0272 -0.240397 -2.29545 0
M  V30 682 C 63.9972 0.634031 -1.53523 0
M  V30 683 O 65.1822 0.575966 -1.81899 0
M  V30 684 C 62.3222 0.592869 -3.39969 0
M  V30 685 C 61.4352 -0.30365 -4.30932 0
M  V30 686 C 60.5702 0.539049 -5.28458 0
M  V30 687 C 59.6092 -0.356942 -6.11058 0
M  V30 688 N 58.7462 0.446603 -7.00678 0
M  V30 689 H 63.5862 -1.05632 -2.7865 0
M  V30 690 H 61.1232 -0.532413 -1.37127 0
M  V30 691 H 63.0812 1.09129 -4.02675 0
M  V30 692 H 61.7112 1.37392 -2.92102 0
M  V30 693 H 60.7632 -0.920276 -3.691 0
M  V30 694 H 62.0752 -0.992661 -4.88823 0
M  V30 695 H 61.2292 1.102 -5.96608 0
M  V30 696 H 59.9682 1.26157 -4.71101 0
M  V30 697 H 58.9732 -0.932047 -5.41842 0
M  V30 698 H 60.1982 -1.07755 -6.70497 0
M  V30 699 H 58.1442 1.15282 -6.45791 0
M  V30 700 H 58.0612 -0.184048 -7.55776 0
M  V30 701 H 59.3292 0.992352 -7.73158 0
M  V30 702 N 63.5583 1.46682 -0.576371 0
M  V30 703 C 64.8043 2.02712 -0.0596221 0
M  V30 704 C 65.1373 1.44765 1.29448 0
M  V30 705 O 64.4123 0.610355 1.84675 0
M  V30 706 C 64.6953 3.60098 0.0129503 0
M  V30 707 C 64.5483 4.28441 -1.3696 0
M  V30 708 C 65.8673 4.34224 0.71678 0
M  V30 709 H 62.9863 0.736637 -0.0231407 0
M  V30 710 H 65.6283 1.74898 -0.742351 0
M  V30 711 H 63.7783 3.83926 0.594378 0
M  V30 712 H 65.4503 4.15896 -1.9957 0
M  V30 713 H 63.6933 3.8805 -1.93907 0
M  V30 714 H 64.3643 5.3716 -1.27135 0
M  V30 715 H 66.8403 4.15503 0.222908 0
M  V30 716 H 65.7163 5.43936 0.73657 0
M  V30 717 H 65.9773 4.04823 1.77682 0
M  V30 718 N 65.0364 0.313813 1.54444 0
M  V30 719 C 66.2854 -0.292519 1.99568 0
M  V30 720 C 66.5984 -1.54011 1.20582 0
M  V30 721 O 67.8044 -2.22183 1.56035 0
M  V30 722 C 66.2604 -0.571752 3.55329 0
M  V30 723 C 65.8684 0.658229 4.43138 0
M  V30 724 C 67.6124 -1.13857 4.08946 0
M  V30 725 C 65.5194 0.351439 5.90355 0
M  V30 726 H 64.4494 -0.113079 0.745472 0
M  V30 727 H 67.1004 0.424518 1.78522 0
M  V30 728 H 65.4824 -1.34872 3.72325 0
M  V30 729 H 66.6564 1.43403 4.37918 0
M  V30 730 H 64.9714 1.14458 4.0036 0
M  V30 731 H 67.5684 -1.38257 5.16516 0
M  V30 732 H 67.9114 -2.08489 3.6033 0
M  V30 733 H 68.4444 -0.423015 3.95544 0
M  V30 734 H 65.1834 1.26667 6.43145 0
M  V30 735 H 64.7034 -0.386842 5.98551 0
M  V30 736 H 66.3824 -0.0423134 6.46986 0
M  V30 737 N 66.5145 -1.57545 0.0417849 0
M  V30 738 C 67.4775 -2.09885 -0.92093 0
M  V30 739 C 68.4775 -1.01648 -1.24596 0
M  V30 740 O 69.6675 -1.27759 -1.1842 0
M  V30 741 C 66.7995 -2.57527 -2.23367 0
M  V30 742 H 67.9925 -2.96236 -0.467382 0
M  V30 743 H 65.5455 -1.5493 -0.206467 0
M  V30 744 H 66.2805 -1.74542 -2.73323 0
M  V30 745 H 66.0655 -3.36613 -2.01083 0
M  V30 746 H 67.5555 -2.98201 -2.92346 0
M  V30 747 N 67.9926 0.231505 -1.5589 0
M  V30 748 C 69.2176 0.978689 -1.82856 0
M  V30 749 C 69.6426 1.77559 -0.620846 0
M  V30 750 O 69.0006 1.76119 0.430305 0
M  V30 751 C 69.0486 1.87997 -3.07716 0
M  V30 752 O 68.1526 2.97393 -2.85712 0
M  V30 753 H 67.4936 0.277663 -0.603158 0
M  V30 754 H 70.0236 0.24783 -2.03093 0
M  V30 755 H 70.0336 2.2917 -3.37558 0
M  V30 756 H 68.7086 1.29417 -3.95252 0
M  V30 757 H 67.2856 2.60238 -2.67078 0
M  V30 758 N 69.4707 1.49531 0.497807 0
M  V30 759 C 70.7107 1.60799 1.26187 0
M  V30 760 C 71.0747 0.289627 1.89803 0
M  V30 761 O 72.2757 0.277512 2.67364 0
M  V30 762 C 70.5467 2.73729 2.29798 0
M  V30 763 S 72.1057 3.04968 3.155 0
M  V30 764 H 68.9237 0.567145 0.428798 0
M  V30 765 H 71.5257 1.87204 0.563477 0
M  V30 766 H 70.2297 3.68036 1.81597 0
M  V30 767 H 69.7607 2.49328 3.04301 0
M  V30 768 H 71.7757 2.46735 4.30507 0
M  V30 769 N 70.9488 -0.749086 1.3866 0
M  V30 770 C 72.1958 -1.50833 1.35114 0
M  V30 771 C 72.5238 -1.94415 -0.0574049 0
M  V30 772 O 71.7788 -1.66065 -1.03541 0
M  V30 773 C 72.0778 -2.7712 2.25697 0
M  V30 774 C 71.7438 -2.52477 3.73585 0
M  V30 775 C 70.4058 -2.45466 4.13884 0
M  V30 776 C 72.7578 -2.31066 4.67181 0
M  V30 777 C 70.0858 -2.15064 5.45861 0
M  V30 778 C 72.4378 -2.02183 5.9942 0
M  V30 779 C 71.1018 -1.93631 6.38798 0
M  V30 780 H 70.3718 -0.551936 0.494416 0
M  V30 781 H 73.0188 -0.860979 1.71054 0
M  V30 782 H 71.3238 -3.46528 1.82827 0
M  V30 783 H 73.0208 -3.35096 2.20254 0
M  V30 784 H 69.6108 -2.58807 3.41638 0
M  V30 785 H 73.7948 -2.35459 4.3689 0
M  V30 786 H 69.0508 -2.06954 5.75308 0
M  V30 787 H 73.2248 -1.8462 6.71482 0
M  V30 788 H 70.8518 -1.69839 7.40985 0
M  V30 789 N 72.4269 -1.23603 -0.977757 0
M  V30 790 C 73.6739 -1.06971 -1.71941 0
M  V30 791 C 74.0019 0.393009 -1.90488 0
M  V30 792 O 73.2569 1.30719 -1.4564 0
M  V30 793 C 73.5559 -1.7433 -3.11999 0
M  V30 794 C 73.2219 -3.24252 -3.13323 0
M  V30 795 C 71.8839 -3.65156 -3.13392 0
M  V30 796 C 74.2359 -4.20141 -3.08433 0
M  V30 797 C 71.5639 -5.00403 -3.0629 0
M  V30 798 C 73.9159 -5.55384 -3.02873 0
M  V30 799 C 72.5799 -5.95647 -3.01265 0
M  V30 800 H 71.8499 -0.391433 -0.629175 0
M  V30 801 H 74.4969 -1.53572 -1.14403 0
M  V30 802 H 72.8019 -1.20096 -3.7294 0
M  V30 803 H 74.4989 -1.58936 -3.68158 0
M  V30 804 H 71.0889 -2.91692 -3.14029 0
M  V30 805 H 75.2729 -3.89547 -3.07517 0
M  V30 806 H 70.5289 -5.3081 -3.03399 0
M  V30 807 H 74.7029 -6.29398 -2.98046 0
M  V30 808 H 72.3299 -7.0041 -2.95516 0
M  V30 809 N 73.905 1.17692 -1.04816 0
M  V30 810 C 74.815 2.25229 -0.65643 0
M  V30 811 C 75.831 1.71018 0.320761 0
M  V30 812 O 77.007 2.00649 0.173805 0
M  V30 813 C 74.072 3.46684 -0.0332629 0
M  V30 814 C 73.133 4.15997 -1.06042 0
M  V30 815 C 72.366 5.31654 -0.466893 0
M  V30 816 O 72.589 5.65777 0.724758 0
M  V30 817 O 71.523 5.89831 -1.1993 0
M  V30 818 H 75.349 2.61016 -1.55255 0
M  V30 819 H 72.934 1.24919 -0.81949 0
M  V30 820 H 74.816 4.20234 0.313256 0
M  V30 821 H 73.491 3.12703 0.836566 0
M  V30 822 H 72.398 3.44482 -1.45886 0
M  V30 823 H 73.731 4.53996 -1.90127 0
M  V30 824 N 75.3831 0.828654 1.34056 0
M  V30 825 C 76.3461 0.259927 2.27721 0
M  V30 826 C 77.3461 -0.565478 1.50529 0
M  V30 827 O 78.5361 -0.38075 1.69988 0
M  V30 828 C 75.6681 -0.634944 3.34935 0
M  V30 829 H 76.8611 1.0863 2.79534 0
M  V30 830 H 74.4141 0.600951 1.44285 0
M  V30 831 H 75.1491 -1.48416 2.88346 0
M  V30 832 H 74.9341 -0.0444999 3.92075 0
M  V30 833 H 76.4241 -1.02648 4.04788 0
M  V30 834 N 76.8612 -1.46375 0.584142 0
M  V30 835 C 78.0862 -2.07268 0.0740405 0
M  V30 836 C 78.5112 -1.42979 -1.22223 0
M  V30 837 O 77.8692 -0.514092 -1.73859 0
M  V30 838 C 77.9172 -3.60518 -0.0767769 0
M  V30 839 O 77.0212 -3.96533 -1.13292 0
M  V30 840 H 76.3622 -0.660961 0.0634524 0
M  V30 841 H 78.8922 -1.87991 0.807492 0
M  V30 842 H 78.9022 -4.07021 -0.282489 0
M  V30 843 H 77.5772 -4.06702 0.86986 0
M  V30 844 H 76.1542 -3.61738 -0.905553 0
M  V30 845 N 78.3393 -0.321999 -1.54275 0
M  V30 846 C 79.5673 0.283052 -2.04955 0
M  V30 847 C 79.9823 1.45904 -1.19823 0
M  V30 848 O 79.3393 1.81063 -0.228545 0
M  V30 849 C 79.3903 0.719028 -3.54277 0
M  V30 850 O 79.1113 -0.410175 -4.36176 0
M  V30 851 C 80.6123 1.38705 -4.21041 0
M  V30 852 H 77.8323 0.0584616 -0.668448 0
M  V30 853 H 80.3763 -0.467734 -1.99079 0
M  V30 854 H 78.5313 1.41979 -3.60445 0
M  V30 855 H 78.9453 -0.0669416 -5.24457 0
M  V30 856 H 80.4193 1.64306 -5.2698 0
M  V30 857 H 80.8963 2.33385 -3.72059 0
M  V30 858 H 81.5023 0.728906 -4.19007 0
M  V30 859 N 79.8174 1.5752 -0.0501392 0
M  V30 860 C 81.2334 1.56631 0.306402 0
M  V30 861 C 81.4334 1.0577 1.71508 0
M  V30 862 O 80.4894 0.713837 2.422 0
M  V30 863 C 81.8024 3.00393 0.135811 0
M  V30 864 C 83.3504 3.12315 0.206993 0
M  V30 865 C 83.8254 4.57954 0.064944 0
M  V30 866 N 85.3164 4.63041 0.121254 0
M  V30 867 C 86.0514 5.73389 0.0354381 0
M  V30 868 N 85.5474 6.92724 -0.102666 0
M  V30 869 N 87.3404 5.62026 0.090946 0
M  V30 870 H 79.4914 1.88903 -0.971046 0
M  V30 871 H 81.7544 0.869876 -0.376855 0
M  V30 872 H 81.4604 3.41635 -0.835384 0
M  V30 873 H 81.3344 3.66373 0.897275 0
M  V30 874 H 83.7214 2.70973 1.16866 0
M  V30 875 H 83.8024 2.49016 -0.585208 0
M  V30 876 H 83.4464 4.99981 -0.893394 0
M  V30 877 H 83.3764 5.19258 0.876277 0
M  V30 878 H 85.8674 3.77216 0.227284 0
M  V30 879 H 86.1804 7.72633 -0.160882 0
M  V30 880 H 84.5254 6.94864 -0.137737 0
M  V30 881 H 87.7164 4.67684 0.197388 0
M  V30 882 H 87.8894 6.47997 0.0206089 0
M  V30 883 N 81.2955 -0.223234 1.56011 0
M  V30 884 C 82.5235 -0.964812 1.83027 0
M  V30 885 C 82.9385 -1.78013 0.62904 0
M  V30 886 O 82.2955 -1.78008 -0.402414 0
M  V30 887 C 82.3465 -1.88373 3.08542 0
M  V30 888 O 82.0675 -1.10137 4.2403 0
M  V30 889 C 83.5685 -2.73934 3.48533 0
M  V30 890 H 80.7885 -0.282842 0.608475 0
M  V30 891 H 83.3325 -0.238971 2.03099 0
M  V30 892 H 81.4875 -2.56354 2.9045 0
M  V30 893 H 81.9015 -1.72501 4.95322 0
M  V30 894 H 83.3755 -3.34117 4.39397 0
M  V30 895 H 83.8525 -3.46244 2.70207 0
M  V30 896 H 84.4585 -2.11369 3.69057 0
M  V30 897 N 82.7736 -1.49793 -0.48987 0
M  V30 898 C 84.1896 -1.36803 -0.822022 0
M  V30 899 C 84.3896 -0.409652 -1.97292 0
M  V30 900 O 83.4456 0.154614 -2.52026 0
M  V30 901 C 84.7586 -2.77768 -1.15175 0
M  V30 902 C 86.3066 -2.86549 -1.25931 0
M  V30 903 C 86.7816 -4.28306 -1.62228 0
M  V30 904 N 88.2726 -4.31169 -1.69256 0
M  V30 905 C 89.0076 -5.37832 -1.98807 0
M  V30 906 N 88.5036 -6.54726 -2.26507 0
M  V30 907 N 90.2966 -5.25258 -2.00152 0
M  V30 908 H 82.4476 -2.10691 0.268881 0
M  V30 909 H 84.7106 -0.946241 0.057728 0
M  V30 910 H 84.4166 -3.49648 -0.379335 0
M  V30 911 H 84.2906 -3.13836 -2.09253 0
M  V30 912 H 86.6776 -2.14899 -2.02243 0
M  V30 913 H 86.7586 -2.54049 -0.298776 0
M  V30 914 H 86.4026 -5.00486 -0.864622 0
M  V30 915 H 86.3326 -4.58279 -2.594 0
M  V30 916 H 88.8236 -3.4687 -1.49965 0
M  V30 917 H 89.1366 -7.31833 -2.48276 0
M  V30 918 H 87.4816 -6.57933 -2.23939 0
M  V30 919 H 90.6726 -4.32938 -1.77996 0
M  V30 920 H 90.8456 -6.08476 -2.22848 0
M  V30 921 N 84.2517 0.741722 -1.39055 0
M  V30 922 C 85.1817 1.869 -1.39966 0
M  V30 923 C 86.1627 1.6804 -0.26392 0
M  V30 924 O 87.3477 1.88458 -0.468755 0
M  V30 925 C 84.4777 3.24572 -1.23574 0
M  V30 926 C 83.4317 3.58056 -2.34477 0
M  V30 927 C 82.7577 4.94593 -2.0318 0
M  V30 928 C 84.0577 3.61716 -3.76774 0
M  V30 929 H 85.7517 1.86395 -2.34302 0
M  V30 930 H 83.2977 0.895361 -1.1278 0
M  V30 931 H 85.2507 4.031 -1.22834 0
M  V30 932 H 83.9747 3.25587 -0.257045 0
M  V30 933 H 82.6337 2.81854 -2.34423 0
M  V30 934 H 82.2817 4.92181 -1.03765 0
M  V30 935 H 81.9817 5.17964 -2.77465 0
M  V30 936 H 83.5057 5.75486 -2.04079 0
M  V30 937 H 84.9197 4.30335 -3.78794 0
M  V30 938 H 83.3167 3.96603 -4.50362 0
M  V30 939 H 84.3867 2.61672 -4.08235 0
M  V30 940 N 85.7298 1.2412 0.971189 0
M  V30 941 C 86.9548 1.10667 1.75407 0
M  V30 942 C 87.3798 -0.337048 1.85056 0
M  V30 943 O 86.7378 -1.24396 1.31892 0
M  V30 944 C 86.7858 1.74726 3.15441 0
M  V30 945 O 85.8898 1.01566 3.99697 0
M  V30 946 H 85.2308 0.387341 0.539317 0
M  V30 947 H 87.7608 1.64358 1.2185 0
M  V30 948 H 87.7708 1.80341 3.6598 0
M  V30 949 H 86.4458 2.79773 3.07734 0
M  V30 950 H 85.0228 1.03713 3.58187 0
M  V30 951 N 87.2079 -1.17134 1.05439 0
M  V30 952 C 88.4549 -1.87456 0.765942 0
M  V30 953 C 88.7829 -1.81189 -0.707153 0
M  V30 954 O 88.0379 -1.21633 -1.5331 0
M  V30 955 C 88.3369 -3.36833 1.19491 0
M  V30 956 C 88.0029 -3.63301 2.67063 0
M  V30 957 C 86.6649 -3.70234 3.07376 0
M  V30 958 C 89.0169 -3.74575 3.62413 0
M  V30 959 C 86.3449 -3.85933 4.41896 0
M  V30 960 C 88.6969 -3.91793 4.9667 0
M  V30 961 C 87.3609 -3.96966 5.36633 0
M  V30 962 H 86.6309 -0.685948 0.280278 0
M  V30 963 H 89.2779 -1.38556 1.32192 0
M  V30 964 H 87.5829 -3.87807 0.557969 0
M  V30 965 H 89.2799 -3.89611 0.948893 0
M  V30 966 H 85.8699 -3.58532 2.34846 0
M  V30 967 H 90.0539 -3.68537 3.32406 0
M  V30 968 H 85.3099 -3.88187 4.72357 0
M  V30 969 H 89.4839 -3.99458 5.70444 0
M  V30 970 H 87.1109 -4.08883 6.40874 0
M  V30 971 N 88.686 -0.835752 -1.33615 0
M  V30 972 C 89.596 -0.269088 -2.33052 0
M  V30 973 C 90.612 0.603251 -1.63208 0
M  V30 974 O 91.788 0.508112 -1.94885 0
M  V30 975 C 88.853 0.549091 -3.42324 0
M  V30 976 C 87.914 -0.347156 -4.27894 0
M  V30 977 C 87.147 0.43207 -5.31948 0
M  V30 978 O 87.37 1.66409 -5.45586 0
M  V30 979 O 86.304 -0.192298 -6.01593 0
M  V30 980 H 90.13 -1.09243 -2.83372 0
M  V30 981 H 87.715 -0.598198 -1.36901 0
M  V30 982 H 89.597 1.01414 -4.09015 0
M  V30 983 H 88.272 1.34955 -2.94226 0
M  V30 984 H 87.179 -0.859979 -3.64081 0
M  V30 985 H 88.512 -1.1123 -4.79467 0
M  V30 986 N 90.1641 1.46063 -0.591896 0
M  V30 987 C 91.3921 2.06717 -0.0868936 0
M  V30 988 C 91.8071 1.43916 1.22203 0
M  V30 989 O 91.1641 0.547698 1.74088 0
M  V30 990 C 91.2151 3.6142 0.0758725 0
M  V30 991 O 90.9361 4.21874 -1.18126 0
M  V30 992 C 92.4371 4.39025 0.61416 0
M  V30 993 H 89.6571 0.668162 -0.0616518 0
M  V30 994 H 92.2011 1.8755 -0.815175 0
M  V30 995 H 90.3561 3.79983 0.754413 0
M  V30 996 H 90.7701 5.14861 -1.00092 0
M  V30 997 H 92.2441 5.4783 0.677193 0
M  V30 998 H 92.7211 4.07708 1.63312 0
M  V30 999 H 93.3271 4.2529 -0.0298142 0
M  V30 1000 N 91.6422 0.330177 1.54103 0
M  V30 1001 C 92.8672 -0.274893 2.0557 0
M  V30 1002 C 93.2922 -1.44487 1.20437 0
M  V30 1003 O 92.6502 -1.80021 0.214991 0
M  V30 1004 C 92.6982 -0.68079 3.54115 0
M  V30 1005 O 91.8022 -1.7824 3.71893 0
M  V30 1006 H 91.1432 -0.0483849 0.662235 0
M  V30 1007 H 93.6732 0.480508 1.98878 0
M  V30 1008 H 93.6832 -0.961635 3.96505 0
M  V30 1009 H 92.3582 0.174903 4.15532 0
M  V30 1010 H 90.9352 -1.49985 3.41407 0
M  V30 1011 N 93.1203 -1.57491 0.0584922 0
M  V30 1012 C 94.0533 -2.07533 -0.948969 0
M  V30 1013 C 95.0313 -0.977444 -1.29942 0
M  V30 1014 O 96.2153 -1.2499 -1.41102 0
M  V30 1015 C 93.3423 -2.52192 -2.2609 0
M  V30 1016 C 92.3883 -3.73287 -2.06298 0
M  V30 1017 S 93.2213 -5.18603 -1.33459 0
M  V30 1018 C 94.3773 -5.66583 -2.65959 0
M  V30 1019 H 94.6103 -2.92662 -0.523118 0
M  V30 1020 H 92.1433 -1.53631 -0.153954 0
M  V30 1021 H 94.1013 -2.78585 -3.01498 0
M  V30 1022 H 92.7623 -1.67356 -2.65802 0
M  V30 1023 H 91.9553 -4.0248 -3.03357 0
M  V30 1024 H 91.5573 -3.47199 -1.39029 0
M  V30 1025 H 93.8493 -5.72616 -3.62101 0
M  V30 1026 H 94.7923 -6.65684 -2.41393 0
M  V30 1027 H 95.2003 -4.94342 -2.72554 0
M  V30 1028 N 94.5984 0.214957 -1.56127 0
M  V30 1029 C 95.5484 1.27006 -1.8935 0
M  V30 1030 C 96.5324 1.41969 -0.757202 0
M  V30 1031 O 97.7244 1.44673 -1.01973 0
M  V30 1032 C 94.8534 2.61911 -2.2194 0
M  V30 1033 C 93.9394 2.50822 -3.41978 0
M  V30 1034 N 94.3304 2.09391 -4.60423 0
M  V30 1035 C 92.6284 2.81765 -3.45723 0
M  V30 1036 C 93.3294 2.09712 -5.42582 0
M  V30 1037 N 92.3054 2.50454 -4.82466 0
M  V30 1038 H 96.1074 0.940734 -2.78437 0
M  V30 1039 H 93.6214 0.423492 -1.56781 0
M  V30 1040 H 95.6184 3.38096 -2.43919 0
M  V30 1041 H 94.2784 2.95684 -1.34169 0
M  V30 1042 H 95.2894 1.80416 -4.85459 0
M  V30 1043 H 91.9664 3.19865 -2.68314 0
M  V30 1044 H 93.3564 1.79748 -6.4741 0
M  V30 1045 N 96.0765 1.50051 0.48192 0
M  V30 1046 C 97.4925 1.37237 0.814756 0
M  V30 1047 C 97.6925 0.420109 1.97072 0
M  V30 1048 O 96.7485 -0.141246 2.52105 0
M  V30 1049 C 98.0615 2.78375 1.13701 0
M  V30 1050 C 99.6095 2.87213 1.2441 0
M  V30 1051 C 100.084 4.29161 1.59954 0
M  V30 1052 N 101.575 4.32061 1.66967 0
M  V30 1053 C 102.31 5.38879 1.95952 0
M  V30 1054 N 101.806 6.55918 2.23031 0
M  V30 1055 N 103.599 5.26312 1.97363 0
M  V30 1056 H 95.7505 2.10546 -0.28005 0
M  V30 1057 H 98.0135 0.945921 -0.0627454 0
M  V30 1058 H 97.7195 3.49845 0.360787 0
M  V30 1059 H 97.5935 3.14941 2.07586 0
M  V30 1060 H 99.9805 2.15969 2.01101 0
M  V30 1061 H 100.061 2.54204 0.285299 0
M  V30 1062 H 99.7055 5.00938 0.838067 0
M  V30 1063 H 99.6355 4.59648 2.56966 0
M  V30 1064 H 102.126 3.47661 1.48123 0
M  V30 1065 H 102.439 7.33139 2.44391 0
M  V30 1066 H 100.784 6.59112 2.20447 0
M  V30 1067 H 103.975 4.33876 1.75697 0
M  V30 1068 H 104.148 6.09649 2.19618 0
M  V30 1069 N 97.5546 -0.734337 1.39446 0
M  V30 1070 C 98.4846 -1.86155 1.40955 0
M  V30 1071 C 99.4656 -1.67898 0.272827 0
M  V30 1072 O 100.651 -1.88207 0.478743 0
M  V30 1073 C 97.7806 -3.23912 1.25294 0
M  V30 1074 C 96.7346 -3.56808 2.36373 0
M  V30 1075 C 96.0606 -4.93508 2.058 0
M  V30 1076 C 97.3606 -3.59713 3.78687 0
M  V30 1077 H 99.0546 -1.8515 2.35287 0
M  V30 1078 H 96.6006 -0.889367 1.13253 0
M  V30 1079 H 98.5536 -4.02443 1.2497 0
M  V30 1080 H 97.2776 -3.25446 0.274308 0
M  V30 1081 H 95.9366 -2.80606 2.35914 0
M  V30 1082 H 95.5846 -4.91623 1.06374 0
M  V30 1083 H 95.2846 -5.16486 2.80208 0
M  V30 1084 H 96.8086 -5.74396 2.07128 0
M  V30 1085 H 98.2226 -4.2832 3.81071 0
M  V30 1086 H 96.6196 -3.94209 4.52459 0
M  V30 1087 H 97.6896 -2.59504 4.09617 0
M  V30 1088 N 99.0327 -1.24633 -0.964593 0
M  V30 1089 C 100.281 -1.08573 -1.70459 0
M  V30 1090 C 100.602 0.375655 -1.91347 0
M  V30 1091 O 99.8717 1.26779 -1.49345 0
M  V30 1092 H 98.4517 -0.398784 -0.631649 0
M  V30 1093 H 101.114 -1.56601 -1.16026 0
M  V30 1094 H 100.21 -1.58623 -2.68785 0
M  V30 1095 N 100.511 1.16574 -1.06058 0
M  V30 1096 C 101.474 2.19085 -0.673392 0
M  V30 1097 C 102.474 1.5835 0.279648 0
M  V30 1098 O 103.664 1.74088 0.0623488 0
M  V30 1099 C 100.796 3.40899 0.00954234 0
M  V30 1100 H 101.989 2.54853 -1.58081 0
M  V30 1101 H 99.5418 1.30808 -0.855516 0
M  V30 1102 H 100.277 3.10684 0.929826 0
M  V30 1103 H 100.062 3.86233 -0.67573 0
M  V30 1104 H 101.552 4.1675 0.266245 0
M  V30 1105 N 101.989 0.842826 1.3317 0
M  V30 1106 C 103.214 0.453129 2.02389 0
M  V30 1107 C 103.639 -0.939105 1.6298 0
M  V30 1108 O 102.997 -1.61472 0.8244 0
M  V30 1109 C 103.045 0.586094 3.55805 0
M  V30 1110 O 102.149 -0.386029 4.10589 0
M  V30 1111 H 101.49 0.183664 0.638094 0
M  V30 1112 H 104.02 1.13875 1.69981 0
M  V30 1113 H 104.03 0.469209 4.05293 0
M  V30 1114 H 102.705 1.6014 3.83833 0
M  V30 1115 H 101.282 -0.226371 3.72212 0
M  V30 1116 N 103.467 -1.45747 0.599634 0
M  V30 1117 C 104.713 -2.02592 0.0918643 0
M  V30 1118 C 105.046 -1.46806 -1.27128 0
M  V30 1119 O 104.321 -0.639658 -1.83681 0
M  V30 1120 C 104.604 -3.60073 0.0443398 0
M  V30 1121 C 104.457 -4.26208 1.43759 0
M  V30 1122 C 105.776 -4.35309 -0.647608 0
M  V30 1123 H 102.895 -0.736175 0.034857 0
M  V30 1124 H 105.537 -1.73694 0.770081 0
M  V30 1125 H 103.687 -3.84823 -0.533224 0
M  V30 1126 H 105.359 -4.12668 2.06162 0
M  V30 1127 H 103.602 -3.84916 2.00056 0
M  V30 1128 H 104.273 -5.35069 1.35665 0
M  V30 1129 H 106.749 -4.15805 -0.156776 0
M  V30 1130 H 105.625 -5.45038 -0.649942 0
M  V30 1131 H 105.886 -4.07598 -1.71219 0
M  V30 1132 N 104.945 -0.338344 -1.53925 0
M  V30 1133 C 106.191 0.260143 -2.01125 0
M  V30 1134 C 106.524 1.50617 -1.22589 0
M  V30 1135 O 105.799 1.91979 -0.312113 0
M  V30 1136 C 106.082 0.579499 -3.55407 0
M  V30 1137 C 105.935 -0.678264 -4.44657 0
M  V30 1138 C 107.254 1.39122 -4.17532 0
M  V30 1139 H 104.373 0.0930772 -0.731099 0
M  V30 1140 H 107.015 -0.457852 -1.84401 0
M  V30 1141 H 105.165 1.19118 -3.69788 0
M  V30 1142 H 106.837 -1.31631 -4.42121 0
M  V30 1143 H 105.08 -1.3042 -4.13731 0
M  V30 1144 H 105.751 -0.410143 -5.50474 0
M  V30 1145 H 108.227 0.874035 -4.06817 0
M  V30 1146 H 107.103 1.58342 -5.25565 0
M  V30 1147 H 107.364 2.39178 -3.71815 0
M  V30 1148 N 106.423 1.57458 -0.0668435 0
M  V30 1149 C 107.671 1.92919 0.602214 0
M  V30 1150 C 107.992 0.947215 1.70449 0
M  V30 1151 O 107.262 -0.00544117 1.95899 0
M  V30 1152 H 105.842 0.71217 0.22544 0
M  V30 1153 H 108.504 1.94508 -0.123535 0
M  V30 1154 H 107.6 2.94589 1.03073 0
M  V30 1155 N 107.901 -0.206675 1.56239 0
M  V30 1156 C 109.148 -0.928842 1.79941 0
M  V30 1157 C 109.476 -1.83734 0.638131 0
M  V30 1158 O 108.731 -1.92039 -0.376746 0
M  V30 1159 C 109.03 -1.78675 3.09532 0
M  V30 1160 C 108.696 -1.03022 4.38973 0
M  V30 1161 C 107.358 -0.821302 4.74139 0
M  V30 1162 C 109.71 -0.497081 5.18824 0
M  V30 1163 C 107.038 -0.0675719 5.86661 0
M  V30 1164 C 109.39 0.24338 6.32132 0
M  V30 1165 C 108.054 0.463422 6.65889 0
M  V30 1166 H 107.324 -0.339887 0.658451 0
M  V30 1167 H 109.971 -0.195977 1.90495 0
M  V30 1168 H 108.276 -2.58794 2.94165 0
M  V30 1169 H 109.973 -2.34792 3.25075 0
M  V30 1170 H 106.563 -1.20306 4.11369 0
M  V30 1171 H 110.747 -0.645921 4.92079 0
M  V30 1172 H 106.003 0.112995 6.11296 0
M  V30 1173 H 110.177 0.66393 6.93228 0
M  V30 1174 H 107.804 1.04938 7.52922 0
M  V30 1175 N 109.379 -1.50304 -0.473955 0
M  V30 1176 C 110.604 -1.65175 -1.25427 0
M  V30 1177 C 111.029 -0.333673 -1.85117 0
M  V30 1178 O 110.387 0.702114 -1.67153 0
M  V30 1179 C 110.435 -2.74295 -2.34082 0
M  V30 1180 O 109.539 -2.35349 -3.38651 0
M  V30 1181 H 108.88 -0.551944 -0.369126 0
M  V30 1182 H 111.41 -1.96662 -0.564364 0
M  V30 1183 H 111.42 -2.97285 -2.79438 0
M  V30 1184 H 110.095 -3.69959 -1.90008 0
M  V30 1185 H 108.672 -2.22794 -2.99027 0
M  V30 1186 N 110.857 0.726932 -1.39834 0
M  V30 1187 C 112.134 1.47902 -1.28001 0
M  V30 1188 C 112.514 2.1083 0.106789 0
M  V30 1189 O 111.862 1.99242 1.11869 0
M  V30 1190 C 112.072 2.52392 -2.41038 0
M  V30 1191 C 113.42 3.18546 -2.80737 0
M  V30 1192 O 114.444 2.62708 -2.40547 0
M  V30 1193 O 113.303 4.19604 -3.50135 0
M  V30 1194 H 110.397 0.657163 -0.502062 0
M  V30 1195 H 112.943 0.760071 -1.51727 0
M  V30 1196 H 111.715 2.04329 -3.33715 0
M  V30 1197 H 111.338 3.31837 -2.19021 0
M  V30 1198 N 112.336 1.25143 0.95797 0
M  V30 1199 C 113.561 1.12521 1.74223 0
M  V30 1200 C 113.986 -0.317402 1.85403 0
M  V30 1201 O 113.344 -1.2299 1.33204 0
M  V30 1202 C 113.392 1.78062 3.1357 0
M  V30 1203 O 112.496 1.058 3.98598 0
M  V30 1204 H 111.837 0.39304 0.535178 0
M  V30 1205 H 114.367 1.65641 1.201 0
M  V30 1206 H 114.377 1.84213 3.64046 0
M  V30 1207 H 113.052 2.83021 3.04749 0
M  V30 1208 H 111.629 1.07506 3.57067 0
M  V30 1209 N 113.814 -1.1601 1.06675 0
M  V30 1210 C 114.777 -2.18724 0.685001 0
M  V30 1211 C 115.777 -1.58496 -0.271246 0
M  V30 1212 O 116.967 -1.74119 -0.0531156 0
M  V30 1213 C 114.099 -3.40899 0.00853648 0
M  V30 1214 H 115.292 -2.54011 1.59431 0
M  V30 1215 H 112.845 -1.30352 0.862441 0
M  V30 1216 H 113.58 -3.11173 -0.913337 0
M  V30 1217 H 113.365 -3.8587 0.696204 0
M  V30 1218 H 114.855 -4.16886 -0.24414 0
M  V30 1219 N 115.292 -0.849877 -1.32721 0
M  V30 1220 C 116.24 -0.279745 -2.30912 0
M  V30 1221 C 117.234 0.594278 -1.58634 0
M  V30 1222 O 118.44 0.482613 -1.73409 0
M  V30 1223 H 114.815 -0.0717521 -0.748569 0
M  V30 1224 H 116.786 -1.12222 -2.76494 0
M  V30 1225 C 115.535 0.521108 -3.43773 0
M  V30 1226 H 114.858 -0.142141 -3.99547 0
M  V30 1227 H 116.298 0.885693 -4.14646 0
M  V30 1228 C 114.757 1.70442 -2.90605 0
M  V30 1229 O 115.287 2.8034 -2.87702 0
M  V30 1230 N 113.493 1.52991 -2.47067 0
M  V30 1231 H 113.04 0.635914 -2.49628 0
M  V30 1232 H 112.998 2.32311 -2.11847 0
M  V30 1233 N 116.77 1.45427 -0.607355 0
M  V30 1234 C 117.998 2.06614 -0.108814 0
M  V30 1235 C 118.413 1.45204 1.2067 0
M  V30 1236 O 117.77 0.566132 1.73497 0
M  V30 1237 C 117.821 3.61481 0.0375347 0
M  V30 1238 O 117.542 4.20598 -1.22593 0
M  V30 1239 C 119.043 4.39652 0.567561 0
M  V30 1240 H 116.263 0.66747 -0.0687351 0
M  V30 1241 H 118.807 1.86675 -0.835022 0
M  V30 1242 H 116.962 3.80762 0.714068 0
M  V30 1243 H 117.376 5.1377 -1.05547 0
M  V30 1244 H 118.85 5.48518 0.61905 0
M  V30 1245 H 119.327 4.09417 1.58978 0
M  V30 1246 H 119.933 4.25234 -0.0749202 0
M  V30 1247 N 118.248 0.346503 1.53744 0
M  V30 1248 C 119.473 -0.253074 2.0585 0
M  V30 1249 C 119.898 -1.43202 1.21962 0
M  V30 1250 O 119.256 -1.79783 0.234073 0
M  V30 1251 C 119.304 -0.643193 3.54817 0
M  V30 1252 O 118.408 -1.74286 3.73762 0
M  V30 1253 H 117.749 -0.0413583 0.662711 0
M  V30 1254 H 120.279 0.501574 1.98357 0
M  V30 1255 H 120.289 -0.919526 3.97503 0
M  V30 1256 H 118.964 0.218966 4.15323 0
M  V30 1257 H 117.541 -1.46356 3.42979 0
M  V30 1258 N 119.726 -1.57421 0.075193 0
M  V30 1259 C 120.656 -2.15942 -0.888324 0
M  V30 1260 C 121.637 -1.08737 -1.30806 0
M  V30 1261 O 122.822 -1.36787 -1.37851 0
M  V30 1262 C 119.952 -2.72379 -2.1547 0
M  V30 1263 C 118.906 -3.8478 -1.87425 0
M  V30 1264 C 118.232 -4.27834 -3.20721 0
M  V30 1265 C 119.532 -5.08869 -1.17684 0
M  V30 1266 H 121.226 -2.96705 -0.400799 0
M  V30 1267 H 118.772 -1.42723 -0.191342 0
M  V30 1268 H 120.725 -3.11965 -2.83295 0
M  V30 1269 H 119.449 -1.88841 -2.6647 0
M  V30 1270 H 118.108 -3.45703 -1.22004 0
M  V30 1271 H 117.756 -3.41214 -3.6957 0
M  V30 1272 H 117.456 -5.03605 -3.02746 0
M  V30 1273 H 118.98 -4.70039 -3.89738 0
M  V30 1274 H 120.394 -5.4575 -1.75584 0
M  V30 1275 H 118.791 -5.8994 -1.09956 0
M  V30 1276 H 119.861 -4.84648 -0.156453 0
M  V30 1277 N 121.204 0.198386 -1.56346 0
M  V30 1278 C 122.452 0.91747 -1.80075 0
M  V30 1279 C 122.773 1.83929 -0.647692 0
M  V30 1280 O 122.043 1.93029 0.334166 0
M  V30 1281 H 120.623 0.341774 -0.664228 0
M  V30 1282 H 123.285 0.204684 -1.93822 0
M  V30 1283 H 122.381 1.51055 -2.7311 0
M  V30 1284 N 122.682 1.50554 0.465978 0
M  V30 1285 C 123.629 1.6979 1.56333 0
M  V30 1286 C 124.599 0.539239 1.57103 0
M  V30 1287 O 125.784 0.770401 1.74555 0
M  V30 1288 C 122.924 1.80273 2.94271 0
M  V30 1289 C 122.037 3.07674 3.0325 0
M  V30 1290 C 121.172 3.08922 4.32135 0
M  V30 1291 C 120.211 4.30755 4.34875 0
M  V30 1292 N 119.348 4.29714 5.55239 0
M  V30 1293 H 124.188 2.63472 1.39235 0
M  V30 1294 H 121.725 1.30602 0.676873 0
M  V30 1295 H 123.683 1.84332 3.74269 0
M  V30 1296 H 122.313 0.900258 3.09992 0
M  V30 1297 H 121.365 3.13062 2.16094 0
M  V30 1298 H 122.677 3.97642 3.01135 0
M  V30 1299 H 121.831 3.11738 5.20485 0
M  V30 1300 H 120.57 2.16792 4.36866 0
M  V30 1301 H 119.575 4.28146 3.44922 0
M  V30 1302 H 120.8 5.24117 4.31831 0
M  V30 1303 H 118.746 3.4044 5.60746 0
M  V30 1304 H 118.663 5.13456 5.54886 0
M  V30 1305 H 119.931 4.36683 6.457 0
M  V30 1306 N 124.16 -0.719506 1.40217 0
M  V30 1307 C 125.107 -1.83359 1.40172 0
M  V30 1308 C 126.077 -1.64065 0.259206 0
M  V30 1309 O 127.262 -1.85254 0.456677 0
M  V30 1310 C 124.402 -3.2103 1.26624 0
M  V30 1311 C 123.515 -3.51923 2.50548 0
M  V30 1312 C 122.65 -4.79079 2.29471 0
M  V30 1313 C 121.689 -5.02863 3.48992 0
M  V30 1314 N 120.826 -6.2123 3.27135 0
M  V30 1315 H 125.666 -1.82733 2.35399 0
M  V30 1316 H 123.203 -0.892688 1.16917 0
M  V30 1317 H 125.161 -4.00524 1.16776 0
M  V30 1318 H 123.791 -3.20895 0.350176 0
M  V30 1319 H 122.843 -2.67014 2.70939 0
M  V30 1320 H 124.155 -3.6541 3.39525 0
M  V30 1321 H 123.309 -5.66582 2.16955 0
M  V30 1322 H 122.048 -4.67794 1.37913 0
M  V30 1323 H 121.053 -4.13816 3.6199 0
M  V30 1324 H 122.278 -5.16023 4.41472 0
M  V30 1325 H 120.224 -6.11204 2.38256 0
M  V30 1326 H 120.141 -6.35375 4.09675 0
M  V30 1327 H 121.409 -7.11532 3.18344 0
M  V30 1328 N 125.638 -1.25649 -0.95132 0
M  V30 1329 C 126.886 -1.10375 -1.69298 0
M  V30 1330 C 127.207 0.355339 -1.91735 0
M  V30 1331 O 126.477 1.25188 -1.50681 0
M  V30 1332 H 125.057 -0.405461 -0.627384 0
M  V30 1333 H 127.719 -1.57823 -1.14358 0
M  V30 1334 H 126.815 -1.61465 -2.67087 0
M  V30 1335 N 127.117 1.15442 -1.07289 0
M  V30 1336 C 128.027 2.23786 -0.704057 0
M  V30 1337 C 129.043 1.7166 0.284413 0
M  V30 1338 O 130.219 2.00972 0.131205 0
M  V30 1339 C 127.284 3.46535 -0.106792 0
M  V30 1340 C 126.345 4.13654 -1.14842 0
M  V30 1341 C 125.578 5.30544 -0.57956 0
M  V30 1342 O 125.801 5.67187 0.604585 0
M  V30 1343 O 124.735 5.87154 -1.32414 0
M  V30 1344 H 128.561 2.57664 -1.60757 0
M  V30 1345 H 126.146 1.23152 -0.845803 0
M  V30 1346 H 128.028 4.20804 0.224048 0
M  V30 1347 H 126.703 3.14407 0.770049 0
M  V30 1348 H 125.61 3.4131 -1.5316 0
M  V30 1349 H 126.943 4.49861 -1.99714 0
M  V30 1350 N 128.595 0.856903 1.32268 0
M  V30 1351 C 129.823 0.475439 2.01363 0
M  V30 1352 C 130.238 -0.928486 1.64392 0
M  V30 1353 O 129.595 -1.60624 0.866387 0
M  V30 1354 C 129.646 0.607545 3.56358 0
M  V30 1355 O 129.367 1.95617 3.92002 0
M  V30 1356 C 130.868 0.225382 4.42727 0
M  V30 1357 H 128.088 0.186636 0.644521 0
M  V30 1358 H 130.632 1.15446 1.68797 0
M  V30 1359 H 128.787 -0.0237719 3.87393 0
M  V30 1360 H 129.201 1.95455 4.86721 0
M  V30 1361 H 130.675 0.368813 5.50767 0
M  V30 1362 H 131.152 -0.834369 4.31202 0
M  V30 1363 H 131.758 0.831864 4.17085 0
M  V30 1364 N 130.073 -1.45103 0.615059 0
M  V30 1365 C 131.003 -2.33339 -0.0865619 0
M  V30 1366 C 131.984 -1.4727 -0.851209 0
M  V30 1367 O 133.169 -1.76026 -0.820281 0
M  V30 1368 C 130.299 -3.30095 -1.07956 0
M  V30 1369 C 129.253 -4.25858 -0.427628 0
M  V30 1370 C 128.579 -5.12361 -1.5294 0
M  V30 1371 C 129.879 -5.18165 0.655944 0
M  V30 1372 H 131.573 -2.92254 0.650224 0
M  V30 1373 H 129.119 -1.40532 0.314138 0
M  V30 1374 H 131.072 -3.90698 -1.57901 0
M  V30 1375 H 129.796 -2.69355 -1.84703 0
M  V30 1376 H 128.455 -3.66564 0.0510292 0
M  V30 1377 H 128.103 -4.47984 -2.28734 0
M  V30 1378 H 127.803 -5.77238 -1.09865 0
M  V30 1379 H 129.327 -5.75833 -2.03098 0
M  V30 1380 H 130.741 -5.72796 0.240257 0
M  V30 1381 H 129.138 -5.91559 1.00888 0
M  V30 1382 H 130.208 -4.60144 1.52957 0
M  V30 1383 N 131.551 -0.354651 -1.53558 0
M  V30 1384 C 132.514 0.484566 -2.24019 0
M  V30 1385 C 133.514 1.01861 -1.24422 0
M  V30 1386 O 134.704 0.906097 -1.4878 0
M  V30 1387 C 131.836 1.67615 -2.96847 0
M  V30 1388 H 133.029 -0.131843 -2.9961 0
M  V30 1389 H 130.582 -0.106165 -1.55939 0
M  V30 1390 H 131.317 2.33095 -2.25471 0
M  V30 1391 H 131.102 1.30029 -3.69912 0
M  V30 1392 H 132.592 2.27114 -3.50441 0
M  V30 1393 N 133.029 1.57378 -0.0835403 0
M  V30 1394 C 134.306 1.85363 0.624507 0
M  V30 1395 C 134.686 0.978239 1.87066 0
M  V30 1396 O 134.034 0.0475908 2.2845 0
M  V30 1397 C 134.244 3.35795 0.950947 0
M  V30 1398 C 135.592 4.03581 1.31939 0
M  V30 1399 O 136.616 3.40609 1.04232 0
M  V30 1400 O 135.475 5.14672 1.83779 0
M  V30 1401 H 132.569 0.766162 0.311329 0
M  V30 1402 H 135.115 1.69307 -0.115362 0
M  V30 1403 H 133.887 3.91244 0.0663899 0
M  V30 1404 H 133.51 3.57154 1.74719 0
M  V30 1405 N 134.507 -0.190092 1.56449 0
M  V30 1406 C 135.735 -0.925772 1.85033 0
M  V30 1407 C 136.15 -1.76638 0.666658 0
M  V30 1408 O 135.507 -1.78822 -0.364565 0
M  V30 1409 C 135.558 -1.81786 3.12468 0
M  V30 1410 O 135.279 -1.01118 4.26271 0
M  V30 1411 C 136.78 -2.6648 3.54265 0
M  V30 1412 H 134 -0.269872 0.614337 0
M  V30 1413 H 136.544 -0.195837 2.0356 0
M  V30 1414 H 134.699 -2.50136 2.95822 0
M  V30 1415 H 135.113 -1.61956 4.98869 0
M  V30 1416 H 136.587 -3.24722 4.46385 0
M  V30 1417 H 137.064 -3.40434 2.77491 0
M  V30 1418 H 137.67 -2.03493 3.73458 0
M  V30 1419 N 135.985 -1.50799 -0.457987 0
M  V30 1420 C 137.234 -1.6168 -1.20593 0
M  V30 1421 C 137.547 -0.32888 -1.92815 0
M  V30 1422 O 138.753 -0.316773 -2.69646 0
M  V30 1423 C 137.209 -2.8545 -2.19195 0
M  V30 1424 C 136.817 -4.21168 -1.52715 0
M  V30 1425 C 138.561 -3.05681 -2.94549 0
M  V30 1426 C 136.468 -5.3611 -2.4968 0
M  V30 1427 H 135.398 -0.602134 -0.453818 0
M  V30 1428 H 138.049 -1.77245 -0.475031 0
M  V30 1429 H 136.431 -2.63472 -2.95632 0
M  V30 1430 H 137.605 -4.53449 -0.819775 0
M  V30 1431 H 135.92 -4.06648 -0.895922 0
M  V30 1432 H 138.517 -3.88727 -3.67145 0
M  V30 1433 H 138.86 -2.17929 -3.54701 0
M  V30 1434 H 139.393 -3.27901 -2.25223 0
M  V30 1435 H 136.132 -6.26057 -1.94249 0
M  V30 1436 H 135.652 -5.0823 -3.18532 0
M  V30 1437 H 137.331 -5.6722 -3.11241 0
M  V30 1438 N 137.463 0.71206 -1.40597 0
M  V30 1439 C 138.688 1.50617 -1.42581 0
M  V30 1440 C 139.113 1.88079 -0.0282102 0
M  V30 1441 O 138.471 1.53511 0.964579 0
M  V30 1442 C 138.519 2.7557 -2.3258 0
M  V30 1443 O 137.623 3.72414 -1.77148 0
M  V30 1444 H 136.964 0.453966 -0.484573 0
M  V30 1445 H 139.494 0.876649 -1.84868 0
M  V30 1446 H 139.504 3.2406 -2.47889 0
M  V30 1447 H 138.179 2.47639 -3.34138 0
M  V30 1448 H 136.756 3.31276 -1.71204 0
M  V30 1449 N 138.941 1.26152 0.944643 0
M  V30 1450 C 140.187 1.11657 1.69294 0
M  V30 1451 C 140.52 -0.339926 1.91202 0
M  V30 1452 O 139.795 -1.24994 1.49019 0
M  V30 1453 C 140.078 1.88236 3.06984 0
M  V30 1454 C 139.931 3.41772 2.92424 0
M  V30 1455 C 141.25 1.67343 4.07043 0
M  V30 1456 H 138.369 0.407004 0.614424 0
M  V30 1457 H 141.011 1.55106 1.09737 0
M  V30 1458 H 139.161 1.51308 3.57824 0
M  V30 1459 H 140.833 3.88433 2.48832 0
M  V30 1460 H 139.076 3.68974 2.28124 0
M  V30 1461 H 139.747 3.90579 3.90067 0
M  V30 1462 H 142.223 1.99509 3.65151 0
M  V30 1463 H 141.099 2.23346 5.01406 0
M  V30 1464 H 141.36 0.617158 4.37771 0
M  V30 1465 N 140.419 -1.14872 1.07899 0
M  V30 1466 C 141.668 -1.85135 0.800499 0
M  V30 1467 C 141.981 -1.83547 -0.676014 0
M  V30 1468 O 143.187 -2.49548 -1.06948 0
M  V30 1469 C 141.643 -3.3231 1.38197 0
M  V30 1470 C 141.251 -3.42329 2.8899 0
M  V30 1471 C 142.995 -4.0772 1.18174 0
M  V30 1472 C 140.902 -4.83684 3.403 0
M  V30 1473 H 139.832 -0.693563 0.29578 0
M  V30 1474 H 142.483 -1.29532 1.29976 0
M  V30 1475 H 140.865 -3.87618 0.810431 0
M  V30 1476 H 142.039 -2.97097 3.52236 0
M  V30 1477 H 140.354 -2.80369 3.07867 0
M  V30 1478 H 142.951 -5.12049 1.5398 0
M  V30 1479 H 143.294 -4.16124 0.12117 0
M  V30 1480 H 143.827 -3.58696 1.71994 0
M  V30 1481 H 140.566 -4.80465 4.45907 0
M  V30 1482 H 140.086 -5.29474 2.81811 0
M  V30 1483 H 141.765 -5.52558 3.36584 0
M  V30 1484 N 141.898 -0.863906 -1.31812 0
M  V30 1485 C 143.123 -0.48527 -2.01643 0
M  V30 1486 C 143.548 0.913058 -1.64453 0
M  V30 1487 O 142.906 1.6014 -0.849985 0
M  V30 1488 C 142.954 -0.642625 -3.54828 0
M  V30 1489 O 142.058 0.320659 -4.11151 0
M  V30 1490 H 141.399 -0.193793 -0.635091 0
M  V30 1491 H 143.929 -1.16565 -1.68148 0
M  V30 1492 H 143.939 -0.533628 -4.04495 0
M  V30 1493 H 142.614 -1.66227 -3.81237 0
M  V30 1494 H 141.191 0.167126 -3.72525 0
M  V30 1495 N 143.376 1.44774 -0.622745 0
M  V30 1496 C 144.604 2.06487 -0.130722 0
M  V30 1497 C 145.019 1.46476 1.19123 0
M  V30 1498 O 144.376 0.584502 1.72887 0
M  V30 1499 C 144.427 3.615 -0.000807207 0
M  V30 1500 O 144.148 4.19274 -1.27048 0
M  V30 1501 C 145.649 4.40229 0.520898 0
M  V30 1502 H 142.869 0.666704 -0.0758106 0
M  V30 1503 H 145.413 1.85779 -0.854774 0
M  V30 1504 H 143.568 3.81498 0.673643 0
M  V30 1505 H 143.982 5.12622 -1.1099 0
M  V30 1506 H 145.456 5.49144 0.560838 0
M  V30 1507 H 145.933 4.1108 1.54627 0
M  V30 1508 H 146.539 4.25131 -0.120018 0
M  V30 1509 N 144.854 0.36279 1.53368 0
M  V30 1510 C 146.084 -0.228281 2.05335 0
M  V30 1511 C 146.492 -1.43226 1.23625 0
M  V30 1512 O 145.835 -1.81717 0.269206 0
M  V30 1513 C 145.897 -0.688549 3.52845 0
M  V30 1514 C 145.561 0.398362 4.5526 0
M  V30 1515 C 146.558 1.24732 5.04716 0
M  V30 1516 C 144.243 0.557805 4.99193 0
M  V30 1517 C 146.237 2.2411 5.96702 0
M  V30 1518 C 143.924 1.55495 5.90986 0
M  V30 1519 C 144.922 2.39503 6.39631 0
M  V30 1520 O 144.61 3.37517 7.29615 0
M  V30 1521 H 144.342 -0.044395 0.674541 0
M  V30 1522 H 146.896 0.518668 1.98744 0
M  V30 1523 H 145.126 -1.48706 3.56964 0
M  V30 1524 H 146.815 -1.20231 3.87685 0
M  V30 1525 H 147.581 1.13532 4.71525 0
M  V30 1526 H 143.46 -0.0862959 4.60919 0
M  V30 1527 H 147.004 2.89718 6.34594 0
M  V30 1528 H 142.901 1.66744 6.23592 0
M  V30 1529 H 143.669 3.33213 7.47604 0
M  V30 1530 N 146.332 -1.57332 0.0918853 0
M  V30 1531 C 147.578 -1.94524 -0.573425 0
M  V30 1532 C 147.911 -0.973578 -1.68033 0
M  V30 1533 O 147.186 -0.00609226 -1.94499 0
M  V30 1534 C 147.469 -3.41858 -1.13161 0
M  V30 1535 C 147.322 -4.4979 -0.0299747 0
M  V30 1536 C 148.641 -3.90435 -2.03098 0
M  V30 1537 H 145.76 -0.70734 -0.206975 0
M  V30 1538 H 148.402 -1.89309 0.161942 0
M  V30 1539 H 146.552 -3.46433 -1.7583 0
M  V30 1540 H 148.224 -4.57327 0.604112 0
M  V30 1541 H 146.467 -4.291 0.636833 0
M  V30 1542 H 147.138 -5.50069 -0.461287 0
M  V30 1543 H 149.614 -3.87992 -1.50338 0
M  V30 1544 H 148.49 -4.94097 -2.39081 0
M  V30 1545 H 148.751 -3.29541 -2.94712 0
M  V30 1546 N 147.81 0.181792 -1.56548 0
M  V30 1547 C 149.087 0.926765 -1.72251 0
M  V30 1548 C 149.467 2.00831 -0.650386 0
M  V30 1549 O 148.815 2.26008 0.336521 0
M  V30 1550 C 149.025 1.50106 -3.1507 0
M  V30 1551 C 150.373 1.97805 -3.75711 0
M  V30 1552 O 151.397 1.59922 -3.18282 0
M  V30 1553 O 150.256 2.67555 -4.76525 0
M  V30 1554 H 147.35 0.435506 -0.703039 0
M  V30 1555 H 149.896 0.170443 -1.68842 0
M  V30 1556 H 148.668 0.72212 -3.84579 0
M  V30 1557 H 148.291 2.32186 -3.22763 0
M  V30 1558 N 149.288 1.51039 0.449983 0
M  V30 1559 C 150.251 1.70863 1.5277 0
M  V30 1560 C 151.251 0.578846 1.5002 0
M  V30 1561 O 152.441 0.846213 1.52266 0
M  V30 1562 C 149.573 1.75341 2.9235 0
M  V30 1563 H 150.766 2.67034 1.36502 0
M  V30 1564 H 148.319 1.40838 0.677812 0
M  V30 1565 H 149.054 0.809383 3.14037 0
M  V30 1566 H 148.839 2.57436 2.95752 0
M  V30 1567 H 150.329 1.92559 3.70555 0
M  V30 1568 N 150.766 -0.704594 1.40972 0
M  V30 1569 C 152.015 -1.46018 1.39146 0
M  V30 1570 C 152.328 -1.956 0.000589254 0
M  V30 1571 O 153.534 -2.71137 -0.1403 0
M  V30 1572 C 151.99 -2.63996 2.4461 0
M  V30 1573 C 151.598 -2.21238 3.89561 0
M  V30 1574 C 153.342 -3.41677 2.51907 0
M  V30 1575 C 151.249 -3.3612 4.86598 0
M  V30 1576 H 150.179 -0.548444 0.517422 0
M  V30 1577 H 152.83 -0.765784 1.66757 0
M  V30 1578 H 151.212 -3.3566 2.10115 0
M  V30 1579 H 152.386 -1.56923 4.33257 0
M  V30 1580 H 150.701 -1.56574 3.85841 0
M  V30 1581 H 153.298 -4.27182 3.2159 0
M  V30 1582 H 153.641 -3.86247 1.55303 0
M  V30 1583 H 154.174 -2.77064 2.85448 0
M  V30 1584 H 150.913 -2.96572 5.84573 0
M  V30 1585 H 150.433 -3.99315 4.47557 0
M  V30 1586 H 152.112 -4.02029 5.06934 0
M  V30 1587 N 152.244 -1.26651 -0.937939 0
M  V30 1588 C 153.49 -1.12553 -1.687 0
M  V30 1589 C 153.823 0.329782 -1.91379 0
M  V30 1590 O 153.098 1.24202 -1.4968 0
M  V30 1591 C 153.381 -1.89862 -3.05981 0
M  V30 1592 C 153.234 -3.43318 -2.90607 0
M  V30 1593 C 154.553 -1.69499 -4.0615 0
M  V30 1594 H 151.672 -0.410257 -0.612257 0
M  V30 1595 H 154.314 -1.55685 -1.08913 0
M  V30 1596 H 152.464 -1.53204 -3.57017 0
M  V30 1597 H 154.136 -3.89747 -2.46769 0
M  V30 1598 H 152.379 -3.70179 -2.26164 0
M  V30 1599 H 153.05 -3.92642 -3.8799 0
M  V30 1600 H 155.526 -2.01442 -3.64088 0
M  V30 1601 H 154.402 -2.26002 -5.00214 0
M  V30 1602 H 154.663 -0.640365 -4.37438 0
M  V30 1603 N 153.722 1.14298 -1.08507 0
M  V30 1604 C 154.655 2.18447 -0.660004 0
M  V30 1605 C 155.633 1.59242 0.328749 0
M  V30 1606 O 156.817 1.87062 0.232367 0
M  V30 1607 C 153.944 3.38688 0.0290807 0
M  V30 1608 C 152.99 4.1646 -0.919982 0
M  V30 1609 S 153.823 4.77334 -2.42718 0
M  V30 1610 C 154.979 6.00931 -1.75024 0
M  V30 1611 H 155.212 2.54166 -1.54231 0
M  V30 1612 H 152.745 1.25446 -0.900149 0
M  V30 1613 H 154.703 4.08342 0.420378 0
M  V30 1614 H 153.364 3.01289 0.887895 0
M  V30 1615 H 152.557 5.02529 -0.384751 0
M  V30 1616 H 152.159 3.52414 -1.25223 0
M  V30 1617 H 154.451 6.69017 -1.06877 0
M  V30 1618 H 155.394 6.59044 -2.58971 0
M  V30 1619 H 155.802 5.51089 -1.22317 0
M  V30 1620 N 155.201 0.870884 1.31352 0
M  V30 1621 C 156.617 0.562932 1.49343 0
M  V30 1622 C 156.817 -0.902725 1.80148 0
M  V30 1623 O 155.873 -1.68484 1.88067 0
M  V30 1624 C 157.186 1.46393 2.62659 0
M  V30 1625 C 158.734 1.46607 2.76542 0
M  V30 1626 C 159.209 2.35266 3.92955 0
M  V30 1627 N 160.7 2.33151 4.00243 0
M  V30 1628 C 161.435 2.98471 4.89594 0
M  V30 1629 N 160.931 3.72964 5.8384 0
M  V30 1630 N 162.724 2.87775 4.82848 0
M  V30 1631 H 154.875 1.81923 1.09626 0
M  V30 1632 H 157.138 0.777934 0.541777 0
M  V30 1633 H 156.844 2.50689 2.46674 0
M  V30 1634 H 156.718 1.16314 3.58819 0
M  V30 1635 H 159.105 0.43069 2.9194 0
M  V30 1636 H 159.186 1.8071 1.81046 0
M  V30 1637 H 158.83 3.38881 3.78315 0
M  V30 1638 H 158.76 1.98487 4.87761 0
M  V30 1639 H 161.251 1.79006 3.32814 0
M  V30 1640 H 161.564 4.19932 6.4875 0
M  V30 1641 H 159.909 3.77073 5.83816 0
M  V30 1642 H 163.1 2.29116 4.08195 0
M  V30 1643 H 163.273 3.38961 5.52277 0
M  V30 1644 N 156.679 -1.44442 0.630414 0
M  V30 1645 C 157.629 -2.27794 -0.0968103 0
M  V30 1646 C 158.613 -1.38624 -0.816834 0
M  V30 1647 O 159.805 -1.62438 -0.70306 0
M  V30 1648 C 156.934 -3.25929 -1.07819 0
M  V30 1649 C 156.02 -4.22588 -0.357826 0
M  V30 1650 N 156.411 -5.0207 0.613169 0
M  V30 1651 C 154.709 -4.41914 -0.602365 0
M  V30 1652 C 155.41 -5.72351 1.03871 0
M  V30 1653 N 154.386 -5.42287 0.377642 0
M  V30 1654 H 158.188 -2.86653 0.648621 0
M  V30 1655 H 155.702 -1.55871 0.455862 0
M  V30 1656 H 157.699 -3.84399 -1.61378 0
M  V30 1657 H 156.359 -2.68631 -1.82393 0
M  V30 1658 H 157.37 -5.08331 0.990947 0
M  V30 1659 H 154.047 -3.95714 -1.33103 0
M  V30 1660 H 155.437 -6.4619 1.84086 0
M  V30 1661 N 158.157 -0.370918 -1.53173 0
M  V30 1662 C 159.568 0.107139 -1.86392 0
M  V30 1663 C 159.919 1.47714 -1.29132 0
M  V30 1664 O 159.044 2.07464 -0.615439 0
M  V30 1665 C 159.639 0.201187 -3.38202 0
M  V30 1666 C 158.198 0.623507 -3.712 0
M  V30 1667 C 157.345 -0.225978 -2.76378 0
M  V30 1668 H 160.296 -0.58951 -1.47345 0
M  V30 1669 H 160.317 1.02377 -3.66468 0
M  V30 1670 H 159.829 -0.796058 -3.79848 0
M  V30 1671 H 157.93 1.62879 -3.35114 0
M  V30 1672 H 158.043 0.394414 -4.77474 0
M  V30 1673 H 156.407 0.305962 -2.52856 0
M  V30 1674 H 157.19 -1.22086 -3.20858 0
M  V30 1675 N 159.635 1.57281 -0.100228 0
M  V30 1676 C 160.567 2.11342 0.886972 0
M  V30 1677 C 161.58 1.05182 1.24261 0
M  V30 1678 O 162.769 1.32613 1.19483 0
M  V30 1679 C 159.869 2.5825 2.19454 0
M  V30 1680 C 159.042 3.88302 2.01346 0
M  V30 1681 C 158.101 4.21004 3.15661 0
M  V30 1682 O 157.127 4.9014 2.89398 0
M  V30 1683 N 158.329 3.76818 4.41575 0
M  V30 1684 H 161.094 2.96668 0.425216 0
M  V30 1685 H 158.655 1.61678 0.0847334 0
M  V30 1686 H 160.647 2.7717 2.94888 0
M  V30 1687 H 159.217 1.77907 2.57037 0
M  V30 1688 H 158.437 3.7848 1.10212 0
M  V30 1689 H 159.725 4.73375 1.8653 0
M  V30 1690 H 159.123 3.2102 4.65792 0
M  V30 1691 H 157.68 4.00882 5.13942 0
M  V30 1692 N 161.113 -0.173488 1.56642 0
M  V30 1693 C 162.023 -1.23482 1.99473 0
M  V30 1694 C 163.039 -1.48567 0.905752 0
M  V30 1695 O 164.215 -1.60758 1.21321 0
M  V30 1696 C 161.28 -2.55444 2.34413 0
M  V30 1697 C 160.341 -2.38241 3.57127 0
M  V30 1698 C 159.574 -3.63909 3.90392 0
M  V30 1699 O 159.797 -4.68996 3.24653 0
M  V30 1700 O 158.731 -3.58149 4.83749 0
M  V30 1701 H 162.557 -0.901279 2.90018 0
M  V30 1702 H 160.142 -0.380185 1.44482 0
M  V30 1703 H 162.024 -3.33292 2.57865 0
M  V30 1704 H 160.699 -2.88382 1.4703 0
M  V30 1705 H 159.606 -1.58431 3.38896 0
M  V30 1706 H 160.939 -2.10228 4.45045 0
M  V30 1707 N 162.591 -1.51276 -0.441967 0
M  V30 1708 C 163.839 -1.63392 -1.18943 0
M  V30 1709 C 164.16 -0.350159 -1.9183 0
M  V30 1710 O 163.43 0.633784 -1.85364 0
M  V30 1711 H 162.01 -0.602164 -0.442049 0
M  V30 1712 H 164.672 -1.88186 -0.507165 0
M  V30 1713 H 163.768 -2.45934 -1.92154 0
M  V30 1714 N 164.069 0.697108 -1.41344 0
M  V30 1715 C 165.032 1.79281 -1.42797 0
M  V30 1716 C 166.032 1.57607 -0.318837 0
M  V30 1717 O 167.222 1.64309 -0.578642 0
M  V30 1718 C 164.354 3.17632 -1.23785 0
M  V30 1719 H 165.547 1.79385 -2.40335 0
M  V30 1720 H 163.1 0.904582 -1.27464 0
M  V30 1721 H 163.835 3.23167 -0.270814 0
M  V30 1722 H 163.62 3.34765 -2.04144 0
M  V30 1723 H 165.11 3.97617 -1.27633 0
M  V30 1724 N 165.547 1.27147 0.931209 0
M  V30 1725 C 166.51 1.09615 2.01289 0
M  V30 1726 C 167.51 0.0412581 1.60747 0
M  V30 1727 O 168.7 0.285545 1.71844 0
M  V30 1728 C 165.832 0.669447 3.34262 0
M  V30 1729 H 167.025 2.05662 2.18273 0
M  V30 1730 H 164.578 1.09885 1.11153 0
M  V30 1731 H 165.313 -0.292572 3.22978 0
M  V30 1732 H 165.098 1.43127 3.65044 0
M  V30 1733 H 166.588 0.568921 4.13706 0
M  V30 1734 N 167.025 -1.13721 1.09112 0
M  V30 1735 C 168.441 -1.36914 0.820174 0
M  V30 1736 C 168.641 -1.93356 -0.567079 0
M  V30 1737 O 167.697 -2.15093 -1.32255 0
M  V30 1738 C 169.01 -2.3235 1.90877 0
M  V30 1739 C 170.558 -2.45973 1.93562 0
M  V30 1740 C 171.033 -3.44714 3.01556 0
M  V30 1741 N 172.524 -3.52263 3.00775 0
M  V30 1742 C 173.259 -4.28536 3.80978 0
M  V30 1743 N 172.755 -5.07991 4.71081 0
M  V30 1744 N 174.548 -4.23804 3.69251 0
M  V30 1745 H 166.699 -0.754348 1.98553 0
M  V30 1746 H 168.962 -0.3944 0.862063 0
M  V30 1747 H 168.668 -1.98027 2.90651 0
M  V30 1748 H 168.542 -3.32332 1.78424 0
M  V30 1749 H 170.929 -2.79584 0.944286 0
M  V30 1750 H 171.01 -1.45926 2.10093 0
M  V30 1751 H 170.654 -3.11835 4.00901 0
M  V30 1752 H 170.584 -4.44558 2.82269 0
M  V30 1753 H 173.075 -2.95567 2.35475 0
M  V30 1754 H 173.388 -5.63487 5.28869 0
M  V30 1755 H 171.733 -5.07235 4.75119 0
M  V30 1756 H 174.924 -3.60806 2.98222 0
M  V30 1757 H 175.097 -4.82995 4.31995 0
M  V30 1758 N 168.503 -0.877838 -1.30888 0
M  V30 1759 C 169.433 -0.35534 -2.3078 0
M  V30 1760 C 170.414 0.557994 -1.60687 0
M  V30 1761 O 171.599 0.473355 -1.88343 0
M  V30 1762 C 168.729 0.437221 -3.44537 0
M  V30 1763 C 167.683 -0.383715 -4.26276 0
M  V30 1764 C 167.009 0.535014 -5.32017 0
M  V30 1765 C 168.309 -1.62201 -4.96476 0
M  V30 1766 H 170.003 -1.19007 -2.74732 0
M  V30 1767 H 167.549 -0.573698 -1.32078 0
M  V30 1768 H 169.502 0.813334 -4.13477 0
M  V30 1769 H 168.226 1.30553 -2.99372 0
M  V30 1770 H 166.885 -0.741874 -3.59015 0
M  V30 1771 H 166.533 1.40083 -4.831 0
M  V30 1772 H 166.233 -0.0104211 -5.87599 0
M  V30 1773 H 167.757 0.907799 -6.03814 0
M  V30 1774 H 169.171 -1.31689 -5.5797 0
M  V30 1775 H 167.568 -2.10711 -5.61891 0
M  V30 1776 H 168.638 -2.37044 -4.23011 0
M  V30 1777 N 169.982 1.44106 -0.638065 0
M  V30 1778 C 170.945 2.29138 0.0531013 0
M  V30 1779 C 171.945 1.41409 0.765506 0
M  V30 1780 O 173.135 1.63206 0.609046 0
M  V30 1781 C 170.267 3.23144 1.08584 0
M  V30 1782 H 171.46 2.91739 -0.694883 0
M  V30 1783 H 169.013 1.51134 -0.398538 0
M  V30 1784 H 169.748 2.65408 1.86357 0
M  V30 1785 H 169.533 3.87804 0.578852 0
M  V30 1786 H 171.023 3.87004 1.56899 0
M  V30 1787 N 171.46 0.379036 1.52974 0
M  V30 1788 C 172.688 -0.20679 2.05864 0
M  V30 1789 C 173.103 -1.41356 1.25155 0
M  V30 1790 O 172.46 -1.8009 0.295588 0
M  V30 1791 C 172.511 -0.587045 3.56702 0
M  V30 1792 O 172.232 0.571776 4.34353 0
M  V30 1793 C 173.733 -1.22983 4.25899 0
M  V30 1794 H 170.953 -0.0336123 0.670158 0
M  V30 1795 H 173.497 0.541298 1.97206 0
M  V30 1796 H 171.652 -1.28504 3.65466 0
M  V30 1797 H 172.066 0.261544 5.23847 0
M  V30 1798 H 173.54 -1.44635 5.32715 0
M  V30 1799 H 174.017 -2.19416 3.80465 0
M  V30 1800 H 174.623 -0.572892 4.21424 0
M  V30 1801 N 172.938 -1.57226 0.108567 0
M  V30 1802 C 173.848 -2.18292 -0.859401 0
M  V30 1803 C 174.864 -1.15612 -1.30038 0
M  V30 1804 O 176.04 -1.48039 -1.36552 0
M  V30 1805 C 173.105 -2.762 -2.09558 0
M  V30 1806 C 172.166 -3.93881 -1.70752 0
M  V30 1807 C 171.399 -4.49018 -2.88477 0
M  V30 1808 O 171.622 -4.03068 -4.036 0
M  V30 1809 O 170.556 -5.39852 -2.66164 0
M  V30 1810 H 174.382 -3.01441 -0.369769 0
M  V30 1811 H 171.967 -1.48945 -0.1165 0
M  V30 1812 H 173.849 -3.13156 -2.81978 0
M  V30 1813 H 172.524 -1.96089 -2.57548 0
M  V30 1814 H 171.431 -3.61713 -0.954714 0
M  V30 1815 H 172.764 -4.75396 -1.27513 0
M  V30 1816 N 174.416 0.165178 -1.56732 0
M  V30 1817 C 175.663 0.880807 -1.8234 0
M  V30 1818 C 175.991 1.81977 -0.686621 0
M  V30 1819 O 175.246 1.92971 0.325697 0
M  V30 1820 C 175.545 1.70405 -3.1416 0
M  V30 1821 C 175.211 0.913475 -4.4155 0
M  V30 1822 C 173.873 0.695303 -4.7615 0
M  V30 1823 C 176.225 0.359349 -5.1996 0
M  V30 1824 C 173.553 -0.0879947 -5.86634 0
M  V30 1825 C 175.905 -0.410893 -6.31264 0
M  V30 1826 C 174.569 -0.639808 -6.64427 0
M  V30 1827 H 173.839 0.32231 -0.667231 0
M  V30 1828 H 176.486 0.145402 -1.90947 0
M  V30 1829 H 174.791 2.50903 -3.00923 0
M  V30 1830 H 176.488 2.26091 -3.31186 0
M  V30 1831 H 173.078 1.09357 -4.14414 0
M  V30 1832 H 177.262 0.515228 -4.93618 0
M  V30 1833 H 172.518 -0.27503 -6.10781 0
M  V30 1834 H 176.692 -0.847494 -6.91224 0
M  V30 1835 H 174.319 -1.24864 -7.49875 0
M  V30 1836 N 175.894 1.51508 0.433938 0
M  V30 1837 C 177.119 1.68443 1.21003 0
M  V30 1838 C 177.544 0.382636 1.84167 0
M  V30 1839 O 176.902 -0.65755 1.68956 0
M  V30 1840 C 176.95 2.80405 2.26727 0
M  V30 1841 O 176.054 2.44245 3.32292 0
M  V30 1842 H 175.395 0.561536 0.354363 0
M  V30 1843 H 177.925 1.9809 0.512024 0
M  V30 1844 H 177.935 3.0459 2.71457 0
M  V30 1845 H 176.61 3.74867 1.80132 0
M  V30 1846 H 175.187 2.30644 2.93015 0
M  V30 1847 N 177.372 -0.689602 1.41712 0
M  V30 1848 C 178.62 -1.4468 1.4111 0
M  V30 1849 C 178.941 -1.94986 0.0232196 0
M  V30 1850 O 178.211 -1.72097 -0.935913 0
M  V30 1851 H 176.791 -0.536847 0.519427 0
M  V30 1852 H 179.453 -0.815825 1.77004 0
M  V30 1853 H 178.549 -2.30706 2.10193 0
M  V30 1854 N 178.85 -1.27639 -0.924453 0
M  V30 1855 C 179.798 -1.10485 -2.04685 0
M  V30 1856 C 180.792 -0.0270421 -1.69378 0
M  V30 1857 O 181.998 -0.185008 -1.79047 0
M  V30 1858 H 178.373 -0.340546 -0.670472 0
M  V30 1859 H 180.344 -2.05566 -2.16298 0
M  V30 1860 C 179.093 -0.772229 -3.39016 0
M  V30 1861 H 178.416 -1.59351 -3.66671 0
M  V30 1862 H 179.856 -0.692097 -4.18313 0
M  V30 1863 C 178.315 0.523554 -3.32807 0
M  V30 1864 O 178.845 1.55702 -3.70297 0
M  V30 1865 N 177.051 0.520363 -2.85903 0
M  V30 1866 H 176.598 -0.32107 -2.55591 0
M  V30 1867 H 176.556 1.38742 -2.82131 0
M  V30 1868 N 180.328 1.1314 -1.09713 0
M  V30 1869 C 181.574 1.84757 -0.836224 0
M  V30 1870 C 181.907 1.8347 0.636598 0
M  V30 1871 O 181.182 1.27491 1.46889 0
M  V30 1872 C 181.465 3.32782 -1.37578 0
M  V30 1873 C 181.318 3.42567 -2.91493 0
M  V30 1874 C 182.637 4.28307 -1.01198 0
M  V30 1875 H 179.756 0.67082 -0.305236 0
M  V30 1876 H 182.398 1.3278 -1.35903 0
M  V30 1877 H 180.548 3.77177 -0.931097 0
M  V30 1878 H 182.22 3.06862 -3.44432 0
M  V30 1879 H 180.463 2.83349 -3.28475 0
M  V30 1880 H 181.134 4.46674 -3.24324 0
M  V30 1881 H 183.61 3.91999 -1.39556 0
M  V30 1882 H 182.486 5.30307 -1.41653 0
M  V30 1883 H 182.747 4.42029 0.0794833 0
M  V30 1884 N 181.806 0.884767 1.30421 0
M  V30 1885 C 183.217 0.553656 1.78302 0
M  V30 1886 C 183.568 -0.930153 1.7275 0
M  V30 1887 O 182.693 -1.72681 1.30423 0
M  V30 1888 C 183.288 0.998234 3.2376 0
M  V30 1889 C 181.847 0.71854 3.69478 0
M  V30 1890 C 180.994 1.18132 2.50879 0
M  V30 1891 H 183.945 1.06901 1.17294 0
M  V30 1892 H 183.966 0.327118 3.79091 0
M  V30 1893 H 183.478 2.0782 3.27769 0
M  V30 1894 H 181.579 -0.349444 3.70958 0
M  V30 1895 H 181.692 1.30595 4.60958 0
M  V30 1896 H 180.056 0.600669 2.47516 0
M  V30 1897 H 180.839 2.26902 2.57624 0
M  V30 1898 N 183.284 -1.43765 0.645699 0
M  V30 1899 C 184.53 -2.02197 0.156271 0
M  V30 1900 C 184.863 -1.50776 -1.22393 0
M  V30 1901 O 184.138 -0.697771 -1.81553 0
M  V30 1902 C 184.421 -3.59749 0.158872 0
M  V30 1903 C 184.274 -4.21419 1.57245 0
M  V30 1904 C 185.593 -4.37149 -0.50879 0
M  V30 1905 H 182.712 -0.734694 0.0582602 0
M  V30 1906 H 185.354 -1.71157 0.824951 0
M  V30 1907 H 183.504 -3.86325 -0.410525 0
M  V30 1908 H 185.176 -4.059 2.19186 0
M  V30 1909 H 183.419 -3.78356 2.122 0
M  V30 1910 H 184.09 -5.30482 1.52619 0
M  V30 1911 H 186.566 -4.16093 -0.024412 0
M  V30 1912 H 185.442 -5.4683 -0.476213 0
M  V30 1913 H 185.703 -4.12839 -1.58165 0
M  V30 1914 N 184.763 -0.387143 -1.52771 0
M  V30 1915 C 185.693 0.440551 -2.29306 0
M  V30 1916 C 186.674 1.06535 -1.32606 0
M  V30 1917 O 187.859 1.07853 -1.61497 0
M  V30 1918 C 184.989 1.56919 -3.09829 0
M  V30 1919 C 183.943 1.07054 -4.14395 0
M  V30 1920 C 183.269 2.29109 -4.83129 0
M  V30 1921 C 184.569 0.140015 -5.22112 0
M  V30 1922 H 186.263 -0.198026 -2.98744 0
M  V30 1923 H 183.809 -0.09668 -1.43675 0
M  V30 1924 H 185.762 2.15503 -3.62128 0
M  V30 1925 H 184.486 2.23532 -2.3812 0
M  V30 1926 H 183.145 0.507247 -3.63074 0
M  V30 1927 H 182.793 2.94227 -4.0797 0
M  V30 1928 H 182.493 1.96406 -5.53804 0
M  V30 1929 H 184.017 2.88339 -5.38231 0
M  V30 1930 H 185.431 0.633978 -5.69784 0
M  V30 1931 H 183.828 -0.0971485 -6.00021 0
M  V30 1932 H 184.898 -0.811711 -4.78058 0
M  V30 1933 N 186.241 1.57166 -0.116904 0
M  V30 1934 C 187.189 2.16457 0.851418 0
M  V30 1935 C 188.183 1.11323 1.27686 0
M  V30 1936 O 189.389 1.2963 1.24884 0
M  V30 1937 H 185.764 0.69271 0.292672 0
M  V30 1938 H 187.735 2.96605 0.32685 0
M  V30 1939 C 186.484 2.77689 2.09246 0
M  V30 1940 H 185.807 3.58285 1.77402 0
M  V30 1941 H 187.247 3.22716 2.7501 0
M  V30 1942 C 185.706 1.74667 2.88085 0
M  V30 1943 O 186.236 1.19877 3.83396 0
M  V30 1944 N 184.442 1.44656 2.52038 0
M  V30 1945 H 183.989 1.89402 1.74599 0
M  V30 1946 H 183.947 0.759675 3.05084 0
M  V30 1947 N 187.719 -0.156864 1.56817 0
M  V30 1948 C 188.682 -1.17781 1.96622 0
M  V30 1949 C 189.682 -1.36401 0.851555 0
M  V30 1950 O 190.872 -1.33561 1.11836 0
M  V30 1951 C 188.004 -2.54008 2.27361 0
M  V30 1952 H 189.197 -0.836564 2.87996 0
M  V30 1953 H 186.75 -0.39985 1.51099 0
M  V30 1954 H 187.485 -2.9312 1.38748 0
M  V30 1955 H 187.27 -2.41856 3.08623 0
M  V30 1956 H 188.76 -3.27558 2.59029 0
M  V30 1957 N 189.197 -1.51736 -0.425897 0
M  V30 1958 C 190.445 -1.64644 -1.17204 0
M  V30 1959 C 190.766 -0.370486 -1.91448 0
M  V30 1960 O 190.036 0.614088 -1.86026 0
M  V30 1961 H 188.616 -0.606819 -0.435638 0
M  V30 1962 H 191.278 -1.88713 -0.487177 0
M  V30 1963 H 190.374 -2.47958 -1.89534 0
M  V30 1964 N 190.675 0.682077 -1.42076 0
M  V30 1965 C 191.952 1.43755 -1.32642 0
M  V30 1966 C 192.332 2.11063 0.0396611 0
M  V30 1967 O 191.68 2.02701 1.05474 0
M  V30 1968 C 191.89 2.44596 -2.48946 0
M  V30 1969 C 193.238 3.09454 -2.9073 0
M  V30 1970 O 194.262 2.54922 -2.48783 0
M  V30 1971 O 193.121 4.08253 -3.63307 0
M  V30 1972 H 190.215 0.640857 -0.522715 0
M  V30 1973 H 192.761 0.711415 -1.54068 0
M  V30 1974 H 191.533 1.93609 -3.40046 0
M  V30 1975 H 191.156 3.24701 -2.29467 0
M  V30 1976 N 192.153 1.28127 0.917671 0
M  V30 1977 C 193.401 1.14825 1.66312 0
M  V30 1978 C 193.722 -0.304379 1.9261 0
M  V30 1979 O 192.992 -1.21149 1.53947 0
M  V30 1980 H 191.572 0.421953 0.616413 0
M  V30 1981 H 194.234 1.608 1.10134 0
M  V30 1982 H 193.33 1.68489 2.62712 0
M  V30 1983 N 193.631 -1.12557 1.10312 0
M  V30 1984 C 194.856 -1.88405 0.867085 0
M  V30 1985 C 195.281 -1.79038 -0.576817 0
M  V30 1986 O 194.639 -1.14439 -1.40618 0
M  V30 1987 C 194.687 -3.3563 1.31851 0
M  V30 1988 O 193.791 -4.09565 0.482734 0
M  V30 1989 H 193.132 -0.585455 0.313271 0
M  V30 1990 H 195.662 -1.42352 1.4696 0
M  V30 1991 H 195.672 -3.86469 1.3079 0
M  V30 1992 H 194.347 -3.41765 2.37001 0
M  V30 1993 H 192.924 -3.68695 0.558448 0
M  V30 1994 N 195.109 -0.891671 -1.2995 0
M  V30 1995 C 196.057 -0.353066 -2.29905 0
M  V30 1996 C 197.051 0.543509 -1.60444 0
M  V30 1997 O 198.257 0.4272 -1.74857 0
M  V30 1998 H 194.632 -0.095531 -0.745907 0
M  V30 1999 H 196.603 -1.20961 -2.72784 0
M  V30 2000 C 195.352 0.411475 -3.45257 0
M  V30 2001 H 194.675 -0.269182 -3.98893 0
M  V30 2002 H 196.115 0.753328 -4.17254 0
M  V30 2003 C 194.574 1.6111 -2.9588 0
M  V30 2004 O 195.104 2.71045 -2.96475 0
M  V30 2005 N 193.31 1.45054 -2.51809 0
M  V30 2006 H 192.857 0.556175 -2.51524 0
M  V30 2007 H 192.815 2.25453 -2.1913 0
M  V30 2008 N 196.587 1.43421 -0.653314 0
M  V30 2009 C 197.519 2.29071 0.0769134 0
M  V30 2010 C 198.532 1.42513 0.787017 0
M  V30 2011 O 199.721 1.66449 0.644757 0
M  V30 2012 C 196.821 3.19436 1.13199 0
M  V30 2013 C 195.994 4.34533 0.500006 0
M  V30 2014 C 195.053 5.05771 1.45198 0
M  V30 2015 O 194.079 5.61037 0.960538 0
M  V30 2016 N 195.281 5.0928 2.78594 0
M  V30 2017 H 198.046 2.92382 -0.658235 0
M  V30 2018 H 195.607 1.54112 -0.496104 0
M  V30 2019 H 197.599 3.63958 1.76964 0
M  V30 2020 H 196.169 2.57724 1.7691 0
M  V30 2021 H 195.389 3.92925 -0.316738 0
M  V30 2022 H 196.677 5.08766 0.0588345 0
M  V30 2023 H 196.075 4.65751 3.2108 0
M  V30 2024 H 194.632 5.57519 3.37662 0
M  V30 2025 N 198.065 0.39524 1.52563 0
M  V30 2026 C 199.015 -0.4541 2.23432 0
M  V30 2027 C 199.999 -1.02482 1.24042 0
M  V30 2028 O 201.191 -0.949938 1.49349 0
M  V30 2029 C 198.32 -1.57769 3.049 0
M  V30 2030 C 197.406 -1.01842 4.1169 0
M  V30 2031 N 197.797 -0.184613 5.05463 0
M  V30 2032 C 196.095 -1.29033 4.26927 0
M  V30 2033 C 196.796 0.125013 5.81566 0
M  V30 2034 N 195.772 -0.480498 5.41472 0
M  V30 2035 H 199.574 0.189413 2.93289 0
M  V30 2036 H 197.088 0.204877 1.61102 0
M  V30 2037 H 199.085 -2.19862 3.54212 0
M  V30 2038 H 197.745 -2.22397 2.36579 0
M  V30 2039 H 198.756 0.178602 5.17592 0
M  V30 2040 H 195.433 -1.93721 3.69836 0
M  V30 2041 H 196.823 0.800962 6.67109 0
M  V30 2042 N 199.544 -1.57102 0.125237 0
M  V30 2043 C 200.955 -1.82384 -0.399142 0
M  V30 2044 C 201.306 -1.04276 -1.66195 0
M  V30 2045 O 200.431 -0.281269 -2.14564 0
M  V30 2046 C 201.026 -3.30821 -0.730932 0
M  V30 2047 C 199.585 -3.56762 -1.19992 0
M  V30 2048 C 198.732 -2.7649 -0.211792 0
M  V30 2049 H 201.683 -1.54786 0.350277 0
M  V30 2050 H 201.704 -3.4579 -1.58775 0
M  V30 2051 H 201.216 -3.87643 0.188345 0
M  V30 2052 H 199.317 -3.05305 -2.13588 0
M  V30 2053 H 199.43 -4.65317 -1.14093 0
M  V30 2054 H 197.794 -2.4489 -0.700085 0
M  V30 2055 H 198.577 -3.36073 0.700691 0
M  V30 2056 N 201.022 0.148545 -1.56898 0
M  V30 2057 C 202.25 0.876389 -1.87422 0
M  V30 2058 C 202.665 1.74809 -0.713256 0
M  V30 2059 O 202.022 1.79725 0.317025 0
M  V30 2060 C 202.073 1.73438 -3.17178 0
M  V30 2061 O 201.794 0.897809 -4.28802 0
M  V30 2062 C 203.295 2.56993 -3.61205 0
M  V30 2063 H 200.515 0.253489 -0.621277 0
M  V30 2064 H 203.059 0.141798 -2.04008 0
M  V30 2065 H 201.214 2.42205 -3.0235 0
M  V30 2066 H 201.628 1.48672 -5.02988 0
M  V30 2067 H 203.102 3.12773 -4.54838 0
M  V30 2068 H 203.579 3.32958 -2.86419 0
M  V30 2069 H 204.185 1.9352 -3.78722 0
M  V30 2070 N 202.5 1.5196 0.417844 0
M  V30 2071 C 203.432 1.70895 1.52733 0
M  V30 2072 C 204.445 0.589405 1.51756 0
M  V30 2073 O 205.634 0.864312 1.56179 0
M  V30 2074 C 202.734 1.72627 2.91639 0
M  V30 2075 C 201.907 3.01479 3.16905 0
M  V30 2076 C 200.966 2.95139 4.35637 0
M  V30 2077 O 199.992 3.69059 4.3334 0
M  V30 2078 N 201.194 2.12328 5.40275 0
M  V30 2079 H 203.959 2.66612 1.36888 0
M  V30 2080 H 201.52 1.50089 0.607037 0
M  V30 2081 H 203.512 1.65928 3.6912 0
M  V30 2082 H 202.082 0.844216 3.00985 0
M  V30 2083 H 201.302 3.21895 2.27546 0
M  V30 2084 H 202.59 3.86736 3.30625 0
M  V30 2085 H 201.988 1.51685 5.44985 0
M  V30 2086 H 200.545 2.11494 6.16534 0
M  V30 2087 N 203.978 -0.674533 1.42435 0
M  V30 2088 C 205.206 -1.46283 1.46317 0
M  V30 2089 C 205.621 -1.88653 0.0745836 0
M  V30 2090 O 204.978 -1.58151 -0.91074 0
M  V30 2091 C 205.029 -2.71178 2.3905 0
M  V30 2092 O 204.75 -2.30586 3.72507 0
M  V30 2093 C 206.251 -3.64738 2.51955 0
M  V30 2094 H 203.471 -0.450104 0.497642 0
M  V30 2095 H 206.015 -0.828792 1.86953 0
M  V30 2096 H 204.17 -3.3077 2.01667 0
M  V30 2097 H 204.584 -3.11241 4.22172 0
M  V30 2098 H 206.058 -4.49096 3.20962 0
M  V30 2099 H 206.535 -4.10656 1.55752 0
M  V30 2100 H 207.141 -3.11038 2.90061 0
M  V30 2101 N 205.456 -1.28612 -0.910864 0
M  V30 2102 C 206.386 -1.15326 -2.03032 0
M  V30 2103 C 207.367 -0.0502924 -1.70026 0
M  V30 2104 O 208.552 -0.227797 -1.92859 0
M  V30 2105 C 205.682 -0.817343 -3.37545 0
M  V30 2106 C 204.636 -1.8754 -3.84724 0
M  V30 2107 C 203.962 -1.39305 -5.16235 0
M  V30 2108 C 205.262 -3.28244 -4.06267 0
M  V30 2109 H 206.956 -2.08975 -2.14406 0
M  V30 2110 H 204.502 -1.00612 -1.03021 0
M  V30 2111 H 206.455 -0.711151 -4.15356 0
M  V30 2112 H 205.179 0.154846 -3.26233 0
M  V30 2113 H 203.838 -1.97079 -3.09121 0
M  V30 2114 H 203.486 -0.409846 -5.01328 0
M  V30 2115 H 203.186 -2.10057 -5.48771 0
M  V30 2116 H 204.71 -1.30014 -5.96598 0
M  V30 2117 H 206.124 -3.21611 -4.74594 0
M  V30 2118 H 204.521 -3.96855 -4.5014 0
M  V30 2119 H 205.591 -3.72048 -3.10979 0
M  V30 2120 N 206.934 1.1197 -1.10907 0
M  V30 2121 C 207.864 2.19928 -0.784473 0
M  V30 2122 C 208.845 1.6833 0.244726 0
M  V30 2123 O 210.03 1.93892 0.109418 0
M  V30 2124 C 207.16 3.46597 -0.220827 0
M  V30 2125 C 206.114 4.11376 -1.18127 0
M  V30 2126 C 205.44 5.32554 -0.478594 0
M  V30 2127 C 206.74 4.56945 -2.52979 0
M  V30 2128 H 208.434 2.47337 -1.68715 0
M  V30 2129 H 205.98 1.18879 -0.812642 0
M  V30 2130 H 207.933 4.21396 0.0184278 0
M  V30 2131 H 206.657 3.1863 0.717113 0
M  V30 2132 H 205.316 3.38564 -1.40606 0
M  V30 2133 H 204.964 5.00856 0.463976 0
M  V30 2134 H 204.664 5.76844 -1.11912 0
M  V30 2135 H 206.188 6.10096 -0.248 0
M  V30 2136 H 207.602 5.23093 -2.3462 0
M  V30 2137 H 205.999 5.1203 -3.12962 0
M  V30 2138 H 207.069 3.70676 -3.12614 0
M  V30 2139 N 208.412 0.89855 1.29475 0
M  V30 2140 C 209.689 0.443416 1.90508 0
M  V30 2141 C 210.069 -1.07685 1.81569 0
M  V30 2142 O 209.417 -1.9182 1.24166 0
M  V30 2143 C 209.627 0.956708 3.35631 0
M  V30 2144 C 210.975 0.999728 4.12663 0
M  V30 2145 O 211.999 0.904299 3.4453 0
M  V30 2146 O 210.858 1.14289 5.34416 0
M  V30 2147 H 207.952 0.138025 0.815401 0
M  V30 2148 H 210.498 0.98834 1.37949 0
M  V30 2149 H 209.27 2.00067 3.36287 0
M  V30 2150 H 208.893 0.391728 3.95666 0
M  V30 2151 N 209.89 -1.43072 0.660911 0
M  V30 2152 C 210.82 -2.33497 -0.0122829 0
M  V30 2153 C 211.801 -1.49903 -0.803925 0
M  V30 2154 O 212.986 -1.78546 -0.763864 0
M  V30 2155 C 210.116 -3.33363 -0.973994 0
M  V30 2156 C 209.07 -4.27003 -0.291928 0
M  V30 2157 C 208.396 -5.16967 -1.36562 0
M  V30 2158 C 209.696 -5.15816 0.820462 0
M  V30 2159 H 211.39 -2.90038 0.742873 0
M  V30 2160 H 208.936 -1.39461 0.358688 0
M  V30 2161 H 210.889 -3.95524 -1.45392 0
M  V30 2162 H 209.613 -2.75095 -1.7604 0
M  V30 2163 H 208.272 -3.66217 0.167623 0
M  V30 2164 H 207.92 -4.55034 -2.14366 0
M  V30 2165 H 207.62 -5.80441 -0.914454 0
M  V30 2166 H 209.144 -5.82003 -1.84675 0
M  V30 2167 H 210.558 -5.71742 0.422366 0
M  V30 2168 H 208.955 -5.8805 1.19656 0
M  V30 2169 H 210.025 -4.55045 1.67518 0
M  V30 2170 N 211.368 -0.403325 -1.52352 0
M  V30 2171 C 212.615 0.174347 -2.01748 0
M  V30 2172 C 212.943 1.45636 -1.2892 0
M  V30 2173 O 212.198 1.9193 -0.382258 0
M  V30 2174 C 212.497 0.474665 -3.54234 0
M  V30 2175 C 212.163 -0.717458 -4.45155 0
M  V30 2176 C 210.825 -1.04447 -4.69728 0
M  V30 2177 C 213.177 -1.51432 -4.98716 0
M  V30 2178 C 210.505 -2.16963 -5.45109 0
M  V30 2179 C 212.857 -2.6302 -5.75329 0
M  V30 2180 C 211.521 -2.96213 -5.98175 0
M  V30 2181 H 210.791 0.0637981 -0.738248 0
M  V30 2182 H 213.438 -0.543553 -1.83624 0
M  V30 2183 H 211.743 1.27406 -3.70506 0
M  V30 2184 H 213.44 0.934496 -3.89959 0
M  V30 2185 H 210.03 -0.452596 -4.26204 0
M  V30 2186 H 214.214 -1.27491 -4.79645 0
M  V30 2187 H 209.47 -2.43034 -5.61021 0
M  V30 2188 H 213.644 -3.25158 -6.15829 0
M  V30 2189 H 211.271 -3.83516 -6.56368 0
M  V30 2190 N 212.846 1.57033 -0.133567 0
M  V30 2191 C 214.074 2.00044 0.528195 0
M  V30 2192 C 214.489 1.01349 1.59291 0
M  V30 2193 O 213.846 0.00848369 1.82498 0
M  V30 2194 C 213.897 3.43018 1.1411 0
M  V30 2195 O 213.618 4.37939 0.11892 0
M  V30 2196 C 215.119 4.01237 1.88477 0
M  V30 2197 H 212.339 0.656517 0.138661 0
M  V30 2198 H 214.883 2.03267 -0.224196 0
M  V30 2199 H 213.038 3.40688 1.84418 0
M  V30 2200 H 213.452 5.21436 0.56613 0
M  V30 2201 H 214.926 5.03314 2.26669 0
M  V30 2202 H 215.403 3.41193 2.76558 0
M  V30 2203 H 216.009 4.07156 1.22898 0
M  V30 2204 N 214.325 -0.140222 1.56975 0
M  V30 2205 C 215.574 -0.850152 1.82908 0
M  V30 2206 C 215.887 -1.82028 0.715892 0
M  V30 2207 O 217.093 -2.57485 0.861016 0
M  V30 2208 C 215.549 -1.5625 3.24213 0
M  V30 2209 C 215.157 -0.63443 4.43485 0
M  V30 2210 C 216.901 -2.25881 3.59413 0
M  V30 2211 C 214.808 -1.34879 5.75814 0
M  V30 2212 H 213.738 -0.321221 0.682153 0
M  V30 2213 H 216.389 -0.102874 1.83211 0
M  V30 2214 H 214.771 -2.35565 3.18316 0
M  V30 2215 H 215.945 0.12398 4.60633 0
M  V30 2216 H 214.26 -0.0461836 4.16374 0
M  V30 2217 H 216.857 -2.79978 4.5554 0
M  V30 2218 H 217.2 -3.02693 2.85802 0
M  V30 2219 H 217.733 -1.53477 3.67001 0
M  V30 2220 H 214.472 -0.622385 6.52539 0
M  V30 2221 H 213.992 -2.07974 5.6259 0
M  V30 2222 H 215.671 -1.88784 6.18845 0
M  V30 2223 N 215.803 -1.52179 -0.40978 0
M  V30 2224 C 216.735 -1.71703 -1.51825 0
M  V30 2225 C 217.748 -0.597445 -1.51441 0
M  V30 2226 O 218.937 -0.872582 -1.55719 0
M  V30 2227 C 216.037 -1.74171 -2.90719 0
M  V30 2228 C 215.21 -3.03156 -3.15302 0
M  V30 2229 C 214.269 -2.97445 -4.34065 0
M  V30 2230 O 213.295 -3.71352 -4.31377 0
M  V30 2231 N 214.497 -2.15191 -5.39141 0
M  V30 2232 H 217.262 -2.67334 -1.35472 0
M  V30 2233 H 214.823 -1.50409 -0.599069 0
M  V30 2234 H 216.815 -1.67884 -3.68235 0
M  V30 2235 H 215.385 -0.860166 -3.00533 0
M  V30 2236 H 214.605 -3.23097 -2.25836 0
M  V30 2237 H 215.893 -3.88484 -3.28569 0
M  V30 2238 H 215.291 -1.54573 -5.44173 0
M  V30 2239 H 213.848 -2.1476 -6.15403 0
M  V30 2240 N 217.281 0.66697 -1.42791 0
M  V30 2241 C 218.191 1.80962 -1.49299 0
M  V30 2242 C 219.207 1.69775 -0.381108 0
M  V30 2243 O 220.383 1.91188 -0.633188 0
M  V30 2244 C 217.448 3.17156 -1.40045 0
M  V30 2245 C 216.509 3.40242 -2.6179 0
M  V30 2246 C 215.742 4.69939 -2.52969 0
M  V30 2247 O 215.965 5.48372 -1.56985 0
M  V30 2248 O 214.899 4.94441 -3.43237 0
M  V30 2249 H 218.725 1.78427 -2.45759 0
M  V30 2250 H 216.31 0.823713 -1.24641 0
M  V30 2251 H 218.192 3.98413 -1.37276 0
M  V30 2252 H 216.867 3.20312 -0.467138 0
M  V30 2253 H 215.774 2.58802 -2.70134 0
M  V30 2254 H 217.107 3.41923 -3.54047 0
M  V30 2255 N 218.759 1.29093 0.90403 0
M  V30 2256 C 219.987 1.19689 1.68766 0
M  V30 2257 C 220.402 -0.243113 1.87228 0
M  V30 2258 O 219.759 -1.16326 1.40621 0
M  V30 2259 C 219.81 1.90144 3.07453 0
M  V30 2260 O 219.531 3.2852 2.89838 0
M  V30 2261 C 221.032 1.87162 4.01852 0
M  V30 2262 H 218.252 0.415035 0.527244 0
M  V30 2263 H 220.796 1.7039 1.13082 0
M  V30 2264 H 218.951 1.43289 3.59926 0
M  V30 2265 H 219.365 3.63944 3.77684 0
M  V30 2266 H 220.839 2.41032 4.96596 0
M  V30 2267 H 221.316 0.84617 4.30972 0
M  V30 2268 H 221.922 2.33741 3.5531 0
M  V30 2269 N 220.237 -1.11381 1.11499 0
M  V30 2270 C 221.169 -2.17207 0.731704 0
M  V30 2271 C 222.182 -1.61066 -0.236957 0
M  V30 2272 O 223.371 -1.78489 -0.0197591 0
M  V30 2273 C 220.471 -3.38846 0.0607624 0
M  V30 2274 C 219.644 -4.24451 1.0564 0
M  V30 2275 C 218.703 -5.24562 0.4149 0
M  V30 2276 O 217.729 -5.59071 1.069 0
M  V30 2277 N 218.931 -5.74651 -0.821943 0
M  V30 2278 H 221.696 -2.50699 1.64225 0
M  V30 2279 H 219.257 -1.26908 1.00529 0
M  V30 2280 H 221.249 -4.02911 -0.380139 0
M  V30 2281 H 219.819 -3.03411 -0.752376 0
M  V30 2282 H 219.039 -3.56833 1.67524 0
M  V30 2283 H 220.327 -4.78486 1.72998 0
M  V30 2284 H 219.725 -5.48797 -1.37252 0
M  V30 2285 H 218.282 -6.40549 -1.20582 0
M  V30 2286 N 221.715 -0.905404 -1.28997 0
M  V30 2287 C 222.963 -0.533192 -1.9494 0
M  V30 2288 C 223.284 0.924618 -1.71685 0
M  V30 2289 O 222.554 1.65268 -1.05183 0
M  V30 2290 H 221.134 -0.194194 -0.721317 0
M  V30 2291 H 223.796 -1.15294 -1.57141 0
M  V30 2292 H 222.892 -0.72059 -3.03667 0
M  V30 2293 N 223.193 1.4272 -0.668489 0
M  V30 2294 C 224.609 1.55992 -0.33745 0
M  V30 2295 C 224.809 1.64933 1.15756 0
M  V30 2296 O 223.865 1.61278 1.94282 0
M  V30 2297 C 225.178 2.81314 -1.06222 0
M  V30 2298 C 226.726 2.95078 -1.04394 0
M  V30 2299 C 227.201 4.23252 -1.74991 0
M  V30 2300 N 228.692 4.3015 -1.71829 0
M  V30 2301 C 229.427 5.28127 -2.23315 0
M  V30 2302 N 228.923 6.32293 -2.83156 0
M  V30 2303 N 230.716 5.19882 -2.13726 0
M  V30 2304 H 222.867 1.3516 -1.63846 0
M  V30 2305 H 225.13 0.650174 -0.689912 0
M  V30 2306 H 224.836 2.80823 -2.11734 0
M  V30 2307 H 224.71 3.72012 -0.62344 0
M  V30 2308 H 227.097 2.951 0.0028244 0
M  V30 2309 H 227.178 2.05627 -1.52155 0
M  V30 2310 H 226.822 4.2399 -2.79633 0
M  V30 2311 H 226.752 5.11626 -1.24685 0
M  V30 2312 H 229.243 3.55499 -1.28175 0
M  V30 2313 H 229.556 7.03398 -3.20079 0
M  V30 2314 H 227.901 6.32873 -2.87223 0
M  V30 2315 H 231.092 4.37423 -1.66669 0
M  V30 2316 H 231.265 5.96077 -2.54158 0
M  V30 2317 N 224.671 0.411399 1.52136 0
M  V30 2318 C 225.601 -0.404015 2.29978 0
M  V30 2319 C 226.582 -1.04412 1.34284 0
M  V30 2320 O 227.767 -1.0527 1.63192 0
M  V30 2321 C 224.897 -1.5197 3.12286 0
M  V30 2322 C 223.851 -1.00448 4.16046 0
M  V30 2323 C 223.177 -2.21393 4.86712 0
M  V30 2324 C 224.477 -0.0569336 5.22269 0
M  V30 2325 H 226.171 0.245529 2.98392 0
M  V30 2326 H 223.717 0.119525 1.43503 0
M  V30 2327 H 225.67 -2.09715 3.6551 0
M  V30 2328 H 224.394 -2.19716 2.41646 0
M  V30 2329 H 223.053 -0.449421 3.63835 0
M  V30 2330 H 222.701 -2.87699 4.12599 0
M  V30 2331 H 222.401 -1.87571 5.56858 0
M  V30 2332 H 223.925 -2.7974 5.4275 0
M  V30 2333 H 225.339 -0.54325 5.7072 0
M  V30 2334 H 223.736 0.192594 5.99791 0
M  V30 2335 H 224.806 0.887663 4.76706 0
M  V30 2336 N 226.149 -1.5696 0.141893 0
M  V30 2337 C 227.426 -1.87553 -0.555281 0
M  V30 2338 C 227.806 -1.04699 -1.83306 0
M  V30 2339 O 227.154 -0.132346 -2.28116 0
M  V30 2340 C 227.364 -3.39093 -0.825664 0
M  V30 2341 C 228.712 -4.08199 -1.16869 0
M  V30 2342 O 229.736 -3.44242 -0.915185 0
M  V30 2343 O 228.595 -5.21139 -1.6455 0
M  V30 2344 H 225.689 -0.777188 -0.282679 0
M  V30 2345 H 228.235 -1.68763 0.17812 0
M  V30 2346 H 227.007 -3.91221 0.0788633 0
M  V30 2347 H 226.63 -3.63393 -1.61343 0
M  V30 2348 N 227.627 0.131896 -1.57047 0
M  V30 2349 C 228.575 1.18146 -2.0036 0
M  V30 2350 C 229.569 1.43614 -0.898406 0
M  V30 2351 O 230.775 1.43729 -1.08361 0
M  V30 2352 H 227.15 0.398042 -0.638018 0
M  V30 2353 H 229.121 0.789564 -2.87765 0
M  V30 2354 C 227.87 2.50341 -2.41298 0
M  V30 2355 H 227.193 2.31578 -3.25902 0
M  V30 2356 H 228.633 3.22371 -2.75414 0
M  V30 2357 C 227.092 3.11984 -1.27153 0
M  V30 2358 O 227.622 3.97484 -0.580459 0
M  V30 2359 N 225.828 2.71662 -1.03189 0
M  V30 2360 H 225.375 2.02231 -1.59564 0
M  V30 2361 H 225.333 3.13238 -0.270077 0
M  V30 2362 N 229.106 1.52395 0.401703 0
M  V30 2363 C 230.036 1.79231 1.49661 0
M  V30 2364 C 231.017 0.643654 1.57452 0
M  V30 2365 O 232.202 0.889989 1.72606 0
M  V30 2366 C 229.332 1.94971 2.87409 0
M  V30 2367 C 228.286 3.10604 2.94465 0
M  V30 2368 C 227.612 3.11577 4.34538 0
M  V30 2369 C 228.912 4.49921 2.6527 0
M  V30 2370 H 230.606 2.70917 1.27454 0
M  V30 2371 H 228.152 1.30362 0.6117 0
M  V30 2372 H 230.105 2.12328 3.63999 0
M  V30 2373 H 228.829 0.999632 3.10926 0
M  V30 2374 H 227.488 2.93009 2.20321 0
M  V30 2375 H 227.136 2.14277 4.55076 0
M  V30 2376 H 226.836 3.89247 4.40183 0
M  V30 2377 H 228.36 3.31073 5.13053 0
M  V30 2378 H 229.774 4.67683 3.31581 0
M  V30 2379 H 228.171 5.29564 2.82281 0
M  V30 2380 H 229.241 4.57507 1.60671 0
M  V30 2381 N 230.584 -0.659388 1.43143 0
M  V30 2382 C 231.534 -1.7655 1.44271 0
M  V30 2383 C 232.518 -1.57847 0.311961 0
M  V30 2384 O 233.71 -1.68064 0.555306 0
M  V30 2385 C 230.839 -3.15104 1.36251 0
M  V30 2386 C 229.925 -3.39377 2.54331 0
M  V30 2387 N 230.316 -3.34153 3.79704 0
M  V30 2388 C 228.614 -3.70072 2.48922 0
M  V30 2389 C 229.315 -3.58337 4.58225 0
M  V30 2390 N 228.291 -3.79851 3.88863 0
M  V30 2391 H 232.093 -1.70928 2.39083 0
M  V30 2392 H 229.607 -0.860823 1.37708 0
M  V30 2393 H 231.604 -3.94389 1.35141 0
M  V30 2394 H 230.264 -3.21913 0.424531 0
M  V30 2395 H 231.275 -3.13704 4.1208 0
M  V30 2396 H 227.952 -3.84034 1.63781 0
M  V30 2397 H 229.342 -3.60129 5.67236 0
M  V30 2398 N 232.062 -1.29571 -0.897171 0
M  V30 2399 C 233.308 -1.17863 -1.65034 0
M  V30 2400 C 233.641 0.268729 -1.92332 0
M  V30 2401 O 232.916 1.19378 -1.53555 0
M  V30 2402 C 233.199 -1.995 -2.99786 0
M  V30 2403 C 233.052 -3.5239 -2.79538 0
M  V30 2404 C 234.371 -1.82335 -4.00552 0
M  V30 2405 H 231.49 -0.429528 -0.598895 0
M  V30 2406 H 234.132 -1.59072 -1.03905 0
M  V30 2407 H 232.282 -1.64485 -3.51962 0
M  V30 2408 H 233.954 -3.97401 -2.34244 0
M  V30 2409 H 232.197 -3.77187 -2.14273 0
M  V30 2410 H 232.868 -4.04787 -3.75302 0
M  V30 2411 H 235.344 -2.12924 -3.57495 0
M  V30 2412 H 234.22 -2.41801 -4.92771 0
M  V30 2413 H 234.481 -0.779209 -4.35179 0
M  V30 2414 N 233.54 1.10788 -1.12088 0
M  V30 2415 C 234.503 2.15207 -0.788577 0
M  V30 2416 C 235.503 1.59609 0.195317 0
M  V30 2417 O 236.693 1.74174 -0.0300193 0
M  V30 2418 C 233.825 3.4047 -0.171174 0
M  V30 2419 H 235.018 2.46116 -1.71368 0
M  V30 2420 H 232.571 1.26089 -0.923652 0
M  V30 2421 H 233.306 3.15176 0.763832 0
M  V30 2422 H 233.091 3.82109 -0.879514 0
M  V30 2423 H 234.581 4.17576 0.04496 0
M  V30 2424 N 235.018 0.912232 1.28515 0
M  V30 2425 C 235.951 0.343928 2.25593 0
M  V30 2426 C 236.929 -0.550994 1.5298 0
M  V30 2427 O 238.113 -0.494991 1.81885 0
M  V30 2428 C 235.24 -0.508525 3.34861 0
M  V30 2429 C 234.286 0.320808 4.25292 0
M  V30 2430 S 235.119 1.72658 5.06902 0
M  V30 2431 C 236.275 0.881394 6.19663 0
M  V30 2432 H 236.508 1.16674 2.73449 0
M  V30 2433 H 234.041 0.713384 1.36931 0
M  V30 2434 H 235.999 -0.994539 3.9827 0
M  V30 2435 H 234.66 -1.30571 2.85675 0
M  V30 2436 H 233.853 -0.330941 5.02912 0
M  V30 2437 H 233.455 0.74042 3.66598 0
M  V30 2438 H 235.747 0.110359 6.7741 0
M  V30 2439 H 236.69 1.63009 6.89082 0
M  V30 2440 H 237.098 0.430239 5.62858 0
M  V30 2441 N 236.496 -1.42363 0.676048 0
M  V30 2442 C 237.742 -2.0182 0.199125 0
M  V30 2443 C 238.075 -1.53339 -1.19168 0
M  V30 2444 O 237.35 -0.736124 -1.80032 0
M  V30 2445 C 237.633 -3.59331 0.235144 0
M  V30 2446 C 237.486 -4.17989 1.66149 0
M  V30 2447 C 238.805 -4.3813 -0.41595 0
M  V30 2448 H 235.924 -0.733293 0.0738311 0
M  V30 2449 H 238.566 -1.69368 0.86107 0
M  V30 2450 H 236.716 -3.87109 -0.328487 0
M  V30 2451 H 238.388 -4.0116 2.27747 0
M  V30 2452 H 236.631 -3.7377 2.20178 0
M  V30 2453 H 237.302 -5.27126 1.63837 0
M  V30 2454 H 239.778 -4.16051 0.0638529 0
M  V30 2455 H 238.654 -5.47717 -0.360115 0
M  V30 2456 H 238.915 -4.16101 -1.49373 0
M  V30 2457 N 237.974 -0.419461 -1.51915 0
M  V30 2458 C 239.222 0.152637 -2.01523 0
M  V30 2459 C 239.543 1.44762 -1.30649 0
M  V30 2460 O 238.813 1.90997 -0.435535 0
M  V30 2461 H 237.393 0.0593966 -0.744635 0
M  V30 2462 H 240.055 -0.558073 -1.86739 0
M  V30 2463 H 239.151 0.341369 -3.10227 0
M  V30 2464 N 239.452 1.56882 -0.150215 0
M  V30 2465 C 240.729 1.87844 0.545327 0
M  V30 2466 C 241.109 1.0567 1.82749 0
M  V30 2467 O 240.457 0.144442 2.28043 0
M  V30 2468 C 240.667 3.39526 0.80767 0
M  V30 2469 C 242.015 4.08814 1.14703 0
M  V30 2470 O 243.039 3.44723 0.896917 0
M  V30 2471 O 241.898 5.22004 1.61784 0
M  V30 2472 H 238.992 0.778677 0.278553 0
M  V30 2473 H 241.538 1.68666 -0.187068 0
M  V30 2474 H 240.31 3.91173 -0.0996096 0
M  V30 2475 H 239.933 3.64243 1.59413 0
M  V30 2476 N 240.93 -0.123565 1.57115 0
M  V30 2477 C 241.86 -1.15309 2.03042 0
M  V30 2478 C 242.841 -1.43454 0.914061 0
M  V30 2479 O 244.026 -1.53973 1.18347 0
M  V30 2480 C 241.156 -2.48043 2.43089 0
M  V30 2481 C 240.11 -2.3437 3.58127 0
M  V30 2482 C 239.436 -3.72026 3.84059 0
M  V30 2483 C 240.736 -1.80804 4.90007 0
M  V30 2484 H 242.43 -0.771102 2.893 0
M  V30 2485 H 239.976 -0.369479 1.39179 0
M  V30 2486 H 241.929 -3.20311 2.73823 0
M  V30 2487 H 240.653 -2.88122 1.53796 0
M  V30 2488 H 239.312 -1.64551 3.27595 0
M  V30 2489 H 238.96 -4.09582 2.91979 0
M  V30 2490 H 238.66 -3.63732 4.6149 0
M  V30 2491 H 240.184 -4.45806 4.1724 0
M  V30 2492 H 241.598 -2.42886 5.19307 0
M  V30 2493 H 239.995 -1.83343 5.71407 0
M  V30 2494 H 241.065 -0.76528 4.78823 0
M  V30 2495 N 242.408 -1.52605 -0.393616 0
M  V30 2496 C 243.355 -1.77055 -1.48054 0
M  V30 2497 C 244.325 -0.61358 -1.54352 0
M  V30 2498 O 245.51 -0.852806 -1.70681 0
M  V30 2499 C 242.65 -1.94108 -2.85335 0
M  V30 2500 C 241.763 -3.21792 -2.88226 0
M  V30 2501 C 240.898 -3.29188 -4.16904 0
M  V30 2502 C 239.937 -4.51013 -4.13828 0
M  V30 2503 N 239.074 -4.55716 -5.34105 0
M  V30 2504 H 243.914 -2.69815 -1.26506 0
M  V30 2505 H 241.451 -1.33683 -0.61379 0
M  V30 2506 H 243.409 -2.01979 -3.65049 0
M  V30 2507 H 242.039 -1.04713 -3.05344 0
M  V30 2508 H 241.091 -3.23015 -2.00911 0
M  V30 2509 H 242.403 -4.11557 -2.8182 0
M  V30 2510 H 241.557 -3.36216 -5.05018 0
M  V30 2511 H 240.296 -2.37389 -4.26026 0
M  V30 2512 H 239.301 -4.44115 -3.24102 0
M  V30 2513 H 240.526 -5.44123 -4.06333 0
M  V30 2514 H 238.472 -3.66807 -5.43865 0
M  V30 2515 H 238.389 -5.39346 -5.29756 0
M  V30 2516 H 239.657 -4.66993 -6.2413 0
M  V30 2517 N 243.887 0.651787 -1.4349 0
M  V30 2518 C 245.117 1.43728 -1.48411 0
M  V30 2519 C 245.525 1.8893 -0.10103 0
M  V30 2520 O 244.868 1.60182 0.899307 0
M  V30 2521 C 244.93 2.70411 -2.36893 0
M  V30 2522 C 244.594 2.4714 -3.8441 0
M  V30 2523 C 245.591 2.10271 -4.75481 0
M  V30 2524 C 243.276 2.6142 -4.28912 0
M  V30 2525 C 245.27 1.87982 -6.0905 0
M  V30 2526 C 242.957 2.38746 -5.62533 0
M  V30 2527 C 243.955 2.02083 -6.5242 0
M  V30 2528 O 243.643 1.79647 -7.8357 0
M  V30 2529 H 243.375 0.447962 -0.506267 0
M  V30 2530 H 245.929 0.80624 -1.88915 0
M  V30 2531 H 244.159 3.36079 -1.91278 0
M  V30 2532 H 245.848 3.32364 -2.33 0
M  V30 2533 H 246.614 1.98814 -4.42378 0
M  V30 2534 H 242.493 2.88931 -3.59222 0
M  V30 2535 H 246.037 1.5929 -6.7917 0
M  V30 2536 H 241.934 2.49806 -5.95203 0
M  V30 2537 H 242.702 1.9406 -7.95162 0
M  V30 2538 N 245.365 1.30045 0.890287 0
M  V30 2539 C 246.613 1.18327 1.63839 0
M  V30 2540 C 246.934 -0.263455 1.93212 0
M  V30 2541 O 246.204 -1.17856 1.56482 0
M  V30 2542 H 244.784 0.434933 0.607324 0
M  V30 2543 H 247.446 1.631 1.06698 0
M  V30 2544 H 246.542 1.74024 2.59079 0
M  V30 2545 N 246.843 -1.10192 1.12674 0
M  V30 2546 C 248.259 -1.34235 0.863317 0
M  V30 2547 C 248.459 -1.95062 -0.505277 0
M  V30 2548 O 247.515 -2.19192 -1.25345 0
M  V30 2549 C 248.828 -2.2616 1.98172 0
M  V30 2550 C 250.376 -2.3969 2.0129 0
M  V30 2551 C 250.851 -3.34946 3.1237 0
M  V30 2552 N 252.342 -3.42515 3.11829 0
M  V30 2553 C 253.077 -4.16199 3.94419 0
M  V30 2554 N 252.573 -4.92747 4.87004 0
M  V30 2555 N 254.366 -4.11843 3.82547 0
M  V30 2556 H 246.517 -0.690798 2.00853 0
M  V30 2557 H 248.78 -0.366774 0.874174 0
M  V30 2558 H 248.486 -1.8868 2.96804 0
M  V30 2559 H 248.36 -3.26488 1.88906 0
M  V30 2560 H 250.747 -2.76438 1.03276 0
M  V30 2561 H 250.828 -1.39169 2.14629 0
M  V30 2562 H 250.472 -2.98923 4.10619 0
M  V30 2563 H 250.402 -4.35353 2.96269 0
M  V30 2564 H 252.893 -2.87926 2.44759 0
M  V30 2565 H 253.206 -5.46376 5.46528 0
M  V30 2566 H 251.551 -4.91862 4.91016 0
M  V30 2567 H 254.742 -3.51136 3.0955 0
M  V30 2568 H 254.915 -4.69007 4.47142 0
M  V30 2569 N 248.321 -0.919034 -1.28029 0
M  V30 2570 C 249.549 -0.570971 -1.98866 0
M  V30 2571 C 249.964 0.848996 -1.68634 0
M  V30 2572 O 249.321 1.56307 -0.942036 0
M  V30 2573 C 249.372 -0.776876 -3.53054 0
M  V30 2574 O 249.093 -2.14097 -3.82222 0
M  V30 2575 C 250.594 -0.436356 -4.41147 0
M  V30 2576 H 247.814 -0.217175 -0.634883 0
M  V30 2577 H 250.358 -1.23368 -1.63097 0
M  V30 2578 H 248.513 -0.161085 -3.87065 0
M  V30 2579 H 248.927 -2.18455 -4.76841 0
M  V30 2580 H 250.401 -0.63117 -5.4838 0
M  V30 2581 H 250.878 0.627686 -4.34692 0
M  V30 2582 H 251.484 -1.02991 -4.12641 0
M  V30 2583 N 249.799 1.42003 -0.683588 0
M  V30 2584 C 251.045 2.01712 -0.209825 0
M  V30 2585 C 251.378 1.53968 1.18353 0
M  V30 2586 O 250.653 0.745661 1.79639 0
M  V30 2587 C 250.936 3.59202 -0.254197 0
M  V30 2588 C 250.789 4.17102 -1.68363 0
M  V30 2589 C 252.108 4.38344 0.392709 0
M  V30 2590 H 249.227 0.732891 -0.0777189 0
M  V30 2591 H 251.869 1.68909 -0.87004 0
M  V30 2592 H 250.019 3.87278 0.307954 0
M  V30 2593 H 251.691 3.99946 -2.29871 0
M  V30 2594 H 249.934 3.72597 -2.22157 0
M  V30 2595 H 250.605 5.26249 -1.6663 0
M  V30 2596 H 253.081 4.16011 -0.0859162 0
M  V30 2597 H 251.957 5.47901 0.331063 0
M  V30 2598 H 252.218 4.16887 1.47164 0
M  V30 2599 N 251.277 0.427512 1.51691 0
M  V30 2600 C 252.227 -0.406604 2.24345 0
M  V30 2601 C 253.211 -0.998276 1.26187 0
M  V30 2602 O 254.403 -0.918045 1.51331 0
M  V30 2603 C 251.532 -1.51266 3.08177 0
M  V30 2604 C 250.618 -0.930868 4.13758 0
M  V30 2605 N 251.009 -0.0773552 5.05741 0
M  V30 2606 C 249.307 -1.19948 4.29568 0
M  V30 2607 C 250.008 0.248344 5.8117 0
M  V30 2608 N 248.984 -0.365535 5.4237 0
M  V30 2609 H 252.786 0.251581 2.92821 0
M  V30 2610 H 250.3 0.239003 1.60632 0
M  V30 2611 H 252.297 -2.123 3.58796 0
M  V30 2612 H 250.957 -2.17328 2.41244 0
M  V30 2613 H 251.968 0.288351 5.17097 0
M  V30 2614 H 248.645 -1.85832 3.73862 0
M  V30 2615 H 250.035 0.942286 6.6526 0
M  V30 2616 N 252.755 -1.56801 0.158532 0
M  V30 2617 C 253.98 -2.01295 -0.499516 0
M  V30 2618 C 254.405 -1.03799 -1.56867 0
M  V30 2619 O 253.763 -0.0155162 -1.81293 0
M  V30 2620 C 253.811 -3.44469 -1.06647 0
M  V30 2621 O 252.915 -3.50012 -2.18095 0
M  V30 2622 H 252.256 -0.652884 -0.12099 0
M  V30 2623 H 254.786 -2.02958 0.258661 0
M  V30 2624 H 254.796 -3.8351 -1.39227 0
M  V30 2625 H 253.471 -4.14932 -0.283581 0
M  V30 2626 H 252.048 -3.22822 -1.86656 0
M  V30 2627 N 254.233 0.115231 -1.57178 0
M  V30 2628 C 255.163 1.1423 -2.03651 0
M  V30 2629 C 256.144 1.42967 -0.921655 0
M  V30 2630 O 257.329 1.53343 -1.19162 0
M  V30 2631 C 254.459 2.4675 -2.44401 0
M  V30 2632 C 253.413 2.32467 -3.59365 0
M  V30 2633 C 252.739 3.69984 -3.86026 0
M  V30 2634 C 254.039 1.78203 -4.90959 0
M  V30 2635 H 255.733 0.755749 -2.89705 0
M  V30 2636 H 253.279 0.362093 -1.39373 0
M  V30 2637 H 255.232 3.18854 -2.75517 0
M  V30 2638 H 253.956 2.87302 -1.55322 0
M  V30 2639 H 252.615 1.62811 -3.28463 0
M  V30 2640 H 252.263 4.08028 -2.94147 0
M  V30 2641 H 251.963 3.61279 -4.63412 0
M  V30 2642 H 253.487 4.43587 -4.19599 0
M  V30 2643 H 254.901 2.40128 -5.20587 0
M  V30 2644 H 253.298 1.8031 -5.72371 0
M  V30 2645 H 254.368 0.739876 -4.79222 0
M  V30 2646 N 255.711 1.52812 0.385517 0
M  V30 2647 C 256.939 1.71907 1.15133 0
M  V30 2648 C 257.354 0.439004 1.83625 0
M  V30 2649 O 256.711 -0.586765 1.7281 0
M  V30 2650 C 256.762 2.87099 2.19673 0
M  V30 2651 O 256.483 4.10151 1.53973 0
M  V30 2652 C 257.984 3.17902 3.08955 0
M  V30 2653 H 255.204 0.575479 0.345057 0
M  V30 2654 H 257.748 1.99476 0.45052 0
M  V30 2655 H 255.903 2.61982 2.85384 0
M  V30 2656 H 256.317 4.74514 2.23465 0
M  V30 2657 H 257.791 4.01959 3.7833 0
M  V30 2658 H 258.268 2.3243 3.72657 0
M  V30 2659 H 258.874 3.44871 2.48885 0
M  V30 2660 N 257.189 -0.644168 1.43834 0
M  V30 2661 C 258.121 -1.76955 1.45669 0
M  V30 2662 C 259.134 -1.58956 0.351666 0
M  V30 2663 O 260.323 -1.6751 0.616644 0
M  V30 2664 C 257.423 -3.14507 1.26248 0
M  V30 2665 C 256.596 -3.59083 2.49757 0
M  V30 2666 C 255.655 -4.75467 2.25427 0
M  V30 2667 O 254.681 -4.84444 2.98836 0
M  V30 2668 N 255.883 -5.66289 1.27661 0
M  V30 2669 H 258.648 -1.75856 2.42682 0
M  V30 2670 H 256.209 -0.828312 1.39106 0
M  V30 2671 H 258.201 -3.90067 1.0784 0
M  V30 2672 H 256.771 -3.10325 0.376478 0
M  V30 2673 H 255.991 -2.7387 2.8353 0
M  V30 2674 H 257.279 -3.85613 3.31934 0
M  V30 2675 H 256.677 -5.61718 0.670064 0
M  V30 2676 H 255.234 -6.41533 1.15234 0
M  V30 2677 N 258.668 -1.30515 -0.883378 0
M  V30 2678 C 259.631 -1.1701 -1.97082 0
M  V30 2679 C 260.631 -0.10089 -1.60483 0
M  V30 2680 O 261.821 -0.349127 -1.70666 0
M  V30 2681 C 258.953 -0.793045 -3.31547 0
M  V30 2682 H 260.146 -2.13622 -2.10489 0
M  V30 2683 H 257.699 -1.13935 -1.06998 0
M  V30 2684 H 258.434 0.172499 -3.23841 0
M  V30 2685 H 258.219 -1.56576 -3.5948 0
M  V30 2686 H 259.709 -0.722073 -4.1131 0
M  V30 2687 N 260.146 1.09593 -1.13257 0
M  V30 2688 C 261.076 2.18214 -0.830946 0
M  V30 2689 C 262.057 1.68812 0.208966 0
M  V30 2690 O 263.242 1.9408 0.0682666 0
M  V30 2691 C 260.372 3.46051 -0.294296 0
M  V30 2692 C 259.326 4.08778 -1.26826 0
M  V30 2693 C 258.652 5.31419 -0.591449 0
M  V30 2694 C 259.952 4.51476 -2.62615 0
M  V30 2695 H 261.646 2.43703 -1.73923 0
M  V30 2696 H 259.192 1.17128 -0.837675 0
M  V30 2697 H 261.145 4.2134 -0.0709606 0
M  V30 2698 H 259.869 3.20079 0.649366 0
M  V30 2699 H 258.528 3.35505 -1.47756 0
M  V30 2700 H 258.176 5.01727 0.357633 0
M  V30 2701 H 257.876 5.74341 -1.24123 0
M  V30 2702 H 259.4 6.09433 -0.377355 0
M  V30 2703 H 260.814 5.17999 -2.45663 0
M  V30 2704 H 259.211 5.05277 -3.23752 0
M  V30 2705 H 260.281 3.63962 -3.20406 0
M  V30 2706 N 261.624 0.925811 1.2754 0
M  V30 2707 C 262.587 0.428129 2.25166 0
M  V30 2708 C 263.587 -0.452261 1.54309 0
M  V30 2709 O 264.777 -0.253608 1.72344 0
M  V30 2710 C 261.909 -0.384749 3.38722 0
M  V30 2711 H 263.102 1.29066 2.70706 0
M  V30 2712 H 260.655 0.706323 1.3943 0
M  V30 2713 H 261.39 -1.26618 2.98561 0
M  V30 2714 H 261.175 0.246454 3.91325 0
M  V30 2715 H 262.665 -0.723389 4.11287 0
M  V30 2716 N 263.102 -1.41638 0.69111 0
M  V30 2717 C 264.049 -2.30789 0.0229705 0
M  V30 2718 C 265.019 -1.46863 -0.775911 0
M  V30 2719 O 266.204 -1.75661 -0.74485 0
M  V30 2720 C 263.344 -3.32868 -0.910666 0
M  V30 2721 C 262.457 -4.31875 -0.103874 0
M  V30 2722 C 261.592 -5.21024 -1.03475 0
M  V30 2723 C 260.631 -6.11702 -0.220598 0
M  V30 2724 N 259.768 -6.93349 -1.10504 0
M  V30 2725 H 264.608 -2.87366 0.788978 0
M  V30 2726 H 262.145 -1.41535 0.400794 0
M  V30 2727 H 264.103 -3.90596 -1.46597 0
M  V30 2728 H 262.733 -2.77851 -1.64312 0
M  V30 2729 H 261.785 -3.76131 0.568285 0
M  V30 2730 H 263.097 -4.96003 0.527504 0
M  V30 2731 H 262.251 -5.83565 -1.65943 0
M  V30 2732 H 260.99 -4.57112 -1.69999 0
M  V30 2733 H 259.995 -5.48215 0.417187 0
M  V30 2734 H 261.22 -6.77668 0.440784 0
M  V30 2735 H 259.166 -6.3205 -1.75638 0
M  V30 2736 H 259.083 -7.54146 -0.529125 0
M  V30 2737 H 260.351 -7.60362 -1.71667 0
M  V30 2738 N 264.58 -0.43555 -1.51462 0
M  V30 2739 C 265.827 0.131514 -2.02072 0
M  V30 2740 C 266.155 1.42868 -1.31981 0
M  V30 2741 O 265.41 1.91076 -0.422883 0
M  V30 2742 C 265.709 0.39942 -3.55161 0
M  V30 2743 C 265.375 -0.81172 -4.43533 0
M  V30 2744 C 264.037 -1.14387 -4.67407 0
M  V30 2745 C 266.389 -1.61976 -4.95392 0
M  V30 2746 C 263.717 -2.28477 -5.40384 0
M  V30 2747 C 266.069 -2.75164 -5.6962 0
M  V30 2748 C 264.733 -3.08835 -5.91758 0
M  V30 2749 H 264.003 0.0481244 -0.739436 0
M  V30 2750 H 266.65 -0.58238 -1.8243 0
M  V30 2751 H 264.955 1.19519 -3.73125 0
M  V30 2752 H 266.652 0.85157 -3.91854 0
M  V30 2753 H 263.242 -0.542898 -4.25148 0
M  V30 2754 H 267.426 -1.37637 -4.76833 0
M  V30 2755 H 262.682 -2.5488 -5.55739 0
M  V30 2756 H 266.856 -3.38147 -6.08793 0
M  V30 2757 H 264.483 -3.97353 -6.48086 0
M  V30 2758 N 266.058 1.56714 -0.166846 0
M  V30 2759 C 267.335 1.88412 0.525373 0
M  V30 2760 C 267.715 1.07602 1.81618 0
M  V30 2761 O 267.063 0.168621 2.27877 0
M  V30 2762 C 267.273 3.40363 0.771613 0
M  V30 2763 C 268.621 4.10007 1.1036 0
M  V30 2764 O 269.645 3.45655 0.860304 0
M  V30 2765 O 268.504 5.2369 1.56239 0
M  V30 2766 H 265.598 0.781587 0.270278 0
M  V30 2767 H 268.144 1.68458 -0.204946 0
M  V30 2768 H 266.916 3.91046 -0.141093 0
M  V30 2769 H 266.539 3.65914 1.55541 0
M  V30 2770 N 267.536 -0.106894 1.57237 0
M  V30 2771 C 268.784 -0.810921 1.85117 0
M  V30 2772 C 269.105 -1.7984 0.753827 0
M  V30 2773 O 268.375 -1.94649 -0.221056 0
M  V30 2774 H 266.955 -0.302466 0.683025 0
M  V30 2775 H 269.617 -0.0913324 1.94686 0
M  V30 2776 H 268.713 -1.34875 2.81452 0
M  V30 2777 N 269.014 -1.53014 -0.377408 0
M  V30 2778 C 269.962 -1.7927 -1.48206 0
M  V30 2779 C 270.956 -0.661195 -1.55963 0
M  V30 2780 O 272.162 -0.843908 -1.58991 0
M  V30 2781 H 268.537 -0.567425 -0.493491 0
M  V30 2782 H 270.508 -2.71753 -1.2326 0
M  V30 2783 C 269.257 -1.98894 -2.85196 0
M  V30 2784 H 268.58 -2.85395 -2.79981 0
M  V30 2785 H 270.02 -2.21249 -3.61698 0
M  V30 2786 C 268.479 -0.764691 -3.28107 0
M  V30 2787 O 269.009 0.0523226 -4.01666 0
M  V30 2788 N 267.215 -0.591493 -2.84517 0
M  V30 2789 H 266.762 -1.25749 -2.24822 0
M  V30 2790 H 266.72 0.226253 -3.13585 0
M  V30 2791 N 270.492 0.636531 -1.44174 0
M  V30 2792 C 271.908 0.954104 -1.27941 0
M  V30 2793 C 272.108 2.0039 -0.211248 0
M  V30 2794 O 271.164 2.49236 0.404695 0
M  V30 2795 C 272.477 1.4225 -2.64925 0
M  V30 2796 C 274.025 1.53827 -2.72592 0
M  V30 2797 C 274.5 2.04053 -4.10032 0
M  V30 2798 N 275.991 2.11331 -4.12182 0
M  V30 2799 C 276.726 2.51352 -5.15374 0
M  V30 2800 N 276.222 2.90549 -6.2893 0
M  V30 2801 N 278.015 2.51438 -5.02728 0
M  V30 2802 H 270.166 -0.0578386 -2.12321 0
M  V30 2803 H 272.429 0.0367406 -0.947288 0
M  V30 2804 H 272.135 0.725466 -3.44136 0
M  V30 2805 H 272.009 2.39451 -2.9145 0
M  V30 2806 H 274.396 2.22628 -1.93702 0
M  V30 2807 H 274.477 0.550154 -2.49814 0
M  V30 2808 H 274.121 1.35848 -4.89395 0
M  V30 2809 H 274.051 3.03726 -4.30184 0
M  V30 2810 H 276.542 1.83745 -3.30222 0
M  V30 2811 H 276.855 3.19884 -7.03487 0
M  V30 2812 H 275.2 2.88313 -6.32377 0
M  V30 2813 H 278.391 2.20203 -4.13072 0
M  V30 2814 H 278.564 2.82304 -5.83274 0
M  V30 2815 N 271.97 1.30982 0.876444 0
M  V30 2816 C 273.217 1.20296 1.62896 0
M  V30 2817 C 273.545 -0.240395 1.93009 0
M  V30 2818 O 272.8 -1.18733 1.55567 0
M  V30 2819 C 273.099 1.98572 2.9716 0
M  V30 2820 C 272.765 3.48125 2.86566 0
M  V30 2821 C 271.427 3.88905 2.83383 0
M  V30 2822 C 273.779 4.43322 2.74071 0
M  V30 2823 C 271.107 5.2316 2.65556 0
M  V30 2824 C 273.459 5.77695 2.57781 0
M  V30 2825 C 272.123 6.17704 2.52979 0
M  V30 2826 H 271.393 0.440193 0.59608 0
M  V30 2827 H 274.04 1.62177 1.01837 0
M  V30 2828 H 272.345 1.49352 3.62217 0
M  V30 2829 H 274.042 1.8769 3.54364 0
M  V30 2830 H 270.632 3.15723 2.89856 0
M  V30 2831 H 274.816 4.12752 2.75589 0
M  V30 2832 H 270.072 5.53241 2.60259 0
M  V30 2833 H 274.246 6.51091 2.47089 0
M  V30 2834 H 271.873 7.21678 2.38924 0
M  V30 2835 N 273.449 -1.08991 1.13837 0
M  V30 2836 C 274.679 -1.84743 0.924859 0
M  V30 2837 C 275.087 -1.81629 -0.529874 0
M  V30 2838 O 274.43 -1.21397 -1.37872 0
M  V30 2839 C 274.492 -3.33568 1.34061 0
M  V30 2840 C 274.156 -3.60425 2.80968 0
M  V30 2841 C 275.153 -3.55771 3.79108 0
M  V30 2842 C 272.838 -3.88627 3.18236 0
M  V30 2843 C 274.832 -3.78939 5.12527 0
M  V30 2844 C 272.519 -4.11449 4.51833 0
M  V30 2845 C 273.517 -4.06598 5.48787 0
M  V30 2846 O 273.205 -4.28826 6.79973 0
M  V30 2847 H 272.937 -0.590258 0.329502 0
M  V30 2848 H 275.491 -1.38598 1.51591 0
M  V30 2849 H 273.721 -3.80442 0.692853 0
M  V30 2850 H 275.41 -3.90743 1.09886 0
M  V30 2851 H 276.176 -3.34005 3.51661 0
M  V30 2852 H 272.055 -3.91526 2.43369 0
M  V30 2853 H 275.599 -3.75068 5.88192 0
M  V30 2854 H 271.496 -4.32698 4.79002 0
M  V30 2855 H 272.264 -4.46264 6.86142 0
M  V30 2856 N 274.927 -0.932562 -1.27047 0
M  V30 2857 C 276.174 -0.575559 -1.94148 0
M  V30 2858 C 276.502 0.883984 -1.73251 0
M  V30 2859 O 275.757 1.64655 -1.0577 0
M  V30 2860 C 276.056 -0.853713 -3.47054 0
M  V30 2861 C 275.722 -2.29577 -3.88079 0
M  V30 2862 C 274.384 -2.68999 -3.9899 0
M  V30 2863 C 276.736 -3.23331 -4.08787 0
M  V30 2864 C 274.064 -4.01289 -4.28 0
M  V30 2865 C 276.416 -4.55207 -4.39282 0
M  V30 2866 C 275.08 -4.94457 -4.48407 0
M  V30 2867 H 274.35 -0.210612 -0.710439 0
M  V30 2868 H 276.997 -1.17744 -1.51025 0
M  V30 2869 H 275.302 -0.169204 -3.91434 0
M  V30 2870 H 276.999 -0.55639 -3.97121 0
M  V30 2871 H 273.589 -1.97994 -3.80127 0
M  V30 2872 H 277.773 -2.94074 -3.99793 0
M  V30 2873 H 273.029 -4.31374 -4.33275 0
M  V30 2874 H 277.203 -5.27852 -4.54252 0
M  V30 2875 H 274.83 -5.96994 -4.7064 0
M  V30 2876 N 276.405 1.4127 -0.698611 0
M  V30 2877 C 277.654 2.00408 -0.227949 0
M  V30 2878 C 277.967 1.55981 1.18023 0
M  V30 2879 O 279.173 2.07699 1.74852 0
M  V30 2880 C 277.629 3.58129 -0.356636 0
M  V30 2881 C 277.237 4.11536 -1.77037 0
M  V30 2882 C 278.981 4.24466 0.0540969 0
M  V30 2883 C 276.888 5.61701 -1.85055 0
M  V30 2884 H 275.818 0.749586 -0.0814657 0
M  V30 2885 H 278.469 1.61713 -0.867249 0
M  V30 2886 H 276.851 3.94442 0.350965 0
M  V30 2887 H 278.025 3.86636 -2.50698 0
M  V30 2888 H 276.34 3.57736 -2.13105 0
M  V30 2889 H 278.937 5.34698 0.0146723 0
M  V30 2890 H 279.28 4.01687 1.09332 0
M  V30 2891 H 279.813 3.93198 -0.603337 0
M  V30 2892 H 276.552 5.89312 -2.8704 0
M  V30 2893 H 276.072 5.88519 -1.15783 0
M  V30 2894 H 277.751 6.26524 -1.61484 0
M  V30 2895 N 277.883 0.443576 1.51229 0
M  V30 2896 C 278.846 -0.353132 2.26463 0
M  V30 2897 C 279.846 -0.944338 1.3015 0
M  V30 2898 O 281.036 -0.817813 1.5381 0
M  V30 2899 C 278.168 -1.50023 3.06114 0
M  V30 2900 H 279.361 0.3063 2.98332 0
M  V30 2901 H 276.914 0.196902 1.55055 0
M  V30 2902 H 277.649 -2.19553 2.38677 0
M  V30 2903 H 277.434 -1.08241 3.76864 0
M  V30 2904 H 278.924 -2.06296 3.63087 0
M  V30 2905 N 279.361 -1.56624 0.175154 0
M  V30 2906 C 280.772 -1.83561 -0.340916 0
M  V30 2907 C 281.123 -1.09511 -1.62794 0
M  V30 2908 O 280.248 -0.349389 -2.13561 0
M  V30 2909 C 280.843 -3.32979 -0.625313 0
M  V30 2910 C 279.402 -3.60399 -1.08581 0
M  V30 2911 C 278.549 -2.77024 -0.123722 0
M  V30 2912 H 281.5 -1.53593 0.399344 0
M  V30 2913 H 281.521 -3.50666 -1.47694 0
M  V30 2914 H 281.033 -3.86847 0.311575 0
M  V30 2915 H 279.134 -3.11945 -2.03767 0
M  V30 2916 H 279.247 -4.68711 -0.992317 0
M  V30 2917 H 277.611 -2.46993 -0.621821 0
M  V30 2918 H 278.394 -3.33674 0.807256 0
M  V30 2919 N 280.839 0.0985539 -1.57292 0
M  V30 2920 C 282.116 0.834155 -1.76921 0
M  V30 2921 C 282.496 1.97101 -0.755928 0
M  V30 2922 O 281.844 2.27474 0.216245 0
M  V30 2923 C 282.054 1.33194 -3.22584 0
M  V30 2924 C 283.402 1.77611 -3.85668 0
M  V30 2925 O 284.426 1.42825 -3.26312 0
M  V30 2926 O 283.285 2.4192 -4.90038 0
M  V30 2927 H 280.379 0.397628 -0.725135 0
M  V30 2928 H 282.925 0.0807044 -1.69508 0
M  V30 2929 H 281.697 0.517248 -3.87866 0
M  V30 2930 H 281.32 2.1475 -3.34616 0
M  V30 2931 N 282.317 1.53212 0.369288 0
M  V30 2932 C 283.28 1.7872 1.43498 0
M  V30 2933 C 284.28 0.657554 1.46741 0
M  V30 2934 O 285.47 0.925736 1.47566 0
M  V30 2935 C 282.602 1.90591 2.82645 0
M  V30 2936 H 283.795 2.73894 1.22156 0
M  V30 2937 H 281.348 1.44233 0.602203 0
M  V30 2938 H 282.083 0.974709 3.09306 0
M  V30 2939 H 281.868 2.72751 2.8169 0
M  V30 2940 H 283.358 2.11931 3.59826 0
M  V30 2941 N 283.795 -0.628877 1.44509 0
M  V30 2942 C 284.725 -1.75187 1.54376 0
M  V30 2943 C 285.706 -1.65411 0.396618 0
M  V30 2944 O 286.891 -1.84137 0.617031 0
M  V30 2945 C 284.021 -3.13725 1.48976 0
M  V30 2946 C 282.975 -3.38291 2.62189 0
M  V30 2947 C 282.301 -4.76883 2.41841 0
M  V30 2948 C 283.601 -3.30632 4.04326 0
M  V30 2949 H 285.295 -1.67187 2.48373 0
M  V30 2950 H 282.841 -0.802909 1.19538 0
M  V30 2951 H 284.794 -3.92064 1.54478 0
M  V30 2952 H 283.518 -3.22515 0.514961 0
M  V30 2953 H 282.177 -2.62334 2.56079 0
M  V30 2954 H 281.825 -4.82378 1.42548 0
M  V30 2955 H 281.525 -4.94278 3.17747 0
M  V30 2956 H 283.049 -5.57449 2.49165 0
M  V30 2957 H 284.463 -3.98873 4.11793 0
M  V30 2958 H 282.86 -3.59561 4.80454 0
M  V30 2959 H 283.93 -2.28404 4.27738 0
M  V30 2960 N 285.273 -1.31445 -0.869486 0
M  V30 2961 C 286.236 -1.19094 -1.9583 0
M  V30 2962 C 287.236 -0.117906 -1.60367 0
M  V30 2963 O 288.426 -0.367208 -1.70286 0
M  V30 2964 C 285.558 -0.828165 -3.30688 0
M  V30 2965 H 286.751 -2.15842 -2.08212 0
M  V30 2966 H 284.304 -1.15063 -1.05784 0
M  V30 2967 H 285.039 0.138142 -3.24006 0
M  V30 2968 H 284.824 -1.6038 -3.578 0
M  V30 2969 H 286.314 -0.765658 -4.10521 0
M  V30 2970 N 286.751 1.08385 -1.14413 0
M  V30 2971 C 287.684 2.14642 -0.774871 0
M  V30 2972 C 288.662 1.60761 0.243876 0
M  V30 2973 O 289.846 1.88031 0.132883 0
M  V30 2974 C 286.973 3.38366 -0.150491 0
M  V30 2975 C 286.019 4.10997 -1.13945 0
M  V30 2976 S 286.852 4.63797 -2.67679 0
M  V30 2977 C 288.008 5.90808 -2.06631 0
M  V30 2978 H 288.241 2.45633 -1.67487 0
M  V30 2979 H 285.774 1.20498 -0.96538 0
M  V30 2980 H 287.732 4.09996 0.203334 0
M  V30 2981 H 286.393 3.05572 0.72694 0
M  V30 2982 H 285.586 4.99783 -0.65059 0
M  V30 2983 H 285.188 3.4528 -1.43727 0
M  V30 2984 H 287.48 6.62411 -1.4219 0
M  V30 2985 H 288.423 6.4439 -2.93542 0
M  V30 2986 H 288.831 5.4383 -1.51357 0
M  V30 2987 N 288.23 0.939286 1.26551 0
M  V30 2988 C 289.641 0.628782 1.75793 0
M  V30 2989 C 289.992 -0.856046 1.7654 0
M  V30 2990 O 289.117 -1.66994 1.3763 0
M  V30 2991 C 289.712 1.13465 3.19235 0
M  V30 2992 C 288.271 0.874601 3.66098 0
M  V30 2993 C 287.418 1.28667 2.45642 0
M  V30 2994 H 290.369 1.1178 1.12654 0
M  V30 2995 H 290.39 0.487609 3.77363 0
M  V30 2996 H 289.902 2.21535 3.1866 0
M  V30 2997 H 288.003 -0.191793 3.72106 0
M  V30 2998 H 288.116 1.50028 4.55004 0
M  V30 2999 H 286.48 0.705109 2.44745 0
M  V30 3000 H 287.263 2.37625 2.47769 0
M  V30 3001 N 289.708 -1.40897 0.706093 0
M  V30 3002 C 290.64 -2.29199 0.00815776 0
M  V30 3003 C 291.653 -1.45336 -0.733582 0
M  V30 3004 O 292.842 -1.68727 -0.582537 0
M  V30 3005 C 289.942 -3.23417 -1.01265 0
M  V30 3006 C 289.115 -4.36089 -0.338387 0
M  V30 3007 C 288.174 -5.10811 -1.26326 0
M  V30 3008 O 287.2 -5.64215 -0.751651 0
M  V30 3009 N 288.402 -5.19269 -2.595 0
M  V30 3010 H 291.167 -2.89738 0.766297 0
M  V30 3011 H 288.728 -1.52164 0.55296 0
M  V30 3012 H 290.72 -3.70276 -1.63334 0
M  V30 3013 H 289.29 -2.64112 -1.67223 0
M  V30 3014 H 288.51 -3.91479 0.462352 0
M  V30 3015 H 289.798 -5.08634 0.130031 0
M  V30 3016 H 289.196 -4.77347 -3.03573 0
M  V30 3017 H 287.753 -5.69667 -3.16737 0
M  V30 3018 N 291.186 -0.45159 -1.50991 0
M  V30 3019 C 292.416 0.108177 -2.06317 0
M  V30 3020 C 292.824 1.35774 -1.31765 0
M  V30 3021 O 292.167 1.79838 -0.374694 0
M  V30 3022 C 292.229 0.481659 -3.56259 0
M  V30 3023 C 291.893 -0.663114 -4.52163 0
M  V30 3024 C 292.89 -1.53947 -4.96585 0
M  V30 3025 C 290.575 -0.8479 -4.95092 0
M  V30 3026 C 292.569 -2.58518 -5.82621 0
M  V30 3027 C 290.256 -1.89686 -5.80915 0
M  V30 3028 C 291.254 -2.76388 -6.24579 0
M  V30 3029 O 290.942 -3.79482 -7.08695 0
M  V30 3030 H 290.674 0.00499183 -0.675982 0
M  V30 3031 H 293.228 -0.633659 -1.95381 0
M  V30 3032 H 291.458 1.27641 -3.65027 0
M  V30 3033 H 293.147 0.974233 -3.94035 0
M  V30 3034 H 293.913 -1.4083 -4.64103 0
M  V30 3035 H 289.792 -0.18258 -4.60638 0
M  V30 3036 H 293.336 -3.26224 -6.16623 0
M  V30 3037 H 289.233 -2.02817 -6.12809 0
M  V30 3038 H 290.001 -3.76234 -7.26905 0
M  V30 3039 N 292.664 1.56529 -0.183458 0
M  V30 3040 C 293.913 1.96419 0.458511 0
M  V30 3041 C 294.226 1.0727 1.63562 0
M  V30 3042 O 295.432 1.36893 2.34462 0
M  V30 3043 C 293.888 3.49298 0.867122 0
M  V30 3044 C 293.496 4.47092 -0.285057 0
M  V30 3045 C 295.24 3.97983 1.47683 0
M  V30 3046 C 293.147 5.91225 0.143862 0
M  V30 3047 H 292.077 0.733394 0.175071 0
M  V30 3048 H 294.728 1.81448 -0.273624 0
M  V30 3049 H 293.11 3.59731 1.65559 0
M  V30 3050 H 294.284 4.48383 -1.0625 0
M  V30 3051 H 292.599 4.08535 -0.805503 0
M  V30 3052 H 295.196 5.03134 1.80999 0
M  V30 3053 H 295.539 3.41618 2.37914 0
M  V30 3054 H 296.072 3.90617 0.752562 0
M  V30 3055 H 292.811 6.5149 -0.723974 0
M  V30 3056 H 292.331 5.93214 0.886413 0
M  V30 3057 H 294.01 6.44362 0.583628 0
M  V30 3058 N 294.142 -0.090211 1.57342 0
M  V30 3059 C 295.072 -1.10976 2.05443 0
M  V30 3060 C 296.053 -1.41482 0.944284 0
M  V30 3061 O 297.238 -1.51428 1.21586 0
M  V30 3062 C 294.368 -2.42831 2.48295 0
M  V30 3063 C 293.322 -2.26721 3.63018 0
M  V30 3064 C 292.648 -3.63796 3.91863 0
M  V30 3065 C 293.948 -1.7037 4.93732 0
M  V30 3066 H 295.642 -0.709564 2.9087 0
M  V30 3067 H 293.188 -0.339874 1.39932 0
M  V30 3068 H 295.141 -3.14431 2.80555 0
M  V30 3069 H 293.865 -2.84795 1.59873 0
M  V30 3070 H 292.524 -1.57565 3.31012 0
M  V30 3071 H 292.172 -4.03297 3.00601 0
M  V30 3072 H 291.872 -3.53861 4.69101 0
M  V30 3073 H 293.396 -4.36855 4.26603 0
M  V30 3074 H 294.81 -2.31816 5.24342 0
M  V30 3075 H 293.207 -1.71181 5.75167 0
M  V30 3076 H 294.277 -0.663542 4.80339 0
M  V30 3077 N 295.62 -1.53406 -0.361157 0
M  V30 3078 C 296.897 -1.60411 -1.11927 0
M  V30 3079 C 297.277 -0.414385 -2.06993 0
M  V30 3080 O 296.625 0.594976 -2.20618 0
M  V30 3081 C 296.835 -2.95652 -1.85448 0
M  V30 3082 C 298.183 -3.50386 -2.39823 0
M  V30 3083 O 299.207 -2.97711 -1.95568 0
M  V30 3084 O 298.066 -4.42482 -3.20737 0
M  V30 3085 H 295.16 -0.64811 -0.513695 0
M  V30 3086 H 297.706 -1.65749 -0.364065 0
M  V30 3087 H 296.478 -3.73682 -1.16091 0
M  V30 3088 H 296.101 -2.93825 -2.67866 0
M  V30 3089 N 297.098 0.621204 -1.44841 0
M  V30 3090 C 298.031 1.7459 -1.46947 0
M  V30 3091 C 299.009 1.59273 -0.327238 0
M  V30 3092 O 300.193 1.81021 -0.525706 0
M  V30 3093 C 297.32 3.12274 -1.31159 0
M  V30 3094 C 296.366 3.46216 -2.49072 0
M  V30 3095 S 297.199 3.4258 -4.11581 0
M  V30 3096 C 298.355 4.82867 -3.98233 0
M  V30 3097 H 298.588 1.72538 -2.42111 0
M  V30 3098 H 296.121 0.796683 -1.32259 0
M  V30 3099 H 298.079 3.91722 -1.22737 0
M  V30 3100 H 296.74 3.11855 -0.374885 0
M  V30 3101 H 295.933 4.4643 -2.33915 0
M  V30 3102 H 295.535 2.74253 -2.54286 0
M  V30 3103 H 297.827 5.7234 -3.62537 0
M  V30 3104 H 298.77 5.0308 -4.98313 0
M  V30 3105 H 299.178 4.57908 -3.30121 0
M  V30 3106 N 298.576 1.31904 0.862503 0
M  V30 3107 C 299.506 1.22782 1.98612 0
M  V30 3108 C 300.487 0.113362 1.69722 0
M  V30 3109 O 301.672 0.299218 1.91881 0
M  V30 3110 C 298.802 0.942058 3.34279 0
M  V30 3111 C 297.756 2.0169 3.77499 0
M  V30 3112 C 297.082 1.58369 5.10709 0
M  V30 3113 C 298.382 3.43096 3.93805 0
M  V30 3114 H 300.076 2.16788 2.06502 0
M  V30 3115 H 297.622 1.04366 0.992154 0
M  V30 3116 H 299.575 0.864818 4.1243 0
M  V30 3117 H 298.299 -0.0336603 3.26583 0
M  V30 3118 H 296.958 2.08416 3.01593 0
M  V30 3119 H 296.606 0.595628 4.99461 0
M  V30 3120 H 296.306 2.30279 5.40597 0
M  V30 3121 H 297.83 1.52067 5.91361 0
M  V30 3122 H 299.244 3.39003 4.62331 0
M  V30 3123 H 297.641 4.13288 4.35101 0
M  V30 3124 H 298.711 3.83334 2.96957 0
M  V30 3125 N 300.054 -1.07777 1.14986 0
M  V30 3126 C 301.331 -1.7699 0.832695 0
M  V30 3127 C 301.711 -2.001 -0.672561 0
M  V30 3128 O 301.059 -1.61598 -1.6155 0
M  V30 3129 C 301.269 -3.08139 1.63863 0
M  V30 3130 C 302.617 -3.8256 1.84208 0
M  V30 3131 O 303.641 -3.17939 1.60603 0
M  V30 3132 O 302.5 -4.98612 2.23714 0
M  V30 3133 H 299.594 -0.768389 0.305791 0
M  V30 3134 H 302.14 -1.14182 1.25541 0
M  V30 3135 H 300.912 -2.86909 2.6608 0
M  V30 3136 H 300.535 -3.78678 1.21197 0
M  V30 3137 N 301.532 -0.945985 -1.26051 0
M  V30 3138 C 302.442 -0.465633 -2.29933 0
M  V30 3139 C 303.458 0.462761 -1.67733 0
M  V30 3140 O 304.634 0.341118 -1.9849 0
M  V30 3141 C 301.699 0.256994 -3.45746 0
M  V30 3142 C 300.76 -0.708549 -4.23412 0
M  V30 3143 C 299.993 -0.0203135 -5.33696 0
M  V30 3144 O 300.216 1.19571 -5.57726 0
M  V30 3145 O 299.15 -0.701459 -5.97799 0
M  V30 3146 H 302.976 -1.32866 -2.73094 0
M  V30 3147 H 300.561 -0.712071 -1.31339 0
M  V30 3148 H 302.443 0.663852 -4.16138 0
M  V30 3149 H 301.118 1.09533 -3.04605 0
M  V30 3150 H 300.025 -1.16545 -3.55483 0
M  V30 3151 H 301.358 -1.51465 -4.68315 0
M  V30 3152 N 303.011 1.40521 -0.713556 0
M  V30 3153 C 303.958 2.30723 -0.059684 0
M  V30 3154 C 304.928 1.48079 0.752448 0
M  V30 3155 O 306.113 1.76823 0.71681 0
M  V30 3156 C 303.253 3.34274 0.857594 0
M  V30 3157 C 302.366 4.31986 0.0351536 0
M  V30 3158 C 301.501 5.22605 0.951724 0
M  V30 3159 C 300.54 6.11976 0.123253 0
M  V30 3160 N 299.677 6.9502 0.99459 0
M  V30 3161 H 304.517 2.86074 -0.834596 0
M  V30 3162 H 302.054 1.40879 -0.42326 0
M  V30 3163 H 304.012 3.92879 1.40364 0
M  V30 3164 H 302.642 2.8043 1.59871 0
M  V30 3165 H 301.694 3.7518 -0.628052 0
M  V30 3166 H 303.006 4.95101 -0.606347 0
M  V30 3167 H 302.16 5.86131 1.56638 0
M  V30 3168 H 300.899 4.59759 1.62705 0
M  V30 3169 H 299.904 5.47482 -0.50435 0
M  V30 3170 H 301.129 6.76881 -0.548539 0
M  V30 3171 H 299.075 6.34764 1.6556 0
M  V30 3172 H 298.992 7.54892 0.40908 0
M  V30 3173 H 300.26 7.62997 1.59549 0
M  V30 3174 N 304.489 0.459591 1.5075 0
M  V30 3175 C 305.737 -0.0991532 2.01857 0
M  V30 3176 C 306.058 -1.41247 1.34441 0
M  V30 3177 O 305.328 -1.89775 0.486022 0
M  V30 3178 H 303.908 -0.039633 0.745948 0
M  V30 3179 H 306.57 0.607387 1.85194 0
M  V30 3180 H 305.666 -0.258998 3.11023 0
M  V30 3181 N 305.967 -1.56429 0.191757 0
M  V30 3182 C 307.216 -1.9666 -0.448088 0
M  V30 3183 C 307.529 -1.08136 -1.62991 0
M  V30 3184 O 308.735 -1.38135 -2.33733 0
M  V30 3185 C 307.191 -3.49753 -0.848585 0
M  V30 3186 C 306.799 -4.46935 0.308764 0
M  V30 3187 C 308.543 -3.9876 -1.4557 0
M  V30 3188 C 306.45 -5.91293 -0.112506 0
M  V30 3189 H 305.38 -0.734312 -0.171179 0
M  V30 3190 H 308.031 -1.81301 0.283242 0
M  V30 3191 H 306.413 -3.60604 -1.63649 0
M  V30 3192 H 307.587 -4.47813 1.08627 0
M  V30 3193 H 305.902 -4.08102 0.827158 0
M  V30 3194 H 308.499 -5.04086 -1.78328 0
M  V30 3195 H 308.842 -3.42875 -2.36099 0
M  V30 3196 H 309.375 -3.9101 -0.731836 0
M  V30 3197 H 306.114 -6.51097 0.758514 0
M  V30 3198 H 305.634 -5.93676 -0.854941 0
M  V30 3199 H 307.313 -6.44663 -0.549448 0
M  V30 3200 N 307.445 0.0818655 -1.57387 0
M  V30 3201 C 308.408 1.08265 -2.02018 0
M  V30 3202 C 309.408 1.32183 -0.915664 0
M  V30 3203 O 310.598 1.28073 -1.18081 0
M  V30 3204 C 307.73 2.42871 -2.39221 0
M  V30 3205 H 308.923 0.698204 -2.91659 0
M  V30 3206 H 306.476 0.327303 -1.52835 0
M  V30 3207 H 307.211 2.86167 -1.52575 0
M  V30 3208 H 306.996 2.26855 -3.19811 0
M  V30 3209 H 308.486 3.14826 -2.74362 0
M  V30 3210 N 308.923 1.53595 0.353017 0
M  V30 3211 C 310.169 1.71581 1.09232 0
M  V30 3212 C 310.524 0.468328 1.86613 0
M  V30 3213 O 309.817 -0.538911 1.83865 0
M  V30 3214 C 310.011 2.91313 2.07054 0
M  V30 3215 C 309.84 4.27585 1.39287 0
M  V30 3216 C 308.61 4.92233 1.1417 0
M  V30 3217 C 310.808 5.07656 0.824005 0
M  V30 3218 N 308.79 6.124 0.428841 0
M  V30 3219 C 310.161 6.19531 0.241195 0
M  V30 3220 C 312.216 4.92609 0.723922 0
M  V30 3221 C 310.919 7.18002 -0.431952 0
M  V30 3222 C 312.945 5.91365 0.0645334 0
M  V30 3223 C 312.307 7.02571 -0.507347 0
M  V30 3224 H 308.406 0.680987 0.384422 0
M  V30 3225 H 310.99 1.91013 0.377096 0
M  V30 3226 H 309.161 2.73398 2.75877 0
M  V30 3227 H 310.893 2.98062 2.73753 0
M  V30 3228 H 307.648 4.51612 1.42631 0
M  V30 3229 H 308.072 6.76944 0.0874131 0
M  V30 3230 H 312.714 4.06808 1.15181 0
M  V30 3231 H 310.432 8.03384 -0.871758 0
M  V30 3232 H 314.018 5.81799 -0.0121469 0
M  V30 3233 H 312.898 7.77675 -1.0095 0
M  V30 3234 N 310.401 -0.613514 1.45168 0
M  V30 3235 C 311.626 -1.40437 1.52618 0
M  V30 3236 C 312.051 -1.87438 0.157707 0
M  V30 3237 O 311.409 -1.59791 -0.856537 0
M  V30 3238 C 311.457 -2.58894 2.51011 0
M  V30 3239 O 310.561 -3.59326 2.02382 0
M  V30 3240 H 309.902 -0.419506 0.514695 0
M  V30 3241 H 312.432 -0.747215 1.90467 0
M  V30 3242 H 312.442 -3.06214 2.69624 0
M  V30 3243 H 311.117 -2.24032 3.50403 0
M  V30 3244 H 309.694 -3.18695 1.93618 0
M  V30 3245 N 311.879 -1.3236 -0.855495 0
M  V30 3246 C 312.809 -1.23833 -1.97958 0
M  V30 3247 C 313.79 -0.122361 -1.69659 0
M  V30 3248 O 314.975 -0.30939 -1.9172 0
M  V30 3249 C 312.105 -0.959772 -3.33775 0
M  V30 3250 C 311.059 -2.03689 -3.76424 0
M  V30 3251 C 310.385 -1.61075 -5.09862 0
M  V30 3252 C 311.685 -3.4518 -3.9198 0
M  V30 3253 H 313.379 -2.1788 -2.0535 0
M  V30 3254 H 310.925 -1.04891 -0.986605 0
M  V30 3255 H 312.878 -0.886678 -4.11966 0
M  V30 3256 H 311.602 0.0163404 -3.26596 0
M  V30 3257 H 310.261 -2.10012 -3.00484 0
M  V30 3258 H 309.909 -0.622107 -4.99138 0
M  V30 3259 H 309.609 -2.33143 -5.39368 0
M  V30 3260 H 311.133 -1.55201 -5.90546 0
M  V30 3261 H 312.547 -3.4145 -4.60526 0
M  V30 3262 H 310.944 -4.1559 -4.32903 0
M  V30 3263 H 312.014 -3.84903 -2.94919 0
M  V30 3264 N 313.357 1.07166 -1.15556 0
M  V30 3265 C 314.307 2.12649 -0.82247 0
M  V30 3266 C 315.291 1.59725 0.194129 0
M  V30 3267 O 316.483 1.76999 -0.00540402 0
M  V30 3268 C 313.612 3.41847 -0.315572 0
M  V30 3269 C 312.698 4.0162 -1.36244 0
M  V30 3270 N 313.089 4.35625 -2.5703 0
M  V30 3271 C 311.387 4.29114 -1.21562 0
M  V30 3272 C 312.088 4.83017 -3.24144 0
M  V30 3273 N 311.064 4.81906 -2.51531 0
M  V30 3274 H 314.866 2.36776 -1.74111 0
M  V30 3275 H 312.38 1.24622 -1.0413 0
M  V30 3276 H 314.377 4.16859 -0.0585855 0
M  V30 3277 H 313.037 3.19163 0.597105 0
M  V30 3278 H 314.048 4.26253 -2.94158 0
M  V30 3279 H 310.725 4.15919 -0.362988 0
M  V30 3280 H 312.115 5.18605 -4.27198 0
M  V30 3281 N 314.835 0.952656 1.25548 0
M  V30 3282 C 316.06 0.623025 1.97821 0
M  V30 3283 C 316.485 -0.7976 1.70352 0
M  V30 3284 O 315.843 -1.53905 0.958283 0
M  V30 3285 C 315.891 0.885532 3.49558 0
M  V30 3286 O 314.995 -0.0366641 4.12384 0
M  V30 3287 H 314.336 0.237082 0.620232 0
M  V30 3288 H 316.866 1.27871 1.59719 0
M  V30 3289 H 316.876 0.811009 3.99858 0
M  V30 3290 H 315.551 1.92094 3.6888 0
M  V30 3291 H 314.128 0.0898954 3.72792 0
M  V30 3292 N 316.313 -1.40141 0.720998 0
M  V30 3293 C 317.538 -2.05618 0.271258 0
M  V30 3294 C 317.963 -1.53978 -1.08039 0
M  V30 3295 O 317.321 -0.677463 -1.68167 0
M  V30 3296 C 317.369 -3.59609 0.267197 0
M  V30 3297 O 316.473 -4.05526 -0.749814 0
M  V30 3298 H 315.814 -0.651904 0.126162 0
M  V30 3299 H 318.344 -1.79439 0.982997 0
M  V30 3300 H 318.354 -4.0786 0.106744 0
M  V30 3301 H 317.029 -3.96559 1.25354 0
M  V30 3302 H 315.606 -3.68722 -0.556644 0
M  V30 3303 N 317.792 -0.46758 -1.50504 0
M  V30 3304 C 319.041 0.0902868 -2.01498 0
M  V30 3305 C 319.354 1.411 -1.35463 0
M  V30 3306 O 320.56 2.0536 -1.77594 0
M  V30 3307 C 319.016 0.21142 -3.59278 0
M  V30 3308 C 318.624 -1.10065 -4.34269 0
M  V30 3309 C 320.368 0.721433 -4.18325 0
M  V30 3310 C 318.275 -0.943505 -5.83825 0
M  V30 3311 H 317.205 0.037517 -0.753066 0
M  V30 3312 H 319.856 -0.601943 -1.73346 0
M  V30 3313 H 318.238 0.967352 -3.84003 0
M  V30 3314 H 319.412 -1.86726 -4.21272 0
M  V30 3315 H 317.727 -1.5415 -3.86816 0
M  V30 3316 H 320.324 0.85598 -5.27804 0
M  V30 3317 H 320.667 1.71186 -3.79475 0
M  V30 3318 H 321.2 0.0229843 -3.97793 0
M  V30 3319 H 317.939 -1.90719 -6.27141 0
M  V30 3320 H 317.459 -0.217213 -5.99407 0
M  V30 3321 H 319.138 -0.608715 -6.4413 0
M  V30 3322 N 319.27 1.56325 -0.20005 0
M  V30 3323 C 320.18 2.22931 0.730668 0
M  V30 3324 C 321.196 1.22997 1.23076 0
M  V30 3325 O 322.372 1.55748 1.27689 0
M  V30 3326 C 319.437 2.87948 1.93098 0
M  V30 3327 C 318.498 4.03166 1.47497 0
M  V30 3328 C 317.731 4.65073 2.61807 0
M  V30 3329 O 317.954 4.25913 3.79413 0
M  V30 3330 O 316.888 5.54452 2.34237 0
M  V30 3331 H 320.714 3.03084 0.193391 0
M  V30 3332 H 318.299 1.49371 0.0294621 0
M  V30 3333 H 320.181 3.29063 2.6324 0
M  V30 3334 H 318.856 2.10771 2.45677 0
M  V30 3335 H 317.763 3.66664 0.742201 0
M  V30 3336 H 319.096 4.82022 0.995796 0
M  V30 3337 N 320.748 -0.0735177 1.57428 0
M  V30 3338 C 321.658 -1.10547 2.06922 0
M  V30 3339 C 322.674 -1.42506 0.998402 0
M  V30 3340 O 323.85 -1.52717 1.31299 0
M  V30 3341 C 320.915 -2.40019 2.50184 0
M  V30 3342 C 319.976 -2.15046 3.71556 0
M  V30 3343 C 319.209 -3.38345 4.12745 0
M  V30 3344 O 319.432 -4.47399 3.53822 0
M  V30 3345 O 318.366 -3.2666 5.05546 0
M  V30 3346 H 322.192 -0.715013 2.95163 0
M  V30 3347 H 319.777 -0.287531 1.46607 0
M  V30 3348 H 321.659 -3.16218 2.78539 0
M  V30 3349 H 320.334 -2.78447 1.65072 0
M  V30 3350 H 319.241 -1.36558 3.48285 0
M  V30 3351 H 320.574 -1.81499 4.57514 0
M  V30 3352 N 322.226 -1.5378 -0.344866 0
M  V30 3353 C 323.472 -1.71216 -1.08687 0
M  V30 3354 C 323.805 -0.473281 -1.88345 0
M  V30 3355 O 323.08 0.52968 -1.87149 0
M  V30 3356 C 323.363 -2.97486 -2.02914 0
M  V30 3357 C 323.216 -4.31579 -1.26727 0
M  V30 3358 C 324.535 -3.19422 -3.0275 0
M  V30 3359 H 321.654 -0.62301 -0.393735 0
M  V30 3360 H 324.296 -1.8645 -0.365563 0
M  V30 3361 H 322.446 -2.84629 -2.64421 0
M  V30 3362 H 324.118 -4.56284 -0.67845 0
M  V30 3363 H 322.361 -4.30049 -0.569273 0
M  V30 3364 H 323.032 -5.16106 -1.95803 0
M  V30 3365 H 325.508 -3.316 -2.51357 0
M  V30 3366 H 324.384 -4.09169 -3.65885 0
M  V30 3367 H 324.645 -2.35656 -3.74057 0
M  V30 3368 N 323.704 0.605807 -1.45491 0
M  V30 3369 C 324.637 1.73022 -1.48791 0
M  V30 3370 C 325.615 1.58917 -0.344112 0
M  V30 3371 O 326.799 1.80453 -0.544876 0
M  V30 3372 C 323.926 3.10865 -1.34463 0
M  V30 3373 C 322.972 3.43554 -2.5273 0
M  V30 3374 S 323.805 3.38196 -4.15191 0
M  V30 3375 C 324.961 4.78616 -4.03333 0
M  V30 3376 H 325.194 1.69961 -2.43928 0
M  V30 3377 H 322.727 0.782611 -1.33096 0
M  V30 3378 H 324.685 3.90398 -1.26884 0
M  V30 3379 H 323.346 3.1144 -0.40794 0
M  V30 3380 H 322.539 4.43924 -2.38637 0
M  V30 3381 H 322.141 2.71541 -2.5718 0
M  V30 3382 H 324.433 5.68463 -3.68587 0
M  V30 3383 H 325.376 4.97767 -5.03621 0
M  V30 3384 H 325.784 4.54381 -3.34959 0
M  V30 3385 N 325.182 1.32811 0.848464 0
M  V30 3386 C 326.145 1.22194 1.9391 0
M  V30 3387 C 327.145 0.143404 1.60159 0
M  V30 3388 O 328.335 0.394253 1.6968 0
M  V30 3389 C 325.467 0.88067 3.29328 0
M  V30 3390 H 326.66 2.19127 2.04752 0
M  V30 3391 H 324.213 1.16731 1.0394 0
M  V30 3392 H 324.948 -0.0865776 3.24184 0
M  V30 3393 H 324.733 1.66052 3.55203 0
M  V30 3394 H 326.223 0.830871 4.09251 0
M  V30 3395 N 326.66 -1.06551 1.16123 0
M  V30 3396 C 327.57 -2.17484 0.879662 0
M  V30 3397 C 328.586 -1.73377 -0.147104 0
M  V30 3398 O 329.762 -2.01379 0.0289128 0
M  V30 3399 C 326.827 -3.44591 0.381829 0
M  V30 3400 C 325.888 -4.0322 1.4735 0
M  V30 3401 C 325.121 -5.24261 0.999324 0
M  V30 3402 O 325.344 -5.70198 -0.151957 0
M  V30 3403 O 324.278 -5.74775 1.78653 0
M  V30 3404 H 328.104 -2.44075 1.80724 0
M  V30 3405 H 325.689 -1.16042 0.940992 0
M  V30 3406 H 327.571 -4.21254 0.111053 0
M  V30 3407 H 326.246 -3.19532 -0.51777 0
M  V30 3408 H 325.153 -3.2806 1.79798 0
M  V30 3409 H 326.486 -4.32568 2.34831 0
M  V30 3410 N 328.138 -0.959301 -1.25041 0
M  V30 3411 C 329.384 -0.617525 -1.9317 0
M  V30 3412 C 329.717 0.843981 -1.74902 0
M  V30 3413 O 328.992 1.60615 -1.09696 0
M  V30 3414 C 329.275 -0.982736 -3.46431 0
M  V30 3415 C 329.128 -2.50032 -3.73904 0
M  V30 3416 C 330.447 -0.511176 -4.37121 0
M  V30 3417 H 327.566 -0.22582 -0.701552 0
M  V30 3418 H 330.208 -1.19679 -1.4757 0
M  V30 3419 H 328.358 -0.489806 -3.854 0
M  V30 3420 H 330.03 -3.06737 -3.44544 0
M  V30 3421 H 328.273 -2.93598 -3.19348 0
M  V30 3422 H 328.944 -2.70635 -4.81103 0
M  V30 3423 H 331.42 -0.934075 -4.0548 0
M  V30 3424 H 330.296 -0.795361 -5.43107 0
M  V30 3425 H 330.557 0.588834 -4.38161 0
M  V30 3426 N 329.616 1.39756 -0.72842 0
M  V30 3427 C 330.893 1.94574 -0.200079 0
M  V30 3428 C 331.273 1.66569 1.29684 0
M  V30 3429 O 330.621 0.990326 2.05924 0
M  V30 3430 C 330.831 3.45004 -0.526608 0
M  V30 3431 C 332.179 4.21965 -0.472318 0
M  V30 3432 O 333.203 3.53173 -0.463413 0
M  V30 3433 O 332.062 5.44552 -0.461075 0
M  V30 3434 H 329.156 0.826289 -0.0342851 0
M  V30 3435 H 331.702 1.49293 -0.806829 0
M  V30 3436 H 330.474 3.58796 -1.56144 0
M  V30 3437 H 330.097 3.97449 0.109449 0
M  V30 3438 N 331.094 0.475555 1.50254 0
M  V30 3439 C 332.343 -0.0795996 2.01543 0
M  V30 3440 C 332.656 -1.4038 1.36209 0
M  V30 3441 O 333.862 -2.04415 1.7868 0
M  V30 3442 C 332.318 -0.192363 3.59386 0
M  V30 3443 C 331.926 1.12367 4.33679 0
M  V30 3444 C 333.67 -0.699238 4.18701 0
M  V30 3445 C 331.577 0.974453 5.83317 0
M  V30 3446 H 330.507 -0.0335228 0.753254 0
M  V30 3447 H 333.158 0.611128 1.73025 0
M  V30 3448 H 331.54 -0.946974 3.84511 0
M  V30 3449 H 332.714 1.88958 4.20276 0
M  V30 3450 H 331.029 1.562 3.85993 0
M  V30 3451 H 333.626 -0.827978 5.28251 0
M  V30 3452 H 333.969 -1.69171 3.80377 0
M  V30 3453 H 334.502 -0.00188807 3.978 0
M  V30 3454 H 331.241 1.94042 6.26121 0
M  V30 3455 H 330.761 0.248998 5.99283 0
M  V30 3456 H 332.44 0.642867 6.43798 0
M  V30 3457 N 332.573 -1.56217 0.208337 0
M  V30 3458 C 333.503 -2.22694 -0.702116 0
M  V30 3459 C 334.484 -1.19432 -1.2112 0
M  V30 3460 O 335.669 -1.47978 -1.25762 0
M  V30 3461 C 332.799 -2.8966 -1.9161 0
M  V30 3462 C 331.753 -3.9928 -1.5414 0
M  V30 3463 C 331.079 -4.53476 -2.83308 0
M  V30 3464 C 332.379 -5.17012 -0.741339 0
M  V30 3465 H 334.073 -2.99034 -0.147898 0
M  V30 3466 H 331.619 -1.43831 -0.0696951 0
M  V30 3467 H 333.572 -3.34852 -2.55836 0
M  V30 3468 H 332.296 -2.10746 -2.49507 0
M  V30 3469 H 330.955 -3.54799 -0.922668 0
M  V30 3470 H 330.603 -3.71308 -3.39322 0
M  V30 3471 H 330.303 -5.27451 -2.58976 0
M  V30 3472 H 331.827 -5.01378 -3.485 0
M  V30 3473 H 333.241 -5.58667 -1.28699 0
M  V30 3474 H 331.638 -5.97137 -0.595627 0
M  V30 3475 H 332.708 -4.8423 0.254851 0
M  V30 3476 N 334.051 0.0651679 -1.57465 0
M  V30 3477 C 335.281 0.774683 -1.91526 0
M  V30 3478 C 335.689 1.71305 -0.803196 0
M  V30 3479 O 335.032 1.82231 0.231881 0
M  V30 3480 C 335.094 1.61645 -3.21109 0
M  V30 3481 C 334.758 0.846753 -4.49087 0
M  V30 3482 C 335.755 0.163024 -5.19644 0
M  V30 3483 C 333.44 0.811966 -4.95694 0
M  V30 3484 C 335.434 -0.54519 -6.35064 0
M  V30 3485 C 333.121 0.0999836 -6.11018 0
M  V30 3486 C 334.119 -0.577388 -6.80555 0
M  V30 3487 O 333.807 -1.27789 -7.93678 0
M  V30 3488 H 333.539 0.225031 -0.637446 0
M  V30 3489 H 336.093 0.0377134 -2.05365 0
M  V30 3490 H 334.323 2.39638 -3.03497 0
M  V30 3491 H 336.012 2.20525 -3.40769 0
M  V30 3492 H 336.778 0.181163 -4.84662 0
M  V30 3493 H 332.657 1.32867 -4.41438 0
M  V30 3494 H 336.201 -1.07446 -6.89276 0
M  V30 3495 H 332.098 0.0797945 -6.45451 0
M  V30 3496 H 332.866 -1.18784 -8.09835 0
M  V30 3497 N 335.529 1.53961 0.336706 0
M  V30 3498 C 336.462 1.77255 1.43722 0
M  V30 3499 C 337.44 0.62193 1.50236 0
M  V30 3500 O 338.624 0.857874 1.67847 0
M  V30 3501 C 335.751 1.87733 2.81912 0
M  V30 3502 C 334.797 3.09933 2.92991 0
M  V30 3503 S 335.63 4.68836 2.58753 0
M  V30 3504 C 336.786 4.82202 3.99039 0
M  V30 3505 H 337.019 2.70322 1.23748 0
M  V30 3506 H 334.552 1.44917 0.532777 0
M  V30 3507 H 336.51 1.94455 3.61521 0
M  V30 3508 H 335.171 0.956666 2.99177 0
M  V30 3509 H 334.364 3.1396 3.94265 0
M  V30 3510 H 333.966 3.01472 2.21338 0
M  V30 3511 H 336.258 4.64032 4.9364 0
M  V30 3512 H 337.201 5.84298 4.00002 0
M  V30 3513 H 337.609 4.10604 3.87382 0
M  V30 3514 N 337.007 -0.598083 1.45811 0
M  V30 3515 C 338.235 -1.38322 1.53866 0
M  V30 3516 C 338.65 -1.87992 0.174479 0
M  V30 3517 O 338.007 -1.62756 -0.825627 0
M  V30 3518 C 338.058 -2.58125 2.53089 0
M  V30 3519 O 337.779 -2.10516 3.84206 0
M  V30 3520 C 339.28 -3.50869 2.70935 0
M  V30 3521 H 336.5 -0.423093 0.520801 0
M  V30 3522 H 339.044 -0.728527 1.91083 0
M  V30 3523 H 337.199 -3.19615 2.18917 0
M  V30 3524 H 337.613 -2.88425 4.38077 0
M  V30 3525 H 339.087 -4.31451 3.44317 0
M  V30 3526 H 339.564 -4.01822 1.77301 0
M  V30 3527 H 340.17 -2.95225 3.06141 0
M  V30 3528 N 338.485 -1.33259 -0.841409 0
M  V30 3529 C 339.901 -1.12538 -1.13169 0
M  V30 3530 C 340.101 0.0854037 -2.01319 0
M  V30 3531 O 339.157 0.766417 -2.40587 0
M  V30 3532 C 340.47 -2.41156 -1.79623 0
M  V30 3533 C 342.018 -2.47038 -1.922 0
M  V30 3534 C 342.493 -3.7561 -2.6207 0
M  V30 3535 N 343.984 -3.76667 -2.69585 0
M  V30 3536 C 344.719 -4.72861 -3.2433 0
M  V30 3537 N 344.215 -5.79428 -3.79783 0
M  V30 3538 N 346.008 -4.6034 -3.22558 0
M  V30 3539 H 338.159 -2.10868 -0.254676 0
M  V30 3540 H 340.422 -0.931615 -0.175493 0
M  V30 3541 H 340.128 -3.29747 -1.22311 0
M  V30 3542 H 340.002 -2.53114 -2.79666 0
M  V30 3543 H 342.389 -1.58898 -2.48667 0
M  V30 3544 H 342.47 -2.39022 -0.911148 0
M  V30 3545 H 342.114 -4.64131 -2.06263 0
M  V30 3546 H 342.044 -3.80902 -3.63622 0
M  V30 3547 H 344.535 -2.99648 -2.30259 0
M  V30 3548 H 344.848 -6.48867 -4.19752 0
M  V30 3549 H 343.193 -5.83166 -3.78078 0
M  V30 3550 H 346.384 -3.76244 -2.78492 0
M  V30 3551 H 346.557 -5.35478 -3.64921 0
M  V30 3552 N 339.963 1.05934 -1.16686 0
M  V30 3553 C 341.209 1.79065 -0.95203 0
M  V30 3554 C 341.542 1.87147 0.518629 0
M  V30 3555 O 340.817 1.36574 1.38484 0
M  V30 3556 C 341.1 3.23359 -1.58464 0
M  V30 3557 C 340.953 3.23336 -3.12689 0
M  V30 3558 C 342.272 4.21004 -1.28232 0
M  V30 3559 H 339.391 0.65005 -0.34728 0
M  V30 3560 H 342.033 1.23868 -1.44072 0
M  V30 3561 H 340.183 3.70493 -1.16908 0
M  V30 3562 H 341.855 2.84336 -3.6325 0
M  V30 3563 H 340.098 2.61886 -3.4583 0
M  V30 3564 H 340.769 4.25144 -3.52075 0
M  V30 3565 H 343.245 3.8233 -1.64203 0
M  V30 3566 H 342.121 5.20225 -1.75092 0
M  V30 3567 H 342.382 4.41639 -0.201791 0
M  V30 3568 N 341.441 0.965919 1.2453 0
M  V30 3569 C 342.373 0.452465 2.2469 0
M  V30 3570 C 343.386 -0.437821 1.56802 0
M  V30 3571 O 344.575 -0.244283 1.76821 0
M  V30 3572 C 341.675 -0.366258 3.36915 0
M  V30 3573 C 340.848 0.513701 4.34373 0
M  V30 3574 C 339.907 -0.248716 5.25612 0
M  V30 3575 O 338.933 0.356745 5.68081 0
M  V30 3576 N 340.135 -1.53877 5.59734 0
M  V30 3577 H 342.9 1.31361 2.69378 0
M  V30 3578 H 340.461 0.837541 1.38553 0
M  V30 3579 H 342.453 -0.884297 3.94921 0
M  V30 3580 H 341.023 -1.12832 2.91526 0
M  V30 3581 H 340.243 1.21273 3.75082 0
M  V30 3582 H 341.531 1.11391 4.96457 0
M  V30 3583 H 340.929 -2.05243 5.27154 0
M  V30 3584 H 339.486 -2.00254 6.20275 0
M  V30 3585 N 342.919 -1.39368 0.735821 0
M  V30 3586 C 343.866 -2.30599 0.0963825 0
M  V30 3587 C 344.836 -1.49257 -0.728794 0
M  V30 3588 O 346.021 -1.77941 -0.688588 0
M  V30 3589 C 343.161 -3.35596 -0.804305 0
M  V30 3590 C 342.274 -4.31987 0.0335761 0
M  V30 3591 C 341.409 -5.24053 -0.868461 0
M  V30 3592 C 340.448 -6.12095 -0.0258776 0
M  V30 3593 N 339.585 -6.96514 -0.883893 0
M  V30 3594 H 344.425 -2.8471 0.880002 0
M  V30 3595 H 341.962 -1.40188 0.445619 0
M  V30 3596 H 343.92 -3.95062 -1.34096 0
M  V30 3597 H 342.55 -2.82938 -1.55389 0
M  V30 3598 H 341.602 -3.74133 0.68766 0
M  V30 3599 H 342.914 -4.94074 0.685036 0
M  V30 3600 H 342.068 -5.88549 -1.47293 0
M  V30 3601 H 340.807 -4.62289 -1.5537 0
M  V30 3602 H 339.812 -5.4661 0.591386 0
M  V30 3603 H 341.037 -6.75923 0.656156 0
M  V30 3604 H 338.983 -6.37318 -1.55441 0
M  V30 3605 H 338.9 -7.55448 -0.288931 0
M  V30 3606 H 340.168 -7.65439 -1.4739 0
M  V30 3607 N 344.397 -0.483516 -1.5 0
M  V30 3608 C 345.307 0.309172 -2.32554 0
M  V30 3609 C 346.323 0.984159 -1.43493 0
M  V30 3610 O 347.499 0.969399 -1.76535 0
M  V30 3611 C 344.564 1.36979 -3.18493 0
M  V30 3612 C 343.625 0.710095 -4.23387 0
M  V30 3613 C 342.858 1.72018 -5.05218 0
M  V30 3614 O 343.081 2.94813 -4.88305 0
M  V30 3615 O 342.015 1.28515 -5.8802 0
M  V30 3616 H 345.841 -0.366064 -3.01486 0
M  V30 3617 H 343.426 -0.24514 -1.47375 0
M  V30 3618 H 345.308 1.98385 -3.71781 0
M  V30 3619 H 343.983 2.02828 -2.52275 0
M  V30 3620 H 342.89 0.0567539 -3.74057 0
M  V30 3621 H 344.223 0.0943557 -4.9211 0
M  V30 3622 N 345.875 1.56104 -0.216619 0
M  V30 3623 C 347.291 1.58995 0.13886 0
M  V30 3624 C 347.491 1.23333 1.59346 0
M  V30 3625 O 346.547 0.966234 2.33281 0
M  V30 3626 C 347.86 3.00143 -0.182968 0
M  V30 3627 C 349.408 3.12751 -0.124807 0
M  V30 3628 C 349.883 4.56068 -0.420241 0
M  V30 3629 N 351.374 4.61723 -0.369634 0
M  V30 3630 C 352.109 5.70542 -0.571789 0
M  V30 3631 N 351.605 6.87744 -0.835453 0
M  V30 3632 N 353.398 5.59831 -0.504563 0
M  V30 3633 H 345.549 1.77562 -1.16557 0
M  V30 3634 H 347.812 0.825091 -0.466828 0
M  V30 3635 H 347.518 3.30871 -1.19237 0
M  V30 3636 H 347.392 3.73813 0.504367 0
M  V30 3637 H 349.779 2.81822 0.875223 0
M  V30 3638 H 349.86 2.41421 -0.845544 0
M  V30 3639 H 349.504 4.87713 -1.41769 0
M  V30 3640 H 349.434 5.25617 0.321631 0
M  V30 3641 H 351.925 3.77502 -0.173338 0
M  V30 3642 H 352.238 7.66587 -0.977938 0
M  V30 3643 H 350.583 6.895 -0.872592 0
M  V30 3644 H 353.774 4.67145 -0.298842 0
M  V30 3645 H 353.947 6.44573 -0.665519 0
M  V30 3646 N 347.353 -0.0568162 1.57498 0
M  V30 3647 C 348.283 -1.06593 2.0775 0
M  V30 3648 C 349.264 -1.39448 0.974082 0
M  V30 3649 O 350.449 -1.48815 1.24771 0
M  V30 3650 C 347.579 -2.37509 2.5339 0
M  V30 3651 C 346.533 -2.1897 3.67745 0
M  V30 3652 C 345.859 -3.55402 3.99492 0
M  V30 3653 C 347.159 -1.59859 4.97235 0
M  V30 3654 H 348.853 -0.647706 2.9231 0
M  V30 3655 H 346.399 -0.310116 1.40621 0
M  V30 3656 H 348.352 -3.08409 2.87162 0
M  V30 3657 H 347.076 -2.8134 1.65878 0
M  V30 3658 H 345.735 -1.50508 3.3428 0
M  V30 3659 H 345.383 -3.9683 3.09088 0
M  V30 3660 H 345.083 -3.43831 4.76502 0
M  V30 3661 H 346.607 -4.27708 4.35773 0
M  V30 3662 H 348.021 -2.20642 5.29141 0
M  V30 3663 H 346.418 -1.58942 5.78669 0
M  V30 3664 H 347.488 -0.561506 4.81638 0
M  V30 3665 N 348.832 -1.54138 -0.328536 0
M  V30 3666 C 350.109 -1.62749 -1.08499 0
M  V30 3667 C 350.489 -0.458198 -2.06067 0
M  V30 3668 O 349.837 0.548046 -2.2183 0
M  V30 3669 C 350.047 -2.99519 -1.79135 0
M  V30 3670 C 351.395 -3.55394 -2.32337 0
M  V30 3671 O 352.419 -3.01792 -1.89209 0
M  V30 3672 O 351.278 -4.49186 -3.11279 0
M  V30 3673 H 348.372 -0.65886 -0.499832 0
M  V30 3674 H 350.918 -1.66484 -0.328826 0
M  V30 3675 H 349.69 -3.76061 -1.08139 0
M  V30 3676 H 349.313 -2.99441 -2.61574 0
M  V30 3677 N 350.31 0.590341 -1.46126 0
M  V30 3678 C 351.721 1.17243 -1.45296 0
M  V30 3679 C 352.072 1.95281 -0.189723 0
M  V30 3680 O 351.197 2.04502 0.707674 0
M  V30 3681 C 351.792 2.13284 -2.6324 0
M  V30 3682 C 350.351 2.66832 -2.65476 0
M  V30 3683 C 349.498 1.42557 -2.3785 0
M  V30 3684 H 352.449 0.378692 -1.54116 0
M  V30 3685 H 352.47 2.96619 -2.38323 0
M  V30 3686 H 351.982 1.56459 -3.55165 0
M  V30 3687 H 350.083 3.27548 -1.77603 0
M  V30 3688 H 350.196 3.10088 -3.65215 0
M  V30 3689 H 348.56 1.72107 -1.87753 0
M  V30 3690 H 349.343 0.875741 -3.31942 0
M  V30 3691 N 351.788 1.33704 0.83433 0
M  V30 3692 C 353.013 1.28615 1.62705 0
M  V30 3693 C 353.438 -0.139242 1.87584 0
M  V30 3694 O 352.796 -1.09734 1.4432 0
M  V30 3695 C 352.844 2.07139 2.95171 0
M  V30 3696 O 351.948 1.4331 3.86699 0
M  V30 3697 H 351.289 0.44226 0.49528 0
M  V30 3698 H 353.819 1.76335 1.03766 0
M  V30 3699 H 353.829 2.18073 3.44831 0
M  V30 3700 H 352.504 3.10779 2.76386 0
M  V30 3701 H 351.081 1.4105 3.45195 0
M  V30 3702 N 353.266 -1.05314 1.17247 0
M  V30 3703 C 354.176 -2.16538 0.90268 0
M  V30 3704 C 355.192 -1.73523 -0.128707 0
M  V30 3705 O 356.368 -2.01337 0.0502701 0
M  V30 3706 C 353.433 -3.44167 0.418356 0
M  V30 3707 C 352.494 -4.01635 1.51618 0
M  V30 3708 C 351.727 -5.23171 1.05487 0
M  V30 3709 O 351.95 -5.70327 -0.0914715 0
M  V30 3710 O 350.884 -5.72848 1.8474 0
M  V30 3711 H 354.71 -2.42145 1.83302 0
M  V30 3712 H 352.295 -1.15037 0.953246 0
M  V30 3713 H 354.177 -4.21112 0.155726 0
M  V30 3714 H 352.852 -3.20063 -0.48385 0
M  V30 3715 H 351.759 -3.26135 1.83268 0
M  V30 3716 H 353.092 -4.30053 2.39405 0
M  V30 3717 N 354.744 -0.972509 -1.24016 0
M  V30 3718 C 355.974 -0.653853 -1.9598 0
M  V30 3719 C 356.382 0.781801 -1.72292 0
M  V30 3720 O 355.725 1.53677 -1.00644 0
M  V30 3721 C 355.787 -0.854608 -3.49194 0
M  V30 3722 C 355.451 -2.27082 -3.96589 0
M  V30 3723 C 356.448 -3.24892 -4.05883 0
M  V30 3724 C 354.133 -2.5998 -4.29786 0
M  V30 3725 C 356.127 -4.53684 -4.47716 0
M  V30 3726 C 353.814 -3.88997 -4.71301 0
M  V30 3727 C 354.812 -4.85661 -4.80232 0
M  V30 3728 O 354.5 -6.12376 -5.20818 0
M  V30 3729 H 354.232 -0.242572 -0.630979 0
M  V30 3730 H 356.786 -1.30431 -1.58673 0
M  V30 3731 H 355.016 -0.146985 -3.86421 0
M  V30 3732 H 356.705 -0.534311 -4.02368 0
M  V30 3733 H 357.471 -3.00805 -3.80449 0
M  V30 3734 H 353.35 -1.85457 -4.22051 0
M  V30 3735 H 356.894 -5.29135 -4.54601 0
M  V30 3736 H 352.791 -4.12882 -4.96184 0
M  V30 3737 H 353.559 -6.16013 -5.38953 0
M  V30 3738 N 356.222 1.38976 -0.743202 0
M  V30 3739 C 357.185 2.28901 -0.117014 0
M  V30 3740 C 358.185 1.46698 0.658503 0
M  V30 3741 O 359.375 1.67274 0.486305 0
M  V30 3742 C 356.507 3.30309 0.84315 0
M  V30 3743 H 357.7 2.8578 -0.909373 0
M  V30 3744 H 355.253 1.47761 -0.509547 0
M  V30 3745 H 355.988 2.785 1.66157 0
M  V30 3746 H 355.773 3.91029 0.289594 0
M  V30 3747 H 357.263 3.97577 1.2776 0
M  V30 3748 N 357.7 0.491464 1.49741 0
M  V30 3749 C 358.648 -0.305837 2.30581 0
M  V30 3750 C 359.642 -0.971642 1.38764 0
M  V30 3751 O 360.848 -0.90042 1.5586 0
M  V30 3752 H 357.223 -0.117482 0.742767 0
M  V30 3753 H 359.194 0.396093 2.95759 0
M  V30 3754 C 357.943 -1.36319 3.19863 0
M  V30 3755 H 357.266 -0.860258 3.90435 0
M  V30 3756 H 358.706 -1.89323 3.79385 0
M  V30 3757 C 357.165 -2.37621 2.38826 0
M  V30 3758 O 357.695 -3.43311 2.08567 0
M  V30 3759 N 355.901 -2.09849 2.01026 0
M  V30 3760 H 355.448 -1.23922 2.25834 0
M  V30 3761 H 355.406 -2.77859 1.47112 0
M  V30 3762 N 359.178 -1.55987 0.224894 0
M  V30 3763 C 360.424 -1.98684 -0.406502 0
M  V30 3764 C 360.757 -1.11248 -1.59177 0
M  V30 3765 O 360.032 -0.170909 -1.93748 0
M  V30 3766 C 360.315 -3.50218 -0.837808 0
M  V30 3767 C 360.168 -4.48426 0.351332 0
M  V30 3768 C 361.487 -4.06243 -1.69278 0
M  V30 3769 H 358.606 -0.722337 -0.146283 0
M  V30 3770 H 361.248 -1.87255 0.321799 0
M  V30 3771 H 359.398 -3.60089 -1.45837 0
M  V30 3772 H 361.07 -4.50562 0.989526 0
M  V30 3773 H 359.313 -4.22159 0.998207 0
M  V30 3774 H 359.984 -5.52 0.00655905 0
M  V30 3775 H 362.46 -3.99337 -1.16914 0
M  V30 3776 H 361.336 -5.12581 -1.96346 0
M  V30 3777 H 361.597 -3.53332 -2.65723 0
M  V30 3778 N 360.656 0.0484629 -1.57525 0
M  V30 3779 C 361.603 1.05504 -2.05275 0
M  V30 3780 C 362.573 1.37084 -0.937927 0
M  V30 3781 O 363.758 1.47754 -1.2072 0
M  V30 3782 C 360.898 2.35676 -2.52093 0
M  V30 3783 C 360.011 2.10423 -3.77288 0
M  V30 3784 C 359.146 3.34327 -4.12794 0
M  V30 3785 C 358.185 3.04542 -5.30962 0
M  V30 3786 N 357.322 4.20841 -5.61994 0
M  V30 3787 H 362.162 0.640885 -2.91027 0
M  V30 3788 H 359.699 0.304854 -1.43906 0
M  V30 3789 H 361.657 3.11709 -2.77297 0
M  V30 3790 H 360.287 2.7485 -1.69285 0
M  V30 3791 H 359.339 1.24976 -3.59284 0
M  V30 3792 H 360.651 1.84438 -4.63448 0
M  V30 3793 H 359.805 4.1874 -4.39024 0
M  V30 3794 H 358.544 3.63408 -3.25247 0
M  V30 3795 H 357.549 2.18528 -5.04505 0
M  V30 3796 H 358.774 2.76758 -6.20146 0
M  V30 3797 H 356.72 4.4991 -4.77406 0
M  V30 3798 H 356.637 3.98212 -6.42622 0
M  V30 3799 H 357.905 5.06184 -5.92789 0
M  V30 3800 N 362.134 1.5431 0.320358 0
M  V30 3801 C 363.097 1.83195 1.3774 0
M  V30 3802 C 364.097 0.703906 1.44575 0
M  V30 3803 O 365.287 0.972214 1.44546 0
M  V30 3804 C 362.419 1.99487 2.76438 0
M  V30 3805 H 363.612 2.77642 1.1338 0
M  V30 3806 H 361.165 1.46076 0.556012 0
M  V30 3807 H 361.9 1.07262 3.06048 0
M  V30 3808 H 361.685 2.81575 2.7287 0
M  V30 3809 H 363.175 2.23271 3.52902 0
M  V30 3810 N 363.613 -0.582584 1.46437 0
M  V30 3811 C 364.545 -1.70618 1.53043 0
M  V30 3812 C 365.558 -1.57322 0.418769 0
M  V30 3813 O 366.747 -1.64744 0.687136 0
M  V30 3814 C 363.847 -3.08869 1.39474 0
M  V30 3815 C 363.02 -3.48166 2.64762 0
M  V30 3816 C 362.079 -4.65478 2.4539 0
M  V30 3817 O 361.105 -4.71333 3.19114 0
M  V30 3818 N 362.307 -5.60365 1.51564 0
M  V30 3819 H 365.072 -1.65405 2.49923 0
M  V30 3820 H 362.633 -0.768567 1.42494 0
M  V30 3821 H 364.625 -3.85143 1.24287 0
M  V30 3822 H 363.195 -3.08449 0.507758 0
M  V30 3823 H 362.415 -2.61598 2.9489 0
M  V30 3824 H 363.703 -3.71188 3.4799 0
M  V30 3825 H 363.101 -5.5837 0.907705 0
M  V30 3826 H 361.658 -6.36068 1.4234 0
M  V30 3827 N 365.091 -1.34144 -0.827227 0
M  V30 3828 C 366.338 -1.26258 -1.58319 0
M  V30 3829 C 366.666 0.168595 -1.93768 0
M  V30 3830 O 365.921 1.12877 -1.59866 0
M  V30 3831 C 366.22 -2.09464 -2.89585 0
M  V30 3832 C 365.886 -3.58521 -2.73448 0
M  V30 3833 C 364.548 -3.99155 -2.68754 0
M  V30 3834 C 366.9 -4.53189 -2.57428 0
M  V30 3835 C 364.228 -5.32656 -2.45957 0
M  V30 3836 C 366.58 -5.86864 -2.36163 0
M  V30 3837 C 365.244 -6.26667 -2.29879 0
M  V30 3838 H 364.514 -0.462013 -0.579332 0
M  V30 3839 H 367.161 -1.65845 -0.95748 0
M  V30 3840 H 365.466 -1.62692 -3.56425 0
M  V30 3841 H 367.163 -2.00712 -3.47154 0
M  V30 3842 H 363.753 -3.26264 -2.77939 0
M  V30 3843 H 367.937 -4.22696 -2.60081 0
M  V30 3844 H 363.193 -5.62519 -2.39546 0
M  V30 3845 H 367.367 -6.59813 -2.22754 0
M  V30 3846 H 364.994 -7.30049 -2.11975 0
M  V30 3847 N 366.569 1.04691 -1.17803 0
M  V30 3848 C 367.815 1.78045 -0.970969 0
M  V30 3849 C 368.148 1.87686 0.498751 0
M  V30 3850 O 367.423 1.38035 1.37027 0
M  V30 3851 C 367.706 3.2166 -1.61884 0
M  V30 3852 C 367.559 3.20001 -3.161 0
M  V30 3853 C 368.878 4.1962 -1.3269 0
M  V30 3854 H 365.997 0.64633 -0.354155 0
M  V30 3855 H 368.639 1.22333 -1.45378 0
M  V30 3856 H 366.789 3.69232 -1.20831 0
M  V30 3857 H 368.461 2.80467 -3.66246 0
M  V30 3858 H 366.704 2.58203 -3.48588 0
M  V30 3859 H 367.375 4.21386 -3.56564 0
M  V30 3860 H 369.851 3.80567 -1.68249 0
M  V30 3861 H 368.727 5.18339 -1.80599 0
M  V30 3862 H 368.988 4.414 -0.248622 0
M  V30 3863 N 368.047 0.979072 1.23499 0
M  V30 3864 C 368.977 0.537606 2.27227 0
M  V30 3865 C 369.958 -0.428539 1.64613 0
M  V30 3866 O 371.143 -0.322191 1.91509 0
M  V30 3867 C 368.273 -0.162052 3.46922 0
M  V30 3868 C 367.227 0.721242 4.21879 0
M  V30 3869 C 366.553 -0.110555 5.34586 0
M  V30 3870 C 367.853 2.01141 4.82016 0
M  V30 3871 H 369.547 1.40462 2.64406 0
M  V30 3872 H 367.093 0.67684 1.27102 0
M  V30 3873 H 369.046 -0.482192 4.18632 0
M  V30 3874 H 367.77 -1.06351 3.08799 0
M  V30 3875 H 366.429 1.02482 3.51984 0
M  V30 3876 H 366.077 -1.0125 4.92704 0
M  V30 3877 H 365.777 0.477325 5.85658 0
M  V30 3878 H 367.301 -0.425107 6.09118 0
M  V30 3879 H 368.715 1.75612 5.45741 0
M  V30 3880 H 367.112 2.54695 5.43369 0
M  V30 3881 H 368.182 2.69909 4.02836 0
M  V30 3882 N 369.525 -1.3858 0.750561 0
M  V30 3883 C 370.941 -1.53759 0.427824 0
M  V30 3884 C 371.141 -1.71401 -1.05943 0
M  V30 3885 O 370.197 -1.72331 -1.84549 0
M  V30 3886 C 371.51 -2.74642 1.22443 0
M  V30 3887 C 373.058 -2.88489 1.2142 0
M  V30 3888 C 373.533 -4.12329 1.9937 0
M  V30 3889 N 375.024 -4.194 1.96616 0
M  V30 3890 C 375.759 -5.14209 2.53727 0
M  V30 3891 N 375.255 -6.14709 3.19539 0
M  V30 3892 N 377.048 -5.06537 2.43673 0
M  V30 3893 H 369.199 -1.25377 1.71447 0
M  V30 3894 H 371.462 -0.608844 0.726645 0
M  V30 3895 H 371.168 -2.68 2.27747 0
M  V30 3896 H 371.042 -3.67745 0.839273 0
M  V30 3897 H 373.429 -2.94614 0.169232 0
M  V30 3898 H 373.51 -1.96406 1.63885 0
M  V30 3899 H 373.154 -4.06966 3.03877 0
M  V30 3900 H 373.084 -5.03486 1.54302 0
M  V30 3901 H 375.575 -3.47421 1.48684 0
M  V30 3902 H 375.888 -6.8354 3.60545 0
M  V30 3903 H 374.233 -6.1505 3.23633 0
M  V30 3904 H 377.424 -4.26962 1.91889 0
M  V30 3905 H 377.597 -5.80245 2.88479 0
M  V30 3906 N 371.003 -0.499398 -1.49478 0
M  V30 3907 C 371.966 0.268838 -2.27618 0
M  V30 3908 C 372.966 0.895383 -1.33565 0
M  V30 3909 O 374.156 0.760164 -1.56739 0
M  V30 3910 C 371.288 1.38559 -3.11471 0
M  V30 3911 H 372.481 -0.416812 -2.96989 0
M  V30 3912 H 370.034 -0.254313 -1.54217 0
M  V30 3913 H 370.769 2.10544 -2.46661 0
M  V30 3914 H 370.554 0.941797 -3.80621 0
M  V30 3915 H 372.044 1.92678 -3.70493 0
M  V30 3916 N 372.481 1.55866 -0.233164 0
M  V30 3917 C 373.706 2.03449 0.402906 0
M  V30 3918 C 374.131 1.11166 1.51736 0
M  V30 3919 O 373.489 0.101996 1.81013 0
M  V30 3920 C 373.537 3.49165 0.9009 0
M  V30 3921 O 372.641 3.60019 2.01147 0
M  V30 3922 H 371.982 0.657913 0.0897025 0
M  V30 3923 H 374.512 2.01493 -0.355201 0
M  V30 3924 H 374.522 3.89716 1.2077 0
M  V30 3925 H 373.197 4.15813 0.0852889 0
M  V30 3926 H 371.774 3.3136 1.71042 0
M  V30 3927 N 373.959 -0.0401083 1.57549 0
M  V30 3928 C 375.236 -0.767917 1.79896 0
M  V30 3929 C 375.616 -1.9416 0.82856 0
M  V30 3930 O 374.964 -2.2812 -0.131671 0
M  V30 3931 C 375.174 -1.2113 3.27305 0
M  V30 3932 C 376.522 -1.63175 3.91994 0
M  V30 3933 O 377.546 -1.30616 3.31388 0
M  V30 3934 O 376.405 -2.23565 4.98679 0
M  V30 3935 H 373.499 -0.370441 0.739393 0
M  V30 3936 H 376.045 -0.017737 1.69691 0
M  V30 3937 H 374.817 -0.372937 3.89519 0
M  V30 3938 H 374.44 -2.02183 3.42356 0
M  V30 3939 N 375.437 -1.54477 -0.31217 0
M  V30 3940 C 376.367 -1.87652 -1.38957 0
M  V30 3941 C 377.348 -0.734358 -1.53431 0
M  V30 3942 O 378.533 -0.98911 -1.67123 0
M  V30 3943 C 375.663 -2.11396 -2.75552 0
M  V30 3944 C 374.617 -3.27243 -2.75855 0
M  V30 3945 C 373.943 -3.36382 -4.15633 0
M  V30 3946 C 375.243 -4.64622 -2.38587 0
M  V30 3947 H 376.937 -2.77887 -1.11442 0
M  V30 3948 H 374.483 -1.33707 -0.534655 0
M  V30 3949 H 376.436 -2.33189 -3.51 0
M  V30 3950 H 375.16 -1.17921 -3.04569 0
M  V30 3951 H 373.819 -3.05356 -2.02863 0
M  V30 3952 H 373.467 -2.40445 -4.41809 0
M  V30 3953 H 373.167 -4.14249 -4.1674 0
M  V30 3954 H 374.691 -3.60422 -4.92877 0
M  V30 3955 H 376.105 -4.86219 -3.03749 0
M  V30 3956 H 374.502 -5.45121 -2.50925 0
M  V30 3957 H 375.572 -4.66097 -1.33723 0
M  V30 3958 N 376.915 0.57481 -1.46744 0
M  V30 3959 C 377.865 1.67838 -1.54319 0
M  V30 3960 C 378.849 1.55759 -0.40346 0
M  V30 3961 O 380.041 1.6454 -0.652347 0
M  V30 3962 C 377.17 3.06624 -1.5439 0
M  V30 3963 C 376.256 3.23971 -2.73685 0
M  V30 3964 N 376.647 3.11447 -3.9854 0
M  V30 3965 C 374.945 3.5493 -2.70075 0
M  V30 3966 C 375.646 3.31011 -4.78337 0
M  V30 3967 N 374.622 3.56533 -4.10348 0
M  V30 3968 H 378.424 1.56698 -2.48642 0
M  V30 3969 H 375.938 0.779071 -1.42493 0
M  V30 3970 H 377.935 3.85839 -1.57905 0
M  V30 3971 H 376.595 3.1889 -0.611493 0
M  V30 3972 H 377.606 2.89145 -4.29669 0
M  V30 3973 H 374.283 3.73832 -1.85893 0
M  V30 3974 H 375.673 3.26445 -5.87268 0
M  V30 3975 N 378.394 1.34581 0.820102 0
M  V30 3976 C 379.342 1.26401 1.95258 0
M  V30 3977 C 380.336 0.161553 1.68628 0
M  V30 3978 O 381.542 0.326703 1.7701 0
M  V30 3979 H 377.917 0.392749 0.64129 0
M  V30 3980 H 379.888 2.22105 1.99279 0
M  V30 3981 C 378.637 1.03919 3.31807 0
M  V30 3982 H 377.96 1.87984 3.52848 0
M  V30 3983 H 379.4 1.02232 4.11491 0
M  V30 3984 C 377.859 -0.257433 3.35915 0
M  V30 3985 O 378.389 -1.25784 3.81499 0
M  V30 3986 N 376.595 -0.291524 2.89134 0
M  V30 3987 H 376.142 0.523161 2.52232 0
M  V30 3988 H 376.1 -1.15883 2.92264 0
M  V30 3989 N 379.872 -1.04064 1.18357 0
M  V30 3990 C 380.835 -2.10243 0.912707 0
M  V30 3991 C 381.835 -1.60477 -0.101928 0
M  V30 3992 O 383.025 -1.73703 0.131517 0
M  V30 3993 C 380.157 -3.38893 0.369387 0
M  V30 3994 H 381.35 -2.35706 1.85426 0
M  V30 3995 H 378.903 -1.20489 0.995594 0
M  V30 3996 H 379.638 -3.19094 -0.578776 0
M  V30 3997 H 379.423 -3.76331 1.1008 0
M  V30 3998 H 380.913 -4.17128 0.198575 0
M  V30 3999 N 381.35 -0.985608 -1.22978 0
M  V30 4000 C 382.297 -0.529825 -2.24636 0
M  V30 4001 C 383.267 0.434028 -1.60329 0
M  V30 4002 O 384.452 0.340414 -1.87739 0
M  V30 4003 C 381.592 0.156533 -3.44745 0
M  V30 4004 C 380.705 -0.848197 -4.23591 0
M  V30 4005 C 379.84 -0.136109 -5.31026 0
M  V30 4006 C 378.879 -1.1297 -6.01585 0
M  V30 4007 N 378.016 -0.446415 -7.00679 0
M  V30 4008 H 382.856 -1.40148 -2.62988 0
M  V30 4009 H 380.393 -0.702168 -1.29259 0
M  V30 4010 H 382.351 0.571324 -4.1327 0
M  V30 4011 H 380.981 0.992025 -3.07179 0
M  V30 4012 H 380.033 -1.38135 -3.54433 0
M  V30 4013 H 381.345 -1.60512 -4.72268 0
M  V30 4014 H 380.499 0.335784 -6.0577 0
M  V30 4015 H 379.238 0.653373 -4.83304 0
M  V30 4016 H 378.243 -1.6123 -5.25628 0
M  V30 4017 H 379.468 -1.91993 -6.51395 0
M  V30 4018 H 377.414 0.323763 -6.55201 0
M  V30 4019 H 377.331 -1.1419 -7.47326 0
M  V30 4020 H 378.599 0.00291697 -7.795 0
M  V30 4021 N 382.828 1.3818 -0.7579 0
M  V30 4022 C 383.791 2.28764 -0.141286 0
M  V30 4023 C 384.791 1.47388 0.642907 0
M  V30 4024 O 385.981 1.67781 0.468536 0
M  V30 4025 C 383.113 3.31184 0.808069 0
M  V30 4026 H 384.306 2.848 -0.939633 0
M  V30 4027 H 381.859 1.47212 -0.525191 0
M  V30 4028 H 382.594 2.80247 1.63193 0
M  V30 4029 H 382.379 3.91314 0.248104 0
M  V30 4030 H 383.869 3.98909 1.23536 0
M  V30 4031 N 384.306 0.507319 1.49211 0
M  V30 4032 C 385.254 -0.281364 2.30892 0
M  V30 4033 C 386.248 -0.95687 1.39787 0
M  V30 4034 O 387.454 -0.883838 1.56807 0
M  V30 4035 H 383.829 -0.109597 0.743971 0
M  V30 4036 H 385.8 0.42744 2.95323 0
M  V30 4037 C 384.549 -1.32918 3.21291 0
M  V30 4038 H 383.872 -0.818799 3.91326 0
M  V30 4039 H 385.312 -1.85288 3.81372 0
M  V30 4040 C 383.771 -2.35074 2.41333 0
M  V30 4041 O 384.301 -3.4108 2.12197 0
M  V30 4042 N 382.507 -2.07705 2.03241 0
M  V30 4043 H 382.054 -1.2152 2.27136 0
M  V30 4044 H 382.012 -2.76283 1.50051 0
M  V30 4045 N 385.784 -1.5574 0.241426 0
M  V30 4046 C 386.717 -2.17168 -0.700935 0
M  V30 4047 C 387.695 -1.12206 -1.1768 0
M  V30 4048 O 388.879 -1.40565 -1.25593 0
M  V30 4049 C 386.006 -2.76796 -1.95196 0
M  V30 4050 C 385.052 -3.94764 -1.61442 0
M  V30 4051 S 385.885 -5.30613 -0.72182 0
M  V30 4052 C 387.041 -5.93691 -1.98197 0
M  V30 4053 H 387.274 -2.96761 -0.178882 0
M  V30 4054 H 384.807 -1.54378 0.0259299 0
M  V30 4055 H 386.765 -3.11787 -2.67019 0
M  V30 4056 H 385.426 -1.9716 -2.44514 0
M  V30 4057 H 384.619 -4.35057 -2.54443 0
M  V30 4058 H 384.221 -3.61022 -0.976672 0
M  V30 4059 H 386.513 -6.10874 -2.92983 0
M  V30 4060 H 387.456 -6.89258 -1.62262 0
M  V30 4061 H 387.864 -5.22709 -2.13156 0
M  V30 4062 N 387.262 0.0317525 -1.57568 0
M  V30 4063 C 388.209 1.0332 -2.06382 0
M  V30 4064 C 389.179 1.36082 -0.952414 0
M  V30 4065 O 390.364 1.46466 -1.2228 0
M  V30 4066 C 387.504 2.32989 -2.54578 0
M  V30 4067 C 386.617 2.0641 -3.79498 0
M  V30 4068 C 385.752 3.2993 -4.16317 0
M  V30 4069 C 384.791 2.98893 -5.34162 0
M  V30 4070 N 383.928 4.14857 -5.66426 0
M  V30 4071 H 388.768 0.609982 -2.9169 0
M  V30 4072 H 386.305 0.289573 -1.44222 0
M  V30 4073 H 388.263 3.0875 -2.80587 0
M  V30 4074 H 386.893 2.73039 -1.7219 0
M  V30 4075 H 385.945 1.21158 -3.6059 0
M  V30 4076 H 387.257 1.79513 -4.65378 0
M  V30 4077 H 386.411 4.1406 -4.4344 0
M  V30 4078 H 385.15 3.59938 -3.29083 0
M  V30 4079 H 384.155 2.13164 -5.06795 0
M  V30 4080 H 385.38 2.70165 -6.23047 0
M  V30 4081 H 383.326 4.44821 -4.82151 0
M  V30 4082 H 383.243 3.91374 -6.4681 0
M  V30 4083 H 384.511 4.99868 -5.98124 0
M  V30 4084 N 388.74 1.54641 0.303973 0
M  V30 4085 C 389.986 1.74038 1.04109 0
M  V30 4086 C 390.319 0.523051 1.87024 0
M  V30 4087 O 389.594 -0.479874 1.88487 0
M  V30 4088 C 389.877 3.02761 1.94955 0
M  V30 4089 C 389.73 4.34787 1.1524 0
M  V30 4090 C 391.049 3.27336 2.94175 0
M  V30 4091 H 388.168 0.63323 0.377079 0
M  V30 4092 H 390.81 1.87354 0.316001 0
M  V30 4093 H 388.96 2.9154 2.56782 0
M  V30 4094 H 390.632 4.57922 0.557236 0
M  V30 4095 H 388.875 4.31407 0.455053 0
M  V30 4096 H 389.546 5.21116 1.8205 0
M  V30 4097 H 392.022 3.38148 2.42477 0
M  V30 4098 H 390.898 4.18726 3.54908 0
M  V30 4099 H 391.159 2.45491 3.67677 0
M  V30 4100 N 390.218 -0.567019 1.47046 0
M  V30 4101 C 391.148 -1.68482 1.61667 0
M  V30 4102 C 392.129 -1.6358 0.466418 0
M  V30 4103 O 393.314 -1.81354 0.694574 0
M  V30 4104 C 390.444 -3.07124 1.62148 0
M  V30 4105 C 389.398 -3.26867 2.76301 0
M  V30 4106 C 388.724 -4.66196 2.61849 0
M  V30 4107 C 390.024 -3.13186 4.17986 0
M  V30 4108 H 391.718 -1.56502 2.5524 0
M  V30 4109 H 389.264 -0.751486 1.22836 0
M  V30 4110 H 391.217 -3.8516 1.70968 0
M  V30 4111 H 389.941 -3.2004 0.651287 0
M  V30 4112 H 388.6 -2.51237 2.66975 0
M  V30 4113 H 388.248 -4.75898 1.62879 0
M  V30 4114 H 387.948 -4.80356 3.38425 0
M  V30 4115 H 389.472 -5.46379 2.72584 0
M  V30 4116 H 390.886 -3.81049 4.2834 0
M  V30 4117 H 389.283 -3.3886 4.95272 0
M  V30 4118 H 390.353 -2.10057 4.3704 0
M  V30 4119 N 391.696 -1.35014 -0.812953 0
M  V30 4120 C 392.646 -1.23959 -1.91359 0
M  V30 4121 C 393.63 -0.136306 -1.60322 0
M  V30 4122 O 394.822 -0.366925 -1.73155 0
M  V30 4123 C 391.951 -1.00736 -3.28188 0
M  V30 4124 C 391.037 -2.15426 -3.65311 0
M  V30 4125 N 391.428 -3.40612 -3.73921 0
M  V30 4126 C 389.726 -2.06672 -3.95225 0
M  V30 4127 C 390.427 -4.15994 -4.06601 0
M  V30 4128 N 389.403 -3.44685 -4.20349 0
M  V30 4129 H 393.205 -2.18815 -1.96208 0
M  V30 4130 H 390.719 -1.27395 -1.00718 0
M  V30 4131 H 392.716 -0.909052 -4.06868 0
M  V30 4132 H 391.376 -0.067586 -3.2463 0
M  V30 4133 H 392.387 -3.75043 -3.5716 0
M  V30 4134 H 389.064 -1.20511 -3.99729 0
M  V30 4135 H 390.454 -5.24145 -4.20382 0
M  V30 4136 N 393.175 1.03435 -1.18907 0
M  V30 4137 C 394.586 1.58195 -0.991523 0
M  V30 4138 C 394.937 1.90801 0.457081 0
M  V30 4139 O 394.062 1.70272 1.33553 0
M  V30 4140 C 394.657 2.87432 -1.79355 0
M  V30 4141 C 393.216 3.38785 -1.64017 0
M  V30 4142 C 392.363 2.12292 -1.78402 0
M  V30 4143 H 395.314 0.860299 -1.33359 0
M  V30 4144 H 395.335 3.58096 -1.28638 0
M  V30 4145 H 394.847 2.63669 -2.84781 0
M  V30 4146 H 392.948 3.67547 -0.611536 0
M  V30 4147 H 393.061 4.12186 -2.44212 0
M  V30 4148 H 391.425 2.23901 -1.2141 0
M  V30 4149 H 392.208 1.90977 -2.85277 0
M  V30 4150 N 394.653 0.992116 1.22453 0
M  V30 4151 C 395.583 0.561677 2.26644 0
M  V30 4152 C 396.564 -0.411055 1.65059 0
M  V30 4153 O 397.749 -0.301861 1.9184 0
M  V30 4154 C 394.879 -0.125247 3.47074 0
M  V30 4155 C 393.833 0.765948 4.21091 0
M  V30 4156 C 393.159 -0.0538484 5.34673 0
M  V30 4157 C 394.459 2.06242 4.79856 0
M  V30 4158 H 396.153 1.43259 2.62902 0
M  V30 4159 H 393.699 0.690283 1.26377 0
M  V30 4160 H 395.652 -0.437764 4.1912 0
M  V30 4161 H 394.376 -1.03069 3.0991 0
M  V30 4162 H 393.035 1.0621 3.50878 0
M  V30 4163 H 392.683 -0.960188 4.9375 0
M  V30 4164 H 392.383 0.539415 5.85119 0
M  V30 4165 H 393.907 -0.360477 6.09535 0
M  V30 4166 H 395.321 1.8139 5.43848 0
M  V30 4167 H 393.718 2.60444 5.40638 0
M  V30 4168 H 394.788 2.74167 3.99951 0
M  V30 4169 N 396.131 -1.37776 0.765217 0
M  V30 4170 C 397.542 -1.82521 0.392819 0
M  V30 4171 C 397.893 -1.63789 -1.08017 0
M  V30 4172 O 397.018 -1.14542 -1.83601 0
M  V30 4173 C 397.613 -3.31358 0.706214 0
M  V30 4174 C 396.172 -3.74406 0.386952 0
M  V30 4175 C 395.319 -2.60394 0.953422 0
M  V30 4176 H 398.27 -1.2634 0.960412 0
M  V30 4177 H 398.291 -3.80498 -0.0114706 0
M  V30 4178 H 397.803 -3.44959 1.77833 0
M  V30 4179 H 395.904 -3.66377 -0.678112 0
M  V30 4180 H 396.017 -4.70749 0.890636 0
M  V30 4181 H 394.381 -2.51878 0.378064 0
M  V30 4182 H 395.164 -2.76791 2.03081 0
M  V30 4183 N 397.609 -0.515225 -1.4894 0
M  V30 4184 C 399.025 -0.172099 -1.58669 0
M  V30 4185 C 399.225 1.32405 -1.51892 0
M  V30 4186 O 398.281 2.10116 -1.40027 0
M  V30 4187 C 399.594 -0.761533 -2.90897 0
M  V30 4188 C 401.142 -0.728926 -3.04394 0
M  V30 4189 C 401.617 -1.29667 -4.39261 0
M  V30 4190 N 403.108 -1.25799 -4.4579 0
M  V30 4191 C 403.843 -1.66733 -5.48623 0
M  V30 4192 N 403.339 -2.15327 -6.58488 0
M  V30 4193 N 405.132 -1.58061 -5.39419 0
M  V30 4194 H 397.283 -1.48778 -1.51588 0
M  V30 4195 H 399.546 -0.617968 -0.718901 0
M  V30 4196 H 399.252 -1.81136 -3.01468 0
M  V30 4197 H 399.126 -0.230106 -3.76497 0
M  V30 4198 H 401.513 0.312098 -2.93445 0
M  V30 4199 H 401.594 -1.29766 -2.20442 0
M  V30 4200 H 401.238 -2.33655 -4.50963 0
M  V30 4201 H 401.168 -0.703752 -5.21876 0
M  V30 4202 H 403.659 -0.902102 -3.66975 0
M  V30 4203 H 403.972 -2.44594 -7.33071 0
M  V30 4204 H 402.317 -2.19311 -6.59491 0
M  V30 4205 H 405.508 -1.19906 -4.52482 0
M  V30 4206 H 405.681 -1.90284 -6.19432 0
M  V30 4207 N 399.087 1.5561 -0.249682 0
M  V30 4208 C 400.333 1.99306 0.374841 0
M  V30 4209 C 400.666 1.13767 1.57387 0
M  V30 4210 O 399.941 0.201711 1.93451 0
M  V30 4211 C 400.224 3.51507 0.781986 0
M  V30 4212 C 400.077 4.4781 -0.422629 0
M  V30 4213 C 401.396 4.08884 1.62793 0
M  V30 4214 H 398.515 0.724572 0.134773 0
M  V30 4215 H 401.157 1.86719 -0.351549 0
M  V30 4216 H 399.307 3.62363 1.4009 0
M  V30 4217 H 400.979 4.48931 -1.06108 0
M  V30 4218 H 399.222 4.20518 -1.06524 0
M  V30 4219 H 399.893 5.51919 -0.0943766 0
M  V30 4220 H 402.369 4.01147 1.10547 0
M  V30 4221 H 401.245 5.1564 1.88166 0
M  V30 4222 H 401.506 3.57515 2.60068 0
M  V30 4223 N 400.565 -0.0233959 1.57583 0
M  V30 4224 C 401.842 -0.748794 1.807 0
M  V30 4225 C 402.222 -1.9327 0.849106 0
M  V30 4226 O 401.57 -2.28247 -0.107468 0
M  V30 4227 C 401.78 -1.17651 3.28571 0
M  V30 4228 C 403.128 -1.59008 3.93702 0
M  V30 4229 O 404.152 -1.27094 3.32755 0
M  V30 4230 O 403.011 -2.18264 5.01022 0
M  V30 4231 H 400.105 -0.362578 0.743281 0
M  V30 4232 H 402.651 0.000261958 1.697 0
M  V30 4233 H 401.423 -0.331603 3.89892 0
M  V30 4234 H 401.046 -1.98541 3.44481 0
M  V30 4235 N 402.043 -1.548 -0.295768 0
M  V30 4236 C 402.953 -1.89177 -1.38742 0
M  V30 4237 C 403.969 -0.786481 -1.55211 0
M  V30 4238 O 405.145 -1.08344 -1.69775 0
M  V30 4239 C 402.21 -2.13663 -2.73036 0
M  V30 4240 C 401.271 -3.37349 -2.65508 0
M  V30 4241 C 400.504 -3.60658 -3.93398 0
M  V30 4242 O 400.727 -2.86882 -4.93006 0
M  V30 4243 O 399.661 -4.54179 -3.94975 0
M  V30 4244 H 403.487 -2.82059 -1.12589 0
M  V30 4245 H 401.072 -1.41056 -0.492295 0
M  V30 4246 H 402.954 -2.3094 -3.52484 0
M  V30 4247 H 401.629 -1.23967 -2.99022 0
M  V30 4248 H 400.536 -3.25431 -1.84514 0
M  V30 4249 H 401.869 -4.27192 -2.44474 0
M  V30 4250 N 403.521 0.559213 -1.47345 0
M  V30 4251 C 404.77 1.31281 -1.53128 0
M  V30 4252 C 405.083 1.94602 -0.197344 0
M  V30 4253 O 406.289 2.71173 -0.133154 0
M  V30 4254 C 404.745 2.38051 -2.69925 0
M  V30 4255 C 404.353 1.8093 -4.0984 0
M  V30 4256 C 406.097 3.14604 -2.84999 0
M  V30 4257 C 404.004 2.85468 -5.1794 0
M  V30 4258 H 402.934 0.493614 -0.569966 0
M  V30 4259 H 405.585 0.594155 -1.73615 0
M  V30 4260 H 403.967 3.12822 -2.42814 0
M  V30 4261 H 405.141 1.12544 -4.46845 0
M  V30 4262 H 403.456 1.16967 -3.99634 0
M  V30 4263 H 406.053 3.92666 -3.62929 0
M  V30 4264 H 406.396 3.68665 -1.93369 0
M  V30 4265 H 406.929 2.46945 -3.1187 0
M  V30 4266 H 403.668 2.36264 -6.1144 0
M  V30 4267 H 403.188 3.52269 -4.85455 0
M  V30 4268 H 404.867 3.48996 -5.44803 0
M  V30 4269 N 404.999 1.35443 0.805782 0
M  V30 4270 C 405.962 1.28301 1.89925 0
M  V30 4271 C 406.962 0.194285 1.59622 0
M  V30 4272 O 408.152 0.448036 1.6834 0
M  V30 4273 C 405.284 0.984997 3.2636 0
M  V30 4274 H 406.477 2.2553 1.97677 0
M  V30 4275 H 404.03 1.19979 1.00173 0
M  V30 4276 H 404.765 0.016603 3.24296 0
M  V30 4277 H 404.55 1.77269 3.4974 0
M  V30 4278 H 406.04 0.960651 4.064 0
M  V30 4279 N 406.477 -1.02803 1.19454 0
M  V30 4280 C 407.705 -1.79841 1.02297 0
M  V30 4281 C 408.12 -1.83879 -0.428259 0
M  V30 4282 O 407.477 -1.28345 -1.29745 0
M  V30 4283 C 407.528 -3.24852 1.58598 0
M  V30 4284 O 407.249 -3.21097 2.98041 0
M  V30 4285 C 408.75 -4.18485 1.46236 0
M  V30 4286 H 405.97 -0.565936 0.360496 0
M  V30 4287 H 408.514 -1.2948 1.58288 0
M  V30 4288 H 406.669 -3.72401 1.06753 0
M  V30 4289 H 407.083 -4.12033 3.24545 0
M  V30 4290 H 408.557 -5.18121 1.90407 0
M  V30 4291 H 409.034 -4.37254 0.41301 0
M  V30 4292 H 409.64 -3.76811 1.97215 0
M  V30 4293 N 407.956 -0.998596 -1.21925 0
M  V30 4294 C 409.233 -0.593401 -1.86382 0
M  V30 4295 C 409.613 0.92916 -1.89552 0
M  V30 4296 O 408.961 1.81347 -1.39017 0
M  V30 4297 C 409.171 -1.22039 -3.26967 0
M  V30 4298 C 410.519 -1.32449 -4.03413 0
M  V30 4299 O 411.543 -1.17522 -3.36254 0
M  V30 4300 O 410.402 -1.56395 -5.23644 0
M  V30 4301 H 407.496 -0.202385 -0.801854 0
M  V30 4302 H 410.042 -1.09484 -1.29659 0
M  V30 4303 H 408.814 -2.26158 -3.19325 0
M  V30 4304 H 408.437 -0.704906 -3.91301 0
M  V30 4305 N 409.434 1.37368 -0.772513 0
M  V30 4306 C 410.68 1.99969 -0.337681 0
M  V30 4307 C 411.013 1.61184 1.08321 0
M  V30 4308 O 410.288 0.858395 1.74533 0
M  V30 4309 C 410.571 3.56858 -0.482121 0
M  V30 4310 C 410.424 4.0555 -1.94549 0
M  V30 4311 C 411.743 4.39955 0.113143 0
M  V30 4312 H 408.862 0.726464 -0.124171 0
M  V30 4313 H 411.504 1.63034 -0.975699 0
M  V30 4314 H 409.654 3.88452 0.0610361 0
M  V30 4315 H 411.326 3.84518 -2.54841 0
M  V30 4316 H 409.569 3.57715 -2.45403 0
M  V30 4317 H 410.24 5.14587 -1.9976 0
M  V30 4318 H 412.716 4.14623 -0.35031 0
M  V30 4319 H 411.592 5.48897 -0.0180514 0
M  V30 4320 H 411.853 4.25403 1.20354 0
M  V30 4321 N 410.912 0.523116 1.48665 0
M  V30 4322 C 412.189 -0.0775449 1.95446 0
M  V30 4323 C 412.569 -1.5197 1.4652 0
M  V30 4324 O 411.917 -2.17876 0.688657 0
M  V30 4325 C 412.127 0.0326135 3.48985 0
M  V30 4326 C 413.475 -0.130141 4.24401 0
M  V30 4327 O 414.499 -0.0415142 3.56176 0
M  V30 4328 O 413.358 -0.31491 5.45592 0
M  V30 4329 H 410.452 -0.0831012 0.822814 0
M  V30 4330 H 412.998 0.587227 1.59216 0
M  V30 4331 H 411.77 1.03748 3.77296 0
M  V30 4332 H 411.393 -0.671317 3.91892 0
M  V30 4333 N 412.39 -1.55475 0.257931 0
M  V30 4334 C 413.337 -2.21837 -0.636939 0
M  V30 4335 C 414.307 -1.18596 -1.16294 0
M  V30 4336 O 415.492 -1.47081 -1.21539 0
M  V30 4337 C 412.632 -2.9301 -1.82317 0
M  V30 4338 C 411.745 -4.10931 -1.33265 0
M  V30 4339 C 410.88 -4.69791 -2.47931 0
M  V30 4340 C 409.919 -5.7994 -1.95796 0
M  V30 4341 N 409.056 -6.32935 -3.0387 0
M  V30 4342 H 413.896 -2.9793 -0.0643591 0
M  V30 4343 H 411.433 -1.47086 -0.0200031 0
M  V30 4344 H 413.391 -3.3248 -2.52018 0
M  V30 4345 H 412.021 -2.1937 -2.36805 0
M  V30 4346 H 411.073 -3.76699 -0.52931 0
M  V30 4347 H 412.385 -4.90417 -0.910654 0
M  V30 4348 H 411.539 -5.11892 -3.25656 0
M  V30 4349 H 410.278 -3.89545 -2.93438 0
M  V30 4350 H 409.283 -5.37305 -1.16546 0
M  V30 4351 H 410.508 -6.62043 -1.51246 0
M  V30 4352 H 408.454 -5.55591 -3.48791 0
M  V30 4353 H 408.371 -7.07645 -2.66035 0
M  V30 4354 H 409.639 -6.79695 -3.81621 0
M  V30 4355 N 413.868 0.0150385 -1.57593 0
M  V30 4356 C 415.096 0.714395 -1.94175 0
M  V30 4357 C 415.511 1.68135 -0.858841 0
M  V30 4358 O 414.868 1.81766 0.163567 0
M  V30 4359 C 414.919 1.45933 -3.30735 0
M  V30 4360 O 414.64 0.531167 -4.34868 0
M  V30 4361 C 416.141 2.25456 -3.81686 0
M  V30 4362 H 413.361 0.199923 -0.640525 0
M  V30 4363 H 415.905 -0.0316096 -2.04476 0
M  V30 4364 H 414.06 2.15709 -3.21789 0
M  V30 4365 H 414.474 1.05509 -5.13778 0
M  V30 4366 H 415.948 2.731 -4.79709 0
M  V30 4367 H 416.425 3.07485 -3.13607 0
M  V30 4368 H 417.031 1.60727 -3.9376 0
M  V30 4369 N 415.346 1.54954 0.287554 0
M  V30 4370 C 416.757 1.65732 0.859634 0
M  V30 4371 C 417.108 0.574767 1.87592 0
M  V30 4372 O 416.233 -0.286299 2.14498 0
M  V30 4373 C 416.828 3.00438 1.56597 0
M  V30 4374 C 415.387 3.13292 2.08627 0
M  V30 4375 C 414.534 2.61473 0.923416 0
M  V30 4376 H 417.485 1.5857 0.0642338 0
M  V30 4377 H 417.506 2.92613 2.43224 0
M  V30 4378 H 417.018 3.79207 0.826053 0
M  V30 4379 H 415.119 2.39268 2.85625 0
M  V30 4380 H 415.232 4.19647 2.31157 0
M  V30 4381 H 413.596 2.18264 1.31275 0
M  V30 4382 H 414.379 3.42733 0.197241 0
M  V30 4383 N 416.824 -0.551391 1.4764 0
M  V30 4384 C 417.774 -1.65362 1.56969 0
M  V30 4385 C 418.758 -1.55098 0.428189 0
M  V30 4386 O 419.95 -1.63481 0.678441 0
M  V30 4387 C 417.079 -3.04129 1.59249 0
M  V30 4388 C 416.165 -3.19576 2.78804 0
M  V30 4389 N 416.556 -3.05067 4.03445 0
M  V30 4390 C 414.854 -3.50588 2.75688 0
M  V30 4391 C 415.555 -3.2336 4.83543 0
M  V30 4392 N 414.531 -3.4996 4.15968 0
M  V30 4393 H 418.333 -1.52722 2.51104 0
M  V30 4394 H 415.847 -0.756303 1.43714 0
M  V30 4395 H 417.844 -3.83278 1.64024 0
M  V30 4396 H 416.504 -3.17877 0.662148 0
M  V30 4397 H 417.515 -2.82273 4.34215 0
M  V30 4398 H 414.192 -3.70827 1.91817 0
M  V30 4399 H 415.582 -3.17061 5.92387 0
M  V30 4400 N 418.302 -1.35869 -0.798587 0
M  V30 4401 C 419.265 -1.29307 -1.89242 0
M  V30 4402 C 420.265 -0.202747 -1.59517 0
M  V30 4403 O 421.455 -0.456957 -1.681 0
M  V30 4404 C 418.587 -1.00229 -3.25833 0
M  V30 4405 H 419.78 -2.26576 -1.96478 0
M  V30 4406 H 417.333 -1.20509 -0.995358 0
M  V30 4407 H 418.068 -0.033801 -3.24282 0
M  V30 4408 H 417.853 -1.79121 -3.48795 0
M  V30 4409 H 419.343 -0.98219 -4.05885 0
M  V30 4410 N 419.78 1.02168 -1.19998 0
M  V30 4411 C 421.026 1.7606 -1.01855 0
M  V30 4412 C 421.381 1.87178 0.445222 0
M  V30 4413 O 420.674 1.3828 1.32624 0
M  V30 4414 C 420.868 3.18081 -1.62969 0
M  V30 4415 C 420.697 3.20809 -3.15137 0
M  V30 4416 C 419.467 3.28342 -3.84083 0
M  V30 4417 C 421.665 3.07268 -4.1242 0
M  V30 4418 N 419.647 3.2052 -5.23584 0
M  V30 4419 C 421.018 3.0716 -5.38566 0
M  V30 4420 C 423.073 2.91448 -4.03686 0
M  V30 4421 C 421.776 2.92853 -6.56985 0
M  V30 4422 C 423.802 2.78494 -5.21723 0
M  V30 4423 C 423.164 2.79046 -6.46771 0
M  V30 4424 H 419.263 0.655192 -0.426905 0
M  V30 4425 H 421.847 1.21564 -1.52087 0
M  V30 4426 H 420.018 3.70882 -1.15329 0
M  V30 4427 H 421.75 3.80375 -1.38192 0
M  V30 4428 H 418.505 3.34859 -3.34913 0
M  V30 4429 H 418.929 3.19997 -5.96599 0
M  V30 4430 H 423.571 2.89838 -3.07821 0
M  V30 4431 H 421.289 2.93213 -7.53028 0
M  V30 4432 H 424.875 2.67278 -5.16773 0
M  V30 4433 H 423.755 2.69134 -7.36571 0
M  V30 4434 N 421.258 1.00505 1.21394 0
M  V30 4435 C 422.488 0.705584 1.94178 0
M  V30 4436 C 422.896 -0.735846 1.74304 0
M  V30 4437 O 422.239 -1.50954 1.04683 0
M  V30 4438 C 422.301 0.94689 3.46806 0
M  V30 4439 C 421.965 2.37517 3.90429 0
M  V30 4440 C 422.962 3.35539 3.97127 0
M  V30 4441 C 420.647 2.71284 4.22742 0
M  V30 4442 C 422.641 4.65395 4.3553 0
M  V30 4443 C 420.328 4.01356 4.60822 0
M  V30 4444 C 421.326 4.98223 4.67186 0
M  V30 4445 O 421.014 6.25969 5.04399 0
M  V30 4446 H 420.746 0.259216 0.624326 0
M  V30 4447 H 423.3 1.34592 1.55159 0
M  V30 4448 H 421.53 0.249386 3.85895 0
M  V30 4449 H 423.219 0.640804 4.0081 0
M  V30 4450 H 423.985 3.10786 3.7234 0
M  V30 4451 H 419.864 1.96581 4.16985 0
M  V30 4452 H 423.408 5.41002 4.40412 0
M  V30 4453 H 419.305 4.25893 4.85063 0
M  V30 4454 H 420.073 6.30085 5.22431 0
M  V30 4455 N 422.737 -1.36956 0.779787 0
M  V30 4456 C 423.984 -1.99491 0.347766 0
M  V30 4457 C 424.312 -1.61898 -1.07793 0
M  V30 4458 O 423.567 -0.86071 -1.75756 0
M  V30 4459 C 423.866 -3.54585 0.447686 0
M  V30 4460 C 423.532 -4.1197 1.83279 0
M  V30 4461 C 422.194 -4.27356 2.2118 0
M  V30 4462 C 424.546 -4.43354 2.74019 0
M  V30 4463 C 421.874 -4.71432 3.4924 0
M  V30 4464 C 424.226 -4.88858 4.01497 0
M  V30 4465 C 422.89 -5.0245 4.39432 0
M  V30 4466 H 422.16 -0.729991 0.127257 0
M  V30 4467 H 424.807 -1.63599 0.995376 0
M  V30 4468 H 423.112 -3.90773 -0.283447 0
M  V30 4469 H 424.809 -4.00888 0.0945948 0
M  V30 4470 H 421.399 -4.00428 1.52825 0
M  V30 4471 H 425.583 -4.31045 2.45995 0
M  V30 4472 H 420.839 -4.80141 3.78516 0
M  V30 4473 H 425.013 -5.12108 4.71931 0
M  V30 4474 H 422.64 -5.36362 5.38721 0
M  V30 4475 N 424.215 -0.530993 -1.48385 0
M  V30 4476 C 425.147 0.268353 -2.27624 0
M  V30 4477 C 426.16 0.903525 -1.35426 0
M  V30 4478 O 427.349 0.781796 -1.60469 0
M  V30 4479 C 424.449 1.39535 -3.08842 0
M  V30 4480 C 423.622 0.861913 -4.28824 0
M  V30 4481 C 422.681 1.87016 -4.91845 0
M  V30 4482 O 421.707 1.4267 -5.5103 0
M  V30 4483 N 422.909 3.20238 -4.84178 0
M  V30 4484 H 425.674 -0.41123 -2.96865 0
M  V30 4485 H 423.235 -0.365387 -1.57723 0
M  V30 4486 H 425.227 2.06803 -3.47871 0
M  V30 4487 H 423.797 1.97859 -2.42014 0
M  V30 4488 H 423.017 0.0132126 -3.94198 0
M  V30 4489 H 424.305 0.484415 -5.06489 0
M  V30 4490 H 423.703 3.58932 -4.37246 0
M  V30 4491 H 422.26 3.83136 -5.27305 0
M  V30 4492 N 425.693 1.55336 -0.266172 0
M  V30 4493 C 426.625 2.19544 0.658247 0
M  V30 4494 C 427.638 1.17746 1.12427 0
M  V30 4495 O 428.827 1.44517 1.04772 0
M  V30 4496 C 425.927 2.80032 1.9088 0
M  V30 4497 C 425.1 4.07436 1.59106 0
M  V30 4498 C 424.159 4.52056 2.69317 0
M  V30 4499 O 423.185 5.18023 2.35883 0
M  V30 4500 N 424.387 4.21448 3.99201 0
M  V30 4501 H 427.152 2.99503 0.108754 0
M  V30 4502 H 424.713 1.61667 -0.0869059 0
M  V30 4503 H 426.705 3.06831 2.63888 0
M  V30 4504 H 425.275 2.04119 2.36758 0
M  V30 4505 H 424.495 3.88021 0.695243 0
M  V30 4506 H 425.783 4.90462 1.35367 0
M  V30 4507 H 425.181 3.68528 4.29189 0
M  V30 4508 H 423.738 4.53039 4.68614 0
M  V30 4509 N 427.171 -0.0066808 1.57599 0
M  V30 4510 C 428.134 -0.985035 2.06953 0
M  V30 4511 C 429.134 -1.27663 0.977687 0
M  V30 4512 O 430.324 -1.22293 1.24057 0
M  V30 4513 C 427.456 -2.3118 2.50536 0
M  V30 4514 H 428.649 -0.558255 2.94658 0
M  V30 4515 H 426.202 -0.254011 1.54222 0
M  V30 4516 H 426.937 -2.78561 1.66054 0
M  V30 4517 H 426.722 -2.11338 3.3027 0
M  V30 4518 H 428.212 -3.01377 2.8907 0
M  V30 4519 N 428.649 -1.55105 -0.279332 0
M  V30 4520 C 429.897 -1.75066 -1.00977 0
M  V30 4521 C 430.218 -0.551276 -1.87045 0
M  V30 4522 O 429.488 0.433984 -1.91032 0
M  V30 4523 H 428.068 -0.645578 -0.375816 0
M  V30 4524 H 430.73 -1.92497 -0.305089 0
M  V30 4525 H 429.826 -2.64894 -1.65038 0
M  V30 4526 N 430.127 0.543554 -1.4793 0
M  V30 4527 C 431.075 1.67039 -1.61866 0
M  V30 4528 C 432.069 1.62294 -0.48549 0
M  V30 4529 O 433.275 1.67315 -0.66376 0
M  V30 4530 H 429.65 0.552954 -0.509652 0
M  V30 4531 H 431.621 1.52426 -2.56533 0
M  V30 4532 C 430.37 3.05357 -1.6629 0
M  V30 4533 H 429.693 3.09696 -2.5284 0
M  V30 4534 H 431.133 3.83855 -1.80088 0
M  V30 4535 C 429.592 3.34531 -0.398861 0
M  V30 4536 O 430.122 3.98649 0.494162 0
M  V30 4537 N 428.328 2.89299 -0.2747 0
M  V30 4538 H 427.875 2.37298 -1.00236 0
M  V30 4539 H 427.833 3.09188 0.570075 0
M  V30 4540 N 431.605 1.3629 0.791371 0
M  V30 4541 C 432.853 1.30154 1.5461 0
M  V30 4542 C 433.174 -0.119409 1.94634 0
M  V30 4543 O 432.444 -1.05924 1.64794 0
M  V30 4544 H 431.024 0.478784 0.573389 0
M  V30 4545 H 433.686 1.70565 0.94306 0
M  V30 4546 H 432.782 1.92762 2.45457 0
M  V30 4547 N 433.083 -1.0153 1.20538 0
M  V30 4548 C 434.332 -1.74558 1.01057 0
M  V30 4549 C 434.645 -1.90168 -0.457756 0
M  V30 4550 O 435.851 -2.60301 -0.771722 0
M  V30 4551 C 434.307 -3.13963 1.75941 0
M  V30 4552 C 433.915 -3.06361 3.26875 0
M  V30 4553 C 435.659 -3.91191 1.64832 0
M  V30 4554 C 433.566 -4.40782 3.94291 0
M  V30 4555 H 432.496 -0.654417 0.374505 0
M  V30 4556 H 435.147 -1.13521 1.44171 0
M  V30 4557 H 433.529 -3.75549 1.25614 0
M  V30 4558 H 434.703 -2.54074 3.84425 0
M  V30 4559 H 433.018 -2.42625 3.38411 0
M  V30 4560 H 435.615 -4.90644 2.12539 0
M  V30 4561 H 435.958 -4.11884 0.604745 0
M  V30 4562 H 436.491 -3.36236 2.12579 0
M  V30 4563 H 433.23 -4.25292 4.98805 0
M  V30 4564 H 432.75 -4.9307 3.41529 0
M  V30 4565 H 434.429 -5.09621 3.98617 0
M  V30 4566 N 434.561 -1.01147 -1.20859 0
M  V30 4567 C 435.808 -0.697865 -1.90095 0
M  V30 4568 C 436.136 0.772014 -1.78522 0
M  V30 4569 O 435.391 1.57595 -1.16027 0
M  V30 4570 C 435.69 -1.0727 -3.40922 0
M  V30 4571 C 435.356 -2.53792 -3.72693 0
M  V30 4572 C 434.018 -2.93829 -3.81075 0
M  V30 4573 C 436.37 -3.48674 -3.87397 0
M  V30 4574 C 433.698 -4.27696 -4.01613 0
M  V30 4575 C 436.05 -4.82223 -4.09444 0
M  V30 4576 C 434.714 -5.21973 -4.16054 0
M  V30 4577 H 433.984 -0.255367 -0.695607 0
M  V30 4578 H 436.631 -1.27111 -1.43231 0
M  V30 4579 H 434.936 -0.417799 -3.89566 0
M  V30 4580 H 436.633 -0.807818 -3.92779 0
M  V30 4581 H 433.223 -2.21768 -3.66765 0
M  V30 4582 H 437.407 -3.18904 -3.80281 0
M  V30 4583 H 432.663 -4.58055 -4.04964 0
M  V30 4584 H 436.837 -5.55672 -4.19763 0
M  V30 4585 H 434.464 -6.25717 -4.31721 0
M  V30 4586 N 436.039 1.36541 -0.78704 0
M  V30 4587 C 437.002 2.28413 -0.189778 0
M  V30 4588 C 438.002 1.48719 0.611499 0
M  V30 4589 O 439.192 1.68737 0.432842 0
M  V30 4590 C 436.324 3.32824 0.737638 0
M  V30 4591 H 437.517 2.82743 -0.999831 0
M  V30 4592 H 435.07 1.46065 -0.556298 0
M  V30 4593 H 435.805 2.83646 1.57212 0
M  V30 4594 H 435.59 3.91752 0.165044 0
M  V30 4595 H 437.08 4.0144 1.15047 0
M  V30 4596 N 437.518 0.538854 1.48102 0
M  V30 4597 C 438.934 0.19732 1.58376 0
M  V30 4598 C 439.134 -1.29971 1.5398 0
M  V30 4599 O 438.19 -2.07861 1.43352 0
M  V30 4600 C 439.503 0.807716 2.89649 0
M  V30 4601 C 441.051 0.77726 3.03196 0
M  V30 4602 C 441.526 1.36639 4.37143 0
M  V30 4603 N 443.017 1.32875 4.43732 0
M  V30 4604 C 443.752 1.7544 5.45901 0
M  V30 4605 N 443.248 2.25776 6.54979 0
M  V30 4606 N 445.041 1.66623 5.36836 0
M  V30 4607 H 437.192 1.5117 1.49202 0
M  V30 4608 H 439.455 0.629327 0.708979 0
M  V30 4609 H 439.161 1.85909 2.98548 0
M  V30 4610 H 439.035 0.289975 3.76084 0
M  V30 4611 H 441.422 -0.265374 2.93904 0
M  V30 4612 H 441.503 1.33256 2.18349 0
M  V30 4613 H 441.147 2.408 4.47189 0
M  V30 4614 H 441.077 0.786689 5.20691 0
M  V30 4615 H 443.568 0.96037 3.65493 0
M  V30 4616 H 443.881 2.56226 7.29087 0
M  V30 4617 H 442.226 2.29775 6.55918 0
M  V30 4618 H 445.417 1.27089 4.50517 0
M  V30 4619 H 445.59 2.00115 6.16326 0
M  V30 4620 N 438.996 -1.55193 0.274407 0
M  V30 4621 C 439.928 -2.1989 -0.646595 0
M  V30 4622 C 440.941 -1.1834 -1.11801 0
M  V30 4623 O 442.13 -1.4507 -1.04004 0
M  V30 4624 C 439.23 -2.8104 -1.89393 0
M  V30 4625 C 438.403 -4.08274 -1.56943 0
M  V30 4626 C 437.462 -4.53478 -2.66916 0
M  V30 4627 O 436.488 -5.19267 -2.33132 0
M  V30 4628 N 437.69 -4.2356 -3.9696 0
M  V30 4629 H 440.455 -2.99556 -0.0928686 0
M  V30 4630 H 438.016 -1.61618 0.0954783 0
M  V30 4631 H 440.008 -3.08226 -2.62257 0
M  V30 4632 H 438.578 -2.05372 -2.35672 0
M  V30 4633 H 437.798 -3.88384 -0.674655 0
M  V30 4634 H 439.086 -4.91173 -1.32764 0
M  V30 4635 H 438.484 -3.70799 -4.27229 0
M  V30 4636 H 437.041 -4.55518 -4.66205 0
M  V30 4637 N 440.474 -0.00167713 -1.576 0
M  V30 4638 C 441.437 0.974046 -2.07473 0
M  V30 4639 C 442.437 1.27143 -0.984444 0
M  V30 4640 O 443.627 1.21633 -1.24703 0
M  V30 4641 C 440.759 2.29849 -2.51759 0
M  V30 4642 H 441.952 0.54262 -2.9495 0
M  V30 4643 H 439.505 0.245829 -1.54355 0
M  V30 4644 H 440.24 2.77677 -1.67529 0
M  V30 4645 H 440.025 2.09584 -3.31386 0
M  V30 4646 H 441.515 2.9984 -2.90664 0
M  V30 4647 N 441.952 1.55251 0.271103 0
M  V30 4648 C 442.882 1.9127 1.33933 0
M  V30 4649 C 443.863 0.77478 1.5143 0
M  V30 4650 O 445.048 1.03307 1.64442 0
M  V30 4651 C 442.178 2.18627 2.69851 0
M  V30 4652 C 441.132 3.34442 2.67081 0
M  V30 4653 C 440.458 3.47284 4.06569 0
M  V30 4654 C 441.758 4.70784 2.26185 0
M  V30 4655 H 443.452 2.80744 1.04035 0
M  V30 4656 H 440.998 1.35077 0.499017 0
M  V30 4657 H 442.951 2.42413 3.44694 0
M  V30 4658 H 441.675 1.25955 3.01335 0
M  V30 4659 H 440.334 3.10627 1.94695 0
M  V30 4660 H 439.982 2.52074 4.35279 0
M  V30 4661 H 439.682 4.25152 4.0561 0
M  V30 4662 H 441.206 3.73363 4.83148 0
M  V30 4663 H 442.62 4.94102 2.90751 0
M  V30 4664 H 441.017 5.51582 2.36384 0
M  V30 4665 H 442.087 4.69478 1.21319 0
M  V30 4666 N 443.43 -0.535701 1.48216 0
M  V30 4667 C 444.36 -1.65014 1.65204 0
M  V30 4668 C 445.341 -1.62554 0.501011 0
M  V30 4669 O 446.526 -1.7984 0.732886 0
M  V30 4670 C 443.656 -3.03616 1.68626 0
M  V30 4671 C 442.61 -3.20932 2.83172 0
M  V30 4672 C 441.936 -4.60537 2.71679 0
M  V30 4673 C 443.236 -3.04249 4.24535 0
M  V30 4674 H 444.93 -1.51053 2.58502 0
M  V30 4675 H 442.476 -0.725262 1.24402 0
M  V30 4676 H 444.429 -3.81446 1.79099 0
M  V30 4677 H 443.153 -3.18587 0.719026 0
M  V30 4678 H 441.812 -2.45517 2.72244 0
M  V30 4679 H 441.46 -4.72336 1.72937 0
M  V30 4680 H 441.16 -4.73069 3.48538 0
M  V30 4681 H 442.684 -5.40475 2.84112 0
M  V30 4682 H 444.098 -3.71877 4.36326 0
M  V30 4683 H 442.495 -3.28278 5.02348 0
M  V30 4684 H 443.565 -2.00739 4.41397 0
M  V30 4685 N 444.908 -1.36708 -0.784132 0
M  V30 4686 C 445.871 -1.31307 -1.87859 0
M  V30 4687 C 446.871 -0.219654 -1.59293 0
M  V30 4688 O 448.061 -0.47476 -1.67606 0
M  V30 4689 C 445.193 -1.03679 -3.24751 0
M  V30 4690 H 446.386 -2.28647 -1.94064 0
M  V30 4691 H 443.939 -1.21558 -0.98252 0
M  V30 4692 H 444.674 -0.0681936 -3.24228 0
M  V30 4693 H 444.459 -1.82811 -3.46876 0
M  V30 4694 H 445.949 -1.02518 -4.04821 0
M  V30 4695 N 446.386 1.0089 -1.21074 0
M  V30 4696 C 447.316 2.1145 -0.990523 0
M  V30 4697 C 448.297 1.69897 0.0831699 0
M  V30 4698 O 449.482 1.94052 -0.0758853 0
M  V30 4699 C 446.612 3.42914 -0.550177 0
M  V30 4700 C 445.566 3.98244 -1.56799 0
M  V30 4701 C 444.892 5.25568 -0.984013 0
M  V30 4702 C 446.192 4.30752 -2.95381 0
M  V30 4703 H 447.886 2.3013 -1.91521 0
M  V30 4704 H 445.432 1.10592 -0.92225 0
M  V30 4705 H 447.385 4.19653 -0.383305 0
M  V30 4706 H 446.109 3.24014 0.41015 0
M  V30 4707 H 444.768 3.23621 -1.72236 0
M  V30 4708 H 444.416 5.02998 -0.0155216 0
M  V30 4709 H 444.116 5.63551 -1.66384 0
M  V30 4710 H 445.64 6.04955 -0.828378 0
M  V30 4711 H 447.054 4.98349 -2.8341 0
M  V30 4712 H 445.451 4.79869 -3.60341 0
M  V30 4713 H 446.521 3.39192 -3.46521 0
M  V30 4714 N 447.864 1.01787 1.20321 0
M  V30 4715 C 449.11 0.708985 1.90003 0
M  V30 4716 C 449.443 -0.759572 1.78729 0
M  V30 4717 O 448.718 -1.55198 1.17234 0
M  V30 4718 C 449.001 1.1469 3.41348 0
M  V30 4719 C 448.854 2.67586 3.61549 0
M  V30 4720 C 450.173 0.71915 4.34185 0
M  V30 4721 H 447.292 0.259034 0.689978 0
M  V30 4722 H 449.934 1.26584 1.41692 0
M  V30 4723 H 448.084 0.673128 3.82624 0
M  V30 4724 H 449.756 3.22826 3.29517 0
M  V30 4725 H 447.999 3.085 3.04976 0
M  V30 4726 H 448.67 2.93281 4.67643 0
M  V30 4727 H 451.146 1.12647 4.00562 0
M  V30 4728 H 450.022 1.05358 5.38694 0
M  V30 4729 H 450.283 -0.379111 4.40472 0
M  V30 4730 N 449.342 -1.36122 0.79427 0
M  V30 4731 C 450.272 -2.32551 0.210328 0
M  V30 4732 C 451.253 -1.56884 -0.657386 0
M  V30 4733 O 452.438 -1.85014 -0.590207 0
M  V30 4734 C 449.568 -3.41128 -0.651819 0
M  V30 4735 C 448.522 -4.27842 0.116395 0
M  V30 4736 C 447.848 -5.2763 -0.86666 0
M  V30 4737 C 449.148 -5.05647 1.30837 0
M  V30 4738 H 450.842 -2.81636 1.01594 0
M  V30 4739 H 448.388 -1.35407 0.489981 0
M  V30 4740 H 450.341 -4.07581 -1.07031 0
M  V30 4741 H 449.065 -2.90622 -1.49019 0
M  V30 4742 H 447.724 -3.62952 0.515915 0
M  V30 4743 H 447.372 -4.73395 -1.70019 0
M  V30 4744 H 447.072 -5.86514 -0.35705 0
M  V30 4745 H 448.596 -5.96955 -1.28361 0
M  V30 4746 H 450.01 -5.65113 0.965393 0
M  V30 4747 H 448.407 -5.73967 1.75161 0
M  V30 4748 H 449.477 -4.37006 2.10128 0
M  V30 4749 N 450.82 -0.546701 -1.47814 0
M  V30 4750 C 451.768 0.220048 -2.31557 0
M  V30 4751 C 452.762 0.919472 -1.42275 0
M  V30 4752 O 453.968 0.841953 -1.59095 0
M  V30 4753 H 450.343 0.0898334 -0.746615 0
M  V30 4754 H 452.314 -0.505589 -2.94086 0
M  V30 4755 C 451.063 1.24353 -3.24702 0
M  V30 4756 H 450.386 0.714758 -3.93359 0
M  V30 4757 H 451.826 1.75112 -3.8615 0
M  V30 4758 C 450.285 2.28593 -2.47481 0
M  V30 4759 O 450.815 3.35334 -2.21165 0
M  V30 4760 N 449.021 2.02244 -2.08676 0
M  V30 4761 H 448.568 1.15455 -2.30278 0
M  V30 4762 H 448.526 2.72207 -1.57323 0
M  V30 4763 N 452.299 1.55045 -0.282633 0
M  V30 4764 C 453.715 1.59441 0.0712997 0
M  V30 4765 C 453.915 1.2998 1.53972 0
M  V30 4766 O 452.971 1.06431 2.28973 0
M  V30 4767 C 454.284 2.99097 -0.310104 0
M  V30 4768 C 455.832 3.1194 -0.257343 0
M  V30 4769 C 456.307 4.53875 -0.613297 0
M  V30 4770 N 457.798 4.5974 -0.565134 0
M  V30 4771 C 458.533 5.67603 -0.81326 0
M  V30 4772 N 458.029 6.83582 -1.1264 0
M  V30 4773 N 459.822 5.57187 -0.741553 0
M  V30 4774 H 451.973 1.72458 -1.23984 0
M  V30 4775 H 454.236 0.804549 -0.501403 0
M  V30 4776 H 453.942 3.25516 -1.33163 0
M  V30 4777 H 453.816 3.75616 0.345366 0
M  V30 4778 H 456.203 2.85281 0.754905 0
M  V30 4779 H 456.284 2.37618 -0.947178 0
M  V30 4780 H 455.928 4.81261 -1.62327 0
M  V30 4781 H 455.858 5.26508 0.09841 0
M  V30 4782 H 458.349 3.76427 -0.333294 0
M  V30 4783 H 458.662 7.6175 -1.30219 0
M  V30 4784 H 457.007 6.85179 -1.16425 0
M  V30 4785 H 460.198 4.65457 -0.496705 0
M  V30 4786 H 460.371 6.41171 -0.938306 0
M  V30 4787 N 453.777 0.010035 1.57597 0
M  V30 4788 C 455.054 -0.710296 1.82248 0
M  V30 4789 C 455.434 -1.91426 0.889911 0
M  V30 4790 O 454.782 -2.28424 -0.0590292 0
M  V30 4791 C 454.992 -1.10655 3.30993 0
M  V30 4792 C 456.34 -1.50621 3.96987 0
M  V30 4793 O 457.364 -1.20007 3.35375 0
M  V30 4794 O 456.223 -2.07587 5.05539 0
M  V30 4795 H 453.317 -0.34673 0.750804 0
M  V30 4796 H 455.863 0.0362578 1.69661 0
M  V30 4797 H 454.635 -0.248826 3.90508 0
M  V30 4798 H 454.258 -1.91189 3.48615 0
M  V30 4799 N 455.255 -1.55392 -0.262866 0
M  V30 4800 C 456.185 -1.91978 -1.32917 0
M  V30 4801 C 457.166 -0.7828 -1.51017 0
M  V30 4802 O 458.351 -1.04178 -1.63892 0
M  V30 4803 C 455.481 -2.20055 -2.68687 0
M  V30 4804 C 454.435 -3.35854 -2.65304 0
M  V30 4805 C 453.761 -3.49435 -4.04721 0
M  V30 4806 C 455.061 -4.71977 -2.23685 0
M  V30 4807 H 456.755 -2.81292 -1.02544 0
M  V30 4808 H 454.301 -1.3534 -0.491846 0
M  V30 4809 H 456.254 -2.44237 -3.43404 0
M  V30 4810 H 454.978 -1.27551 -3.00663 0
M  V30 4811 H 453.637 -3.11655 -1.93045 0
M  V30 4812 H 453.285 -2.54379 -4.33936 0
M  V30 4813 H 452.985 -4.27297 -4.0335 0
M  V30 4814 H 454.509 -3.7592 -4.81161 0
M  V30 4815 H 455.923 -4.95637 -2.88127 0
M  V30 4816 H 454.32 -5.52828 -2.33456 0
M  V30 4817 H 455.39 -4.70115 -1.18827 0
M  V30 4818 N 456.733 0.527833 -1.48498 0
M  V30 4819 C 457.979 1.28545 -1.56857 0
M  V30 4820 C 458.312 1.92678 -0.242651 0
M  V30 4821 O 457.587 1.79394 0.751545 0
M  V30 4822 C 457.87 2.37314 -2.70839 0
M  V30 4823 C 457.723 1.77858 -4.13142 0
M  V30 4824 C 459.042 3.39068 -2.80573 0
M  V30 4825 H 456.161 0.466006 -0.570971 0
M  V30 4826 H 458.803 0.587784 -1.8068 0
M  V30 4827 H 456.953 2.96821 -2.50658 0
M  V30 4828 H 458.625 1.22385 -4.44769 0
M  V30 4829 H 456.868 1.08383 -4.20042 0
M  V30 4830 H 457.539 2.56624 -4.88721 0
M  V30 4831 H 460.015 2.89518 -2.98862 0
M  V30 4832 H 458.891 4.12566 -3.6205 0
M  V30 4833 H 459.152 3.9975 -1.88818 0
M  V30 4834 N 458.211 1.37122 0.776871 0
M  V30 4835 C 459.141 1.35164 1.90402 0
M  V30 4836 C 460.122 0.221069 1.68657 0
M  V30 4837 O 461.307 0.420642 1.8959 0
M  V30 4838 C 458.437 1.15274 3.27611 0
M  V30 4839 C 457.391 2.25289 3.63908 0
M  V30 4840 C 456.717 1.90527 4.99603 0
M  V30 4841 C 458.017 3.67446 3.71188 0
M  V30 4842 H 459.711 2.29482 1.92297 0
M  V30 4843 H 457.257 1.10465 0.923773 0
M  V30 4844 H 459.21 1.12536 4.06096 0
M  V30 4845 H 457.934 0.174102 3.26136 0
M  V30 4846 H 456.593 2.27174 2.87728 0
M  V30 4847 H 456.241 0.91206 4.94662 0
M  V30 4848 H 455.941 2.64193 5.24858 0
M  V30 4849 H 457.465 1.89367 5.80493 0
M  V30 4850 H 458.879 3.67719 4.39836 0
M  V30 4851 H 457.276 4.40123 4.07936 0
M  V30 4852 H 458.346 4.01443 2.71977 0
M  V30 4853 O 459.728 -0.91678 1.32956 0
M  V30 4854 H 460.419 -1.55003 1.16162 0
M  V30 END ATOM
M  V30 BEGIN BOND
M  V30 END BOND
M  V30 END CTAB
M  END
$$$$
