drugbank_target|Q72547 Reverse transcriptase/RNaseH (DB00238; DB00300; DB00495; DB00625; DB00649; DB00705; DB00709; DB00879; DB00900; DB00943; DB01048; DB07935; DB08864; DB09299; DB11365; DB11799; DB12301; DB12855; DB14126)
 OpenBabel12092120473D

  0  0  0     0  0            999 V3000
M  V30 BEGIN CTAB
M  V30 COUNTS 9279 9397 0 0 0
M  V30 BEGIN ATOM
M  V30 1 H -0.908 1.98254 -0.117106 0
M  V30 2 N 0 1.576 0 0
M  V30 3 C 1.411 1.78635 0.542811 0
M  V30 4 C 1.762 0.907396 1.73956 0
M  V30 5 O 0.887 0.109876 2.16121 0
M  V30 6 C 1.482 3.23967 0.991508 0
M  V30 7 C 0.041 3.46098 1.47963 0
M  V30 8 C -0.812 2.73933 0.430836 0
M  V30 9 H 2.139 1.5708 -0.226168 0
M  V30 10 H 2.16 3.32079 1.85751 0
M  V30 11 H 1.672 3.87914 0.120292 0
M  V30 12 H -0.227 2.87366 2.37174 0
M  V30 13 H -0.114 4.54779 1.50709 0
M  V30 14 H -1.75 2.38552 0.892473 0
M  V30 15 H -0.967 3.40578 -0.431414 0
M  V30 16 N 1.4781 -0.272755 1.55222 0
M  V30 17 C 2.7271 -1.00211 1.75045 0
M  V30 18 C 3.0401 -1.87441 0.559046 0
M  V30 19 O 4.2461 -2.63856 0.639698 0
M  V30 20 C 2.7021 -1.83165 3.09804 0
M  V30 21 C 2.3101 -1.008 4.36513 0
M  V30 22 C 4.0541 -2.55529 3.38977 0
M  V30 23 C 1.9611 -1.83194 5.62311 0
M  V30 24 H 0.8911 -0.377878 0.652476 0
M  V30 25 H 3.5421 -0.257776 1.8168 0
M  V30 26 H 1.9241 -2.61694 2.97207 0
M  V30 27 H 3.0981 -0.266855 4.60027 0
M  V30 28 H 1.4131 -0.398897 4.14485 0
M  V30 29 H 4.0101 -3.17578 4.30172 0
M  V30 30 H 4.3531 -3.25825 2.59121 0
M  V30 31 H 4.8861 -1.84029 3.52673 0
M  V30 32 H 1.6251 -1.17318 6.44916 0
M  V30 33 H 1.1451 -2.54905 5.4294 0
M  V30 34 H 2.8241 -2.40552 6.00619 0
M  V30 35 N 2.9562 -1.48159 -0.537278 0
M  V30 36 C 4.1812 -1.59707 -1.32319 0
M  V30 37 C 4.6062 -0.254859 -1.86365 0
M  V30 38 O 3.9642 0.772378 -1.64024 0
M  V30 39 C 4.0122 -2.6412 -2.45505 0
M  V30 40 O 3.1162 -2.20774 -3.48328 0
M  V30 41 H 2.4572 -0.535791 -0.392204 0
M  V30 42 H 4.9872 -1.94092 -0.647268 0
M  V30 43 H 4.9972 -2.85166 -2.91795 0
M  V30 44 H 3.6722 -3.61567 -2.05528 0
M  V30 45 H 2.2492 -2.09911 -3.08207 0
M  V30 46 N 4.4343 0.785586 -1.36625 0
M  V30 47 C 5.8453 1.36101 -1.27803 0
M  V30 48 C 6.1963 1.96035 0.0804875 0
M  V30 49 O 5.3213 1.92834 0.982042 0
M  V30 50 C 5.9163 2.47442 -2.31426 0
M  V30 51 C 4.4753 3.00789 -2.26281 0
M  V30 52 C 3.6223 1.73896 -2.15999 0
M  V30 53 H 6.5733 0.586928 -1.47448 0
M  V30 54 H 6.5943 3.2656 -1.95291 0
M  V30 55 H 6.1063 2.03791 -3.30289 0
M  V30 56 H 4.2073 3.48851 -1.30896 0
M  V30 57 H 4.3203 3.57343 -3.19128 0
M  V30 58 H 2.6843 1.9628 -1.62316 0
M  V30 59 H 3.4673 1.32368 -3.16755 0
M  V30 60 N 5.9124 1.20967 1.01018 0
M  V30 61 C 7.1614 1.01796 1.74128 0
M  V30 62 C 7.4744 -0.449691 1.90361 0
M  V30 63 O 8.6804 -0.76068 2.60626 0
M  V30 64 C 7.1364 1.7727 3.13215 0
M  V30 65 C 6.7444 3.28171 3.04972 0
M  V30 66 C 8.4884 1.66489 3.90489 0
M  V30 67 C 6.3954 3.96156 4.39107 0
M  V30 68 H 5.3254 0.377276 0.652824 0
M  V30 69 H 7.9764 1.44651 1.12909 0
M  V30 70 H 6.3584 1.27205 3.75013 0
M  V30 71 H 7.5324 3.85499 2.52443 0
M  V30 72 H 5.8474 3.39437 2.41188 0
M  V30 73 H 8.4444 2.14617 4.89738 0
M  V30 74 H 8.7874 0.6222 4.11624 0
M  V30 75 H 9.3204 2.14003 3.35332 0
M  V30 76 H 6.0594 5.00604 4.23174 0
M  V30 77 H 5.5794 3.43617 4.91617 0
M  V30 78 H 7.2584 4.00774 5.07926 0
M  V30 79 N 7.3905 -1.2043 1.01659 0
M  V30 80 C 8.3005 -2.2689 0.596484 0
M  V30 81 C 9.3165 -1.70107 -0.36599 0
M  V30 82 O 10.4925 -2.00117 -0.226942 0
M  V30 83 C 7.5575 -3.4665 -0.0586659 0
M  V30 84 C 6.6185 -4.18662 0.949751 0
M  V30 85 C 5.8515 -5.32705 0.32577 0
M  V30 86 O 6.0745 -5.63656 -0.874509 0
M  V30 87 O 5.0085 -5.92803 1.04249 0
M  V30 88 H 8.8345 -2.65041 1.4828 0
M  V30 89 H 6.4195 -1.27048 0.786082 0
M  V30 90 H 8.3015 -4.19256 -0.424564 0
M  V30 91 H 6.9765 -3.10375 -0.91918 0
M  V30 92 H 5.8835 -3.48229 1.36702 0
M  V30 93 H 7.2165 -4.58878 1.78023 0
M  V30 94 N 8.8686 -0.792821 -1.36206 0
M  V30 95 C 10.0966 -0.378825 -2.03402 0
M  V30 96 C 10.5116 1.00586 -1.59774 0
M  V30 97 O 9.8686 1.64574 -0.788764 0
M  V30 98 C 9.9196 -0.43683 -3.58851 0
M  V30 99 O 9.6406 -1.76691 -4.00889 0
M  V30 100 C 11.1416 -0.0138943 -4.43298 0
M  V30 101 H 8.3616 -0.155673 -0.652692 0
M  V30 102 H 10.9056 -1.07261 -1.74113 0
M  V30 103 H 9.0606 0.208575 -3.86838 0
M  V30 104 H 9.4746 -1.72011 -4.95492 0
M  V30 105 H 10.9486 -0.105615 -5.51899 0
M  V30 106 H 11.4256 1.03915 -4.2673 0
M  V30 107 H 12.0316 -0.63192 -4.20579 0
M  V30 108 N 10.3467 1.47872 -0.545128 0
M  V30 109 C 11.5927 2.02793 -0.0166104 0
M  V30 110 C 11.9257 1.41987 1.32489 0
M  V30 111 O 11.2007 0.571045 1.85928 0
M  V30 112 C 11.4837 3.59989 0.0893294 0
M  V30 113 C 11.3367 4.3125 -1.27841 0
M  V30 114 C 12.6557 4.32606 0.808724 0
M  V30 115 H 9.7747 0.736962 -0.00751035 0
M  V30 116 H 12.4167 1.76433 -0.705085 0
M  V30 117 H 10.5667 3.82579 0.675681 0
M  V30 118 H 12.2387 4.20035 -1.90704 0
M  V30 119 H 10.4817 3.92076 -1.85632 0
M  V30 120 H 11.1527 5.39736 -1.15713 0
M  V30 121 H 13.6287 4.14936 0.310992 0
M  V30 122 H 12.5047 5.42251 0.851782 0
M  V30 123 H 12.7657 4.00963 1.86229 0
M  V30 124 N 11.8248 0.280983 1.55075 0
M  V30 125 C 13.2358 -0.215629 1.85451 0
M  V30 126 C 13.5868 -1.54991 1.203 0
M  V30 127 O 12.7118 -2.10699 0.493435 0
M  V30 128 C 13.3068 -0.398026 3.36454 0
M  V30 129 C 11.8658 -0.838866 3.66933 0
M  V30 130 C 11.0128 0.064458 2.77225 0
M  V30 131 H 13.9638 0.502601 1.50531 0
M  V30 132 H 13.9848 -1.23569 3.59876 0
M  V30 133 H 13.4968 0.573241 3.83843 0
M  V30 134 H 11.5978 -1.8214 3.25048 0
M  V30 135 H 11.7108 -0.672123 4.74362 0
M  V30 136 H 10.0748 -0.452863 2.50642 0
M  V30 137 H 10.8578 1.03172 3.2743 0
M  V30 138 N 13.3029 -1.57598 0.00835791 0
M  V30 139 C 14.5489 -1.91211 -0.675732 0
M  V30 140 C 14.8819 -0.883139 -1.72958 0
M  V30 141 O 14.1569 0.097016 -1.94258 0
M  V30 142 C 14.4399 -3.35379 -1.31123 0
M  V30 143 C 14.2929 -4.48999 -0.268356 0
M  V30 144 C 15.6119 -3.7912 -2.23508 0
M  V30 145 H 12.7309 -0.695374 -0.244179 0
M  V30 146 H 15.3729 -1.89901 0.0613655 0
M  V30 147 H 13.5229 -3.36626 -1.93946 0
M  V30 148 H 15.1949 -4.59887 0.360844 0
M  V30 149 H 13.4379 -4.31873 0.408482 0
M  V30 150 H 14.1089 -5.46851 -0.752218 0
M  V30 151 H 16.5849 -3.79477 -1.70693 0
M  V30 152 H 15.4609 -4.80729 -2.64936 0
M  V30 153 H 15.7219 -3.13455 -3.11766 0
M  V30 154 N 14.781 0.264519 -1.55364 0
M  V30 155 C 15.728 1.32717 -1.88825 0
M  V30 156 C 16.698 1.48675 -0.740605 0
M  V30 157 O 17.883 1.62945 -0.992657 0
M  V30 158 C 15.023 2.68089 -2.17307 0
M  V30 159 C 14.136 2.60284 -3.44785 0
M  V30 160 C 13.271 3.87892 -3.62924 0
M  V30 161 C 12.31 3.74631 -4.84064 0
M  V30 162 N 11.447 4.94092 -4.98816 0
M  V30 163 H 16.287 1.03481 -2.79456 0
M  V30 164 H 13.824 0.499757 -1.3835 0
M  V30 165 H 15.782 3.46864 -2.31821 0
M  V30 166 H 14.412 2.95509 -1.299 0
M  V30 167 H 13.464 1.73173 -3.38697 0
M  V30 168 H 14.776 2.46388 -4.33698 0
M  V30 169 H 13.93 4.75109 -3.77302 0
M  V30 170 H 12.669 4.04664 -2.7221 0
M  V30 171 H 11.674 2.85797 -4.69681 0
M  V30 172 H 12.899 3.5937 -5.76221 0
M  V30 173 H 10.845 5.11259 -4.11036 0
M  V30 174 H 10.762 4.8276 -5.81789 0
M  V30 175 H 12.03 5.82857 -5.17588 0
M  V30 176 N 16.2591 1.48442 0.529413 0
M  V30 177 C 17.1891 1.65902 1.64313 0
M  V30 178 C 18.1701 0.507897 1.6234 0
M  V30 179 O 19.3551 0.740503 1.79528 0
M  V30 180 C 16.4851 1.69911 3.02898 0
M  V30 181 C 15.4391 2.8453 3.19729 0
M  V30 182 C 14.7651 2.73629 4.59381 0
M  V30 183 C 16.0651 4.25821 3.02447 0
M  V30 184 H 17.7591 2.5914 1.49955 0
M  V30 185 H 15.3051 1.24709 0.719982 0
M  V30 186 H 17.2581 1.80715 3.80684 0
M  V30 187 H 15.9821 0.732524 3.18279 0
M  V30 188 H 14.6411 2.73283 2.44361 0
M  V30 189 H 14.2891 1.74938 4.71599 0
M  V30 190 H 13.9891 3.50541 4.71588 0
M  V30 191 H 15.5131 2.86401 5.39265 0
M  V30 192 H 16.9271 4.37898 3.70024 0
M  V30 193 H 15.3241 5.03735 3.26146 0
M  V30 194 H 16.3941 4.42244 1.98867 0
M  V30 195 N 17.7372 -0.778329 1.37039 0
M  V30 196 C 18.6842 -1.89139 1.32269 0
M  V30 197 C 19.6542 -1.65017 0.189387 0
M  V30 198 O 20.8392 -1.87024 0.377693 0
M  V30 199 C 17.9792 -3.26112 1.12894 0
M  V30 200 C 17.0922 -3.62233 2.35396 0
M  V30 201 C 16.2272 -4.8838 2.08946 0
M  V30 202 C 15.2662 -5.17212 3.2735 0
M  V30 203 N 14.4032 -6.34546 3.00492 0
M  V30 204 H 19.2432 -1.92552 2.27437 0
M  V30 205 H 16.7802 -0.941473 1.13025 0
M  V30 206 H 18.7382 -4.05116 0.996835 0
M  V30 207 H 17.3682 -3.22091 0.213758 0
M  V30 208 H 16.4202 -2.78265 2.5937 0
M  V30 209 H 17.7322 -3.79481 3.23721 0
M  V30 210 H 16.8862 -5.75274 1.92729 0
M  V30 211 H 15.6252 -4.73222 1.17949 0
M  V30 212 H 14.6302 -4.28796 3.44113 0
M  V30 213 H 15.8552 -5.34283 4.19188 0
M  V30 214 H 13.8012 -6.20759 2.12118 0
M  V30 215 H 13.7182 -6.52179 3.82358 0
M  V30 216 H 14.9862 -7.24394 2.87879 0
M  V30 217 N 19.2153 -1.21501 -1.00376 0
M  V30 218 C 20.6263 -1.03146 -1.55621 0
M  V30 219 C 20.9773 0.408375 -1.91903 0
M  V30 220 O 20.1023 1.29177 -1.73616 0
M  V30 221 C 20.6973 -1.86612 -2.82775 0
M  V30 222 C 19.2563 -1.72586 -3.34501 0
M  V30 223 C 18.4033 -1.83747 -2.07683 0
M  V30 224 H 21.3543 -1.35505 -0.826081 0
M  V30 225 H 21.3753 -1.3771 -3.54706 0
M  V30 226 H 20.8873 -2.91399 -2.56336 0
M  V30 227 H 18.9883 -0.704877 -3.65872 0
M  V30 228 H 19.1013 -2.54623 -4.05837 0
M  V30 229 H 17.4653 -1.27069 -2.20739 0
M  V30 230 H 18.2483 -2.90044 -1.83655 0
M  V30 231 N 20.6934 1.19889 -1.02296 0
M  V30 232 C 21.9414 1.89046 -0.714558 0
M  V30 233 C 22.2624 1.79636 0.758681 0
M  V30 234 O 21.5324 1.20292 1.54618 0
M  V30 235 H 20.1124 0.699802 -0.261317 0
M  V30 236 H 22.7744 1.45574 -1.29592 0
M  V30 237 H 21.8704 2.95524 -1.0036 0
M  V30 238 N 22.1715 0.800033 1.35784 0
M  V30 239 C 23.1045 0.151499 2.27697 0
M  V30 240 C 24.0825 -0.678663 1.4776 0
M  V30 241 O 25.2665 -0.647358 1.77035 0
M  V30 242 C 22.3935 -0.790492 3.29346 0
M  V30 243 C 21.4395 -0.0407832 4.26481 0
M  V30 244 S 22.2725 1.29077 5.19711 0
M  V30 245 C 23.4285 0.353055 6.24903 0
M  V30 246 H 23.6615 0.930796 2.82353 0
M  V30 247 H 21.1945 0.594767 1.42485 0
M  V30 248 H 23.1525 -1.3285 3.88409 0
M  V30 249 H 21.8135 -1.54312 2.73581 0
M  V30 250 H 21.0065 -0.755971 4.98298 0
M  V30 251 H 20.6085 0.427063 3.71554 0
M  V30 252 H 22.9005 -0.464147 6.75908 0
M  V30 253 H 23.8435 1.04023 7.00418 0
M  V30 254 H 24.2515 -0.0483344 5.64479 0
M  V30 255 N 23.6496 -1.47581 0.552962 0
M  V30 256 C 24.9266 -1.95563 -0.0381515 0
M  V30 257 C 25.3066 -1.49552 -1.48988 0
M  V30 258 O 24.6546 -0.732414 -2.16444 0
M  V30 259 C 24.8646 -3.48848 0.102919 0
M  V30 260 C 26.2126 -4.24577 -0.0446082 0
M  V30 261 O 27.2366 -3.56187 0.0302548 0
M  V30 262 O 26.0956 -5.46116 -0.204923 0
M  V30 263 H 23.1896 -0.824321 -0.0665067 0
M  V30 264 H 25.7356 -1.58001 0.619186 0
M  V30 265 H 24.5076 -3.75129 1.11328 0
M  V30 266 H 24.1306 -3.93165 -0.592224 0
M  V30 267 N 25.1277 -0.289203 -1.54924 0
M  V30 268 C 26.3757 0.322879 -1.99504 0
M  V30 269 C 26.6967 1.55313 -1.1791 0
M  V30 270 O 25.9667 1.94001 -0.272097 0
M  V30 271 H 24.5467 0.122291 -0.736922 0
M  V30 272 H 27.2087 -0.397802 -1.90797 0
M  V30 273 H 26.3047 0.603061 -3.06218 0
M  V30 274 N 26.6058 1.57591 -0.0167156 0
M  V30 275 C 28.0168 1.79201 0.523834 0
M  V30 276 C 28.3678 0.925796 1.72984 0
M  V30 277 O 27.4928 0.132792 2.15992 0
M  V30 278 C 28.0878 3.25 0.957091 0
M  V30 279 C 26.6468 3.47648 1.44283 0
M  V30 280 C 25.7938 2.74374 0.401757 0
M  V30 281 H 28.7448 1.56831 -0.242816 0
M  V30 282 H 28.7658 3.34031 1.82219 0
M  V30 283 H 28.2778 3.88019 0.0791415 0
M  V30 284 H 26.3788 2.89866 2.34113 0
M  V30 285 H 26.4918 4.56352 1.45877 0
M  V30 286 H 24.8558 2.39485 0.867121 0
M  V30 287 H 25.6388 3.40102 -0.467513 0
M  V30 288 N 28.0839 -0.256276 1.55502 0
M  V30 289 C 29.0309 -1.31714 1.89526 0
M  V30 290 C 30.0009 -1.4828 0.748479 0
M  V30 291 O 31.1859 -1.62416 1.00128 0
M  V30 292 C 28.3259 -2.66933 2.18725 0
M  V30 293 C 27.4389 -2.58452 3.4616 0
M  V30 294 C 26.5739 -3.85961 3.64976 0
M  V30 295 C 25.6129 -3.72059 4.86044 0
M  V30 296 N 24.7499 -4.9144 5.01429 0
M  V30 297 H 29.5899 -1.01998 2.80001 0
M  V30 298 H 27.1269 -0.492413 1.38613 0
M  V30 299 H 29.0849 -3.4563 2.33657 0
M  V30 300 H 27.7149 -2.94816 1.31466 0
M  V30 301 H 26.7669 -1.71374 3.3961 0
M  V30 302 H 28.0789 -2.44085 4.34999 0
M  V30 303 H 27.2329 -4.73101 3.79816 0
M  V30 304 H 25.9719 -4.03215 2.74353 0
M  V30 305 H 24.9769 -2.83302 4.7119 0
M  V30 306 H 26.2019 -3.56309 5.78118 0
M  V30 307 H 24.1479 -5.09072 4.13741 0
M  V30 308 H 24.0649 -4.79668 5.84341 0
M  V30 309 H 25.3329 -5.80104 5.20672 0
M  V30 310 N 29.562 -1.4872 -0.521534 0
M  V30 311 C 30.808 -1.574 -1.27879 0
M  V30 312 C 31.141 -0.250817 -1.92573 0
M  V30 313 O 30.416 0.743934 -1.79711 0
M  V30 314 C 30.699 -2.71843 -2.36164 0
M  V30 315 C 30.552 -4.13893 -1.76105 0
M  V30 316 C 31.871 -2.82008 -3.37875 0
M  V30 317 H 28.99 -0.572941 -0.463581 0
M  V30 318 H 31.632 -1.80927 -0.580119 0
M  V30 319 H 29.782 -2.51914 -2.95756 0
M  V30 320 H 31.454 -4.45284 -1.20499 0
M  V30 321 H 29.697 -4.20498 -1.06601 0
M  V30 322 H 30.368 -4.89804 -2.5455 0
M  V30 323 H 32.844 -3.00086 -2.88249 0
M  V30 324 H 31.72 -3.63796 -4.11028 0
M  V30 325 H 31.981 -1.90511 -3.98946 0
M  V30 326 N 31.0401 0.771051 -1.3745 0
M  V30 327 C 31.9871 1.88435 -1.3327 0
M  V30 328 C 32.9571 1.64914 -0.198136 0
M  V30 329 O 34.1421 1.86821 -0.387606 0
M  V30 330 C 31.2821 3.25509 -1.14622 0
M  V30 331 C 30.3951 3.60979 -2.37314 0
M  V30 332 C 29.5301 4.87265 -2.11533 0
M  V30 333 C 28.5691 5.15469 -3.30088 0
M  V30 334 N 27.7061 6.32944 -3.03853 0
M  V30 335 H 32.5461 1.91344 -2.28455 0
M  V30 336 H 30.0831 0.935466 -1.13523 0
M  V30 337 H 32.0411 4.04582 -1.01831 0
M  V30 338 H 30.6711 3.21974 -0.230837 0
M  V30 339 H 29.7231 2.76885 -2.60842 0
M  V30 340 H 31.0351 3.77759 -3.25729 0
M  V30 341 H 30.1891 5.74244 -1.95777 0
M  V30 342 H 28.9281 4.7259 -1.20457 0
M  V30 343 H 27.9331 4.26966 -3.46382 0
M  V30 344 H 29.1581 5.32052 -4.22016 0
M  V30 345 H 27.1041 6.19625 -2.15407 0
M  V30 346 H 27.0211 6.50143 -3.85812 0
M  V30 347 H 28.2891 7.22857 -2.91716 0
M  V30 348 N 32.5182 1.22032 0.997298 0
M  V30 349 C 33.4502 0.944263 2.08845 0
M  V30 350 C 34.4632 -0.0754663 1.62625 0
M  V30 351 O 35.6522 0.157994 1.77799 0
M  V30 352 C 32.7522 0.397723 3.36558 0
M  V30 353 C 31.9252 1.47362 4.11829 0
M  V30 354 C 30.9842 0.934951 5.17827 0
M  V30 355 O 30.0102 1.62016 5.45655 0
M  V30 356 N 31.2122 -0.245895 5.79979 0
M  V30 357 H 33.9772 1.88363 2.33109 0
M  V30 358 H 31.5382 1.12661 1.16272 0
M  V30 359 H 33.5302 0.0227771 4.04694 0
M  V30 360 H 32.1002 -0.446646 3.09393 0
M  V30 361 H 31.3202 2.02208 3.38386 0
M  V30 362 H 32.6082 2.19764 4.58891 0
M  V30 363 H 32.0062 -0.819475 5.59733 0
M  V30 364 H 30.5632 -0.562272 6.4937 0
M  V30 365 N 33.9963 -1.19345 1.0293 0
M  V30 366 C 35.2423 -1.89585 0.736824 0
M  V30 367 C 35.5973 -1.78148 -0.726703 0
M  V30 368 O 34.8903 -1.16332 -1.52242 0
M  V30 369 C 35.0843 -3.39292 1.12319 0
M  V30 370 C 34.9133 -3.65298 2.62273 0
M  V30 371 C 33.6833 -3.83304 3.29251 0
M  V30 372 C 35.8813 -3.6682 3.60482 0
M  V30 373 N 33.8633 -3.96944 4.68304 0
M  V30 374 C 35.2343 -3.86037 4.85155 0
M  V30 375 C 37.2893 -3.49848 3.54275 0
M  V30 376 C 35.9923 -3.9004 6.04369 0
M  V30 377 C 38.0183 -3.55129 4.72903 0
M  V30 378 C 37.3803 -3.74831 5.9639 0
M  V30 379 H 33.4793 -0.712856 0.321497 0
M  V30 380 H 36.0633 -1.43427 1.31669 0
M  V30 381 H 34.2343 -3.84172 0.571524 0
M  V30 382 H 35.9663 -3.97055 0.78292 0
M  V30 383 H 32.7213 -3.82211 2.79663 0
M  V30 384 H 33.1453 -4.07613 5.40538 0
M  V30 385 H 37.7873 -3.33572 2.59788 0
M  V30 386 H 35.5053 -4.05108 6.99223 0
M  V30 387 H 39.0913 -3.43287 4.69729 0
M  V30 388 H 37.9713 -3.78792 6.86649 0
M  V30 389 N 35.4744 -0.807222 -1.35358 0
M  V30 390 C 36.8854 -0.44876 -1.81226 0
M  V30 391 C 37.2364 1.02929 -1.67033 0
M  V30 392 O 36.3614 1.79991 -1.20133 0
M  V30 393 C 36.9564 -0.807774 -3.2903 0
M  V30 394 C 35.5154 -0.501901 -3.73039 0
M  V30 395 C 34.6624 -1.03304 -2.57339 0
M  V30 396 H 37.6134 -0.998808 -1.23327 0
M  V30 397 H 37.6344 -0.10554 -3.80354 0
M  V30 398 H 37.1464 -1.88357 -3.39328 0
M  V30 399 H 35.2474 0.565128 -3.68289 0
M  V30 400 H 35.3604 -1.03497 -4.67787 0
M  V30 401 H 33.7244 -0.455339 -2.50597 0
M  V30 402 H 34.5074 -2.11496 -2.70415 0
M  V30 403 N 36.9525 1.47285 -0.560781 0
M  V30 404 C 37.8825 2.32857 0.173105 0
M  V30 405 C 38.8635 1.44009 0.905281 0
M  V30 406 O 40.0485 1.7286 0.885046 0
M  V30 407 C 37.1785 3.25861 1.20133 0
M  V30 408 C 36.1325 4.23978 0.585388 0
M  V30 409 C 35.4585 5.06332 1.7185 0
M  V30 410 C 36.7585 5.20242 -0.463178 0
M  V30 411 H 38.4525 2.94466 -0.541307 0
M  V30 412 H 35.9985 1.41601 -0.261764 0
M  V30 413 H 37.9515 3.84569 1.72293 0
M  V30 414 H 36.6755 2.62315 1.94573 0
M  V30 415 H 35.3345 3.66501 0.085054 0
M  V30 416 H 34.9825 4.39186 2.45203 0
M  V30 417 H 34.6825 5.72762 1.31213 0
M  V30 418 H 36.2065 5.67899 2.24329 0
M  V30 419 H 37.6205 5.73293 -0.027502 0
M  V30 420 H 36.0175 5.94896 -0.788627 0
M  V30 421 H 37.0875 4.65504 -1.35773 0
M  V30 422 N 38.4306 0.297415 1.54768 0
M  V30 423 C 39.6586 -0.315623 2.04478 0
M  V30 424 C 40.0736 -1.47792 1.17486 0
M  V30 425 O 39.4306 -1.81404 0.19971 0
M  V30 426 C 39.4816 -0.7753 3.53088 0
M  V30 427 O 39.2026 0.340732 4.36773 0
M  V30 428 C 40.7036 -1.45386 4.18781 0
M  V30 429 H 37.9236 -0.0690887 0.667434 0
M  V30 430 H 40.4676 0.436003 1.99798 0
M  V30 431 H 38.6226 -1.47696 3.58141 0
M  V30 432 H 39.0366 -0.0165035 5.24497 0
M  V30 433 H 40.5106 -1.72669 5.24299 0
M  V30 434 H 40.9876 -2.39275 3.68299 0
M  V30 435 H 41.5936 -0.795475 4.17795 0
M  V30 436 N 39.9087 -1.5758 0.0250728 0
M  V30 437 C 40.8187 -2.1343 -0.973905 0
M  V30 438 C 41.8347 -1.08556 -1.35984 0
M  V30 439 O 43.0107 -1.40592 -1.44207 0
M  V30 440 C 40.0757 -2.64703 -2.23904 0
M  V30 441 C 39.1367 -3.84276 -1.91391 0
M  V30 442 C 38.3697 -4.33095 -3.11873 0
M  V30 443 O 38.5927 -3.81107 -4.24398 0
M  V30 444 O 37.5267 -5.24984 -2.94406 0
M  V30 445 H 41.3527 -2.99057 -0.529036 0
M  V30 446 H 38.9377 -1.48118 -0.195288 0
M  V30 447 H 40.8197 -2.97769 -2.98181 0
M  V30 448 H 39.4947 -1.82161 -2.6758 0
M  V30 449 H 38.4017 -3.56143 -1.14511 0
M  V30 450 H 39.7347 -4.67968 -1.52534 0
M  V30 451 N 41.3868 0.248026 -1.55636 0
M  V30 452 C 42.2968 1.32859 -1.93354 0
M  V30 453 C 43.3128 1.52719 -0.833838 0
M  V30 454 O 44.4888 1.66363 -1.13513 0
M  V30 455 C 41.5538 2.66337 -2.21958 0
M  V30 456 C 40.6148 2.55008 -3.45354 0
M  V30 457 C 39.8478 3.82121 -3.72584 0
M  V30 458 O 40.0708 4.83951 -3.01907 0
M  V30 459 O 39.0048 3.80822 -4.6611 0
M  V30 460 H 42.8308 1.03862 -2.85388 0
M  V30 461 H 40.4158 0.448686 -1.42503 0
M  V30 462 H 42.2978 3.45216 -2.4167 0
M  V30 463 H 40.9728 2.95068 -1.33103 0
M  V30 464 H 39.8798 1.7442 -3.30951 0
M  V30 465 H 41.2128 2.31222 -4.34508 0
M  V30 466 N 42.8649 1.48995 0.513639 0
M  V30 467 C 43.8119 1.6473 1.61656 0
M  V30 468 C 44.7819 0.488984 1.58739 0
M  V30 469 O 45.9669 0.714478 1.76918 0
M  V30 470 C 43.1069 1.7082 2.99858 0
M  V30 471 C 42.2199 2.9787 3.12885 0
M  V30 472 C 41.3549 2.95017 4.41744 0
M  V30 473 C 40.3939 4.16702 4.48359 0
M  V30 474 N 39.5309 4.11832 5.68629 0
M  V30 475 H 44.3709 2.58909 1.47547 0
M  V30 476 H 41.9079 1.28382 0.71808 0
M  V30 477 H 43.8659 1.72331 3.79944 0
M  V30 478 H 42.4959 0.801181 3.12699 0
M  V30 479 H 41.5479 3.06029 2.25944 0
M  V30 480 H 42.8599 3.8786 3.13633 0
M  V30 481 H 42.0139 2.95021 5.30139 0
M  V30 482 H 40.7529 2.02784 4.43542 0
M  V30 483 H 39.7579 4.16955 3.58369 0
M  V30 484 H 40.9829 5.10113 4.48287 0
M  V30 485 H 38.9289 3.22428 5.71293 0
M  V30 486 H 38.8459 4.95543 5.7094 0
M  V30 487 H 40.1139 4.1592 6.59266 0
M  V30 488 N 44.343 -0.763751 1.37857 0
M  V30 489 C 45.592 -1.51789 1.32827 0
M  V30 490 C 45.905 -1.95426 -0.0823719 0
M  V30 491 O 47.111 -2.70298 -0.255172 0
M  V30 492 C 45.567 -2.74133 2.33193 0
M  V30 493 C 45.175 -2.37562 3.79827 0
M  V30 494 C 46.919 -3.52054 2.37188 0
M  V30 495 C 44.826 -3.56456 4.71904 0
M  V30 496 H 43.756 -0.569896 0.493695 0
M  V30 497 H 46.407 -0.835822 1.63359 0
M  V30 498 H 44.789 -3.4427 1.9569 0
M  V30 499 H 45.963 -1.75157 4.26212 0
M  V30 500 H 44.278 -1.72798 3.78853 0
M  V30 501 H 46.875 -4.40437 3.03182 0
M  V30 502 H 47.218 -3.92486 1.38782 0
M  V30 503 H 47.751 -2.88921 2.7344 0
M  V30 504 H 44.49 -3.21099 5.71468 0
M  V30 505 H 44.01 -4.17938 4.30218 0
M  V30 506 H 45.689 -4.23168 4.89426 0
M  V30 507 N 45.8211 -1.22559 -0.990812 0
M  V30 508 C 46.7681 -0.997519 -2.0813 0
M  V30 509 C 47.7381 0.0814702 -1.659 0
M  V30 510 O 48.9231 -0.0685424 -1.90677 0
M  V30 511 C 46.0631 -0.583615 -3.40129 0
M  V30 512 C 45.1761 -1.7336 -3.9569 0
M  V30 513 C 44.3111 -1.26748 -5.15857 0
M  V30 514 C 43.3501 -2.38888 -5.63559 0
M  V30 515 N 42.4871 -1.93308 -6.74964 0
M  V30 516 H 47.3271 -1.93099 -2.26973 0
M  V30 517 H 44.8641 -0.962114 -1.11273 0
M  V30 518 H 46.8221 -0.324801 -4.15934 0
M  V30 519 H 45.4521 0.312845 -3.2128 0
M  V30 520 H 44.5041 -2.10669 -3.16738 0
M  V30 521 H 45.8161 -2.57704 -4.27071 0
M  V30 522 H 44.9701 -0.966173 -5.98957 0
M  V30 523 H 43.7091 -0.394272 -4.86104 0
M  V30 524 H 42.7141 -2.69805 -4.79046 0
M  V30 525 H 43.9391 -3.26728 -5.95336 0
M  V30 526 H 41.8851 -1.08352 -6.4699 0
M  V30 527 H 41.8021 -2.71217 -7.05675 0
M  V30 528 H 43.0701 -1.66252 -7.61564 0
M  V30 529 N 47.2992 1.18797 -1.03562 0
M  V30 530 C 48.2622 2.20464 -0.626769 0
M  V30 531 C 49.2622 1.57721 0.313173 0
M  V30 532 O 50.4522 1.73917 0.0992615 0
M  V30 533 C 47.5842 3.40802 0.0818498 0
M  V30 534 H 48.7772 2.58149 -1.5264 0
M  V30 535 H 46.3302 1.32593 -0.827578 0
M  V30 536 H 47.0652 3.08642 0.995518 0
M  V30 537 H 46.8502 3.8758 -0.593652 0
M  V30 538 H 48.3402 4.16092 0.354584 0
M  V30 539 N 48.7773 0.814389 1.34928 0
M  V30 540 C 49.7073 0.244827 2.32213 0
M  V30 541 C 50.6883 -0.634024 1.57842 0
M  V30 542 O 51.8733 -0.562676 1.8587 0
M  V30 543 C 49.0033 -0.601106 3.42058 0
M  V30 544 C 47.9573 0.179896 4.27622 0
M  V30 545 C 47.2833 -0.788237 5.28858 0
M  V30 546 C 48.5833 1.38329 5.03649 0
M  V30 547 H 50.2773 1.05763 2.80097 0
M  V30 548 H 47.8233 0.510029 1.34665 0
M  V30 549 H 49.7763 -1.00968 4.09125 0
M  V30 550 H 48.5003 -1.44688 2.92802 0
M  V30 551 H 47.1593 0.569739 3.62146 0
M  V30 552 H 46.8073 -1.62973 4.75866 0
M  V30 553 H 46.5073 -0.269942 5.8698 0
M  V30 554 H 48.0313 -1.19485 5.98795 0
M  V30 555 H 49.4453 1.04918 5.63618 0
M  V30 556 H 47.8423 1.83662 5.71304 0
M  V30 557 H 48.9123 2.16592 4.33839 0
M  V30 558 N 50.2554 -1.46986 0.568584 0
M  V30 559 C 51.5014 -2.02741 0.0488709 0
M  V30 560 C 51.8344 -1.44077 -1.30214 0
M  V30 561 O 51.1094 -0.600552 -1.84996 0
M  V30 562 C 51.3924 -3.60086 -0.032047 0
M  V30 563 C 51.2454 -4.29162 1.34686 0
M  V30 564 C 52.5644 -4.33838 -0.739798 0
M  V30 565 H 49.6834 -0.736749 0.0192338 0
M  V30 566 H 52.3254 -1.75289 0.733065 0
M  V30 567 H 50.4754 -3.83606 -0.61473 0
M  V30 568 H 52.1474 -4.16948 1.97362 0
M  V30 569 H 50.3904 -3.89073 1.91846 0
M  V30 570 H 51.0614 -5.37826 1.24285 0
M  V30 571 H 53.5374 -4.15378 -0.244939 0
M  V30 572 H 52.4134 -5.43537 -0.765406 0
M  V30 573 H 52.6744 -4.03875 -1.79827 0
M  V30 574 N 51.7335 -0.305618 -1.54608 0
M  V30 575 C 52.6435 0.57778 -2.27374 0
M  V30 576 C 53.6595 1.14451 -1.31061 0
M  V30 577 O 54.8355 1.16831 -1.6405 0
M  V30 578 C 51.9005 1.73123 -3.00382 0
M  V30 579 C 50.9615 1.19812 -4.12242 0
M  V30 580 C 50.1945 2.2966 -4.81759 0
M  V30 581 O 50.4175 3.49651 -4.50666 0
M  V30 582 O 49.3515 1.96091 -5.69062 0
M  V30 583 H 53.1775 -0.012624 -3.03697 0
M  V30 584 H 50.7625 -0.0719184 -1.49227 0
M  V30 585 H 52.6445 2.40315 -3.4616 0
M  V30 586 H 51.3195 2.30815 -2.26949 0
M  V30 587 H 50.2265 0.491798 -3.70853 0
M  V30 588 H 51.5595 0.666566 -4.87666 0
M  V30 589 N 53.2116 1.57565 -0.0334293 0
M  V30 590 C 54.4606 1.91155 0.643639 0
M  V30 591 C 54.7736 0.91192 1.73042 0
M  V30 592 O 55.9796 1.13923 2.46442 0
M  V30 593 C 54.4356 3.39443 1.1961 0
M  V30 594 C 54.0436 4.47774 0.142381 0
M  V30 595 C 55.7876 3.82094 1.84944 0
M  V30 596 C 53.6946 5.87162 0.706727 0
M  V30 597 H 52.6246 0.713368 0.244176 0
M  V30 598 H 55.2756 1.8323 -0.0994323 0
M  V30 599 H 53.6576 3.42313 1.99092 0
M  V30 600 H 54.8316 4.56469 -0.630296 0
M  V30 601 H 53.1466 4.14352 -0.412446 0
M  V30 602 H 55.7436 4.83591 2.2813 0
M  V30 603 H 56.0866 3.17386 2.69392 0
M  V30 604 H 56.6196 3.81665 1.12145 0
M  V30 605 H 53.3586 6.55424 -0.0997178 0
M  V30 606 H 52.8786 5.82064 1.44779 0
M  V30 607 H 54.5576 6.35866 1.19514 0
M  V30 608 N 54.6897 -0.239769 1.55765 0
M  V30 609 C 55.9297 -0.974076 1.79697 0
M  V30 610 C 56.2937 -1.82249 0.604088 0
M  V30 611 O 57.4947 -2.58913 0.722324 0
M  V30 612 C 55.7657 -1.80595 3.08416 0
M  V30 613 S 57.3247 -2.59838 3.53596 0
M  V30 614 H 54.1427 -0.327524 0.63107 0
M  V30 615 H 56.7447 -0.241277 1.94005 0
M  V30 616 H 55.4487 -1.17249 3.93295 0
M  V30 617 H 54.9797 -2.58137 2.96865 0
M  V30 618 H 56.9947 -3.82987 3.15492 0
M  V30 619 N 56.1678 -1.49265 -0.50573 0
M  V30 620 C 57.3958 -1.62215 -1.28429 0
M  V30 621 C 57.8108 -0.291697 -1.86533 0
M  V30 622 O 57.1678 0.722233 -1.67601 0
M  V30 623 C 57.2188 -2.68735 -2.41793 0
M  V30 624 O 56.9398 -3.96619 -1.86078 0
M  V30 625 C 58.4408 -2.92346 -3.3324 0
M  V30 626 H 55.6608 -0.546239 -0.389697 0
M  V30 627 H 58.2048 -1.95265 -0.607609 0
M  V30 628 H 56.3598 -2.38476 -3.053 0
M  V30 629 H 56.7738 -4.55256 -2.60465 0
M  V30 630 H 58.2478 -3.70623 -4.09075 0
M  V30 631 H 58.7248 -2.02081 -3.89948 0
M  V30 632 H 59.3308 -3.24003 -2.75503 0
M  V30 633 N 57.6459 0.756429 -1.3826 0
M  V30 634 C 58.5559 1.9009 -1.37488 0
M  V30 635 C 59.5719 1.71855 -0.272366 0
M  V30 636 O 60.7479 1.94827 -0.510318 0
M  V30 637 C 57.8129 3.25421 -1.19592 0
M  V30 638 C 56.8739 3.56202 -2.39622 0
M  V30 639 C 56.1069 4.85075 -2.2257 0
M  V30 640 O 56.3299 5.57246 -1.21793 0
M  V30 641 O 55.2639 5.15269 -3.11098 0
M  V30 642 H 59.0899 1.93695 -2.33914 0
M  V30 643 H 56.6749 0.901313 -1.1915 0
M  V30 644 H 58.5569 4.06337 -1.11661 0
M  V30 645 H 57.2319 3.22634 -0.262486 0
M  V30 646 H 56.1389 2.75458 -2.53128 0
M  V30 647 H 57.4719 3.63747 -3.31586 0
M  V30 648 N 59.124 1.23083 0.984299 0
M  V30 649 C 60.057 0.951786 2.07404 0
M  V30 650 C 61.035 -0.10848 1.62238 0
M  V30 651 O 62.219 0.0249467 1.88483 0
M  V30 652 C 59.346 0.433142 3.35919 0
M  V30 653 C 58.392 1.47941 4.0002 0
M  V30 654 S 59.225 3.05556 4.39768 0
M  V30 655 C 60.381 2.55351 5.71442 0
M  V30 656 H 60.614 1.87456 2.30754 0
M  V30 657 H 58.147 1.06284 1.11996 0
M  V30 658 H 60.105 0.140506 4.10259 0
M  V30 659 H 58.766 -0.468656 3.10584 0
M  V30 660 H 57.959 1.06658 4.92585 0
M  V30 661 H 57.561 1.7212 3.3204 0
M  V30 662 H 59.853 1.97128 6.48187 0
M  V30 663 H 60.796 3.46441 6.17563 0
M  V30 664 H 61.204 1.96339 5.29255 0
M  V30 665 N 60.6021 -1.18246 1.0419 0
M  V30 666 C 61.5121 -2.25574 0.644476 0
M  V30 667 C 62.5281 -1.70845 -0.329826 0
M  V30 668 O 63.7041 -2.00554 -0.184443 0
M  V30 669 C 60.7691 -3.46697 0.014877 0
M  V30 670 C 59.8301 -4.16554 1.03834 0
M  V30 671 C 59.0631 -5.31894 0.438692 0
M  V30 672 O 59.2861 -5.65385 -0.754752 0
M  V30 673 O 58.2201 -5.90459 1.168 0
M  V30 674 H 62.0461 -2.61836 1.53869 0
M  V30 675 H 59.6311 -1.25352 0.812854 0
M  V30 676 H 61.5131 -4.20062 -0.335538 0
M  V30 677 H 60.1881 -3.12255 -0.853138 0
M  V30 678 H 59.0951 -3.45251 1.44057 0
M  V30 679 H 60.4281 -4.54998 1.87716 0
M  V30 680 N 62.0802 -0.821533 -1.34494 0
M  V30 681 C 63.0272 -0.240397 -2.29545 0
M  V30 682 C 63.9972 0.634031 -1.53523 0
M  V30 683 O 65.1822 0.575966 -1.81899 0
M  V30 684 C 62.3222 0.592869 -3.39969 0
M  V30 685 C 61.4352 -0.30365 -4.30932 0
M  V30 686 C 60.5702 0.539049 -5.28458 0
M  V30 687 C 59.6092 -0.356942 -6.11058 0
M  V30 688 N 58.7462 0.446603 -7.00678 0
M  V30 689 H 63.5862 -1.05632 -2.7865 0
M  V30 690 H 61.1232 -0.532413 -1.37127 0
M  V30 691 H 63.0812 1.09129 -4.02675 0
M  V30 692 H 61.7112 1.37392 -2.92102 0
M  V30 693 H 60.7632 -0.920276 -3.691 0
M  V30 694 H 62.0752 -0.992661 -4.88823 0
M  V30 695 H 61.2292 1.102 -5.96608 0
M  V30 696 H 59.9682 1.26157 -4.71101 0
M  V30 697 H 58.9732 -0.932047 -5.41842 0
M  V30 698 H 60.1982 -1.07755 -6.70497 0
M  V30 699 H 58.1442 1.15282 -6.45791 0
M  V30 700 H 58.0612 -0.184048 -7.55776 0
M  V30 701 H 59.3292 0.992352 -7.73158 0
M  V30 702 N 63.5583 1.46682 -0.576371 0
M  V30 703 C 64.4683 2.34032 0.163141 0
M  V30 704 C 65.4843 1.49367 0.892501 0
M  V30 705 O 66.6603 1.82252 0.857106 0
M  V30 706 C 63.7253 3.26435 1.16795 0
M  V30 707 C 62.7863 4.26998 0.443944 0
M  V30 708 C 62.0193 5.14986 1.40088 0
M  V30 709 O 62.2423 5.05785 2.637 0
M  V30 710 O 61.1763 5.94906 0.914917 0
M  V30 711 H 65.0023 2.98607 -0.55388 0
M  V30 712 H 62.5873 1.45554 -0.336821 0
M  V30 713 H 64.4693 3.83459 1.74748 0
M  V30 714 H 63.1443 2.64465 1.86655 0
M  V30 715 H 62.0513 3.7368 -0.177271 0
M  V30 716 H 63.3843 4.91736 -0.213566 0
M  V30 717 N 65.0364 0.313813 1.54444 0
M  V30 718 C 66.2844 -0.291099 1.99993 0
M  V30 719 C 66.6054 -1.53418 1.20366 0
M  V30 720 O 65.8754 -1.93544 0.302927 0
M  V30 721 H 64.4554 -0.110552 0.738774 0
M  V30 722 H 67.1174 0.428106 1.9014 0
M  V30 723 H 66.2134 -0.554268 3.07139 0
M  V30 724 N 66.5145 -1.57545 0.0417849 0
M  V30 725 C 67.4615 -2.10977 -0.935805 0
M  V30 726 C 68.4315 -1.01486 -1.31491 0
M  V30 727 O 69.6165 -1.2898 -1.40602 0
M  V30 728 C 66.7565 -2.65169 -2.2086 0
M  V30 729 C 65.8695 -3.88714 -1.88482 0
M  V30 730 C 65.0045 -4.31254 -3.1015 0
M  V30 731 C 64.0435 -5.47524 -2.7365 0
M  V30 732 N 63.1805 -5.85162 -3.87982 0
M  V30 733 H 68.0205 -2.94218 -0.473249 0
M  V30 734 H 65.5575 -1.45415 -0.221981 0
M  V30 735 H 67.5155 -2.94685 -2.95325 0
M  V30 736 H 66.1455 -1.8474 -2.64709 0
M  V30 737 H 65.1975 -3.65849 -1.04205 0
M  V30 738 H 66.5095 -4.73245 -1.57608 0
M  V30 739 H 65.6635 -4.62273 -3.92923 0
M  V30 740 H 64.4025 -3.45516 -3.44195 0
M  V30 741 H 63.4075 -5.16187 -1.89291 0
M  V30 742 H 64.6325 -6.34971 -2.40807 0
M  V30 743 H 62.5785 -5.02377 -4.21846 0
M  V30 744 H 62.4955 -6.64362 -3.60775 0
M  V30 745 H 63.7635 -6.20791 -4.71422 0
M  V30 746 N 67.9926 0.231505 -1.5589 0
M  V30 747 C 69.2416 0.955346 -1.7764 0
M  V30 748 C 69.5546 1.85893 -0.608546 0
M  V30 749 O 70.7606 2.62067 -0.70943 0
M  V30 750 C 69.2166 1.74886 -3.14552 0
M  V30 751 C 68.8246 0.891915 -4.39032 0
M  V30 752 C 70.5686 2.46452 -3.45633 0
M  V30 753 C 68.4756 1.68221 -5.66971 0
M  V30 754 H 67.4056 0.360446 -0.662265 0
M  V30 755 H 70.0566 0.209516 -1.823 0
M  V30 756 H 68.4386 2.53723 -3.04041 0
M  V30 757 H 69.6126 0.144793 -4.60572 0
M  V30 758 H 67.9276 0.288863 -4.15397 0
M  V30 759 H 70.5246 3.06061 -4.38441 0
M  V30 760 H 70.8676 3.18841 -2.67668 0
M  V30 761 H 71.4006 1.74613 -3.57428 0
M  V30 762 H 68.1396 1.00178 -6.478 0
M  V30 763 H 67.6596 2.4042 -5.49507 0
M  V30 764 H 69.3386 2.24544 -6.06786 0
M  V30 765 N 69.4707 1.49531 0.497807 0
M  V30 766 C 70.6957 1.63159 1.28039 0
M  V30 767 C 71.1207 0.30418 1.85624 0
M  V30 768 O 70.4787 -0.728618 1.66015 0
M  V30 769 C 70.5267 2.70537 2.38416 0
M  V30 770 O 69.6307 2.29931 3.42353 0
M  V30 771 H 68.9717 0.546001 0.377861 0
M  V30 772 H 71.5017 1.9574 0.59558 0
M  V30 773 H 71.5117 2.92802 2.84132 0
M  V30 774 H 70.1867 3.6689 1.95869 0
M  V30 775 H 68.7637 2.18009 3.02533 0
M  V30 776 N 70.9488 -0.749086 1.3866 0
M  V30 777 C 71.8958 -1.86291 1.36251 0
M  V30 778 C 72.8658 -1.64578 0.224347 0
M  V30 779 O 74.0508 -1.86181 0.417279 0
M  V30 780 C 71.1908 -3.23644 1.19786 0
M  V30 781 C 70.3038 -3.57158 2.43027 0
M  V30 782 C 69.4388 -4.83838 2.19258 0
M  V30 783 C 68.4778 -5.10152 3.38247 0
M  V30 784 N 67.6148 -6.28029 3.13884 0
M  V30 785 H 72.4548 -1.87685 2.3147 0
M  V30 786 H 69.9918 -0.917287 1.14997 0
M  V30 787 H 71.9498 -4.0291 1.08254 0
M  V30 788 H 70.5798 -3.21566 0.282031 0
M  V30 789 H 69.6318 -2.72701 2.65214 0
M  V30 790 H 70.9438 -3.7253 3.31697 0
M  V30 791 H 70.0978 -5.71057 2.04888 0
M  V30 792 H 68.8368 -4.70614 1.2796 0
M  V30 793 H 67.8418 -4.21401 3.53131 0
M  V30 794 H 69.0668 -5.25271 4.30427 0
M  V30 795 H 67.0128 -6.1612 2.25238 0
M  V30 796 H 66.9298 -6.43922 3.96106 0
M  V30 797 H 68.1978 -7.18124 3.03179 0
M  V30 798 N 72.4269 -1.23603 -0.977757 0
M  V30 799 C 73.6759 -1.06377 -1.71368 0
M  V30 800 C 73.9889 0.399062 -1.91486 0
M  V30 801 O 75.1949 0.691312 -2.62551 0
M  V30 802 C 73.6509 -1.85512 -3.08404 0
M  V30 803 C 73.2589 -3.36141 -2.96164 0
M  V30 804 C 75.0029 -1.76783 -3.85938 0
M  V30 805 C 72.9099 -4.07659 -4.28449 0
M  V30 806 H 71.8399 -0.394452 -0.642591 0
M  V30 807 H 74.4909 -1.47594 -1.09034 0
M  V30 808 H 72.8729 -1.37103 -3.71509 0
M  V30 809 H 74.0469 -3.92056 -2.42133 0
M  V30 810 H 72.3619 -3.45712 -2.32104 0
M  V30 811 H 74.9589 -2.27526 -4.83876 0
M  V30 812 H 75.3019 -0.731116 -4.0983 0
M  V30 813 H 75.8349 -2.22818 -3.2954 0
M  V30 814 H 72.5739 -5.11648 -4.09752 0
M  V30 815 H 72.0939 -3.5653 -4.82334 0
M  V30 816 H 73.7729 -4.141 -4.97122 0
M  V30 817 N 73.905 1.17692 -1.04816 0
M  V30 818 C 75.153 1.87488 -0.754497 0
M  V30 819 C 75.474 1.81205 0.720407 0
M  V30 820 O 74.744 1.23544 1.52032 0
M  V30 821 H 73.324 0.694101 -0.276102 0
M  V30 822 H 75.986 1.42793 -1.32651 0
M  V30 823 H 75.082 2.93328 -1.06606 0
M  V30 824 N 75.3831 0.828654 1.34056 0
M  V30 825 C 76.7941 0.477534 1.8049 0
M  V30 826 C 77.1451 -1.00258 1.6865 0
M  V30 827 O 76.2701 -1.78057 1.22982 0
M  V30 828 C 76.8651 0.860018 3.27703 0
M  V30 829 C 75.4241 0.561185 3.72193 0
M  V30 830 C 74.5711 1.07385 2.55663 0
M  V30 831 H 77.5221 1.0183 1.21722 0
M  V30 832 H 77.5431 0.166038 3.80138 0
M  V30 833 H 77.0551 1.93731 3.36288 0
M  V30 834 H 75.1561 -0.506465 3.69142 0
M  V30 835 H 75.2691 1.10926 4.66082 0
M  V30 836 H 73.6331 0.495149 2.49841 0
M  V30 837 H 74.4161 2.15771 2.67016 0
M  V30 838 N 76.8612 -1.46375 0.584142 0
M  V30 839 C 77.7712 -2.34115 -0.150728 0
M  V30 840 C 78.7872 -1.49838 -0.884567 0
M  V30 841 O 79.9632 -1.82704 -0.847429 0
M  V30 842 C 77.0282 -3.2705 -1.15062 0
M  V30 843 C 76.0892 -4.27228 -0.421293 0
M  V30 844 C 75.3222 -5.15722 -1.37355 0
M  V30 845 O 75.5452 -5.07176 -2.61014 0
M  V30 846 O 74.4792 -5.95383 -0.883355 0
M  V30 847 H 78.3052 -2.98309 0.569708 0
M  V30 848 H 75.8902 -1.45373 0.344535 0
M  V30 849 H 77.7722 -3.84381 -1.72712 0
M  V30 850 H 76.4472 -2.65451 -1.8525 0
M  V30 851 H 75.3542 -3.7358 0.197085 0
M  V30 852 H 76.6872 -4.91616 0.239641 0
M  V30 853 N 78.3393 -0.321999 -1.54275 0
M  V30 854 C 79.2873 0.560206 -2.25753 0
M  V30 855 C 80.2813 1.11984 -1.27106 0
M  V30 856 O 81.4873 1.06806 -1.44888 0
M  V30 857 H 77.8623 0.199304 -0.725108 0
M  V30 858 H 79.8333 -0.0649365 -2.98329 0
M  V30 859 C 78.5823 1.71023 -3.02731 0
M  V30 860 H 77.9053 1.28885 -3.78456 0
M  V30 861 H 79.3453 2.30314 -3.55993 0
M  V30 862 C 77.8043 2.62692 -2.10938 0
M  V30 863 O 78.3343 3.64364 -1.6912 0
M  V30 864 N 76.5403 2.30891 -1.76459 0
M  V30 865 H 76.0873 1.48253 -2.10663 0
M  V30 866 H 76.0453 2.92487 -1.1532 0
M  V30 867 N 79.8174 1.5752 -0.0501392 0
M  V30 868 C 81.2284 1.80271 0.485705 0
M  V30 869 C 81.5794 0.96228 1.70981 0
M  V30 870 O 80.7044 0.178578 2.15662 0
M  V30 871 C 81.2994 3.26957 0.887938 0
M  V30 872 C 79.8584 3.5063 1.36877 0
M  V30 873 C 79.0054 2.75165 0.343468 0
M  V30 874 H 81.9564 1.56281 -0.276028 0
M  V30 875 H 81.9774 3.37821 1.75093 0
M  V30 876 H 81.4894 3.881 -0.0031809 0
M  V30 877 H 79.5904 2.94766 2.27911 0
M  V30 878 H 79.7034 4.59343 1.36164 0
M  V30 879 H 78.0674 2.4127 0.816128 0
M  V30 880 H 78.8504 3.39034 -0.539548 0
M  V30 881 N 81.2955 -0.223234 1.56011 0
M  V30 882 C 82.5255 -0.963413 1.82762 0
M  V30 883 C 82.9335 -1.78516 0.626804 0
M  V30 884 O 82.2765 -1.78974 -0.414014 0
M  V30 885 C 82.3385 -1.93126 3.0322 0
M  V30 886 C 82.0025 -1.2942 4.38291 0
M  V30 887 C 82.9995 -0.684916 5.15369 0
M  V30 888 C 80.6845 -1.30647 4.85012 0
M  V30 889 C 82.6785 -0.0963971 6.37327 0
M  V30 890 C 80.3655 -0.71411 6.06913 0
M  V30 891 C 81.3635 -0.110123 6.82911 0
M  V30 892 O 81.0515 0.47303 8.02507 0
M  V30 893 H 80.7835 -0.288011 0.611576 0
M  V30 894 H 83.3375 -0.244103 2.03944 0
M  V30 895 H 81.5675 -2.68952 2.77852 0
M  V30 896 H 83.2565 -2.53685 3.16857 0
M  V30 897 H 84.0225 -0.667774 4.80381 0
M  V30 898 H 79.9015 -1.76598 4.25833 0
M  V30 899 H 83.4455 0.375657 6.96588 0
M  V30 900 H 79.3425 -0.728659 6.41374 0
M  V30 901 H 80.1105 0.367186 8.17676 0
M  V30 902 N 82.7736 -1.49793 -0.48987 0
M  V30 903 C 83.7216 -1.67783 -1.61095 0
M  V30 904 C 84.7156 -0.543683 -1.60438 0
M  V30 905 O 85.9216 -0.723647 -1.64813 0
M  V30 906 H 82.2966 -0.529255 -0.534222 0
M  V30 907 H 84.2676 -2.61861 -1.43078 0
M  V30 908 C 83.0166 -1.77191 -2.99164 0
M  V30 909 H 82.3396 -2.63841 -3.0038 0
M  V30 910 H 83.7796 -1.93809 -3.77113 0
M  V30 911 C 82.2386 -0.519203 -3.32875 0
M  V30 912 O 82.7686 0.350124 -4.00171 0
M  V30 913 N 80.9746 -0.378816 -2.8812 0
M  V30 914 H 80.5216 -1.08725 -2.33531 0
M  V30 915 H 80.4796 0.458239 -3.11043 0
M  V30 916 N 84.2517 0.741722 -1.39055 0
M  V30 917 C 85.4797 1.53098 -1.39171 0
M  V30 918 C 85.8947 1.88794 0.0155099 0
M  V30 919 O 85.2517 1.53626 0.985159 0
M  V30 920 C 85.3027 2.82274 -2.2584 0
M  V30 921 O 85.0237 2.48097 -3.61081 0
M  V30 922 C 86.5247 3.76343 -2.34266 0
M  V30 923 H 83.7447 0.473335 -0.4756 0
M  V30 924 H 86.2887 0.917045 -1.82785 0
M  V30 925 H 84.4437 3.40015 -1.85656 0
M  V30 926 H 84.8577 3.31029 -4.06842 0
M  V30 927 H 86.3317 4.63898 -2.9917 0
M  V30 928 H 86.8087 4.17619 -1.35982 0
M  V30 929 H 87.4147 3.24523 -2.74891 0
M  V30 930 N 85.7298 1.2412 0.971189 0
M  V30 931 C 87.1408 1.07236 1.52831 0
M  V30 932 C 87.4918 -0.357352 1.92918 0
M  V30 933 O 86.6168 -1.24528 1.76979 0
M  V30 934 C 87.2118 1.94043 2.77728 0
M  V30 935 C 85.7708 1.81394 3.29808 0
M  V30 936 C 84.9178 1.89189 2.02738 0
M  V30 937 H 87.8688 1.37648 0.789864 0
M  V30 938 H 87.8898 1.47066 3.5093 0
M  V30 939 H 87.4018 2.98093 2.4852 0
M  V30 940 H 85.5028 0.801634 3.63874 0
M  V30 941 H 85.6158 2.65294 3.98944 0
M  V30 942 H 83.9798 1.32877 2.17292 0
M  V30 943 H 84.7628 2.94812 1.759 0
M  V30 944 N 87.2079 -1.17134 1.05439 0
M  V30 945 C 88.4539 -1.87733 0.767077 0
M  V30 946 C 88.7869 -1.8098 -0.704253 0
M  V30 947 O 88.0619 -1.21951 -1.5152 0
M  V30 948 C 88.3449 -3.37659 1.25133 0
M  V30 949 C 88.1979 -3.53149 2.78578 0
M  V30 950 C 89.5169 -4.31768 0.852324 0
M  V30 951 H 86.6359 -0.681687 0.280129 0
M  V30 952 H 89.2779 -1.37732 1.30881 0
M  V30 953 H 87.4279 -3.80373 0.790469 0
M  V30 954 H 89.0999 -3.19434 3.32806 0
M  V30 955 H 87.3429 -2.95345 3.17732 0
M  V30 956 H 88.0139 -4.58403 3.07523 0
M  V30 957 H 90.4899 -3.96909 1.24911 0
M  V30 958 H 89.3659 -5.35199 1.21873 0
M  V30 959 H 89.6269 -4.41429 -0.243485 0
M  V30 960 N 88.686 -0.835752 -1.33615 0
M  V30 961 C 89.933 -0.429959 -1.97883 0
M  V30 962 C 90.261 1.01006 -1.66217 0
M  V30 963 O 89.516 1.72047 -0.93265 0
M  V30 964 C 89.815 -0.593925 -3.52431 0
M  V30 965 C 89.481 -2.00158 -4.04039 0
M  V30 966 C 88.143 -2.38662 -4.17844 0
M  V30 967 C 90.495 -2.92117 -4.31644 0
M  V30 968 C 87.823 -3.68435 -4.56588 0
M  V30 969 C 90.175 -4.21368 -4.71838 0
M  V30 970 C 88.839 -4.59833 -4.83849 0
M  V30 971 H 88.109 -0.157333 -0.724104 0
M  V30 972 H 90.756 -1.06217 -1.59343 0
M  V30 973 H 89.061 0.121619 -3.91611 0
M  V30 974 H 90.758 -0.260282 -4.00154 0
M  V30 975 H 87.348 -1.69252 -3.93766 0
M  V30 976 H 91.532 -2.63608 -4.20505 0
M  V30 977 H 86.788 -3.98046 -4.64079 0
M  V30 978 H 90.962 -4.92703 -4.92155 0
M  V30 979 H 88.589 -5.60438 -5.13627 0
M  V30 980 N 90.1641 1.46063 -0.591896 0
M  V30 981 C 91.1271 2.28854 0.125973 0
M  V30 982 C 92.1271 1.38903 0.810107 0
M  V30 983 O 93.3171 1.61186 0.66066 0
M  V30 984 C 90.4491 3.19526 1.1881 0
M  V30 985 H 91.6421 2.93802 -0.601717 0
M  V30 986 H 89.1951 1.52325 -0.350254 0
M  V30 987 H 89.9301 2.59345 1.94707 0
M  V30 988 H 89.7151 3.85766 0.701936 0
M  V30 989 H 91.2051 3.81817 1.69132 0
M  V30 990 N 91.6422 0.330177 1.54103 0
M  V30 991 C 92.8912 -0.271336 1.99867 0
M  V30 992 C 93.2042 -1.52723 1.22209 0
M  V30 993 O 94.4102 -2.20515 1.58383 0
M  V30 994 C 92.8662 -0.534032 3.55916 0
M  V30 995 C 92.4742 0.705193 4.42415 0
M  V30 996 C 94.2182 -1.09514 4.1013 0
M  V30 997 C 92.1252 0.414035 5.89949 0
M  V30 998 H 91.0552 -0.105166 0.74663 0
M  V30 999 H 93.7062 0.443429 1.78062 0
M  V30 1000 H 92.0882 -1.30915 3.73734 0
M  V30 1001 H 93.2622 1.4804 4.36372 0
M  V30 1002 H 91.5772 1.18698 3.99124 0
M  V30 1003 H 94.1742 -1.3277 5.17954 0
M  V30 1004 H 94.5172 -2.04656 3.62521 0
M  V30 1005 H 95.0502 -0.381038 3.95971 0
M  V30 1006 H 91.7892 1.33481 6.41766 0
M  V30 1007 H 91.3092 -0.323336 5.98928 0
M  V30 1008 H 92.9882 0.0263105 6.46995 0
M  V30 1009 N 93.1203 -1.57491 0.0584922 0
M  V30 1010 C 94.0673 -2.11958 -0.913376 0
M  V30 1011 C 95.0373 -1.02875 -1.30407 0
M  V30 1012 O 96.2223 -1.30464 -1.39226 0
M  V30 1013 C 93.3623 -2.67497 -2.18035 0
M  V30 1014 C 92.4753 -3.90691 -1.84349 0
M  V30 1015 C 91.6103 -4.3452 -3.05559 0
M  V30 1016 C 90.6493 -5.50395 -2.67827 0
M  V30 1017 N 89.7863 -5.89244 -3.81754 0
M  V30 1018 H 94.6263 -2.94704 -0.442017 0
M  V30 1019 H 92.1633 -1.45643 -0.206545 0
M  V30 1020 H 94.1213 -2.978 -2.92183 0
M  V30 1021 H 92.7513 -1.87537 -2.62735 0
M  V30 1022 H 91.8033 -3.66934 -1.00319 0
M  V30 1023 H 93.1153 -4.7489 -1.5258 0
M  V30 1024 H 92.2693 -4.66414 -3.87998 0
M  V30 1025 H 91.0083 -3.49147 -3.40511 0
M  V30 1026 H 90.0133 -5.18165 -1.83806 0
M  V30 1027 H 91.2383 -6.3749 -2.34059 0
M  V30 1028 H 89.1843 -5.06823 -4.16493 0
M  V30 1029 H 89.1013 -6.68151 -3.53708 0
M  V30 1030 H 90.3693 -6.25756 -4.64811 0
M  V30 1031 N 94.5984 0.214957 -1.56127 0
M  V30 1032 C 95.5454 1.26642 -1.92952 0
M  V30 1033 C 96.5154 1.46244 -0.78753 0
M  V30 1034 O 97.7004 1.59704 -1.04399 0
M  V30 1035 C 94.8404 2.6104 -2.25726 0
M  V30 1036 C 93.9534 2.49183 -3.52891 0
M  V30 1037 C 93.0884 3.76149 -3.7508 0
M  V30 1038 C 92.1274 3.59041 -4.95738 0
M  V30 1039 N 91.2644 4.77972 -5.14283 0
M  V30 1040 H 96.1044 0.945384 -2.82607 0
M  V30 1041 H 93.6414 0.455489 -1.3987 0
M  V30 1042 H 95.5994 3.39313 -2.42739 0
M  V30 1043 H 94.2294 2.91227 -1.39236 0
M  V30 1044 H 93.2814 1.6231 -3.44034 0
M  V30 1045 H 94.5934 2.32466 -4.41318 0
M  V30 1046 H 93.7474 4.62865 -3.92226 0
M  V30 1047 H 92.4864 3.95799 -2.84947 0
M  V30 1048 H 91.4914 2.7071 -4.78535 0
M  V30 1049 H 92.7164 3.40856 -5.87362 0
M  V30 1050 H 90.6624 4.97923 -4.27093 0
M  V30 1051 H 90.5794 4.64006 -5.96853 0
M  V30 1052 H 91.8474 5.66096 -5.35869 0
M  V30 1053 N 96.0765 1.50051 0.48192 0
M  V30 1054 C 97.0235 1.68122 1.58125 0
M  V30 1055 C 97.9935 0.522545 1.57666 0
M  V30 1056 O 99.1785 0.751844 1.75362 0
M  V30 1057 C 96.3185 1.77142 2.96167 0
M  V30 1058 C 95.4315 3.0444 3.06497 0
M  V30 1059 C 94.5665 3.04321 4.35387 0
M  V30 1060 C 93.6055 4.26118 4.3942 0
M  V30 1061 N 92.7425 4.238 5.59766 0
M  V30 1062 H 97.5825 2.6198 1.42022 0
M  V30 1063 H 95.1195 1.29877 0.690687 0
M  V30 1064 H 97.0775 1.80352 3.76203 0
M  V30 1065 H 95.7075 0.867329 3.1093 0
M  V30 1066 H 94.7595 3.10752 2.19402 0
M  V30 1067 H 96.0715 3.94426 3.05336 0
M  V30 1068 H 95.2255 3.062 5.23762 0
M  V30 1069 H 93.9645 2.12147 4.39141 0
M  V30 1070 H 92.9695 4.24463 3.49444 0
M  V30 1071 H 94.1945 5.19507 4.37366 0
M  V30 1072 H 92.1405 3.34474 5.64326 0
M  V30 1073 H 92.0575 5.07542 5.60301 0
M  V30 1074 H 93.3255 4.2981 6.50295 0
M  V30 1075 N 97.5546 -0.734337 1.39446 0
M  V30 1076 C 98.8316 -1.48579 1.27215 0
M  V30 1077 C 99.2116 -2.1077 -0.117968 0
M  V30 1078 O 98.5596 -1.98646 -1.12924 0
M  V30 1079 C 98.7696 -2.53667 2.39696 0
M  V30 1080 C 100.118 -3.20031 2.79044 0
M  V30 1081 O 101.142 -2.6398 2.39151 0
M  V30 1082 O 100.001 -4.21455 3.47905 0
M  V30 1083 H 97.0946 -0.659816 0.49857 0
M  V30 1084 H 99.6406 -0.768106 1.51322 0
M  V30 1085 H 98.4126 -2.06096 3.32626 0
M  V30 1086 H 98.0356 -3.32994 2.17258 0
M  V30 1087 N 99.0327 -1.24633 -0.964593 0
M  V30 1088 C 100.258 -1.11596 -1.74818 0
M  V30 1089 C 100.683 0.32723 -1.85232 0
M  V30 1090 O 100.041 1.23695 -1.32549 0
M  V30 1091 C 100.089 -1.76397 -3.1451 0
M  V30 1092 O 99.1927 -1.03685 -3.99153 0
M  V30 1093 H 98.5337 -0.390196 -0.537255 0
M  V30 1094 H 101.064 -1.65002 -1.20977 0
M  V30 1095 H 101.074 -1.8228 -3.65018 0
M  V30 1096 H 99.7487 -2.81401 -3.06246 0
M  V30 1097 H 98.3257 -1.05611 -3.57632 0
M  V30 1098 N 100.511 1.16574 -1.06058 0
M  V30 1099 C 101.739 1.90952 -0.796552 0
M  V30 1100 C 102.154 1.77302 0.648808 0
M  V30 1101 O 101.511 1.11605 1.44397 0
M  V30 1102 C 101.562 3.41736 -1.17894 0
M  V30 1103 O 101.283 3.54975 -2.56758 0
M  V30 1104 C 102.784 4.33169 -0.942308 0
M  V30 1105 H 100.004 0.605594 -0.288959 0
M  V30 1106 H 102.548 1.47777 -1.41358 0
M  V30 1107 H 100.703 3.82623 -0.606491 0
M  V30 1108 H 101.117 4.4846 -2.72 0
M  V30 1109 H 102.591 5.37439 -1.25952 0
M  V30 1110 H 103.068 4.3903 0.122078 0
M  V30 1111 H 103.674 3.98007 -1.49902 0
M  V30 1112 N 101.989 0.842826 1.3317 0
M  V30 1113 C 102.936 0.276885 2.29133 0
M  V30 1114 C 103.906 -0.609527 1.54512 0
M  V30 1115 O 105.091 -0.546955 1.82792 0
M  V30 1116 C 102.231 -0.538707 3.40869 0
M  V30 1117 C 101.344 0.372169 4.30394 0
M  V30 1118 C 100.479 -0.454908 5.29249 0
M  V30 1119 C 99.5179 0.45411 6.10413 0
M  V30 1120 N 98.6549 -0.335075 7.013 0
M  V30 1121 H 103.495 1.10052 2.76934 0
M  V30 1122 H 101.032 0.554161 1.36262 0
M  V30 1123 H 102.99 -1.02709 4.0436 0
M  V30 1124 H 101.62 -1.32727 2.9425 0
M  V30 1125 H 100.672 0.97888 3.6759 0
M  V30 1126 H 101.984 1.0703 4.87182 0
M  V30 1127 H 101.138 -1.00695 5.98285 0
M  V30 1128 H 99.8769 -1.18646 4.73048 0
M  V30 1129 H 98.8819 1.01813 5.40291 0
M  V30 1130 H 100.107 1.18409 6.68697 0
M  V30 1131 H 98.0529 -1.04994 6.47543 0
M  V30 1132 H 97.9699 0.304262 7.55387 0
M  V30 1133 H 99.2379 -0.869224 7.74638 0
M  V30 1134 N 103.467 -1.45747 0.599634 0
M  V30 1135 C 104.713 -2.03153 0.100263 0
M  V30 1136 C 105.068 -1.46073 -1.25221 0
M  V30 1137 O 104.361 -0.622878 -1.81193 0
M  V30 1138 C 104.555 -3.57399 -0.00602758 0
M  V30 1139 C 104.384 -4.2944 1.3346 0
M  V30 1140 C 103.154 -4.6768 1.91321 0
M  V30 1141 C 105.352 -4.61905 2.2616 0
M  V30 1142 N 103.334 -5.24544 3.18946 0
M  V30 1143 C 104.705 -5.19518 3.3838 0
M  V30 1144 C 106.76 -4.43841 2.25631 0
M  V30 1145 C 105.463 -5.60972 4.50226 0
M  V30 1146 C 107.489 -4.86322 3.36518 0
M  V30 1147 C 106.851 -5.44021 4.4746 0
M  V30 1148 H 102.95 -0.777911 0.0798696 0
M  V30 1149 H 105.534 -1.77674 0.796244 0
M  V30 1150 H 103.705 -3.82556 -0.671212 0
M  V30 1151 H 105.437 -4.01457 -0.51133 0
M  V30 1152 H 102.192 -4.5098 1.44617 0
M  V30 1153 H 102.616 -5.57483 3.84112 0
M  V30 1154 H 107.258 -3.98552 1.41123 0
M  V30 1155 H 104.976 -6.0523 5.35464 0
M  V30 1156 H 108.562 -4.74084 3.37247 0
M  V30 1157 H 107.442 -5.76289 5.31846 0
M  V30 1158 N 104.945 -0.338344 -1.53925 0
M  V30 1159 C 106.361 0.0137736 -1.59594 0
M  V30 1160 C 106.561 1.49186 -1.35447 0
M  V30 1161 O 105.617 2.24987 -1.14616 0
M  V30 1162 C 106.93 -0.41773 -2.97784 0
M  V30 1163 C 108.478 -0.369633 -3.1081 0
M  V30 1164 C 108.953 -0.776524 -4.51369 0
M  V30 1165 N 110.444 -0.730506 -4.57403 0
M  V30 1166 C 111.179 -1.01736 -5.64303 0
M  V30 1167 N 110.675 -1.3721 -6.79077 0
M  V30 1168 N 112.468 -0.941942 -5.54151 0
M  V30 1169 H 104.619 -1.3012 -1.67876 0
M  V30 1170 H 106.882 -0.530082 -0.78595 0
M  V30 1171 H 106.588 -1.44811 -3.20504 0
M  V30 1172 H 106.462 0.209729 -3.76616 0
M  V30 1173 H 108.849 0.651568 -2.87817 0
M  V30 1174 H 108.93 -1.03223 -2.34049 0
M  V30 1175 H 108.574 -1.79571 -4.75096 0
M  V30 1176 H 108.504 -0.0914649 -5.26521 0
M  V30 1177 H 110.995 -0.468783 -3.74981 0
M  V30 1178 H 111.308 -1.57597 -7.5656 0
M  V30 1179 H 109.653 -1.4105 -6.80536 0
M  V30 1180 H 112.844 -0.664184 -4.63364 0
M  V30 1181 H 113.017 -1.16884 -6.37371 0
M  V30 1182 N 106.423 1.57458 -0.0668435 0
M  V30 1183 C 107.37 2.12439 0.902122 0
M  V30 1184 C 108.34 1.03565 1.2986 0
M  V30 1185 O 109.525 1.312 1.38532 0
M  V30 1186 C 106.665 2.6865 2.16614 0
M  V30 1187 C 105.778 3.91663 1.82274 0
M  V30 1188 C 104.913 4.36134 3.0325 0
M  V30 1189 C 103.952 5.51808 2.64904 0
M  V30 1190 N 103.089 5.9126 3.78624 0
M  V30 1191 H 107.929 2.94934 0.426382 0
M  V30 1192 H 105.466 1.4575 0.198819 0
M  V30 1193 H 107.424 2.99346 2.90599 0
M  V30 1194 H 106.054 1.88928 2.61737 0
M  V30 1195 H 105.106 3.6746 0.983719 0
M  V30 1196 H 106.418 4.75693 1.50059 0
M  V30 1197 H 105.572 4.68465 3.85519 0
M  V30 1198 H 104.311 3.50948 3.38655 0
M  V30 1199 H 103.316 5.19133 1.81055 0
M  V30 1200 H 104.541 6.38722 2.30675 0
M  V30 1201 H 102.487 5.09024 4.138 0
M  V30 1202 H 102.404 6.70018 3.5016 0
M  V30 1203 H 103.672 6.28212 4.61486 0
M  V30 1204 N 107.901 -0.206675 1.56239 0
M  V30 1205 C 108.831 -1.25909 1.96645 0
M  V30 1206 C 109.812 -1.48097 0.836734 0
M  V30 1207 O 110.997 -1.6003 1.10019 0
M  V30 1208 C 108.127 -2.6058 2.29599 0
M  V30 1209 C 107.081 -2.53024 3.452 0
M  V30 1210 C 106.407 -3.91861 3.63798 0
M  V30 1211 C 107.707 -2.06524 4.79734 0
M  V30 1212 H 109.401 -0.923369 2.84806 0
M  V30 1213 H 106.947 -0.442735 1.37025 0
M  V30 1214 H 108.9 -3.34375 2.56459 0
M  V30 1215 H 107.624 -2.95869 1.38307 0
M  V30 1216 H 106.283 -1.81684 3.18412 0
M  V30 1217 H 105.931 -4.24483 2.69857 0
M  V30 1218 H 105.631 -3.87683 4.4156 0
M  V30 1219 H 107.155 -4.67296 3.93022 0
M  V30 1220 H 108.569 -2.70072 5.05702 0
M  V30 1221 H 106.966 -2.13374 5.60885 0
M  V30 1222 H 108.036 -1.01802 4.74093 0
M  V30 1223 N 109.379 -1.50304 -0.473955 0
M  V30 1224 C 110.625 -1.61389 -1.22806 0
M  V30 1225 C 110.958 -0.311955 -1.91678 0
M  V30 1226 O 110.233 0.686384 -1.81986 0
M  V30 1227 C 110.516 -2.79219 -2.27396 0
M  V30 1228 C 110.369 -4.19286 -1.62848 0
M  V30 1229 C 111.688 -2.92614 -3.28732 0
M  V30 1230 H 108.807 -0.587399 -0.445119 0
M  V30 1231 H 111.449 -1.82681 -0.522265 0
M  V30 1232 H 109.599 -2.61195 -2.87592 0
M  V30 1233 H 111.271 -4.48892 -1.06271 0
M  V30 1234 H 109.514 -4.23677 -0.931693 0
M  V30 1235 H 110.185 -4.97655 -2.38838 0
M  V30 1236 H 112.661 -3.09105 -2.78556 0
M  V30 1237 H 111.537 -3.76688 -3.99246 0
M  V30 1238 H 111.798 -2.03107 -3.92683 0
M  V30 1239 N 110.857 0.726932 -1.39834 0
M  V30 1240 C 112.134 1.47902 -1.28001 0
M  V30 1241 C 112.514 2.1083 0.106789 0
M  V30 1242 O 111.862 1.99242 1.11869 0
M  V30 1243 C 112.072 2.52392 -2.41038 0
M  V30 1244 C 113.42 3.18546 -2.80737 0
M  V30 1245 O 114.444 2.62708 -2.40547 0
M  V30 1246 O 113.303 4.19604 -3.50135 0
M  V30 1247 H 110.397 0.657163 -0.502062 0
M  V30 1248 H 112.943 0.760071 -1.51727 0
M  V30 1249 H 111.715 2.04329 -3.33715 0
M  V30 1250 H 111.338 3.31837 -2.19021 0
M  V30 1251 N 112.336 1.25143 0.95797 0
M  V30 1252 C 113.583 1.09692 1.70217 0
M  V30 1253 C 113.911 -0.362654 1.91089 0
M  V30 1254 O 113.166 -1.28386 1.47701 0
M  V30 1255 C 113.465 1.79272 3.09187 0
M  V30 1256 C 113.131 3.29196 3.08125 0
M  V30 1257 C 111.793 3.70096 3.07543 0
M  V30 1258 C 114.145 4.24995 3.0171 0
M  V30 1259 C 111.473 5.05213 2.9829 0
M  V30 1260 C 113.825 5.60132 2.93999 0
M  V30 1261 C 112.489 6.00365 2.9175 0
M  V30 1262 H 111.759 0.401393 0.622868 0
M  V30 1263 H 114.406 1.55372 1.11945 0
M  V30 1264 H 112.711 1.26014 3.70982 0
M  V30 1265 H 114.408 1.64773 3.65583 0
M  V30 1266 H 110.998 2.96651 3.09348 0
M  V30 1267 H 115.182 3.9439 3.01281 0
M  V30 1268 H 110.438 5.35569 2.94916 0
M  V30 1269 H 114.612 6.3406 2.87996 0
M  V30 1270 H 112.239 7.05023 2.84336 0
M  V30 1271 N 113.814 -1.1601 1.06675 0
M  V30 1272 C 115.23 -1.38622 0.790948 0
M  V30 1273 C 115.43 -1.92109 -0.607965 0
M  V30 1274 O 114.486 -2.12239 -1.36787 0
M  V30 1275 C 115.799 -2.36347 1.85905 0
M  V30 1276 C 117.347 -2.50023 1.88301 0
M  V30 1277 C 117.822 -3.51033 2.94176 0
M  V30 1278 N 119.313 -3.58563 2.93235 0
M  V30 1279 C 120.048 -4.36521 3.71803 0
M  V30 1280 N 119.544 -5.17869 4.602 0
M  V30 1281 N 121.337 -4.31541 3.60178 0
M  V30 1282 H 113.488 -0.796294 1.96908 0
M  V30 1283 H 115.751 -0.412597 0.853503 0
M  V30 1284 H 115.457 -2.04147 2.86386 0
M  V30 1285 H 115.331 -3.36042 1.71334 0
M  V30 1286 H 117.718 -2.81524 0.884769 0
M  V30 1287 H 117.799 -1.5035 2.06951 0
M  V30 1288 H 117.443 -3.20268 3.94196 0
M  V30 1289 H 117.373 -4.50445 2.72776 0
M  V30 1290 H 119.864 -3.00496 2.29152 0
M  V30 1291 H 120.177 -5.74578 5.16797 0
M  V30 1292 H 118.522 -5.17199 4.64253 0
M  V30 1293 H 121.713 -3.67051 2.90502 0
M  V30 1294 H 121.886 -4.9205 4.21653 0
M  V30 1295 N 115.292 -0.849877 -1.32721 0
M  V30 1296 C 116.202 -0.293791 -2.32753 0
M  V30 1297 C 117.218 0.585906 -1.63839 0
M  V30 1298 O 118.394 0.487413 -1.95413 0
M  V30 1299 C 115.459 0.512752 -3.42887 0
M  V30 1300 C 114.52 -0.39252 -4.27502 0
M  V30 1301 C 113.753 0.375625 -5.32377 0
M  V30 1302 O 113.976 1.60613 -5.4732 0
M  V30 1303 O 112.91 -0.256094 -6.01355 0
M  V30 1304 H 116.736 -1.12242 -2.82197 0
M  V30 1305 H 114.321 -0.612685 -1.36259 0
M  V30 1306 H 116.203 0.970704 -4.10067 0
M  V30 1307 H 114.878 1.31826 -2.95641 0
M  V30 1308 H 113.785 -0.898547 -3.63149 0
M  V30 1309 H 115.118 -1.16309 -4.7826 0
M  V30 1310 N 116.77 1.45427 -0.607355 0
M  V30 1311 C 117.7 2.3329 0.0989352 0
M  V30 1312 C 118.681 1.46816 0.859007 0
M  V30 1313 O 119.866 1.75588 0.829604 0
M  V30 1314 C 116.996 3.29518 1.09705 0
M  V30 1315 C 115.95 4.25626 0.450206 0
M  V30 1316 C 115.276 5.11542 1.55655 0
M  V30 1317 C 116.576 5.18505 -0.628455 0
M  V30 1318 H 118.27 2.92595 -0.634716 0
M  V30 1319 H 115.816 1.40696 -0.306681 0
M  V30 1320 H 117.769 3.89855 1.59971 0
M  V30 1321 H 116.493 2.68372 1.86129 0
M  V30 1322 H 115.152 3.66586 -0.0315886 0
M  V30 1323 H 114.8 4.46765 2.31107 0
M  V30 1324 H 114.5 5.76647 1.12925 0
M  V30 1325 H 116.024 5.74748 2.06148 0
M  V30 1326 H 117.438 5.72916 -0.209877 0
M  V30 1327 H 115.835 5.92085 -0.977489 0
M  V30 1328 H 116.905 4.60948 -1.50514 0
M  V30 1329 N 118.248 0.346503 1.53744 0
M  V30 1330 C 119.196 -0.52422 2.26616 0
M  V30 1331 C 120.19 -1.09948 1.28871 0
M  V30 1332 O 121.396 -1.04488 1.46568 0
M  V30 1333 H 117.771 -0.187743 0.728187 0
M  V30 1334 H 119.742 0.11239 2.98188 0
M  V30 1335 C 118.491 -1.66186 3.05414 0
M  V30 1336 H 117.814 -1.22848 3.80458 0
M  V30 1337 H 119.254 -2.24622 3.59612 0
M  V30 1338 C 117.713 -2.59302 2.1509 0
M  V30 1339 O 118.243 -3.61628 1.74895 0
M  V30 1340 N 116.449 -2.28055 1.8011 0
M  V30 1341 H 115.996 -1.44883 2.12994 0
M  V30 1342 H 115.954 -2.90615 1.19958 0
M  V30 1343 N 119.726 -1.57421 0.075193 0
M  V30 1344 C 120.673 -2.12915 -0.890843 0
M  V30 1345 C 121.643 -1.04252 -1.29309 0
M  V30 1346 O 122.828 -1.31933 -1.37834 0
M  V30 1347 C 119.968 -2.69795 -2.15186 0
M  V30 1348 C 119.081 -3.92624 -1.80194 0
M  V30 1349 C 118.216 -4.37736 -3.00933 0
M  V30 1350 C 117.255 -5.53205 -2.61974 0
M  V30 1351 N 116.392 -5.9326 -3.75483 0
M  V30 1352 H 121.232 -2.95156 -0.410735 0
M  V30 1353 H 118.769 -1.45854 -0.191086 0
M  V30 1354 H 120.727 -3.00883 -2.89008 0
M  V30 1355 H 119.357 -1.90313 -2.60731 0
M  V30 1356 H 118.409 -3.67977 -0.964218 0
M  V30 1357 H 119.721 -4.76482 -1.47534 0
M  V30 1358 H 118.875 -4.70503 -3.8303 0
M  V30 1359 H 117.614 -3.52739 -3.36789 0
M  V30 1360 H 116.619 -5.20086 -1.783 0
M  V30 1361 H 117.844 -6.39936 -2.27284 0
M  V30 1362 H 115.79 -5.11212 -4.11094 0
M  V30 1363 H 115.707 -6.71865 -3.46602 0
M  V30 1364 H 116.975 -6.30651 -4.58148 0
M  V30 1365 N 121.204 0.198386 -1.56346 0
M  V30 1366 C 122.62 0.549085 -1.49857 0
M  V30 1367 C 122.82 1.86016 -0.774611 0
M  V30 1368 O 121.876 2.50416 -0.323776 0
M  V30 1369 C 123.189 0.606868 -2.94512 0
M  V30 1370 C 124.737 0.695925 -3.05165 0
M  V30 1371 C 125.212 0.784848 -4.51225 0
M  V30 1372 N 126.703 0.848463 -4.55363 0
M  V30 1373 C 127.438 0.937378 -5.65686 0
M  V30 1374 N 126.934 0.9888 -6.85707 0
M  V30 1375 N 128.727 0.974312 -5.53592 0
M  V30 1376 H 120.878 -0.661655 -2.01831 0
M  V30 1377 H 123.141 -0.235261 -0.918344 0
M  V30 1378 H 122.847 -0.28732 -3.50524 0
M  V30 1379 H 122.721 1.46268 -3.47686 0
M  V30 1380 H 125.108 1.58055 -2.49204 0
M  V30 1381 H 125.189 -0.186022 -2.55123 0
M  V30 1382 H 124.833 -0.0954072 -5.0781 0
M  V30 1383 H 124.763 1.68255 -4.98997 0
M  V30 1384 H 127.254 0.818103 -3.68938 0
M  V30 1385 H 127.567 1.05707 -7.65536 0
M  V30 1386 H 125.912 0.957534 -6.88372 0
M  V30 1387 H 129.103 0.930954 -4.58749 0
M  V30 1388 H 129.276 1.04015 -6.39597 0
M  V30 1389 N 122.682 1.50554 0.465978 0
M  V30 1390 C 123.91 1.65563 1.24083 0
M  V30 1391 C 124.325 0.341051 1.85694 0
M  V30 1392 O 123.682 -0.677543 1.69457 0
M  V30 1393 C 123.733 2.75051 2.34583 0
M  V30 1394 O 123.454 4.01413 1.75497 0
M  V30 1395 C 124.955 3.01078 3.25372 0
M  V30 1396 H 122.175 0.55638 0.375077 0
M  V30 1397 H 124.719 1.96807 0.555624 0
M  V30 1398 H 122.874 2.46486 2.9887 0
M  V30 1399 H 123.288 4.62002 2.48303 0
M  V30 1400 H 124.762 3.81339 3.99105 0
M  V30 1401 H 125.239 2.12349 3.84453 0
M  V30 1402 H 125.845 3.31194 2.66816 0
M  V30 1403 N 124.16 -0.719506 1.40217 0
M  V30 1404 C 125.092 -1.84428 1.36084 0
M  V30 1405 C 126.105 -1.60597 0.266913 0
M  V30 1406 O 127.294 -1.70544 0.526983 0
M  V30 1407 C 124.394 -3.20757 1.094 0
M  V30 1408 C 123.567 -3.71817 2.30372 0
M  V30 1409 C 122.626 -4.86748 1.99907 0
M  V30 1410 O 121.652 -4.99603 2.72737 0
M  V30 1411 N 122.854 -5.7226 0.974635 0
M  V30 1412 H 125.619 -1.88473 2.33019 0
M  V30 1413 H 123.18 -0.900885 1.3452 0
M  V30 1414 H 125.172 -3.95235 0.870116 0
M  V30 1415 H 123.742 -3.11884 0.211452 0
M  V30 1416 H 122.962 -2.88514 2.68614 0
M  V30 1417 H 124.25 -4.02666 3.11026 0
M  V30 1418 H 123.648 -5.6448 0.371368 0
M  V30 1419 H 122.205 -6.46739 0.810656 0
M  V30 1420 N 125.638 -1.25649 -0.95132 0
M  V30 1421 C 126.915 -1.01361 -1.67288 0
M  V30 1422 C 127.295 0.459135 -2.06046 0
M  V30 1423 O 126.643 1.43723 -1.7764 0
M  V30 1424 C 126.853 -1.95256 -2.89268 0
M  V30 1425 C 128.201 -2.23289 -3.61147 0
M  V30 1426 O 129.225 -1.93041 -2.99355 0
M  V30 1427 O 128.084 -2.74741 -4.72419 0
M  V30 1428 H 125.178 -0.38464 -0.732107 0
M  V30 1429 H 127.724 -1.36817 -1.00395 0
M  V30 1430 H 126.496 -2.94685 -2.57442 0
M  V30 1431 H 126.119 -1.60218 -3.6389 0
M  V30 1432 N 127.117 1.15442 -1.07289 0
M  V30 1433 C 128.364 1.86213 -0.795668 0
M  V30 1434 C 128.692 1.82291 0.678238 0
M  V30 1435 O 127.947 1.24057 1.51355 0
M  V30 1436 C 128.246 3.3489 -1.24834 0
M  V30 1437 C 127.912 3.59007 -2.72809 0
M  V30 1438 C 126.574 3.65298 -3.13227 0
M  V30 1439 C 128.926 3.68762 -3.68326 0
M  V30 1440 C 126.254 3.78854 -4.4798 0
M  V30 1441 C 128.606 3.83842 -5.0284 0
M  V30 1442 C 127.27 3.88378 -5.4288 0
M  V30 1443 H 126.54 0.681403 -0.291155 0
M  V30 1444 H 129.187 1.36435 -1.34379 0
M  V30 1445 H 127.492 3.8687 -0.619595 0
M  V30 1446 H 129.189 3.88052 -1.01076 0
M  V30 1447 H 125.779 3.5475 -2.40521 0
M  V30 1448 H 129.963 3.63202 -3.38227 0
M  V30 1449 H 125.219 3.80623 -4.78472 0
M  V30 1450 H 129.393 3.90332 -5.76727 0
M  V30 1451 H 127.02 3.98635 -6.47298 0
M  V30 1452 N 128.595 0.856903 1.32268 0
M  V30 1453 C 129.841 0.471355 1.97863 0
M  V30 1454 C 130.196 -0.962896 1.66572 0
M  V30 1455 O 129.489 -1.66686 0.944797 0
M  V30 1456 C 129.683 0.649919 3.51441 0
M  V30 1457 C 129.512 2.09997 3.97657 0
M  V30 1458 C 128.282 2.73893 4.2463 0
M  V30 1459 C 130.48 3.07081 4.1256 0
M  V30 1460 N 128.462 4.09786 4.57109 0
M  V30 1461 C 129.833 4.27968 4.48602 0
M  V30 1462 C 131.888 3.03247 3.949 0
M  V30 1463 C 130.591 5.45521 4.68827 0
M  V30 1464 C 132.617 4.20046 4.16311 0
M  V30 1465 C 131.979 5.39692 4.52672 0
M  V30 1466 H 128.078 0.221263 0.750044 0
M  V30 1467 H 130.662 1.10876 1.60045 0
M  V30 1468 H 128.833 0.0421938 3.88377 0
M  V30 1469 H 130.565 0.234044 4.04023 0
M  V30 1470 H 127.32 2.24918 4.16784 0
M  V30 1471 H 127.744 4.7989 4.7753 0
M  V30 1472 H 132.386 2.11863 3.65888 0
M  V30 1473 H 130.104 6.37434 4.96693 0
M  V30 1474 H 133.69 4.18517 4.04147 0
M  V30 1475 H 132.57 6.28566 4.68907 0
M  V30 1476 N 130.073 -1.45103 0.615059 0
M  V30 1477 C 130.983 -2.34382 -0.101034 0
M  V30 1478 C 131.999 -1.51681 -0.852585 0
M  V30 1479 O 133.175 -1.8446 -0.808484 0
M  V30 1480 C 130.24 -3.29417 -1.08099 0
M  V30 1481 C 129.301 -4.28025 -0.330577 0
M  V30 1482 C 128.534 -5.1852 -1.26385 0
M  V30 1483 O 128.757 -5.12598 -2.50198 0
M  V30 1484 O 127.691 -5.97122 -0.756866 0
M  V30 1485 H 131.517 -2.97033 0.632855 0
M  V30 1486 H 129.102 -1.4461 0.375293 0
M  V30 1487 H 130.984 -3.87958 -1.6452 0
M  V30 1488 H 129.659 -2.69321 -1.79577 0
M  V30 1489 H 128.566 -3.73078 0.276283 0
M  V30 1490 H 129.899 -4.90997 0.343866 0
M  V30 1491 N 131.551 -0.354651 -1.53558 0
M  V30 1492 C 132.797 0.238797 -2.01389 0
M  V30 1493 C 133.13 1.49309 -1.2418 0
M  V30 1494 O 132.405 1.91638 -0.332457 0
M  V30 1495 C 132.688 0.541771 -3.56001 0
M  V30 1496 C 132.541 -0.725388 -4.43912 0
M  V30 1497 C 133.86 1.34685 -4.18984 0
M  V30 1498 H 130.979 0.0853177 -0.732045 0
M  V30 1499 H 133.621 -0.477384 -1.83905 0
M  V30 1500 H 131.771 1.15189 -3.71031 0
M  V30 1501 H 133.443 -1.36313 -4.407 0
M  V30 1502 H 131.686 -1.34801 -4.12324 0
M  V30 1503 H 132.357 -0.468505 -5.50008 0
M  V30 1504 H 134.833 0.830837 -4.07721 0
M  V30 1505 H 133.709 1.52759 -5.27215 0
M  V30 1506 H 133.97 2.35221 -3.74331 0
M  V30 1507 N 133.029 1.57378 -0.0835403 0
M  V30 1508 C 133.961 2.10389 0.909338 0
M  V30 1509 C 134.974 1.03858 1.25369 0
M  V30 1510 O 136.163 1.31338 1.20882 0
M  V30 1511 C 133.263 2.55908 2.2218 0
M  V30 1512 C 132.436 3.86145 2.05453 0
M  V30 1513 C 131.495 4.17633 3.20108 0
M  V30 1514 O 130.521 4.87043 2.94581 0
M  V30 1515 N 131.723 3.72113 4.45547 0
M  V30 1516 H 134.488 2.962 0.456657 0
M  V30 1517 H 132.049 1.61579 0.101877 0
M  V30 1518 H 134.041 2.74027 2.97811 0
M  V30 1519 H 132.611 1.75171 2.58909 0
M  V30 1520 H 131.831 3.7729 1.1422 0
M  V30 1521 H 133.119 4.7137 1.91541 0
M  V30 1522 H 132.517 3.16062 4.69171 0
M  V30 1523 H 131.074 3.95409 5.18165 0
M  V30 1524 N 134.507 -0.190092 1.56449 0
M  V30 1525 C 135.437 -1.23816 1.97969 0
M  V30 1526 C 136.418 -1.47201 0.852395 0
M  V30 1527 O 137.603 -1.58854 1.1171 0
M  V30 1528 C 134.733 -2.5813 2.3235 0
M  V30 1529 C 133.687 -2.49348 3.47864 0
M  V30 1530 C 133.013 -3.8798 3.67934 0
M  V30 1531 C 134.313 -2.01424 4.81898 0
M  V30 1532 H 136.007 -0.89311 2.85769 0
M  V30 1533 H 133.553 -0.428177 1.37487 0
M  V30 1534 H 135.506 -3.31637 2.59991 0
M  V30 1535 H 134.23 -2.94386 1.41438 0
M  V30 1536 H 132.889 -1.78297 3.20321 0
M  V30 1537 H 132.537 -4.21597 2.74344 0
M  V30 1538 H 132.237 -3.82978 4.45648 0
M  V30 1539 H 133.761 -4.63101 3.97957 0
M  V30 1540 H 135.175 -2.64693 5.08538 0
M  V30 1541 H 133.572 -2.07413 5.63116 0
M  V30 1542 H 134.642 -0.967677 4.75146 0
M  V30 1543 N 135.985 -1.50799 -0.457987 0
M  V30 1544 C 137.233 -1.62121 -1.2067 0
M  V30 1545 C 137.554 -0.329793 -1.92191 0
M  V30 1546 O 136.824 0.653409 -1.84682 0
M  V30 1547 H 135.404 -0.597441 -0.448411 0
M  V30 1548 H 138.066 -1.87637 -0.527096 0
M  V30 1549 H 137.162 -2.43882 -1.94751 0
M  V30 1550 N 137.463 0.71206 -1.40597 0
M  V30 1551 C 138.712 1.46754 -1.38369 0
M  V30 1552 C 139.025 1.95598 0.0097839 0
M  V30 1553 O 140.231 2.71059 0.154677 0
M  V30 1554 C 138.687 2.65289 -2.43207 0
M  V30 1555 C 138.295 2.23301 -3.88382 0
M  V30 1556 C 140.039 3.43008 -2.50091 0
M  V30 1557 C 137.946 3.38696 -4.84808 0
M  V30 1558 H 136.876 0.55118 -0.514506 0
M  V30 1559 H 139.527 0.774616 -1.66349 0
M  V30 1560 H 137.909 3.36769 -2.08332 0
M  V30 1561 H 139.083 1.59218 -4.32419 0
M  V30 1562 H 137.398 1.58618 -3.85006 0
M  V30 1563 H 139.995 4.28881 -3.1932 0
M  V30 1564 H 140.338 3.87065 -1.53253 0
M  V30 1565 H 140.871 2.78574 -2.83974 0
M  V30 1566 H 137.61 2.99668 -5.82992 0
M  V30 1567 H 137.13 4.01683 -4.45433 0
M  V30 1568 H 138.809 4.04712 -5.04794 0
M  V30 1569 N 138.941 1.26152 0.944643 0
M  V30 1570 C 140.352 1.10454 1.50522 0
M  V30 1571 C 140.703 -0.31635 1.93633 0
M  V30 1572 O 139.828 -1.20746 1.79581 0
M  V30 1573 C 140.423 1.99891 2.73549 0
M  V30 1574 C 138.982 1.88348 3.25886 0
M  V30 1575 C 138.129 1.93447 1.9868 0
M  V30 1576 H 141.08 1.39292 0.760489 0
M  V30 1577 H 141.101 1.54477 3.47732 0
M  V30 1578 H 140.613 3.03297 2.42141 0
M  V30 1579 H 138.714 0.878636 3.62092 0
M  V30 1580 H 138.827 2.73696 3.93227 0
M  V30 1581 H 137.191 1.37456 2.14425 0
M  V30 1582 H 137.974 2.98476 1.69607 0
M  V30 1583 N 140.419 -1.14872 1.07899 0
M  V30 1584 C 141.369 -2.17809 0.674027 0
M  V30 1585 C 142.353 -1.58008 -0.303699 0
M  V30 1586 O 143.545 -1.76616 -0.11654 0
M  V30 1587 C 140.674 -3.43208 0.0793318 0
M  V30 1588 C 139.76 -4.10051 1.08253 0
M  V30 1589 N 140.151 -4.52296 2.2641 0
M  V30 1590 C 138.449 -4.36469 0.917124 0
M  V30 1591 C 139.15 -5.04199 2.901 0
M  V30 1592 N 138.126 -4.98088 2.17736 0
M  V30 1593 H 141.928 -2.48207 1.57386 0
M  V30 1594 H 139.442 -1.315 0.952976 0
M  V30 1595 H 141.439 -4.16272 -0.228719 0
M  V30 1596 H 140.099 -3.14291 -0.815551 0
M  V30 1597 H 141.11 -4.45504 2.64096 0
M  V30 1598 H 137.787 -4.17432 0.0756078 0
M  V30 1599 H 139.177 -5.46802 3.90458 0
M  V30 1600 N 141.898 -0.863906 -1.31812 0
M  V30 1601 C 143.309 -0.52522 -1.7916 0
M  V30 1602 C 143.66 0.957518 -1.71248 0
M  V30 1603 O 142.785 1.74734 -1.27659 0
M  V30 1604 C 143.38 -0.9466 -3.25307 0
M  V30 1605 C 141.939 -0.659668 -3.70574 0
M  V30 1606 C 141.086 -1.14126 -2.52726 0
M  V30 1607 H 144.037 -1.05022 -1.1898 0
M  V30 1608 H 144.058 -0.266766 -3.79564 0
M  V30 1609 H 143.57 -2.02579 -3.31034 0
M  V30 1610 H 141.671 0.408416 -3.70355 0
M  V30 1611 H 141.784 -1.23245 -4.62977 0
M  V30 1612 H 140.148 -0.561216 -2.4844 0
M  V30 1613 H 140.931 -2.22775 -2.61201 0
M  V30 1614 N 143.376 1.44774 -0.622745 0
M  V30 1615 C 144.339 2.29069 0.0774015 0
M  V30 1616 C 145.339 1.4059 0.780461 0
M  V30 1617 O 146.529 1.62551 0.626322 0
M  V30 1618 C 143.661 3.21974 1.12006 0
M  V30 1619 H 144.854 2.92459 -0.663901 0
M  V30 1620 H 142.407 1.51548 -0.382486 0
M  V30 1621 H 143.142 2.63417 1.89162 0
M  V30 1622 H 142.927 3.87168 0.619951 0
M  V30 1623 H 144.417 3.85318 1.60995 0
M  V30 1624 N 144.854 0.36279 1.53368 0
M  V30 1625 C 146.102 -0.227326 2.00817 0
M  V30 1626 C 146.423 -1.49511 1.25186 0
M  V30 1627 O 145.693 -1.92482 0.364348 0
M  V30 1628 H 144.273 -0.0869923 0.741917 0
M  V30 1629 H 146.935 0.488381 1.88682 0
M  V30 1630 H 146.031 -0.456273 3.08747 0
M  V30 1631 N 146.332 -1.57332 0.0918853 0
M  V30 1632 C 147.262 -2.16872 -0.865371 0
M  V30 1633 C 148.243 -1.10118 -1.29646 0
M  V30 1634 O 149.428 -1.38242 -1.36392 0
M  V30 1635 C 146.558 -2.74649 -2.12569 0
M  V30 1636 C 145.512 -3.86747 -1.83333 0
M  V30 1637 C 144.838 -4.31212 -3.16166 0
M  V30 1638 C 146.138 -5.10089 -1.1228 0
M  V30 1639 H 147.832 -2.97114 -0.369307 0
M  V30 1640 H 145.378 -1.42918 -0.176194 0
M  V30 1641 H 147.331 -3.14952 -2.7997 0
M  V30 1642 H 146.055 -1.91657 -2.64452 0
M  V30 1643 H 144.714 -3.46978 -1.18331 0
M  V30 1644 H 144.362 -3.45115 -3.6593 0
M  V30 1645 H 144.062 -5.06788 -2.97388 0
M  V30 1646 H 145.586 -4.74146 -3.84731 0
M  V30 1647 H 147 -5.47582 -1.69785 0
M  V30 1648 H 145.397 -5.91073 -1.03693 0
M  V30 1649 H 146.467 -4.84786 -0.105041 0
M  V30 1650 N 147.81 0.181792 -1.56548 0
M  V30 1651 C 148.757 1.22521 -1.95595 0
M  V30 1652 C 149.727 1.4454 -0.818373 0
M  V30 1653 O 150.912 1.57454 -1.07763 0
M  V30 1654 C 148.052 2.56193 -2.31212 0
M  V30 1655 C 147.165 2.41641 -3.58097 0
M  V30 1656 C 146.3 3.68108 -3.82975 0
M  V30 1657 C 145.339 3.48445 -5.03242 0
M  V30 1658 N 144.476 4.66956 -5.24306 0
M  V30 1659 H 149.316 0.885226 -2.84548 0
M  V30 1660 H 146.853 0.425718 -1.40805 0
M  V30 1661 H 148.811 3.34088 -2.49882 0
M  V30 1662 H 147.441 2.88208 -1.45382 0
M  V30 1663 H 146.493 1.54976 -3.474 0
M  V30 1664 H 147.805 2.23052 -4.46149 0
M  V30 1665 H 146.959 4.54441 -4.01956 0
M  V30 1666 H 145.698 3.89666 -2.93278 0
M  V30 1667 H 144.703 2.60499 -4.8417 0
M  V30 1668 H 145.928 3.2832 -5.9446 0
M  V30 1669 H 143.874 4.88752 -4.37559 0
M  V30 1670 H 143.791 4.51242 -6.06561 0
M  V30 1671 H 145.059 5.54602 -5.47756 0
M  V30 1672 N 149.288 1.51039 0.449983 0
M  V30 1673 C 150.235 1.71439 1.54523 0
M  V30 1674 C 151.205 0.555871 1.56522 0
M  V30 1675 O 152.39 0.788871 1.73728 0
M  V30 1676 C 149.53 1.83384 2.92343 0
M  V30 1677 C 148.643 3.10873 2.9997 0
M  V30 1678 C 147.778 3.13488 4.28834 0
M  V30 1679 C 146.817 4.35343 4.30282 0
M  V30 1680 N 145.954 4.35579 5.5065 0
M  V30 1681 H 150.794 2.64934 1.36433 0
M  V30 1682 H 148.331 1.31312 0.662982 0
M  V30 1683 H 150.289 1.88291 3.72293 0
M  V30 1684 H 148.919 0.933086 3.0902 0
M  V30 1685 H 147.971 3.15336 2.12761 0
M  V30 1686 H 149.283 4.00814 2.96901 0
M  V30 1687 H 148.437 3.17241 5.17149 0
M  V30 1688 H 147.176 2.21414 4.34543 0
M  V30 1689 H 146.181 4.3178 3.40362 0
M  V30 1690 H 147.406 5.28668 4.26248 0
M  V30 1691 H 145.352 3.46369 5.57104 0
M  V30 1692 H 145.269 5.19313 5.49409 0
M  V30 1693 H 146.537 4.43507 6.41032 0
M  V30 1694 N 150.766 -0.704594 1.40972 0
M  V30 1695 C 152.182 -1.01406 1.23244 0
M  V30 1696 C 152.382 -2.01169 0.115399 0
M  V30 1697 O 151.438 -2.47021 -0.523147 0
M  V30 1698 C 152.751 -1.54728 2.57836 0
M  V30 1699 C 154.299 -1.66658 2.64942 0
M  V30 1700 C 154.774 -2.23383 3.9983 0
M  V30 1701 N 156.265 -2.30756 4.01629 0
M  V30 1702 C 157 -2.75655 5.02794 0
M  V30 1703 N 156.496 -3.20225 6.14352 0
M  V30 1704 N 158.289 -2.75138 4.90159 0
M  V30 1705 H 150.44 -0.0435285 2.12355 0
M  V30 1706 H 152.703 -0.0818951 0.944456 0
M  V30 1707 H 152.409 -0.888832 3.40283 0
M  V30 1708 H 152.283 -2.53084 2.79693 0
M  V30 1709 H 154.67 -2.31617 1.8286 0
M  V30 1710 H 154.751 -0.668717 2.46904 0
M  V30 1711 H 154.395 -1.59043 4.82357 0
M  V30 1712 H 154.325 -3.23904 4.15203 0
M  V30 1713 H 156.816 -1.99291 3.21079 0
M  V30 1714 H 157.129 -3.53084 6.87424 0
M  V30 1715 H 155.474 -3.18156 6.17901 0
M  V30 1716 H 158.665 -2.39661 4.02095 0
M  V30 1717 H 158.838 -3.09812 5.6914 0
M  V30 1718 N 152.244 -1.26651 -0.937939 0
M  V30 1719 C 153.191 -1.0849 -2.03712 0
M  V30 1720 C 154.161 0.011033 -1.66096 0
M  V30 1721 O 155.346 -0.149353 -1.90215 0
M  V30 1722 C 152.486 -0.72735 -3.37348 0
M  V30 1723 C 151.599 -1.89986 -3.87981 0
M  V30 1724 C 150.734 -1.48513 -5.10017 0
M  V30 1725 C 149.773 -2.62575 -5.5292 0
M  V30 1726 N 148.91 -2.21762 -6.66158 0
M  V30 1727 H 153.75 -2.02551 -2.18579 0
M  V30 1728 H 151.287 -1.00844 -1.07093 0
M  V30 1729 H 153.245 -0.50092 -4.14182 0
M  V30 1730 H 151.875 0.176298 -3.22318 0
M  V30 1731 H 150.927 -2.23913 -3.07518 0
M  V30 1732 H 152.239 -2.75586 -4.15757 0
M  V30 1733 H 151.393 -1.21934 -5.94321 0
M  V30 1734 H 150.132 -0.60009 -4.83994 0
M  V30 1735 H 149.137 -2.8988 -4.67172 0
M  V30 1736 H 150.362 -3.51685 -5.80943 0
M  V30 1737 H 148.308 -1.35696 -6.41812 0
M  V30 1738 H 148.225 -3.00903 -6.93537 0
M  V30 1739 H 149.493 -1.98403 -7.53828 0
M  V30 1740 N 153.722 1.14298 -1.08507 0
M  V30 1741 C 154.947 1.8976 -0.837001 0
M  V30 1742 C 155.372 1.78097 0.605228 0
M  V30 1743 O 154.73 1.12188 1.4242 0
M  V30 1744 C 154.778 3.37685 -1.26495 0
M  V30 1745 O 153.882 4.10281 -0.417514 0
M  V30 1746 H 153.223 0.590365 -0.303917 0
M  V30 1747 H 155.753 1.44672 -1.44676 0
M  V30 1748 H 155.763 3.88501 -1.24625 0
M  V30 1749 H 154.438 3.45492 -2.31534 0
M  V30 1750 H 153.015 3.69536 -0.499722 0
M  V30 1751 N 155.201 0.870884 1.31352 0
M  V30 1752 C 156.447 0.482987 1.96965 0
M  V30 1753 C 156.78 -0.962462 1.68672 0
M  V30 1754 O 156.055 -1.6779 0.98371 0
M  V30 1755 C 156.338 0.741752 3.52378 0
M  V30 1756 C 156.191 2.2368 3.9024 0
M  V30 1757 C 157.51 0.208838 4.39604 0
M  V30 1758 H 154.629 0.176955 0.715441 0
M  V30 1759 H 157.271 1.09229 1.55464 0
M  V30 1760 H 155.421 0.223149 3.87859 0
M  V30 1761 H 157.093 2.82273 3.64856 0
M  V30 1762 H 155.336 2.70901 3.38814 0
M  V30 1763 H 156.007 2.3685 4.98604 0
M  V30 1764 H 158.483 0.652529 4.10952 0
M  V30 1765 H 157.359 0.419336 5.47296 0
M  V30 1766 H 157.62 -0.889275 4.33064 0
M  V30 1767 N 156.679 -1.44442 0.630414 0
M  V30 1768 C 157.907 -2.06414 0.141671 0
M  V30 1769 C 158.322 -1.47105 -1.18345 0
M  V30 1770 O 157.679 -0.593662 -1.72574 0
M  V30 1771 C 157.73 -3.61494 0.0199784 0
M  V30 1772 O 157.451 -4.18594 1.29269 0
M  V30 1773 C 158.952 -4.40499 -0.497544 0
M  V30 1774 H 156.172 -0.666292 0.0793452 0
M  V30 1775 H 158.716 -1.85323 0.864614 0
M  V30 1776 H 156.871 -3.8185 -0.653402 0
M  V30 1777 H 157.285 -5.12026 1.13707 0
M  V30 1778 H 158.759 -5.49433 -0.531708 0
M  V30 1779 H 159.236 -4.11895 -1.52445 0
M  V30 1780 H 159.842 -4.25061 0.142562 0
M  V30 1781 N 158.157 -0.370918 -1.53173 0
M  V30 1782 C 159.403 0.217423 -2.01631 0
M  V30 1783 C 159.736 1.47983 -1.25756 0
M  V30 1784 O 159.011 1.91274 -0.352764 0
M  V30 1785 C 159.294 0.503982 -3.56556 0
M  V30 1786 C 159.147 -0.77243 -4.43118 0
M  V30 1787 C 160.466 1.30234 -4.20389 0
M  V30 1788 H 157.585 0.0775486 -0.732909 0
M  V30 1789 H 160.227 -0.496863 -1.83388 0
M  V30 1790 H 158.377 1.11248 -3.72231 0
M  V30 1791 H 160.049 -1.4098 -4.39229 0
M  V30 1792 H 158.292 -1.39167 -4.10871 0
M  V30 1793 H 158.963 -0.526815 -5.4948 0
M  V30 1794 H 161.439 0.787546 -4.08579 0
M  V30 1795 H 160.315 1.47158 -5.28806 0
M  V30 1796 H 160.576 2.31237 -3.76805 0
M  V30 1797 N 159.635 1.57281 -0.100228 0
M  V30 1798 C 160.565 2.17328 0.853857 0
M  V30 1799 C 161.546 1.10804 1.2906 0
M  V30 1800 O 162.731 1.38963 1.35657 0
M  V30 1801 C 159.861 2.75772 2.11109 0
M  V30 1802 C 158.815 3.87713 1.81279 0
M  V30 1803 C 158.141 4.32882 3.13874 0
M  V30 1804 C 159.441 5.10677 1.09574 0
M  V30 1805 H 161.135 2.97305 0.353545 0
M  V30 1806 H 158.681 1.43009 0.168612 0
M  V30 1807 H 160.634 3.16433 2.78296 0
M  V30 1808 H 159.358 1.93057 2.63432 0
M  V30 1809 H 158.017 3.476 1.16489 0
M  V30 1810 H 157.665 3.47051 3.64095 0
M  V30 1811 H 157.365 5.08358 2.94696 0
M  V30 1812 H 158.889 4.7618 3.82211 0
M  V30 1813 H 160.303 5.48474 1.66879 0
M  V30 1814 H 158.7 5.91615 1.00557 0
M  V30 1815 H 159.77 4.84835 0.0793299 0
M  V30 1816 N 161.113 -0.173488 1.56642 0
M  V30 1817 C 162.39 -0.917617 1.7274 0
M  V30 1818 C 162.77 -2.00484 0.661027 0
M  V30 1819 O 162.118 -2.26184 -0.32453 0
M  V30 1820 C 162.328 -1.48433 3.15862 0
M  V30 1821 C 163.676 -1.95809 3.76754 0
M  V30 1822 O 164.7 -1.58231 3.19126 0
M  V30 1823 O 163.559 -2.65024 4.77938 0
M  V30 1824 H 160.653 -0.431772 0.705338 0
M  V30 1825 H 163.199 -0.161487 1.6893 0
M  V30 1826 H 161.971 -0.701715 3.84957 0
M  V30 1827 H 161.594 -2.30471 3.23989 0
M  V30 1828 N 162.591 -1.51276 -0.441967 0
M  V30 1829 C 163.837 -1.63958 -1.19355 0
M  V30 1830 C 164.17 -0.352543 -1.90973 0
M  V30 1831 O 163.445 0.647627 -1.83401 0
M  V30 1832 C 163.728 -2.83979 -2.21422 0
M  V30 1833 C 163.581 -4.22646 -1.53918 0
M  V30 1834 C 164.9 -2.99521 -3.22451 0
M  V30 1835 H 162.019 -0.596709 -0.432559 0
M  V30 1836 H 164.661 -1.83748 -0.483398 0
M  V30 1837 H 162.811 -2.67237 -2.81987 0
M  V30 1838 H 164.483 -4.51045 -0.967256 0
M  V30 1839 H 162.726 -4.25558 -0.841615 0
M  V30 1840 H 163.397 -5.02609 -2.28229 0
M  V30 1841 H 165.873 -3.14944 -2.71937 0
M  V30 1842 H 164.749 -3.85072 -3.91166 0
M  V30 1843 H 165.01 -2.11391 -3.88287 0
M  V30 1844 N 164.069 0.697108 -1.41344 0
M  V30 1845 C 165.317 1.45426 -1.40341 0
M  V30 1846 C 165.638 1.94996 -0.0128787 0
M  V30 1847 O 164.908 1.71599 0.945027 0
M  V30 1848 H 163.488 0.539594 -0.516573 0
M  V30 1849 H 166.15 0.825201 -1.76569 0
M  V30 1850 H 165.246 2.31817 -2.08967 0
M  V30 1851 N 165.547 1.27147 0.931209 0
M  V30 1852 C 166.824 1.0401 1.65654 0
M  V30 1853 C 167.204 -0.426297 2.06751 0
M  V30 1854 O 166.552 -1.40879 1.79904 0
M  V30 1855 C 166.762 1.99834 2.86125 0
M  V30 1856 C 168.11 2.29007 3.57549 0
M  V30 1857 O 169.134 1.97779 2.96246 0
M  V30 1858 O 167.993 2.82222 4.67989 0
M  V30 1859 H 165.087 0.396239 0.725895 0
M  V30 1860 H 167.633 1.38397 0.982056 0
M  V30 1861 H 166.405 2.98744 2.52721 0
M  V30 1862 H 166.028 1.65987 3.61295 0
M  V30 1863 N 167.025 -1.13721 1.09112 0
M  V30 1864 C 167.988 -2.17222 0.731241 0
M  V30 1865 C 168.988 -1.59035 -0.237566 0
M  V30 1866 O 170.178 -1.74192 -0.0161704 0
M  V30 1867 C 167.31 -3.40804 0.0808443 0
M  V30 1868 H 168.503 -2.50573 1.64783 0
M  V30 1869 H 166.056 -1.28493 0.889897 0
M  V30 1870 H 166.791 -3.1304 -0.847127 0
M  V30 1871 H 166.576 -3.84306 0.777896 0
M  V30 1872 H 168.066 -4.1731 -0.155657 0
M  V30 1873 N 168.503 -0.877838 -1.30888 0
M  V30 1874 C 169.733 -0.506678 -2.00291 0
M  V30 1875 C 170.141 0.907449 -1.66018 0
M  V30 1876 O 169.484 1.60719 -0.88967 0
M  V30 1877 C 169.546 -0.59323 -3.54572 0
M  V30 1878 C 169.21 -1.97038 -4.12341 0
M  V30 1879 C 170.207 -2.93889 -4.28865 0
M  V30 1880 C 167.892 -2.27383 -4.47886 0
M  V30 1881 C 169.886 -4.19224 -4.80136 0
M  V30 1882 C 167.573 -3.52965 -4.98857 0
M  V30 1883 C 168.571 -4.48701 -5.14934 0
M  V30 1884 O 168.259 -5.72056 -5.64808 0
M  V30 1885 H 167.991 -0.1951 -0.647234 0
M  V30 1886 H 170.545 -1.18301 -1.6791 0
M  V30 1887 H 168.775 0.140057 -3.86446 0
M  V30 1888 H 170.464 -0.234372 -4.05223 0
M  V30 1889 H 171.23 -2.71756 -4.01714 0
M  V30 1890 H 167.109 -1.53639 -4.34645 0
M  V30 1891 H 170.653 -4.93956 -4.92599 0
M  V30 1892 H 166.55 -3.74939 -5.25443 0
M  V30 1893 H 167.318 -5.74337 -5.83163 0
M  V30 1894 N 169.982 1.44106 -0.638065 0
M  V30 1895 C 171.229 2.01978 -0.14533 0
M  V30 1896 C 171.557 1.50234 1.23532 0
M  V30 1897 O 170.812 0.679548 1.83523 0
M  V30 1898 C 171.111 3.5729 -0.0887327 0
M  V30 1899 C 170.777 4.28317 -1.40909 0
M  V30 1900 C 169.439 4.47437 -1.77069 0
M  V30 1901 C 171.791 4.6867 -2.28031 0
M  V30 1902 C 169.119 5.04171 -3.00047 0
M  V30 1903 C 171.471 5.26766 -3.50286 0
M  V30 1904 C 170.135 5.44104 -3.86661 0
M  V30 1905 H 169.405 0.739089 -0.0531801 0
M  V30 1906 H 172.052 1.72781 -0.825761 0
M  V30 1907 H 170.357 3.8594 0.675095 0
M  V30 1908 H 172.054 3.99807 0.309145 0
M  V30 1909 H 168.644 4.1377 -1.1177 0
M  V30 1910 H 172.828 4.53604 -2.01388 0
M  V30 1911 H 168.084 5.15782 -3.28298 0
M  V30 1912 H 172.258 5.56983 -4.18023 0
M  V30 1913 H 169.885 5.87832 -4.82034 0
M  V30 1914 N 171.46 0.379036 1.52974 0
M  V30 1915 C 172.685 -0.209353 2.06341 0
M  V30 1916 C 173.11 -1.40583 1.24972 0
M  V30 1917 O 172.468 -1.79246 0.272155 0
M  V30 1918 C 172.516 -0.567786 3.56102 0
M  V30 1919 O 171.62 -1.66318 3.77375 0
M  V30 1920 H 170.961 -0.0272919 0.663439 0
M  V30 1921 H 173.491 0.543536 1.97248 0
M  V30 1922 H 173.501 -0.835003 3.99364 0
M  V30 1923 H 172.176 0.307013 4.14765 0
M  V30 1924 H 170.753 -1.39048 3.46006 0
M  V30 1925 N 172.938 -1.57226 0.108567 0
M  V30 1926 C 174.184 -1.95121 -0.552761 0
M  V30 1927 C 174.517 -0.991345 -1.66991 0
M  V30 1928 O 173.792 -0.0267211 -1.94482 0
M  V30 1929 C 174.075 -3.43039 -1.09528 0
M  V30 1930 C 173.928 -4.49797 0.0177332 0
M  V30 1931 C 175.247 -3.92567 -1.98945 0
M  V30 1932 H 172.366 -0.709496 -0.199461 0
M  V30 1933 H 175.008 -1.89126 0.182011 0
M  V30 1934 H 173.158 -3.48279 -1.72146 0
M  V30 1935 H 174.83 -4.56661 0.652584 0
M  V30 1936 H 173.073 -4.284 0.682309 0
M  V30 1937 H 173.744 -5.50528 -0.402919 0
M  V30 1938 H 176.22 -3.89565 -1.46214 0
M  V30 1939 H 175.096 -4.96605 -2.33827 0
M  V30 1940 H 175.357 -3.32648 -2.91201 0
M  V30 1941 N 174.416 0.165178 -1.56732 0
M  V30 1942 C 175.827 0.727046 -1.71962 0
M  V30 1943 C 176.178 1.82508 -0.720078 0
M  V30 1944 O 175.303 2.16082 0.117242 0
M  V30 1945 C 175.898 1.32559 -3.11791 0
M  V30 1946 C 174.457 1.83422 -3.28684 0
M  V30 1947 C 173.604 0.715567 -2.67908 0
M  V30 1948 H 176.555 -0.0602896 -1.58585 0
M  V30 1949 H 176.576 2.19533 -3.10782 0
M  V30 1950 H 176.088 0.526195 -3.84516 0
M  V30 1951 H 174.189 2.65986 -2.60926 0
M  V30 1952 H 174.302 1.97543 -4.36478 0
M  V30 1953 H 172.666 1.13758 -2.27884 0
M  V30 1954 H 173.449 -0.0720836 -3.43224 0
M  V30 1955 N 175.894 1.51508 0.433938 0
M  V30 1956 C 176.824 1.76016 1.53429 0
M  V30 1957 C 177.805 0.610112 1.58782 0
M  V30 1958 O 178.99 0.853177 1.74455 0
M  V30 1959 C 176.12 1.88831 2.9148 0
M  V30 1960 C 175.074 3.04288 3.00987 0
M  V30 1961 C 174.4 3.0229 4.4105 0
M  V30 1962 C 175.7 4.44193 2.74754 0
M  V30 1963 H 177.394 2.68152 1.33171 0
M  V30 1964 H 174.94 1.29035 0.639214 0
M  V30 1965 H 176.893 2.04559 3.6842 0
M  V30 1966 H 175.617 0.933455 3.12976 0
M  V30 1967 H 174.276 2.8827 2.26486 0
M  V30 1968 H 173.924 2.04576 4.59519 0
M  V30 1969 H 173.624 3.79822 4.4834 0
M  V30 1970 H 175.148 3.20116 5.1996 0
M  V30 1971 H 176.562 4.60544 3.41426 0
M  V30 1972 H 174.959 5.23457 2.9345 0
M  V30 1973 H 176.029 4.53996 1.70339 0
M  V30 1974 N 177.372 -0.689602 1.41712 0
M  V30 1975 C 178.649 -1.44457 1.31877 0
M  V30 1976 C 179.029 -2.11039 -0.0508537 0
M  V30 1977 O 178.377 -2.02138 -1.06547 0
M  V30 1978 C 178.587 -2.45913 2.47645 0
M  V30 1979 C 179.935 -3.10991 2.89084 0
M  V30 1980 O 180.959 -2.56238 2.47428 0
M  V30 1981 O 179.818 -4.10174 3.61137 0
M  V30 1982 H 176.912 -0.64362 0.519309 0
M  V30 1983 H 179.458 -0.719576 1.53689 0
M  V30 1984 H 178.23 -1.95409 3.39015 0
M  V30 1985 H 177.853 -3.25913 2.27742 0
M  V30 1986 N 178.85 -1.27639 -0.924453 0
M  V30 1987 C 179.76 -1.12466 -2.05885 0
M  V30 1988 C 180.776 -0.053869 -1.73917 0
M  V30 1989 O 181.952 -0.261012 -1.99702 0
M  V30 1990 C 179.017 -0.776768 -3.37886 0
M  V30 1991 C 178.078 -1.92878 -3.83532 0
M  V30 1992 C 177.311 -1.59739 -5.09234 0
M  V30 1993 O 177.534 -0.506782 -5.68144 0
M  V30 1994 O 176.468 -2.43761 -5.50331 0
M  V30 1995 H 180.294 -2.07671 -2.21599 0
M  V30 1996 H 177.879 -1.06857 -1.04413 0
M  V30 1997 H 179.761 -0.596229 -4.17161 0
M  V30 1998 H 178.436 0.145732 -3.23372 0
M  V30 1999 H 177.343 -2.1644 -3.0513 0
M  V30 2000 H 178.676 -2.8316 -4.02593 0
M  V30 2001 N 180.328 1.1314 -1.09713 0
M  V30 2002 C 181.605 1.80762 -0.747302 0
M  V30 2003 C 181.985 1.96663 0.767265 0
M  V30 2004 O 181.333 1.53706 1.69076 0
M  V30 2005 C 181.543 3.15606 -1.48975 0
M  V30 2006 C 182.891 3.90914 -1.65746 0
M  V30 2007 O 183.915 3.25239 -1.45251 0
M  V30 2008 O 182.774 5.08718 -1.9967 0
M  V30 2009 H 179.868 0.782103 -0.268782 0
M  V30 2010 H 182.414 1.20041 -1.19951 0
M  V30 2011 H 181.186 2.99278 -2.52088 0
M  V30 2012 H 180.809 3.84029 -1.02991 0
M  V30 2013 N 181.806 0.884767 1.30421 0
M  V30 2014 C 183.053 0.503105 1.96151 0
M  V30 2015 C 183.381 -0.947676 1.69851 0
M  V30 2016 O 182.636 -1.68467 0.995861 0
M  V30 2017 C 182.935 0.724318 3.49983 0
M  V30 2018 C 182.601 2.15015 3.96332 0
M  V30 2019 C 181.263 2.54005 4.08699 0
M  V30 2020 C 183.615 3.07936 4.20505 0
M  V30 2021 C 180.943 3.85128 4.42599 0
M  V30 2022 C 183.295 4.3859 4.55874 0
M  V30 2023 C 181.959 4.77474 4.66449 0
M  V30 2024 H 181.229 0.184099 0.717766 0
M  V30 2025 H 183.876 1.12058 1.55291 0
M  V30 2026 H 182.181 0.0238086 3.91793 0
M  V30 2027 H 183.878 0.408617 3.98913 0
M  V30 2028 H 180.468 1.8375 3.87213 0
M  V30 2029 H 184.652 2.79033 4.10431 0
M  V30 2030 H 179.908 4.14996 4.48986 0
M  V30 2031 H 184.082 5.10629 4.7353 0
M  V30 2032 H 181.709 5.79115 4.92473 0
M  V30 2033 N 183.284 -1.43765 0.645699 0
M  V30 2034 C 184.7 -1.56509 0.312591 0
M  V30 2035 C 184.9 -1.6307 -1.18365 0
M  V30 2036 O 183.956 -1.58167 -1.96824 0
M  V30 2037 C 185.269 -2.82968 1.01733 0
M  V30 2038 C 186.817 -2.96701 0.996865 0
M  V30 2039 C 187.292 -4.25982 1.68236 0
M  V30 2040 N 188.783 -4.32829 1.64964 0
M  V30 2041 C 189.518 -5.31613 2.14885 0
M  V30 2042 N 189.014 -6.36718 2.73061 0
M  V30 2043 N 190.807 -5.23217 2.05428 0
M  V30 2044 H 182.958 -1.3775 1.61675 0
M  V30 2045 H 185.221 -0.661067 0.679481 0
M  V30 2046 H 184.927 -2.84156 2.0724 0
M  V30 2047 H 184.801 -3.72957 0.564177 0
M  V30 2048 H 187.188 -2.95058 -0.0497719 0
M  V30 2049 H 187.269 -2.08022 1.48865 0
M  V30 2050 H 186.913 -4.28386 2.72852 0
M  V30 2051 H 186.843 -5.13545 1.16529 0
M  V30 2052 H 189.334 -3.57493 1.22503 0
M  V30 2053 H 189.647 -7.08401 3.08848 0
M  V30 2054 H 187.992 -6.37362 2.77118 0
M  V30 2055 H 191.183 -4.40019 1.59689 0
M  V30 2056 H 191.356 -6.00045 2.44643 0
M  V30 2057 N 184.763 -0.387143 -1.52771 0
M  V30 2058 C 185.71 0.449048 -2.26389 0
M  V30 2059 C 186.68 1.05961 -1.27912 0
M  V30 2060 O 187.865 1.08804 -1.56737 0
M  V30 2061 C 185.005 1.57155 -3.0724 0
M  V30 2062 C 184.118 0.984066 -4.20643 0
M  V30 2063 C 183.253 2.07745 -4.88892 0
M  V30 2064 C 182.292 1.46574 -5.94292 0
M  V30 2065 N 181.429 2.49834 -6.56146 0
M  V30 2066 H 186.269 -0.185205 -2.97424 0
M  V30 2067 H 183.806 -0.103164 -1.46738 0
M  V30 2068 H 185.764 2.23309 -3.52405 0
M  V30 2069 H 184.394 2.17615 -2.38419 0
M  V30 2070 H 183.446 0.212193 -3.79808 0
M  V30 2071 H 184.758 0.497029 -4.96318 0
M  V30 2072 H 183.912 2.81673 -5.3735 0
M  V30 2073 H 182.651 2.59807 -4.12737 0
M  V30 2074 H 181.656 0.711696 -5.45174 0
M  V30 2075 H 182.881 0.953088 -6.72379 0
M  V30 2076 H 180.827 3.0107 -5.82832 0
M  V30 2077 H 180.744 2.05879 -7.27427 0
M  V30 2078 H 182.012 3.23399 -7.09249 0
M  V30 2079 N 186.241 1.57166 -0.116904 0
M  V30 2080 C 187.471 1.99184 0.548586 0
M  V30 2081 C 187.879 0.995436 1.60897 0
M  V30 2082 O 187.222 -0.0201293 1.83689 0
M  V30 2083 C 187.284 3.37611 1.23526 0
M  V30 2084 C 186.948 4.55857 0.323077 0
M  V30 2085 C 187.945 5.18056 -0.437476 0
M  V30 2086 C 185.63 5.01751 0.234761 0
M  V30 2087 C 187.624 6.24536 -1.2741 0
M  V30 2088 C 185.311 6.08093 -0.605496 0
M  V30 2089 C 186.309 6.69352 -1.35856 0
M  V30 2090 O 185.997 7.7364 -2.18487 0
M  V30 2091 H 185.729 0.659148 0.149999 0
M  V30 2092 H 188.283 2.0443 -0.199428 0
M  V30 2093 H 186.513 3.29113 2.0303 0
M  V30 2094 H 188.202 3.63932 1.79745 0
M  V30 2095 H 188.968 4.83516 -0.379105 0
M  V30 2096 H 184.847 4.53817 0.810601 0
M  V30 2097 H 188.391 6.72281 -1.86237 0
M  V30 2098 H 184.288 6.42063 -0.665268 0
M  V30 2099 H 185.056 7.90727 -2.11406 0
M  V30 2100 N 187.719 -0.156864 1.56817 0
M  V30 2101 C 188.947 -0.886316 1.86955 0
M  V30 2102 C 189.362 -1.75185 0.703975 0
M  V30 2103 O 188.719 -1.79555 -0.326552 0
M  V30 2104 C 188.77 -1.75117 3.16253 0
M  V30 2105 O 188.491 -0.920537 4.2832 0
M  V30 2106 C 189.992 -2.58905 3.59837 0
M  V30 2107 H 187.212 -0.25678 0.619923 0
M  V30 2108 H 189.756 -0.152615 2.0393 0
M  V30 2109 H 187.911 -2.43805 3.01062 0
M  V30 2110 H 188.325 -1.51337 5.02192 0
M  V30 2111 H 189.799 -3.1518 4.53172 0
M  V30 2112 H 190.276 -3.34472 2.84649 0
M  V30 2113 H 190.882 -1.95526 3.7769 0
M  V30 2114 N 189.197 -1.51736 -0.425897 0
M  V30 2115 C 190.16 -1.73271 -1.50032 0
M  V30 2116 C 191.16 -0.602639 -1.4908 0
M  V30 2117 O 192.35 -0.87033 -1.509 0
M  V30 2118 C 189.482 -1.79969 -2.89523 0
M  V30 2119 H 190.675 -2.69172 -1.32237 0
M  V30 2120 H 188.228 -1.41899 -0.65532 0
M  V30 2121 H 188.963 -0.859241 -3.1271 0
M  V30 2122 H 188.748 -2.62109 -2.91619 0
M  V30 2123 H 190.238 -1.9843 -3.67444 0
M  V30 2124 N 190.675 0.682077 -1.42076 0
M  V30 2125 C 191.922 1.44215 -1.42156 0
M  V30 2126 C 192.25 1.94468 -0.0354186 0
M  V30 2127 O 191.505 1.70816 0.955002 0
M  V30 2128 C 191.804 2.66036 -2.38662 0
M  V30 2129 C 191.47 2.34366 -3.85206 0
M  V30 2130 C 190.132 2.25439 -4.25124 0
M  V30 2131 C 192.484 2.08513 -4.77673 0
M  V30 2132 C 189.812 1.88775 -5.55501 0
M  V30 2133 C 192.164 1.73354 -6.08384 0
M  V30 2134 C 190.828 1.62933 -6.47309 0
M  V30 2135 H 190.098 0.527718 -0.520187 0
M  V30 2136 H 192.745 0.778387 -1.74967 0
M  V30 2137 H 191.05 3.3741 -1.99152 0
M  V30 2138 H 192.747 3.24205 -2.35991 0
M  V30 2139 H 189.337 2.42213 -3.53597 0
M  V30 2140 H 193.521 2.14346 -4.47626 0
M  V30 2141 H 188.777 1.7927 -5.84527 0
M  V30 2142 H 192.951 1.52373 -6.79526 0
M  V30 2143 H 190.578 1.34292 -7.48244 0
M  V30 2144 N 192.153 1.28127 0.917671 0
M  V30 2145 C 193.381 1.17892 1.70026 0
M  V30 2146 C 193.796 -0.262958 1.8696 0
M  V30 2147 O 193.153 -1.17811 1.3938 0
M  V30 2148 C 193.204 1.86872 3.09453 0
M  V30 2149 O 192.925 3.25428 2.93306 0
M  V30 2150 C 194.426 1.8289 4.03815 0
M  V30 2151 H 191.646 0.40942 0.531617 0
M  V30 2152 H 194.19 1.69181 1.14883 0
M  V30 2153 H 192.345 1.39464 3.61426 0
M  V30 2154 H 192.759 3.59918 3.81523 0
M  V30 2155 H 194.233 2.35751 4.99125 0
M  V30 2156 H 194.71 0.800412 4.31845 0
M  V30 2157 H 195.316 2.29959 3.57769 0
M  V30 2158 N 193.631 -1.12557 1.10312 0
M  V30 2159 C 194.88 -1.83395 0.839588 0
M  V30 2160 C 195.193 -1.84939 -0.636929 0
M  V30 2161 O 196.399 -2.51761 -1.01631 0
M  V30 2162 C 194.855 -3.29303 1.45215 0
M  V30 2163 C 194.463 -3.36122 2.96186 0
M  V30 2164 C 196.207 -4.05121 1.26796 0
M  V30 2165 C 194.114 -4.76357 3.50483 0
M  V30 2166 H 193.044 -0.687133 0.310425 0
M  V30 2167 H 195.695 -1.26746 1.32694 0
M  V30 2168 H 194.077 -3.85812 0.892469 0
M  V30 2169 H 195.251 -2.89559 3.58458 0
M  V30 2170 H 193.566 -2.73776 3.13745 0
M  V30 2171 H 196.163 -5.08668 1.64806 0
M  V30 2172 H 196.506 -4.15773 0.209409 0
M  V30 2173 H 197.039 -3.54967 1.79563 0
M  V30 2174 H 193.778 -4.70899 4.55998 0
M  V30 2175 H 193.298 -5.23377 2.92978 0
M  V30 2176 H 194.977 -5.45294 3.48228 0
M  V30 2177 N 195.109 -0.891671 -1.2995 0
M  V30 2178 C 196.52 -0.563104 -1.78006 0
M  V30 2179 C 196.871 0.920978 -1.73241 0
M  V30 2180 O 195.996 1.71987 -1.31337 0
M  V30 2181 C 196.591 -1.01539 -3.23226 0
M  V30 2182 C 195.15 -0.738124 -3.69092 0
M  V30 2183 C 194.297 -1.19461 -2.50249 0
M  V30 2184 H 197.248 -1.07522 -1.16725 0
M  V30 2185 H 197.269 -0.347217 -3.78912 0
M  V30 2186 H 196.781 -2.09555 -3.26662 0
M  V30 2187 H 194.882 0.329766 -3.71138 0
M  V30 2188 H 194.995 -1.33037 -4.60259 0
M  V30 2189 H 193.359 -0.613787 -2.47194 0
M  V30 2190 H 194.142 -2.28265 -2.56417 0
M  V30 2191 N 196.587 1.43421 -0.653314 0
M  V30 2192 C 197.812 2.06678 -0.172846 0
M  V30 2193 C 198.237 1.48648 1.15262 0
M  V30 2194 O 197.595 0.596457 1.71208 0
M  V30 2195 C 197.643 3.60474 -0.0953184 0
M  V30 2196 O 196.747 4.01487 0.942442 0
M  V30 2197 H 196.088 0.657181 -0.0949155 0
M  V30 2198 H 198.618 1.83925 -0.896265 0
M  V30 2199 H 198.628 4.07905 0.0879728 0
M  V30 2200 H 197.303 4.02088 -1.06291 0
M  V30 2201 H 195.88 3.65646 0.731932 0
M  V30 2202 N 198.065 0.39524 1.52563 0
M  V30 2203 C 199.314 -0.186321 2.00838 0
M  V30 2204 C 199.627 -1.47402 1.28577 0
M  V30 2205 O 200.833 -2.13599 1.67593 0
M  V30 2206 C 199.289 -0.382595 3.57861 0
M  V30 2207 C 198.897 0.892202 4.39026 0
M  V30 2208 C 200.641 -0.9202 4.14406 0
M  V30 2209 C 198.548 0.66388 5.87662 0
M  V30 2210 H 197.478 -0.0734041 0.750418 0
M  V30 2211 H 200.129 0.518552 1.76021 0
M  V30 2212 H 198.511 -1.14946 3.7895 0
M  V30 2213 H 199.685 1.66414 4.29701 0
M  V30 2214 H 198 1.35519 3.9373 0
M  V30 2215 H 200.597 -1.10683 5.23119 0
M  V30 2216 H 200.94 -1.89096 3.70875 0
M  V30 2217 H 201.473 -0.212751 3.97231 0
M  V30 2218 H 198.212 1.6058 6.35527 0
M  V30 2219 H 197.732 -0.0690193 5.9976 0
M  V30 2220 H 199.411 0.300699 6.46301 0
M  V30 2221 N 199.544 -1.57102 0.125237 0
M  V30 2222 C 200.492 -2.16905 -0.839927 0
M  V30 2223 C 201.486 -1.11998 -1.27094 0
M  V30 2224 O 202.692 -1.3029 -1.24195 0
M  V30 2225 H 199.067 -0.694252 -0.288995 0
M  V30 2226 H 201.038 -2.96774 -0.311115 0
M  V30 2227 C 199.787 -2.78795 -2.07771 0
M  V30 2228 H 199.11 -3.59221 -1.755 0
M  V30 2229 H 200.55 -3.2417 -2.73295 0
M  V30 2230 C 199.009 -1.76193 -2.87155 0
M  V30 2231 O 199.539 -1.21909 -3.82755 0
M  V30 2232 N 197.745 -1.45991 -2.51267 0
M  V30 2233 H 197.292 -1.90325 -1.73592 0
M  V30 2234 H 197.25 -0.775844 -3.04677 0
M  V30 2235 N 201.022 0.148545 -1.56898 0
M  V30 2236 C 201.97 1.20265 -1.99096 0
M  V30 2237 C 202.964 1.44559 -0.883123 0
M  V30 2238 O 204.17 1.4487 -1.0683 0
M  V30 2239 H 200.545 0.404786 -0.63376 0
M  V30 2240 H 202.516 0.82004 -2.86911 0
M  V30 2241 C 201.265 2.52886 -2.3863 0
M  V30 2242 H 200.588 2.35021 -3.23427 0
M  V30 2243 H 202.028 3.25274 -2.7198 0
M  V30 2244 C 200.487 3.13315 -1.23837 0
M  V30 2245 O 201.017 3.98077 -0.538268 0
M  V30 2246 N 199.223 2.72742 -1.00301 0
M  V30 2247 H 198.77 2.03912 -1.5741 0
M  V30 2248 H 198.728 3.13507 -0.236838 0
M  V30 2249 N 202.5 1.5196 0.417844 0
M  V30 2250 C 203.41 1.77554 1.53336 0
M  V30 2251 C 204.426 0.660655 1.6097 0
M  V30 2252 O 205.602 0.945099 1.77848 0
M  V30 2253 C 202.667 1.91291 2.89152 0
M  V30 2254 C 201.728 3.15183 2.91475 0
M  V30 2255 C 200.961 3.28256 4.20813 0
M  V30 2256 O 201.184 2.46798 5.14244 0
M  V30 2257 O 200.118 4.21356 4.29817 0
M  V30 2258 H 203.944 2.7222 1.34647 0
M  V30 2259 H 201.529 1.36698 0.602828 0
M  V30 2260 H 203.411 2.02199 3.69721 0
M  V30 2261 H 202.086 0.998129 3.07927 0
M  V30 2262 H 200.993 3.09739 2.09791 0
M  V30 2263 H 202.326 4.06414 2.77648 0
M  V30 2264 N 203.978 -0.674533 1.42435 0
M  V30 2265 C 205.206 -1.46283 1.46317 0
M  V30 2266 C 205.621 -1.88653 0.0745836 0
M  V30 2267 O 204.978 -1.58151 -0.91074 0
M  V30 2268 C 205.029 -2.71178 2.3905 0
M  V30 2269 O 204.75 -2.30586 3.72507 0
M  V30 2270 C 206.251 -3.64738 2.51955 0
M  V30 2271 H 203.471 -0.450104 0.497642 0
M  V30 2272 H 206.015 -0.828792 1.86953 0
M  V30 2273 H 204.17 -3.3077 2.01667 0
M  V30 2274 H 204.584 -3.11241 4.22172 0
M  V30 2275 H 206.058 -4.49096 3.20962 0
M  V30 2276 H 206.535 -4.10656 1.55752 0
M  V30 2277 H 207.141 -3.11038 2.90061 0
M  V30 2278 N 205.456 -1.28612 -0.910864 0
M  V30 2279 C 206.867 -1.14406 -1.47541 0
M  V30 2280 C 207.218 0.264901 -1.94403 0
M  V30 2281 O 206.343 1.15942 -1.82719 0
M  V30 2282 C 206.938 -2.07073 -2.68153 0
M  V30 2283 C 205.497 -1.96923 -3.20778 0
M  V30 2284 C 204.644 -1.98646 -1.93481 0
M  V30 2285 H 207.595 -1.41259 -0.723291 0
M  V30 2286 H 207.616 -1.63642 -3.43514 0
M  V30 2287 H 207.128 -3.09611 -2.34015 0
M  V30 2288 H 205.229 -0.97433 -3.59635 0
M  V30 2289 H 205.342 -2.84026 -3.85832 0
M  V30 2290 H 203.706 -1.43093 -2.10705 0
M  V30 2291 H 204.489 -3.02868 -1.61634 0
M  V30 2292 N 206.934 1.1197 -1.10907 0
M  V30 2293 C 208.182 1.83225 -0.852819 0
M  V30 2294 C 208.503 1.84769 0.623341 0
M  V30 2295 O 207.773 1.3143 1.45269 0
M  V30 2296 H 206.353 0.67849 -0.312507 0
M  V30 2297 H 209.015 1.3556 -1.40033 0
M  V30 2298 H 208.111 2.87265 -1.22005 0
M  V30 2299 N 208.412 0.89855 1.29475 0
M  V30 2300 C 209.661 0.519863 1.94885 0
M  V30 2301 C 209.974 -0.9383 1.71625 0
M  V30 2302 O 211.18 -1.42445 2.31131 0
M  V30 2303 C 209.636 0.878836 3.49005 0
M  V30 2304 C 209.244 2.35569 3.81066 0
M  V30 2305 C 210.988 0.570004 4.20656 0
M  V30 2306 C 208.895 2.65558 5.28425 0
M  V30 2307 H 207.825 0.190692 0.729488 0
M  V30 2308 H 210.476 1.09539 1.47219 0
M  V30 2309 H 208.858 0.232253 3.95318 0
M  V30 2310 H 210.032 3.04773 3.45616 0
M  V30 2311 H 208.347 2.63343 3.22552 0
M  V30 2312 H 210.944 0.770925 5.29113 0
M  V30 2313 H 211.287 -0.491404 4.1339 0
M  V30 2314 H 211.82 1.17438 3.8007 0
M  V30 2315 H 208.559 3.70493 5.40754 0
M  V30 2316 H 208.079 2.00977 5.65127 0
M  V30 2317 H 209.758 2.51765 5.96006 0
M  V30 2318 N 209.89 -1.43072 0.660911 0
M  V30 2319 C 211.306 -1.56169 0.329173 0
M  V30 2320 C 211.506 -1.64317 -1.16629 0
M  V30 2321 O 210.562 -1.60245 -1.95135 0
M  V30 2322 C 211.875 -2.81873 1.04729 0
M  V30 2323 C 213.423 -2.95627 1.02828 0
M  V30 2324 C 213.898 -4.24174 1.72744 0
M  V30 2325 N 215.389 -4.31055 1.69545 0
M  V30 2326 C 216.124 -5.29304 2.20511 0
M  V30 2327 N 215.62 -6.33786 2.79799 0
M  V30 2328 N 217.413 -5.21008 2.10966 0
M  V30 2329 H 209.564 -1.36027 1.63127 0
M  V30 2330 H 211.827 -0.653823 0.686454 0
M  V30 2331 H 211.533 -2.81942 2.10242 0
M  V30 2332 H 211.407 -3.72338 0.603702 0
M  V30 2333 H 213.794 -2.95094 -0.0184742 0
M  V30 2334 H 213.875 -2.06431 1.51063 0
M  V30 2335 H 213.519 -4.25467 2.7738 0
M  V30 2336 H 213.449 -5.1228 1.2197 0
M  V30 2337 H 215.94 -3.56174 1.26288 0
M  V30 2338 H 216.253 -7.05086 3.16344 0
M  V30 2339 H 214.598 -6.34387 2.83863 0
M  V30 2340 H 217.789 -4.38301 1.64347 0
M  V30 2341 H 217.962 -5.97416 2.50993 0
M  V30 2342 N 211.368 -0.403325 -1.52352 0
M  V30 2343 C 212.598 0.17376 -2.05868 0
M  V30 2344 C 213.006 1.39898 -1.27378 0
M  V30 2345 O 212.349 1.80939 -0.31729 0
M  V30 2346 C 212.411 0.594756 -3.54546 0
M  V30 2347 C 212.075 -0.518926 -4.54044 0
M  V30 2348 C 213.072 -1.3807 -5.01231 0
M  V30 2349 C 210.757 -0.689961 -4.97539 0
M  V30 2350 C 212.751 -2.39852 -5.90551 0
M  V30 2351 C 210.438 -1.71109 -5.86656 0
M  V30 2352 C 211.436 -2.56378 -6.33056 0
M  V30 2353 O 211.124 -3.56743 -7.20409 0
M  V30 2354 H 210.856 0.0264951 -0.675481 0
M  V30 2355 H 213.41 -0.571179 -1.97299 0
M  V30 2356 H 211.64 1.39189 -3.60782 0
M  V30 2357 H 213.329 1.0991 -3.90736 0
M  V30 2358 H 214.095 -1.25994 -4.68349 0
M  V30 2359 H 209.974 -0.035939 -4.60986 0
M  V30 2360 H 213.518 -3.06441 -6.26689 0
M  V30 2361 H 209.415 -1.83218 -6.18952 0
M  V30 2362 H 210.183 -3.52918 -7.38506 0
M  V30 2363 N 212.846 1.57033 -0.133567 0
M  V30 2364 C 213.778 2.13176 0.841944 0
M  V30 2365 C 214.791 1.07794 1.22001 0
M  V30 2366 O 215.98 1.35117 1.16643 0
M  V30 2367 C 213.08 2.62847 2.13926 0
M  V30 2368 C 212.253 3.92486 1.93064 0
M  V30 2369 C 211.312 4.27605 3.0666 0
M  V30 2370 O 210.338 4.96168 2.78937 0
M  V30 2371 N 211.54 3.861 4.33483 0
M  V30 2372 H 214.305 2.97503 0.362192 0
M  V30 2373 H 211.866 1.61821 0.05042 0
M  V30 2374 H 213.858 2.83363 2.88942 0
M  V30 2375 H 212.428 1.83319 2.53205 0
M  V30 2376 H 211.648 3.80732 1.02159 0
M  V30 2377 H 212.936 4.77225 1.76447 0
M  V30 2378 H 212.334 3.30828 4.58878 0
M  V30 2379 H 210.891 4.11694 5.05323 0
M  V30 2380 N 214.325 -0.140222 1.56975 0
M  V30 2381 C 215.555 -0.865181 1.87612 0
M  V30 2382 C 215.963 -1.74942 0.72055 0
M  V30 2383 O 215.306 -1.80917 -0.318561 0
M  V30 2384 C 215.368 -1.76782 3.13031 0
M  V30 2385 C 215.032 -1.06005 4.44536 0
M  V30 2386 C 216.029 -0.410768 5.18275 0
M  V30 2387 C 213.714 -1.04754 4.91255 0
M  V30 2388 C 215.708 0.241572 6.36942 0
M  V30 2389 C 213.395 -0.391394 6.09845 0
M  V30 2390 C 214.393 0.252029 6.82535 0
M  V30 2391 O 214.081 0.897757 7.98871 0
M  V30 2392 H 213.813 -0.255188 0.625983 0
M  V30 2393 H 216.367 -0.135653 2.04952 0
M  V30 2394 H 214.597 -2.53846 2.91718 0
M  V30 2395 H 216.286 -2.36533 3.29859 0
M  V30 2396 H 217.052 -0.412195 4.83245 0
M  V30 2397 H 212.931 -1.53777 4.34596 0
M  V30 2398 H 216.475 0.744375 6.93617 0
M  V30 2399 H 212.372 -0.387656 6.44335 0
M  V30 2400 H 213.14 0.800102 8.1458 0
M  V30 2401 N 215.803 -1.52179 -0.40978 0
M  V30 2402 C 216.751 -1.76086 -1.51975 0
M  V30 2403 C 217.745 -0.627964 -1.57331 0
M  V30 2404 O 218.951 -0.809993 -1.60745 0
M  V30 2405 H 215.326 -0.556829 -0.505416 0
M  V30 2406 H 217.297 -2.69077 -1.28996 0
M  V30 2407 C 216.046 -1.92799 -2.8935 0
M  V30 2408 H 215.369 -2.79392 -2.85972 0
M  V30 2409 H 216.809 -2.13527 -3.66309 0
M  V30 2410 C 215.268 -0.694923 -3.29655 0
M  V30 2411 O 215.798 0.13751 -4.01465 0
M  V30 2412 N 214.004 -0.53101 -2.85707 0
M  V30 2413 H 213.551 -1.20952 -2.27439 0
M  V30 2414 H 213.509 0.292718 -3.13034 0
M  V30 2415 N 217.281 0.66697 -1.42791 0
M  V30 2416 C 218.527 1.4291 -1.43891 0
M  V30 2417 C 218.86 1.94114 -0.0578972 0
M  V30 2418 O 218.135 1.71414 0.91911 0
M  V30 2419 C 218.418 2.62049 -2.46987 0
M  V30 2420 C 218.271 2.16426 -3.94309 0
M  V30 2421 C 219.59 3.64266 -2.46978 0
M  V30 2422 H 216.709 0.518306 -0.523954 0
M  V30 2423 H 219.351 0.757321 -1.74255 0
M  V30 2424 H 217.501 3.19361 -2.21225 0
M  V30 2425 H 219.173 1.64221 -4.31079 0
M  V30 2426 H 217.416 1.47925 -4.078 0
M  V30 2427 H 218.087 3.02038 -4.62036 0
M  V30 2428 H 220.563 3.16686 -2.69906 0
M  V30 2429 H 219.439 4.45196 -3.21079 0
M  V30 2430 H 219.7 4.15927 -1.49857 0
M  V30 2431 N 218.759 1.29093 0.90403 0
M  V30 2432 C 219.689 1.16401 2.02418 0
M  V30 2433 C 220.67 0.0593085 1.69997 0
M  V30 2434 O 221.855 0.238021 1.92736 0
M  V30 2435 C 218.985 0.835233 3.37107 0
M  V30 2436 C 217.939 1.89578 3.83724 0
M  V30 2437 C 217.265 1.42041 5.15489 0
M  V30 2438 C 218.565 3.30394 4.04521 0
M  V30 2439 H 220.259 2.10109 2.13295 0
M  V30 2440 H 217.805 1.01157 1.02486 0
M  V30 2441 H 219.758 0.733169 4.14973 0
M  V30 2442 H 218.482 -0.137543 3.2631 0
M  V30 2443 H 217.141 1.98715 3.08071 0
M  V30 2444 H 216.789 0.436426 5.01103 0
M  V30 2445 H 216.489 2.12964 5.4765 0
M  V30 2446 H 218.013 1.33176 5.959 0
M  V30 2447 H 219.427 3.24123 4.72882 0
M  V30 2448 H 217.824 3.99237 4.48029 0
M  V30 2449 H 218.894 3.73692 3.09002 0
M  V30 2450 N 220.237 -1.11381 1.11499 0
M  V30 2451 C 221.648 -1.6465 0.880191 0
M  V30 2452 C 221.999 -1.87199 -0.587434 0
M  V30 2453 O 221.124 -1.60667 -1.44966 0
M  V30 2454 C 221.719 -2.99105 1.59128 0
M  V30 2455 C 220.278 -3.49279 1.40289 0
M  V30 2456 C 219.425 -2.24077 1.63354 0
M  V30 2457 H 222.376 -0.950123 1.27116 0
M  V30 2458 H 222.397 -3.66107 1.03664 0
M  V30 2459 H 221.909 -2.82661 2.65941 0
M  V30 2460 H 220.01 -3.70887 0.356888 0
M  V30 2461 H 220.123 -4.2803 2.15238 0
M  V30 2462 H 218.487 -2.31733 1.05698 0
M  V30 2463 H 219.27 -2.10175 2.71443 0
M  V30 2464 N 221.715 -0.905404 -1.28997 0
M  V30 2465 C 222.647 -0.344748 -2.26592 0
M  V30 2466 C 223.66 0.512135 -1.54535 0
M  V30 2467 O 224.849 0.328368 -1.75454 0
M  V30 2468 C 221.949 0.526587 -3.34784 0
M  V30 2469 C 221.122 -0.305871 -4.36329 0
M  V30 2470 C 220.181 0.499209 -5.23827 0
M  V30 2471 O 219.207 -0.0853004 -5.69136 0
M  V30 2472 N 220.409 1.80408 -5.51755 0
M  V30 2473 H 223.174 -1.18359 -2.75338 0
M  V30 2474 H 220.735 -0.770481 -1.42391 0
M  V30 2475 H 222.727 1.07171 -3.90252 0
M  V30 2476 H 221.297 1.26613 -2.85811 0
M  V30 2477 H 220.517 -1.0324 -3.80441 0
M  V30 2478 H 221.805 -0.875773 -5.01206 0
M  V30 2479 H 221.203 2.3016 -5.16762 0
M  V30 2480 H 219.76 2.29621 -6.10014 0
M  V30 2481 N 223.193 1.4272 -0.668489 0
M  V30 2482 C 224.441 2.01226 -0.187769 0
M  V30 2483 C 224.762 1.53092 1.2078 0
M  V30 2484 O 224.032 0.74993 1.80977 0
M  V30 2485 H 222.612 0.744041 -0.0664272 0
M  V30 2486 H 225.274 1.74723 -0.863583 0
M  V30 2487 H 224.37 3.11556 -0.184166 0
M  V30 2488 N 224.671 0.411399 1.52136 0
M  V30 2489 C 225.917 -0.156262 2.02799 0
M  V30 2490 C 226.272 -1.42613 1.29149 0
M  V30 2491 O 225.565 -1.87592 0.389839 0
M  V30 2492 C 225.759 -0.455872 3.54481 0
M  V30 2493 C 225.588 0.783404 4.42824 0
M  V30 2494 C 224.358 1.30928 4.88043 0
M  V30 2495 C 226.556 1.66217 4.86699 0
M  V30 2496 N 224.538 2.5038 5.6052 0
M  V30 2497 C 225.909 2.70292 5.5798 0
M  V30 2498 C 227.964 1.67966 4.68713 0
M  V30 2499 C 226.667 3.7603 6.13184 0
M  V30 2500 C 228.693 2.72624 5.24815 0
M  V30 2501 C 228.055 3.7542 5.9602 0
M  V30 2502 H 224.154 -0.0186886 0.781777 0
M  V30 2503 H 226.738 0.566255 1.86284 0
M  V30 2504 H 224.909 -1.14743 3.71064 0
M  V30 2505 H 226.641 -1.01261 3.91827 0
M  V30 2506 H 223.396 0.866977 4.65597 0
M  V30 2507 H 223.82 3.10881 6.014 0
M  V30 2508 H 228.462 0.898312 4.13147 0
M  V30 2509 H 226.18 4.55019 6.6782 0
M  V30 2510 H 229.766 2.74887 5.12765 0
M  V30 2511 H 228.646 4.55073 6.38654 0
M  V30 2512 N 226.149 -1.5696 0.141893 0
M  V30 2513 C 227.096 -2.16501 -0.799737 0
M  V30 2514 C 228.066 -1.09643 -1.24771 0
M  V30 2515 O 229.251 -1.3766 -1.32115 0
M  V30 2516 C 226.391 -2.78679 -2.03549 0
M  V30 2517 C 225.504 -3.99914 -1.6338 0
M  V30 2518 C 224.639 -4.50106 -2.82096 0
M  V30 2519 C 223.678 -5.63819 -2.38275 0
M  V30 2520 N 222.815 -6.08651 -3.49983 0
M  V30 2521 H 227.655 -2.96632 -0.285179 0
M  V30 2522 H 225.192 -1.46533 -0.129053 0
M  V30 2523 H 227.15 -3.1287 -2.75986 0
M  V30 2524 H 225.78 -2.012 -2.52425 0
M  V30 2525 H 224.832 -3.71735 -0.807279 0
M  V30 2526 H 226.144 -4.82311 -1.27192 0
M  V30 2527 H 225.298 -4.86325 -3.62729 0
M  V30 2528 H 224.037 -3.66706 -3.21525 0
M  V30 2529 H 223.042 -5.2718 -1.56081 0
M  V30 2530 H 224.267 -6.49 -1.99938 0
M  V30 2531 H 222.213 -5.28188 -3.89042 0
M  V30 2532 H 222.13 -6.85961 -3.17794 0
M  V30 2533 H 223.398 -6.49515 -4.30988 0
M  V30 2534 N 227.627 0.131896 -1.57047 0
M  V30 2535 C 228.875 0.840269 -1.83804 0
M  V30 2536 C 229.196 1.81017 -0.72512 0
M  V30 2537 O 228.466 1.94272 0.251995 0
M  V30 2538 H 227.046 0.313294 -0.678127 0
M  V30 2539 H 229.708 0.122294 -1.94516 0
M  V30 2540 H 228.804 1.39335 -2.79271 0
M  V30 2541 N 229.106 1.52395 0.401703 0
M  V30 2542 C 230.331 1.70972 1.17403 0
M  V30 2543 C 230.756 0.421615 1.83314 0
M  V30 2544 O 230.114 -0.621564 1.70312 0
M  V30 2545 C 230.162 2.85151 2.20728 0
M  V30 2546 O 229.266 2.51238 3.27037 0
M  V30 2547 H 228.607 0.568927 0.342372 0
M  V30 2548 H 231.137 1.99131 0.469891 0
M  V30 2549 H 231.147 3.10279 2.64936 0
M  V30 2550 H 229.822 3.78603 1.7214 0
M  V30 2551 H 228.399 2.36808 2.88057 0
M  V30 2552 N 230.584 -0.659388 1.43143 0
M  V30 2553 C 231.995 -1.24041 1.39537 0
M  V30 2554 C 232.346 -1.95963 0.0963364 0
M  V30 2555 O 231.471 -2.00892 -0.804438 0
M  V30 2556 C 232.066 -2.25601 2.52764 0
M  V30 2557 C 230.625 -2.79195 2.52443 0
M  V30 2558 C 229.772 -1.53743 2.30778 0
M  V30 2559 H 232.723 -0.451792 1.52133 0
M  V30 2560 H 232.744 -3.07651 2.23899 0
M  V30 2561 H 232.256 -1.73226 3.47296 0
M  V30 2562 H 230.357 -3.35649 1.61773 0
M  V30 2563 H 230.47 -3.2716 3.50004 0
M  V30 2564 H 228.834 -1.80869 1.79328 0
M  V30 2565 H 229.617 -1.03312 3.27386 0
M  V30 2566 N 232.062 -1.29571 -0.897171 0
M  V30 2567 C 233.025 -1.14913 -1.98312 0
M  V30 2568 C 234.025 -0.0838629 -1.60581 0
M  V30 2569 O 235.215 -0.331006 -1.71026 0
M  V30 2570 C 232.347 -0.757835 -3.3237 0
M  V30 2571 H 233.54 -2.11377 -2.12743 0
M  V30 2572 H 231.093 -1.12793 -1.08201 0
M  V30 2573 H 231.828 0.206837 -3.2364 0
M  V30 2574 H 231.613 -1.52755 -3.61121 0
M  V30 2575 H 233.103 -0.678408 -4.12053 0
M  V30 2576 N 233.54 1.10788 -1.12088 0
M  V30 2577 C 234.789 1.82036 -0.868659 0
M  V30 2578 C 235.102 1.85929 0.607426 0
M  V30 2579 O 236.308 2.53346 0.97613 0
M  V30 2580 C 234.764 3.26951 -1.50435 0
M  V30 2581 C 234.372 3.31367 -3.01496 0
M  V30 2582 C 236.116 4.03053 -1.33225 0
M  V30 2583 C 234.023 4.7072 -3.58017 0
M  V30 2584 H 232.953 0.682108 -0.321318 0
M  V30 2585 H 235.604 1.24618 -1.34694 0
M  V30 2586 H 233.986 3.84343 -0.953735 0
M  V30 2587 H 235.16 2.83819 -3.6302 0
M  V30 2588 H 233.475 2.6875 -3.18061 0
M  V30 2589 H 236.072 5.05981 -1.72878 0
M  V30 2590 H 236.415 4.15387 -0.275529 0
M  V30 2591 H 236.948 3.52066 -1.85188 0
M  V30 2592 H 233.687 4.63585 -4.63432 0
M  V30 2593 H 233.207 5.1865 -3.01268 0
M  V30 2594 H 234.886 5.39685 -3.56859 0
M  V30 2595 N 235.018 0.912232 1.28515 0
M  V30 2596 C 236.265 0.544599 1.95039 0
M  V30 2597 C 236.593 -0.911435 1.71823 0
M  V30 2598 O 235.848 -1.66317 1.03137 0
M  V30 2599 C 236.147 0.798392 3.48368 0
M  V30 2600 C 235.813 2.23374 3.91682 0
M  V30 2601 C 234.475 2.62617 4.03219 0
M  V30 2602 C 236.827 3.16786 4.13879 0
M  V30 2603 C 234.155 3.94429 4.3433 0
M  V30 2604 C 236.507 4.48161 4.46469 0
M  V30 2605 C 235.171 4.8726 4.56217 0
M  V30 2606 H 234.441 0.199283 0.7137 0
M  V30 2607 H 237.088 1.15327 1.52879 0
M  V30 2608 H 235.393 0.106908 3.91654 0
M  V30 2609 H 237.09 0.493141 3.97956 0
M  V30 2610 H 233.68 1.91922 3.83228 0
M  V30 2611 H 237.864 2.87677 4.0442 0
M  V30 2612 H 233.12 4.24426 4.40082 0
M  V30 2613 H 237.294 5.20559 4.62592 0
M  V30 2614 H 234.921 5.89431 4.80078 0
M  V30 2615 N 236.496 -1.42363 0.676048 0
M  V30 2616 C 237.428 -2.29164 -0.0404605 0
M  V30 2617 C 238.441 -1.43747 -0.764245 0
M  V30 2618 O 239.63 -1.67453 -0.618195 0
M  V30 2619 C 236.73 -3.21196 -1.08103 0
M  V30 2620 C 235.903 -4.35273 -0.430812 0
M  V30 2621 C 234.962 -5.08017 -1.37133 0
M  V30 2622 O 233.988 -5.62494 -0.87116 0
M  V30 2623 N 235.19 -5.13647 -2.70456 0
M  V30 2624 H 237.955 -2.91298 0.704667 0
M  V30 2625 H 235.516 -1.53303 0.520559 0
M  V30 2626 H 237.508 -3.66728 -1.71152 0
M  V30 2627 H 236.078 -2.60505 -1.72788 0
M  V30 2628 H 235.298 -3.92372 0.379209 0
M  V30 2629 H 236.586 -5.08795 0.0221132 0
M  V30 2630 H 235.984 -4.708 -3.1363 0
M  V30 2631 H 234.541 -5.62821 -3.28749 0
M  V30 2632 N 237.974 -0.419461 -1.51915 0
M  V30 2633 C 239.199 0.154572 -2.06823 0
M  V30 2634 C 239.624 1.3722 -1.28656 0
M  V30 2635 O 238.982 1.78461 -0.319583 0
M  V30 2636 C 239.03 0.473172 -3.57482 0
M  V30 2637 O 238.134 1.56255 -3.81652 0
M  V30 2638 H 237.475 0.0096924 -0.663929 0
M  V30 2639 H 240.005 -0.595642 -1.95738 0
M  V30 2640 H 240.015 0.728825 -4.01438 0
M  V30 2641 H 238.69 -0.416873 -4.13805 0
M  V30 2642 H 237.267 1.29825 -3.49571 0
M  V30 2643 N 239.452 1.56882 -0.150215 0
M  V30 2644 C 240.677 2.01027 0.510184 0
M  V30 2645 C 241.102 1.02966 1.57415 0
M  V30 2646 O 240.46 0.00590158 1.81299 0
M  V30 2647 C 240.508 3.43899 1.08472 0
M  V30 2648 O 239.612 3.4885 2.19948 0
M  V30 2649 H 238.953 0.652233 0.124451 0
M  V30 2650 H 241.483 2.03093 -0.247894 0
M  V30 2651 H 241.493 3.82766 1.41259 0
M  V30 2652 H 240.168 4.14776 0.305582 0
M  V30 2653 H 238.745 3.21827 1.88366 0
M  V30 2654 N 240.93 -0.123565 1.57115 0
M  V30 2655 C 241.863 -1.18202 1.95201 0
M  V30 2656 C 242.841 -1.40349 0.821031 0
M  V30 2657 O 244.025 -1.54578 1.07879 0
M  V30 2658 C 241.152 -2.53671 2.24429 0
M  V30 2659 C 240.198 -2.4798 3.46999 0
M  V30 2660 S 241.031 -1.92389 4.99747 0
M  V30 2661 C 242.187 -3.2954 5.32123 0
M  V30 2662 H 242.42 -0.857212 2.84674 0
M  V30 2663 H 239.953 -0.33014 1.50829 0
M  V30 2664 H 241.911 -3.3162 2.41947 0
M  V30 2665 H 240.572 -2.83332 1.35579 0
M  V30 2666 H 239.765 -3.47758 3.64801 0
M  V30 2667 H 239.367 -1.7815 3.28844 0
M  V30 2668 H 241.659 -4.25736 5.27025 0
M  V30 2669 H 242.602 -3.16569 6.33395 0
M  V30 2670 H 243.01 -3.27758 4.59603 0
M  V30 2671 N 242.408 -1.52605 -0.393616 0
M  V30 2672 C 243.636 -1.71294 -1.16043 0
M  V30 2673 C 244.051 -0.429259 -1.83855 0
M  V30 2674 O 243.408 0.595921 -1.72496 0
M  V30 2675 C 243.459 -2.8593 -2.21193 0
M  V30 2676 O 243.18 -4.09329 -1.56146 0
M  V30 2677 C 244.681 -3.16259 -3.10636 0
M  V30 2678 H 241.901 -0.573641 -0.348104 0
M  V30 2679 H 244.445 -1.99234 -0.461092 0
M  V30 2680 H 242.6 -2.60465 -2.86769 0
M  V30 2681 H 243.014 -4.73323 -2.25978 0
M  V30 2682 H 244.488 -3.99946 -3.80456 0
M  V30 2683 H 244.965 -2.3045 -3.73884 0
M  V30 2684 H 245.571 -3.43547 -2.50711 0
M  V30 2685 N 243.887 0.651787 -1.4349 0
M  V30 2686 C 244.834 1.76462 -1.4876 0
M  V30 2687 C 245.804 1.62641 -0.337189 0
M  V30 2688 O 246.989 1.82864 -0.544544 0
M  V30 2689 C 244.129 3.14623 -1.41796 0
M  V30 2690 C 243.242 3.39568 -2.67053 0
M  V30 2691 C 242.377 4.67585 -2.52068 0
M  V30 2692 C 241.416 4.85639 -3.72587 0
M  V30 2693 N 240.553 6.04915 -3.56402 0
M  V30 2694 H 245.393 1.71293 -2.43849 0
M  V30 2695 H 242.93 0.835889 -1.21043 0
M  V30 2696 H 244.888 3.94496 -1.35753 0
M  V30 2697 H 243.518 3.18859 -0.50288 0
M  V30 2698 H 242.57 2.53783 -2.8337 0
M  V30 2699 H 243.882 3.48795 -3.56572 0
M  V30 2700 H 243.036 5.55586 -2.4374 0
M  V30 2701 H 241.775 4.60681 -1.60075 0
M  V30 2702 H 240.78 3.96073 -3.81321 0
M  V30 2703 H 242.005 4.94372 -4.65589 0
M  V30 2704 H 239.951 5.9914 -2.67146 0
M  V30 2705 H 239.868 6.15106 -4.39524 0
M  V30 2706 H 241.136 6.95533 -3.51929 0
M  V30 2707 N 245.365 1.30045 0.890287 0
M  V30 2708 C 246.614 1.17929 1.63633 0
M  V30 2709 C 246.927 -0.266204 1.9378 0
M  V30 2710 O 248.133 -0.508804 2.6669 0
M  V30 2711 C 246.589 2.06317 2.94892 0
M  V30 2712 C 246.197 3.55745 2.72305 0
M  V30 2713 C 247.941 2.0295 3.72843 0
M  V30 2714 C 245.848 4.36205 3.99348 0
M  V30 2715 H 244.778 0.437782 0.613892 0
M  V30 2716 H 247.429 1.54754 0.986075 0
M  V30 2717 H 245.811 1.6237 3.61182 0
M  V30 2718 H 246.985 4.07805 2.1455 0
M  V30 2719 H 245.3 3.6088 2.07737 0
M  V30 2720 H 247.897 2.60319 4.67053 0
M  V30 2721 H 248.24 1.0117 4.0382 0
M  V30 2722 H 248.773 2.4499 3.13408 0
M  V30 2723 H 245.512 5.38659 3.73533 0
M  V30 2724 H 245.032 3.8891 4.56628 0
M  V30 2725 H 246.711 4.47362 4.67415 0
M  V30 2726 N 246.843 -1.10192 1.12674 0
M  V30 2727 C 247.773 -2.18652 0.819362 0
M  V30 2728 C 248.754 -1.68698 -0.217915 0
M  V30 2729 O 249.939 -1.94041 -0.0785581 0
M  V30 2730 C 247.069 -3.46202 0.27594 0
M  V30 2731 C 246.023 -4.09444 1.24656 0
M  V30 2732 C 245.349 -5.31725 0.563258 0
M  V30 2733 C 246.649 -4.52863 2.60217 0
M  V30 2734 H 248.343 -2.44622 1.72628 0
M  V30 2735 H 245.889 -1.17571 0.831451 0
M  V30 2736 H 247.842 -4.21372 0.0486149 0
M  V30 2737 H 246.566 -3.1973 -0.666331 0
M  V30 2738 H 245.225 -3.36284 1.45974 0
M  V30 2739 H 244.873 -5.0153 -0.384235 0
M  V30 2740 H 244.573 -5.74991 1.21075 0
M  V30 2741 H 246.097 -6.09624 0.34503 0
M  V30 2742 H 247.511 -5.19294 2.42913 0
M  V30 2743 H 245.908 -5.06986 3.21068 0
M  V30 2744 H 246.978 -3.65656 3.18471 0
M  V30 2745 N 248.321 -0.919034 -1.28029 0
M  V30 2746 C 249.231 -0.416756 -2.30869 0
M  V30 2747 C 250.247 0.498235 -1.66714 0
M  V30 2748 O 251.423 0.383144 -1.97722 0
M  V30 2749 C 248.488 0.330274 -3.45123 0
M  V30 2750 C 247.549 -0.618578 -4.2482 0
M  V30 2751 C 246.782 0.0928959 -5.33619 0
M  V30 2752 O 247.005 1.31375 -5.55065 0
M  V30 2753 O 245.939 -0.574499 -5.99152 0
M  V30 2754 H 249.765 -1.27043 -2.75851 0
M  V30 2755 H 247.35 -0.684052 -1.3282 0
M  V30 2756 H 249.232 0.751972 -4.14636 0
M  V30 2757 H 247.907 1.1597 -3.02213 0
M  V30 2758 H 246.814 -1.08978 -3.57875 0
M  V30 2759 H 248.147 -1.41497 -4.71423 0
M  V30 2760 N 249.799 1.42003 -0.683588 0
M  V30 2761 C 251.21 1.84501 -0.285736 0
M  V30 2762 C 251.561 1.57213 1.17382 0
M  V30 2763 O 250.686 1.03642 1.89966 0
M  V30 2764 C 251.281 3.34912 -0.511821 0
M  V30 2765 C 249.84 3.76025 -0.168005 0
M  V30 2766 C 248.987 2.6551 -0.799983 0
M  V30 2767 H 251.938 1.31724 -0.885119 0
M  V30 2768 H 251.959 3.79784 0.233292 0
M  V30 2769 H 251.471 3.54741 -1.57418 0
M  V30 2770 H 249.572 3.61801 0.890567 0
M  V30 2771 H 249.685 4.75141 -0.614661 0
M  V30 2772 H 248.049 2.53654 -0.230568 0
M  V30 2773 H 248.832 2.8816 -1.86597 0
M  V30 2774 N 251.277 0.427512 1.51691 0
M  V30 2775 C 252.524 -0.142229 2.02 0
M  V30 2776 C 252.852 -1.43566 1.31221 0
M  V30 2777 O 252.107 -1.91298 0.412744 0
M  V30 2778 C 252.406 -0.418249 3.54944 0
M  V30 2779 C 252.072 0.788187 4.43958 0
M  V30 2780 C 250.734 1.11906 4.68007 0
M  V30 2781 C 253.086 1.59347 4.96244 0
M  V30 2782 C 250.414 2.25608 5.41588 0
M  V30 2783 C 252.766 2.7214 5.71072 0
M  V30 2784 C 251.43 3.05692 5.93387 0
M  V30 2785 H 250.7 -0.0520451 0.73917 0
M  V30 2786 H 253.347 0.572697 1.82736 0
M  V30 2787 H 251.652 -1.21496 3.72486 0
M  V30 2788 H 253.349 -0.872339 3.91397 0
M  V30 2789 H 249.939 0.520344 4.2543 0
M  V30 2790 H 254.123 1.35106 4.77556 0
M  V30 2791 H 249.379 2.51929 5.57083 0
M  V30 2792 H 253.553 3.34914 6.10578 0
M  V30 2793 H 251.18 3.9391 6.50184 0
M  V30 2794 N 252.755 -1.56801 0.158532 0
M  V30 2795 C 254.171 -1.5837 -0.197774 0
M  V30 2796 C 254.371 -1.17334 -1.63814 0
M  V30 2797 O 253.427 -0.878988 -2.36707 0
M  V30 2798 C 254.74 -3.00615 0.0714459 0
M  V30 2799 C 256.288 -3.12999 0.00864533 0
M  V30 2800 C 256.763 -4.57313 0.250685 0
M  V30 2801 N 258.254 -4.62777 0.198014 0
M  V30 2802 C 258.989 -5.72271 0.359642 0
M  V30 2803 N 258.485 -6.90371 0.579625 0
M  V30 2804 N 260.278 -5.61318 0.296438 0
M  V30 2805 H 252.429 -1.81765 1.09887 0
M  V30 2806 H 254.692 -0.841849 0.435884 0
M  V30 2807 H 254.398 -3.35068 1.06874 0
M  V30 2808 H 254.272 -3.71683 -0.642757 0
M  V30 2809 H 256.659 -2.7838 -0.979217 0
M  V30 2810 H 256.74 -2.44393 0.755359 0
M  V30 2811 H 256.384 -4.92639 1.2357 0
M  V30 2812 H 256.314 -5.24061 -0.516489 0
M  V30 2813 H 258.805 -3.77885 0.0331115 0
M  V30 2814 H 259.118 -7.69689 0.69275 0
M  V30 2815 H 257.463 -6.92264 0.616087 0
M  V30 2816 H 260.654 -4.67932 0.125258 0
M  V30 2817 H 260.827 -6.46599 0.425831 0
M  V30 2818 N 254.233 0.115231 -1.57178 0
M  V30 2819 C 255.18 1.14115 -2.00615 0
M  V30 2820 C 256.15 1.40939 -0.878941 0
M  V30 2821 O 257.335 1.52741 -1.14345 0
M  V30 2822 C 254.475 2.46156 -2.4187 0
M  V30 2823 C 253.588 2.26236 -3.68024 0
M  V30 2824 C 252.723 3.51534 -3.98243 0
M  V30 2825 C 251.762 3.26787 -5.17568 0
M  V30 2826 N 250.899 4.44298 -5.43639 0
M  V30 2827 H 255.739 0.763743 -2.88047 0
M  V30 2828 H 253.276 0.365615 -1.42484 0
M  V30 2829 H 255.234 3.23189 -2.63827 0
M  V30 2830 H 253.864 2.81783 -1.57475 0
M  V30 2831 H 252.916 1.40102 -3.5366 0
M  V30 2832 H 254.228 2.03929 -4.55208 0
M  V30 2833 H 253.382 4.36984 -4.20868 0
M  V30 2834 H 252.121 3.76876 -3.09541 0
M  V30 2835 H 251.126 2.39729 -4.94783 0
M  V30 2836 H 252.351 3.02812 -6.0785 0
M  V30 2837 H 250.297 4.69754 -4.57895 0
M  V30 2838 H 250.214 4.25109 -6.25154 0
M  V30 2839 H 251.482 5.3087 -5.70786 0
M  V30 2840 N 255.711 1.52812 0.385517 0
M  V30 2841 C 256.643 1.74096 1.49074 0
M  V30 2842 C 257.656 0.621462 1.50472 0
M  V30 2843 O 258.845 0.897245 1.54311 0
M  V30 2844 C 255.945 1.78774 2.87911 0
M  V30 2845 C 255.118 3.08134 3.10439 0
M  V30 2846 C 254.177 3.04313 4.29278 0
M  V30 2847 O 253.203 3.78168 4.25415 0
M  V30 2848 N 254.405 2.23741 5.35649 0
M  V30 2849 H 257.17 2.69455 1.31202 0
M  V30 2850 H 254.731 1.51343 0.575065 0
M  V30 2851 H 256.723 1.73721 3.65518 0
M  V30 2852 H 255.293 0.907869 2.99126 0
M  V30 2853 H 254.513 3.26649 2.20667 0
M  V30 2854 H 255.801 3.93662 3.22347 0
M  V30 2855 H 255.199 1.63211 5.41645 0
M  V30 2856 H 253.756 2.24524 6.11909 0
M  V30 2857 N 257.189 -0.644168 1.43834 0
M  V30 2858 C 258.137 -1.77793 1.49974 0
M  V30 2859 C 259.131 -1.65253 0.372536 0
M  V30 2860 O 260.337 -1.7149 0.546924 0
M  V30 2861 H 256.712 -0.58675 0.47035 0
M  V30 2862 H 258.683 -1.69736 2.45423 0
M  V30 2863 C 257.432 -3.16087 1.4486 0
M  V30 2864 H 256.755 -3.26378 2.30905 0
M  V30 2865 H 258.195 -3.95349 1.53217 0
M  V30 2866 C 256.654 -3.36484 0.167463 0
M  V30 2867 O 257.184 -3.94298 -0.767609 0
M  V30 2868 N 255.39 -2.90504 0.0747556 0
M  V30 2869 H 254.937 -2.4364 0.836507 0
M  V30 2870 H 254.895 -3.04527 -0.781714 0
M  V30 2871 N 258.668 -1.30515 -0.883378 0
M  V30 2872 C 260.079 -1.17509 -1.45081 0
M  V30 2873 C 260.43 0.223605 -1.94922 0
M  V30 2874 O 259.555 1.12041 -1.85137 0
M  V30 2875 C 260.15 -2.12715 -2.63701 0
M  V30 2876 C 258.709 -2.03682 -3.16529 0
M  V30 2877 C 257.856 -2.02706 -1.89224 0
M  V30 2878 H 260.807 -1.42762 -0.693165 0
M  V30 2879 H 260.828 -1.70891 -3.39965 0
M  V30 2880 H 260.34 -3.14505 -2.27395 0
M  V30 2881 H 258.441 -1.05039 -3.57488 0
M  V30 2882 H 258.554 -2.92146 -3.7972 0
M  V30 2883 H 256.918 -1.4753 -2.07622 0
M  V30 2884 H 257.701 -3.06229 -1.55174 0
M  V30 2885 N 260.146 1.09593 -1.13257 0
M  V30 2886 C 261.423 1.78293 -0.804432 0
M  V30 2887 C 261.803 1.99004 0.70431 0
M  V30 2888 O 261.151 1.59007 1.641 0
M  V30 2889 C 261.361 3.10707 -1.5894 0
M  V30 2890 C 262.709 3.85443 -1.78099 0
M  V30 2891 O 263.733 3.20454 -1.55525 0
M  V30 2892 O 262.592 5.02108 -2.15753 0
M  V30 2893 H 259.686 0.773156 -0.293528 0
M  V30 2894 H 262.232 1.16164 -1.23709 0
M  V30 2895 H 261.004 2.91106 -2.61482 0
M  V30 2896 H 260.627 3.80558 -1.15157 0
M  V30 2897 N 261.624 0.925811 1.2754 0
M  V30 2898 C 262.873 0.561084 1.93739 0
M  V30 2899 C 263.186 -0.901685 1.73577 0
M  V30 2900 O 264.392 -1.37511 2.34101 0
M  V30 2901 C 262.848 0.952668 3.47062 0
M  V30 2902 C 262.456 2.43599 3.75983 0
M  V30 2903 C 264.2 0.659103 4.19352 0
M  V30 2904 C 262.107 2.76707 5.22673 0
M  V30 2905 H 261.037 0.206122 0.725279 0
M  V30 2906 H 263.688 1.12637 1.44863 0
M  V30 2907 H 262.07 0.316053 3.94737 0
M  V30 2908 H 263.244 3.12035 3.39073 0
M  V30 2909 H 261.559 2.70125 3.16893 0
M  V30 2910 H 264.156 0.882985 5.27359 0
M  V30 2911 H 264.499 -0.403607 4.14339 0
M  V30 2912 H 265.032 1.25473 3.77494 0
M  V30 2913 H 261.771 3.8188 5.32774 0
M  V30 2914 H 261.291 2.12919 5.60737 0
M  V30 2915 H 262.97 2.6435 5.90532 0
M  V30 2916 N 263.102 -1.41638 0.69111 0
M  V30 2917 C 264.348 -2.01598 0.220519 0
M  V30 2918 C 264.681 -1.54594 -1.17535 0
M  V30 2919 O 263.956 -0.755177 -1.79241 0
M  V30 2920 C 264.239 -3.59062 0.273243 0
M  V30 2921 C 264.092 -4.16203 1.70573 0
M  V30 2922 C 265.411 -4.38546 -0.369457 0
M  V30 2923 H 262.53 -0.732468 0.0816045 0
M  V30 2924 H 265.172 -1.68445 0.878986 0
M  V30 2925 H 263.322 -3.87435 -0.287411 0
M  V30 2926 H 264.994 -3.98722 2.31989 0
M  V30 2927 H 263.237 -3.71414 2.2413 0
M  V30 2928 H 263.908 -5.25358 1.69419 0
M  V30 2929 H 266.384 -4.1596 0.107977 0
M  V30 2930 H 265.26 -5.48069 -0.302002 0
M  V30 2931 H 265.521 -4.17662 -1.44951 0
M  V30 2932 N 264.58 -0.43555 -1.51462 0
M  V30 2933 C 265.829 0.133007 -2.01261 0
M  V30 2934 C 266.142 1.43942 -1.32439 0
M  V30 2935 O 267.348 2.09081 -1.73198 0
M  V30 2936 C 265.804 0.287581 -3.58749 0
M  V30 2937 C 265.412 -1.00829 -4.36506 0
M  V30 2938 C 267.156 0.810004 -4.167 0
M  V30 2939 C 265.063 -0.819454 -5.85695 0
M  V30 2940 H 263.993 0.0534822 -0.752101 0
M  V30 2941 H 266.644 -0.565038 -1.74584 0
M  V30 2942 H 265.026 1.04859 -3.81865 0
M  V30 2943 H 266.2 -1.77749 -4.25138 0
M  V30 2944 H 264.515 -1.45911 -3.89999 0
M  V30 2945 H 267.112 0.967743 -5.2587 0
M  V30 2946 H 267.455 1.79196 -3.75758 0
M  V30 2947 H 267.988 0.107357 -3.97655 0
M  V30 2948 H 264.727 -1.77374 -6.31046 0
M  V30 2949 H 264.247 -0.0900208 -5.99732 0
M  V30 2950 H 265.926 -0.471949 -6.45276 0
M  V30 2951 N 266.058 1.56714 -0.166846 0
M  V30 2952 C 267.288 2.00828 0.48494 0
M  V30 2953 C 267.696 1.04612 1.57648 0
M  V30 2954 O 267.039 0.0383201 1.8366 0
M  V30 2955 C 267.101 3.4137 1.12723 0
M  V30 2956 C 266.765 4.56654 0.177886 0
M  V30 2957 C 267.762 5.16402 -0.60207 0
M  V30 2958 C 265.447 5.02244 0.0750139 0
M  V30 2959 C 267.441 6.20167 -1.47215 0
M  V30 2960 C 265.128 6.05859 -0.798649 0
M  V30 2961 C 266.126 6.64691 -1.57082 0
M  V30 2962 O 265.814 7.66297 -2.42989 0
M  V30 2963 H 265.546 0.663587 0.128953 0
M  V30 2964 H 268.1 2.03692 -0.264365 0
M  V30 2965 H 266.33 3.35406 1.92457 0
M  V30 2966 H 268.019 3.69466 1.68076 0
M  V30 2967 H 268.785 4.82065 -0.53274 0
M  V30 2968 H 264.664 4.56167 0.665812 0
M  V30 2969 H 268.208 6.66016 -2.07531 0
M  V30 2970 H 264.105 6.39621 -0.869199 0
M  V30 2971 H 264.873 7.83601 -2.36455 0
M  V30 2972 N 267.536 -0.106894 1.57237 0
M  V30 2973 C 268.468 -1.15646 1.97885 0
M  V30 2974 C 269.481 -1.36981 0.879779 0
M  V30 2975 O 270.67 -1.35841 1.15799 0
M  V30 2976 C 267.77 -2.51425 2.27241 0
M  V30 2977 C 266.943 -2.50529 3.58545 0
M  V30 2978 C 266.002 -3.68145 3.75973 0
M  V30 2979 O 265.028 -3.51176 4.47956 0
M  V30 2980 N 266.23 -4.87177 3.15656 0
M  V30 2981 H 268.995 -0.81059 2.8853 0
M  V30 2982 H 266.556 -0.296024 1.59171 0
M  V30 2983 H 268.548 -3.28689 2.36105 0
M  V30 2984 H 267.118 -2.78147 1.42663 0
M  V30 2985 H 266.338 -1.58894 3.60758 0
M  V30 2986 H 267.626 -2.46997 4.44826 0
M  V30 2987 H 267.024 -5.03868 2.57165 0
M  V30 2988 H 265.581 -5.62075 3.30023 0
M  V30 2989 N 269.014 -1.53014 -0.377408 0
M  V30 2990 C 270.244 -1.72265 -1.14054 0
M  V30 2991 C 270.652 -0.44601 -1.83868 0
M  V30 2992 O 269.995 0.590095 -1.73964 0
M  V30 2993 C 270.057 -2.82492 -2.22348 0
M  V30 2994 C 269.721 -4.23233 -1.72402 0
M  V30 2995 C 270.718 -5.05992 -1.19448 0
M  V30 2996 C 268.403 -4.696 -1.78273 0
M  V30 2997 C 270.397 -6.33203 -0.730268 0
M  V30 2998 C 268.084 -5.96792 -1.31464 0
M  V30 2999 C 269.082 -6.78424 -0.789297 0
M  V30 3000 O 268.77 -8.0323 -0.328077 0
M  V30 3001 H 268.502 -0.579873 -0.347453 0
M  V30 3002 H 271.056 -2.00502 -0.445882 0
M  V30 3003 H 269.286 -2.49702 -2.95272 0
M  V30 3004 H 270.975 -2.90034 -2.83963 0
M  V30 3005 H 271.741 -4.71349 -1.14259 0
M  V30 3006 H 267.62 -4.06142 -2.18106 0
M  V30 3007 H 271.164 -6.96868 -0.319542 0
M  V30 3008 H 267.061 -6.30937 -1.36342 0
M  V30 3009 H 267.829 -8.1727 -0.448493 0
M  V30 3010 N 270.492 0.636531 -1.44174 0
M  V30 3011 C 271.425 1.76139 -1.45087 0
M  V30 3012 C 272.403 1.59611 -0.310326 0
M  V30 3013 O 273.587 1.81568 -0.506477 0
M  V30 3014 C 270.714 3.13648 -1.27839 0
M  V30 3015 C 269.76 3.48838 -2.45386 0
M  V30 3016 S 270.593 3.46927 -4.07924 0
M  V30 3017 C 271.749 4.87064 -3.9309 0
M  V30 3018 H 271.982 1.75096 -2.40268 0
M  V30 3019 H 269.515 0.810666 -1.31406 0
M  V30 3020 H 271.473 3.93002 -1.18575 0
M  V30 3021 H 270.134 3.12235 -0.341787 0
M  V30 3022 H 269.327 4.48886 -2.29167 0
M  V30 3023 H 268.929 2.76935 -2.51362 0
M  V30 3024 H 271.221 5.76153 -3.56446 0
M  V30 3025 H 272.164 5.08337 -4.92949 0
M  V30 3026 H 272.572 4.61384 -3.25246 0
M  V30 3027 N 271.97 1.30982 0.876444 0
M  V30 3028 C 273.247 1.10942 1.61094 0
M  V30 3029 C 273.627 -0.338223 2.08373 0
M  V30 3030 O 272.975 -1.33122 1.85717 0
M  V30 3031 C 273.185 2.11789 2.77392 0
M  V30 3032 C 274.533 2.43965 3.47514 0
M  V30 3033 O 275.557 2.10166 2.87591 0
M  V30 3034 O 274.416 3.01817 4.55597 0
M  V30 3035 H 271.51 0.42667 0.708436 0
M  V30 3036 H 274.056 1.42438 0.922474 0
M  V30 3037 H 272.828 3.09194 2.39823 0
M  V30 3038 H 272.451 1.81161 3.5393 0
M  V30 3039 N 273.449 -1.08991 1.13837 0
M  V30 3040 C 274.726 -1.77863 0.813876 0
M  V30 3041 C 275.106 -1.99375 -0.693746 0
M  V30 3042 O 274.454 -1.59875 -1.63255 0
M  V30 3043 C 274.664 -3.0986 1.60586 0
M  V30 3044 C 276.012 -3.84493 1.8014 0
M  V30 3045 O 277.036 -3.19624 1.57222 0
M  V30 3046 O 275.895 -5.00957 2.18413 0
M  V30 3047 H 272.989 -0.771589 0.297624 0
M  V30 3048 H 275.535 -1.15507 1.24323 0
M  V30 3049 H 274.307 -2.89715 2.63022 0
M  V30 3050 H 273.93 -3.79942 1.17173 0
M  V30 3051 N 274.927 -0.932562 -1.27047 0
M  V30 3052 C 275.857 -0.452902 -2.29066 0
M  V30 3053 C 276.838 0.489338 -1.62909 0
M  V30 3054 O 278.023 0.393046 -1.90181 0
M  V30 3055 C 275.153 0.290698 -3.46081 0
M  V30 3056 C 274.107 -0.564168 -4.24265 0
M  V30 3057 C 273.433 0.308886 -5.33807 0
M  V30 3058 C 274.733 -1.83112 -4.89149 0
M  V30 3059 H 276.427 -1.30552 -2.69437 0
M  V30 3060 H 273.973 -0.629201 -1.29526 0
M  V30 3061 H 275.926 0.637233 -4.16554 0
M  V30 3062 H 274.65 1.17738 -3.0464 0
M  V30 3063 H 273.309 -0.893477 -3.55545 0
M  V30 3064 H 272.957 1.19467 -4.88607 0
M  V30 3065 H 272.657 -0.259633 -5.87026 0
M  V30 3066 H 274.181 0.650884 -6.07121 0
M  V30 3067 H 275.595 -1.55236 -5.51883 0
M  V30 3068 H 273.992 -2.34353 -5.52448 0
M  V30 3069 H 275.062 -2.54772 -4.12576 0
M  V30 3070 N 276.405 1.4127 -0.698611 0
M  V30 3071 C 277.635 2.05205 -0.239644 0
M  V30 3072 C 278.043 1.52684 1.11733 0
M  V30 3073 O 277.386 0.671222 1.70998 0
M  V30 3074 C 277.448 3.59289 -0.123126 0
M  V30 3075 C 277.112 4.34619 -1.41263 0
M  V30 3076 C 278.109 4.63701 -2.35111 0
M  V30 3077 C 275.794 4.73837 -1.66684 0
M  V30 3078 C 277.788 5.30966 -3.52639 0
M  V30 3079 C 275.475 5.40837 -2.84498 0
M  V30 3080 C 276.473 5.69329 -3.77298 0
M  V30 3081 O 276.161 6.34949 -4.93047 0
M  V30 3082 H 275.893 0.66723 -0.108537 0
M  V30 3083 H 278.447 1.81974 -0.952602 0
M  V30 3084 H 276.677 3.81272 0.645628 0
M  V30 3085 H 278.366 4.04797 0.299056 0
M  V30 3086 H 279.132 4.33882 -2.16729 0
M  V30 3087 H 275.011 4.51039 -0.953135 0
M  V30 3088 H 278.555 5.53121 -4.25091 0
M  V30 3089 H 274.452 5.70075 -3.02795 0
M  V30 3090 H 275.22 6.53445 -4.92902 0
M  V30 3091 N 277.883 0.443576 1.51229 0
M  V30 3092 C 279.129 -0.120975 2.02439 0
M  V30 3093 C 279.462 -1.41815 1.32674 0
M  V30 3094 O 278.737 -1.89373 0.443622 0
M  V30 3095 C 279.02 -0.333291 3.58554 0
M  V30 3096 C 278.873 0.982968 4.38928 0
M  V30 3097 C 280.192 -1.10028 4.26124 0
M  V30 3098 H 277.311 -0.0424923 0.735774 0
M  V30 3099 H 279.953 0.583794 1.80809 0
M  V30 3100 H 278.103 -0.933614 3.77115 0
M  V30 3101 H 279.775 1.61775 4.32003 0
M  V30 3102 H 278.018 1.58611 4.03763 0
M  V30 3103 H 278.689 0.788379 5.46341 0
M  V30 3104 H 281.165 -0.591711 4.11871 0
M  V30 3105 H 280.041 -1.21761 5.35225 0
M  V30 3106 H 280.302 -2.12996 3.87408 0
M  V30 3107 N 279.361 -1.56624 0.175154 0
M  V30 3108 C 280.609 -1.96609 -0.467885 0
M  V30 3109 C 280.93 -1.06238 -1.63519 0
M  V30 3110 O 280.2 -0.129523 -1.95471 0
M  V30 3111 H 278.78 -0.726008 -0.175845 0
M  V30 3112 H 281.442 -1.93195 0.257234 0
M  V30 3113 H 280.538 -3.00989 -0.825342 0
M  V30 3114 N 280.839 0.0985539 -1.57292 0
M  V30 3115 C 282.064 0.820196 -1.90493 0
M  V30 3116 C 282.489 1.71658 -0.769094 0
M  V30 3117 O 281.847 1.79133 0.279495 0
M  V30 3118 C 281.895 1.61242 -3.22542 0
M  V30 3119 O 280.999 2.72108 -3.09888 0
M  V30 3120 H 280.34 0.225547 -0.62452 0
M  V30 3121 H 282.87 0.0748159 -2.04463 0
M  V30 3122 H 282.88 1.99737 -3.55766 0
M  V30 3123 H 281.555 0.954535 -4.04798 0
M  V30 3124 H 280.132 2.36667 -2.88172 0
M  V30 3125 N 282.317 1.53212 0.369288 0
M  V30 3126 C 283.594 1.59815 1.12776 0
M  V30 3127 C 283.974 0.403402 2.0721 0
M  V30 3128 O 283.322 -0.606667 2.20299 0
M  V30 3129 C 283.532 2.94664 1.87013 0
M  V30 3130 C 284.88 3.49109 2.41677 0
M  V30 3131 O 285.904 2.96669 1.97144 0
M  V30 3132 O 284.763 4.40775 3.23079 0
M  V30 3133 H 281.857 0.645376 0.517125 0
M  V30 3134 H 284.403 1.65553 0.37285 0
M  V30 3135 H 283.175 3.73061 1.18071 0
M  V30 3136 H 282.798 2.92401 2.69421 0
M  V30 3137 N 283.795 -0.628877 1.44509 0
M  V30 3138 C 284.725 -1.75187 1.54376 0
M  V30 3139 C 285.706 -1.65411 0.396618 0
M  V30 3140 O 286.891 -1.84137 0.617031 0
M  V30 3141 C 284.021 -3.13725 1.48976 0
M  V30 3142 C 282.975 -3.38291 2.62189 0
M  V30 3143 C 282.301 -4.76883 2.41841 0
M  V30 3144 C 283.601 -3.30632 4.04326 0
M  V30 3145 H 285.295 -1.67187 2.48373 0
M  V30 3146 H 282.841 -0.802909 1.19538 0
M  V30 3147 H 284.794 -3.92064 1.54478 0
M  V30 3148 H 283.518 -3.22515 0.514961 0
M  V30 3149 H 282.177 -2.62334 2.56079 0
M  V30 3150 H 281.825 -4.82378 1.42548 0
M  V30 3151 H 281.525 -4.94278 3.17747 0
M  V30 3152 H 283.049 -5.57449 2.49165 0
M  V30 3153 H 284.463 -3.98873 4.11793 0
M  V30 3154 H 282.86 -3.59561 4.80454 0
M  V30 3155 H 283.93 -2.28404 4.27738 0
M  V30 3156 N 285.273 -1.31445 -0.869486 0
M  V30 3157 C 286.183 -1.21097 -2.0093 0
M  V30 3158 C 287.199 -0.127584 -1.73532 0
M  V30 3159 O 288.375 -0.345477 -1.98415 0
M  V30 3160 C 285.44 -0.919378 -3.34288 0
M  V30 3161 C 284.501 -2.08971 -3.75006 0
M  V30 3162 C 283.734 -1.81194 -5.02001 0
M  V30 3163 O 283.957 -0.747296 -5.65484 0
M  V30 3164 O 282.891 -2.66883 -5.39497 0
M  V30 3165 H 286.717 -2.16883 -2.12592 0
M  V30 3166 H 284.302 -1.11189 -0.997868 0
M  V30 3167 H 286.184 -0.772625 -4.14257 0
M  V30 3168 H 284.859 0.00844772 -3.23699 0
M  V30 3169 H 283.766 -2.29187 -2.95676 0
M  V30 3170 H 285.099 -2.9998 -3.90221 0
M  V30 3171 N 286.751 1.08385 -1.14413 0
M  V30 3172 C 288 1.80153 -0.907076 0
M  V30 3173 C 288.313 1.87176 0.567851 0
M  V30 3174 O 289.519 2.55359 0.922172 0
M  V30 3175 C 287.975 3.23687 -1.57336 0
M  V30 3176 C 287.583 3.24897 -3.08457 0
M  V30 3177 C 289.327 4.00136 -1.41744 0
M  V30 3178 C 287.234 4.6302 -3.67921 0
M  V30 3179 H 286.164 0.675139 -0.335714 0
M  V30 3180 H 288.815 1.21733 -1.37307 0
M  V30 3181 H 287.197 3.82234 -1.03505 0
M  V30 3182 H 288.371 2.76055 -3.68958 0
M  V30 3183 H 286.686 2.61943 -3.2369 0
M  V30 3184 H 289.283 5.02201 -1.83572 0
M  V30 3185 H 289.626 4.14709 -0.363576 0
M  V30 3186 H 290.159 3.48058 -1.92614 0
M  V30 3187 H 286.898 4.5365 -4.73161 0
M  V30 3188 H 286.418 5.12143 -3.12201 0
M  V30 3189 H 288.097 5.31994 -3.68227 0
M  V30 3190 N 288.23 0.939286 1.26551 0
M  V30 3191 C 289.478 0.58469 1.93457 0
M  V30 3192 C 289.799 -0.878774 1.74076 0
M  V30 3193 O 289.069 -1.62421 1.09528 0
M  V30 3194 H 287.649 0.21325 0.715914 0
M  V30 3195 H 290.311 1.1942 1.54029 0
M  V30 3196 H 289.407 0.800849 3.0165 0
M  V30 3197 N 289.708 -1.40897 0.706093 0
M  V30 3198 C 290.64 -2.29199 0.00815776 0
M  V30 3199 C 291.653 -1.45336 -0.733582 0
M  V30 3200 O 292.842 -1.68727 -0.582537 0
M  V30 3201 C 289.942 -3.23417 -1.01265 0
M  V30 3202 C 289.115 -4.36089 -0.338387 0
M  V30 3203 C 288.174 -5.10811 -1.26326 0
M  V30 3204 O 287.2 -5.64215 -0.751651 0
M  V30 3205 N 288.402 -5.19269 -2.595 0
M  V30 3206 H 291.167 -2.89738 0.766297 0
M  V30 3207 H 288.728 -1.52164 0.55296 0
M  V30 3208 H 290.72 -3.70276 -1.63334 0
M  V30 3209 H 289.29 -2.64112 -1.67223 0
M  V30 3210 H 288.51 -3.91479 0.462352 0
M  V30 3211 H 289.798 -5.08634 0.130031 0
M  V30 3212 H 289.196 -4.77347 -3.03573 0
M  V30 3213 H 287.753 -5.69667 -3.16737 0
M  V30 3214 N 291.186 -0.45159 -1.50991 0
M  V30 3215 C 292.136 0.370861 -2.24964 0
M  V30 3216 C 293.12 0.978074 -1.2776 0
M  V30 3217 O 294.312 0.893854 -1.52772 0
M  V30 3218 C 291.441 1.46344 -3.10545 0
M  V30 3219 C 290.527 0.864924 -4.15187 0
M  V30 3220 N 290.918 -0.00311354 -5.058 0
M  V30 3221 C 289.216 1.13099 -4.31422 0
M  V30 3222 C 289.917 -0.340772 -5.80701 0
M  V30 3223 N 288.893 0.279203 -5.42883 0
M  V30 3224 H 292.695 -0.298134 -2.92384 0
M  V30 3225 H 290.209 -0.264528 -1.60231 0
M  V30 3226 H 292.206 2.06565 -3.62128 0
M  V30 3227 H 290.866 2.13463 -2.4467 0
M  V30 3228 H 291.877 -0.37058 -5.16572 0
M  V30 3229 H 288.554 1.79861 -3.76771 0
M  V30 3230 H 289.944 -1.048 -6.63677 0
M  V30 3231 N 292.664 1.56529 -0.183458 0
M  V30 3232 C 294.08 1.58664 0.172554 0
M  V30 3233 C 294.28 1.19925 1.61926 0
M  V30 3234 O 293.336 0.916534 2.35278 0
M  V30 3235 C 294.649 3.00463 -0.119262 0
M  V30 3236 C 296.197 3.12945 -0.0584396 0
M  V30 3237 C 296.672 4.56857 -0.323408 0
M  V30 3238 N 298.163 4.62403 -0.271612 0
M  V30 3239 C 298.898 5.71626 -0.450639 0
M  V30 3240 N 298.394 6.89362 -0.689384 0
M  V30 3241 N 300.187 5.60775 -0.385701 0
M  V30 3242 H 292.338 1.79994 -1.12765 0
M  V30 3243 H 294.601 0.834808 -0.449222 0
M  V30 3244 H 294.307 3.33326 -1.12192 0
M  V30 3245 H 294.181 3.72659 0.583544 0
M  V30 3246 H 296.568 2.79902 0.934805 0
M  V30 3247 H 296.649 2.4316 -0.794144 0
M  V30 3248 H 296.293 4.9061 -1.31392 0
M  V30 3249 H 296.223 5.24816 0.43305 0
M  V30 3250 H 298.714 3.77785 -0.0932256 0
M  V30 3251 H 299.027 7.68489 -0.815113 0
M  V30 3252 H 297.372 6.91196 -0.726142 0
M  V30 3253 H 300.563 4.67674 -0.199687 0
M  V30 3254 H 300.736 6.4584 -0.528646 0
M  V30 3255 N 294.142 -0.090211 1.57342 0
M  V30 3256 C 295.37 -0.806224 1.90546 0
M  V30 3257 C 295.785 -1.72041 0.777644 0
M  V30 3258 O 295.142 -1.80778 -0.250103 0
M  V30 3259 C 295.193 -1.61546 3.23396 0
M  V30 3260 O 294.914 -0.738043 4.31839 0
M  V30 3261 C 296.415 -2.4341 3.70495 0
M  V30 3262 H 293.635 -0.230256 0.630257 0
M  V30 3263 H 296.179 -0.0659843 2.04394 0
M  V30 3264 H 294.334 -2.30816 3.11131 0
M  V30 3265 H 294.748 -1.29901 5.08159 0
M  V30 3266 H 296.222 -2.95676 4.66133 0
M  V30 3267 H 296.699 -3.22098 2.98579 0
M  V30 3268 H 297.305 -1.79331 3.85643 0
M  V30 3269 N 295.62 -1.53406 -0.361157 0
M  V30 3270 C 296.567 -1.80156 -1.44265 0
M  V30 3271 C 297.537 -0.646183 -1.53015 0
M  V30 3272 O 298.722 -0.888818 -1.68833 0
M  V30 3273 C 295.862 -2.00116 -2.81154 0
M  V30 3274 C 294.975 -3.27833 -2.81335 0
M  V30 3275 C 294.11 -3.37957 -4.09828 0
M  V30 3276 C 293.149 -4.59689 -4.04168 0
M  V30 3277 N 292.286 -4.66942 -5.24318 0
M  V30 3278 H 297.126 -2.72438 -1.20754 0
M  V30 3279 H 294.663 -1.34954 -0.585296 0
M  V30 3280 H 296.621 -2.09677 -3.60682 0
M  V30 3281 H 295.251 -1.11167 -3.03054 0
M  V30 3282 H 294.303 -3.27204 -1.94014 0
M  V30 3283 H 295.615 -4.17442 -2.73027 0
M  V30 3284 H 294.769 -3.46853 -4.97773 0
M  V30 3285 H 293.508 -2.46372 -4.20894 0
M  V30 3286 H 292.513 -4.50889 -3.14609 0
M  V30 3287 H 293.738 -5.5262 -3.947 0
M  V30 3288 H 291.684 -3.7826 -5.35962 0
M  V30 3289 H 291.601 -5.50462 -5.18197 0
M  V30 3290 H 292.869 -4.80127 -6.14084 0
M  V30 3291 N 297.098 0.621204 -1.44841 0
M  V30 3292 C 298.347 1.37658 -1.47422 0
M  V30 3293 C 298.66 1.95264 -0.114629 0
M  V30 3294 O 299.866 2.71494 -0.0180199 0
M  V30 3295 C 298.322 2.49285 -2.59586 0
M  V30 3296 C 297.93 1.98149 -4.01797 0
M  V30 3297 C 299.674 3.26409 -2.71399 0
M  V30 3298 C 297.581 3.07178 -5.05367 0
M  V30 3299 H 296.511 0.517344 -0.548517 0
M  V30 3300 H 299.162 0.667257 -1.70938 0
M  V30 3301 H 297.544 3.22839 -2.29328 0
M  V30 3302 H 298.718 1.31395 -4.41669 0
M  V30 3303 H 297.033 1.33812 -3.94314 0
M  V30 3304 H 299.63 4.07706 -3.45948 0
M  V30 3305 H 299.973 3.76535 -1.77559 0
M  V30 3306 H 300.506 2.5995 -3.01116 0
M  V30 3307 H 297.245 2.61985 -6.00869 0
M  V30 3308 H 296.765 3.72542 -4.70077 0
M  V30 3309 H 298.444 3.71789 -5.29511 0
M  V30 3310 N 298.576 1.31904 0.862503 0
M  V30 3311 C 299.486 1.22161 2.00285 0
M  V30 3312 C 300.502 0.136785 1.73462 0
M  V30 3313 O 301.678 0.355994 1.98229 0
M  V30 3314 C 298.743 0.937093 3.33796 0
M  V30 3315 C 297.804 2.10957 3.73893 0
M  V30 3316 C 297.037 1.83853 5.01033 0
M  V30 3317 O 297.26 0.777274 5.65079 0
M  V30 3318 O 296.194 2.69741 5.38074 0
M  V30 3319 H 300.02 2.18008 2.11439 0
M  V30 3320 H 297.605 1.11716 0.991957 0
M  V30 3321 H 299.487 0.794583 4.13841 0
M  V30 3322 H 298.162 0.00871894 3.23699 0
M  V30 3323 H 297.069 2.30752 2.94456 0
M  V30 3324 H 298.402 3.02046 3.88625 0
M  V30 3325 N 300.054 -1.07777 1.14986 0
M  V30 3326 C 300.964 -2.18404 0.856546 0
M  V30 3327 C 301.98 -1.73211 -0.165485 0
M  V30 3328 O 303.156 -2.01399 0.00755219 0
M  V30 3329 C 300.221 -3.44977 0.34526 0
M  V30 3330 C 299.282 -4.0476 1.43065 0
M  V30 3331 C 298.515 -5.25291 0.943663 0
M  V30 3332 O 298.738 -5.70004 -0.212426 0
M  V30 3333 O 297.672 -5.76638 1.72547 0
M  V30 3334 H 301.498 -2.45978 1.78125 0
M  V30 3335 H 299.083 -1.17033 0.928631 0
M  V30 3336 H 300.965 -4.21348 0.0663671 0
M  V30 3337 H 299.64 -3.18965 -0.551631 0
M  V30 3338 H 298.547 -3.29949 1.76309 0
M  V30 3339 H 299.88 -4.35035 2.30229 0
M  V30 3340 N 301.532 -0.945985 -1.26051 0
M  V30 3341 C 302.462 -0.477172 -2.28572 0
M  V30 3342 C 303.443 0.472032 -1.63419 0
M  V30 3343 O 304.628 0.372853 -1.90587 0
M  V30 3344 C 301.758 0.253975 -3.4637 0
M  V30 3345 C 300.712 -0.609135 -4.23643 0
M  V30 3346 C 300.038 0.252252 -5.34105 0
M  V30 3347 C 301.338 -1.8829 -4.8718 0
M  V30 3348 H 303.032 -1.33402 -2.68038 0
M  V30 3349 H 300.578 -0.642904 -1.28852 0
M  V30 3350 H 302.531 0.593016 -4.17207 0
M  V30 3351 H 301.255 1.145 -3.05871 0
M  V30 3352 H 299.914 -0.931138 -3.54578 0
M  V30 3353 H 299.562 1.14278 -4.89846 0
M  V30 3354 H 299.262 -0.32188 -5.86718 0
M  V30 3355 H 300.786 0.586454 -6.07777 0
M  V30 3356 H 302.2 -1.61081 -5.50205 0
M  V30 3357 H 300.597 -2.40199 -5.49931 0
M  V30 3358 H 301.667 -2.59134 -4.09851 0
M  V30 3359 N 303.011 1.40521 -0.713556 0
M  V30 3360 C 304.427 1.54839 -0.386907 0
M  V30 3361 C 304.627 1.68532 1.1045 0
M  V30 3362 O 303.683 1.67377 1.89053 0
M  V30 3363 C 304.996 2.77792 -1.15118 0
M  V30 3364 C 306.544 2.91607 -1.13729 0
M  V30 3365 C 307.019 4.1747 -1.88368 0
M  V30 3366 N 308.51 4.24466 -1.85427 0
M  V30 3367 C 309.245 5.20755 -2.40004 0
M  V30 3368 N 308.741 6.22965 -3.03129 0
M  V30 3369 N 310.534 5.1282 -2.30158 0
M  V30 3370 H 302.685 1.29879 -1.68063 0
M  V30 3371 H 304.948 0.627896 -0.710247 0
M  V30 3372 H 304.654 2.73944 -2.20561 0
M  V30 3373 H 304.528 3.6984 -0.741477 0
M  V30 3374 H 306.915 2.94959 -0.0910608 0
M  V30 3375 H 306.996 2.00682 -1.5862 0
M  V30 3376 H 306.64 4.1488 -2.9298 0
M  V30 3377 H 306.57 5.074 -1.40898 0
M  V30 3378 H 309.061 3.51241 -1.3942 0
M  V30 3379 H 309.374 6.92859 -3.42295 0
M  V30 3380 H 307.719 6.23415 -3.07212 0
M  V30 3381 H 310.91 4.31899 -1.80501 0
M  V30 3382 H 311.083 5.87689 -2.72993 0
M  V30 3383 N 304.489 0.459591 1.5075 0
M  V30 3384 C 305.421 -0.37665 2.26084 0
M  V30 3385 C 306.434 -0.967109 1.30961 0
M  V30 3386 O 307.623 -0.857468 1.56556 0
M  V30 3387 C 304.723 -1.54112 3.01832 0
M  V30 3388 C 303.896 -1.06553 4.24223 0
M  V30 3389 C 302.955 -2.1027 4.82362 0
M  V30 3390 O 301.981 -1.68798 5.43595 0
M  V30 3391 N 303.183 -3.42974 4.68347 0
M  V30 3392 H 305.948 0.269124 2.98489 0
M  V30 3393 H 303.509 0.28972 1.59287 0
M  V30 3394 H 305.501 -2.23165 3.37608 0
M  V30 3395 H 304.071 -2.0918 2.32298 0
M  V30 3396 H 303.291 -0.201274 3.93686 0
M  V30 3397 H 304.579 -0.725516 5.03601 0
M  V30 3398 H 303.977 -3.79385 4.19623 0
M  V30 3399 H 302.534 -4.07858 5.08424 0
M  V30 3400 N 305.967 -1.56429 0.191757 0
M  V30 3401 C 306.917 -2.15548 -0.743184 0
M  V30 3402 C 307.901 -1.09531 -1.17863 0
M  V30 3403 O 309.093 -1.35602 -1.13759 0
M  V30 3404 C 306.222 -2.81577 -1.96391 0
M  V30 3405 C 305.308 -3.9478 -1.54951 0
M  V30 3406 N 305.699 -4.98677 -0.845876 0
M  V30 3407 C 303.997 -4.06319 -1.83905 0
M  V30 3408 C 304.698 -5.78183 -0.638724 0
M  V30 3409 N 303.674 -5.30495 -1.18643 0
M  V30 3410 H 307.476 -2.9324 -0.196839 0
M  V30 3411 H 304.99 -1.62398 -0.0081603 0
M  V30 3412 H 306.987 -3.22321 -2.64415 0
M  V30 3413 H 305.647 -2.05371 -2.51501 0
M  V30 3414 H 306.658 -5.15464 -0.501704 0
M  V30 3415 H 303.335 -3.41238 -2.40548 0
M  V30 3416 H 304.725 -6.71851 -0.0807929 0
M  V30 3417 N 307.445 0.0818655 -1.57387 0
M  V30 3418 C 308.375 1.09885 -2.06028 0
M  V30 3419 C 309.356 1.4098 -0.951774 0
M  V30 3420 O 310.541 1.50781 -1.22387 0
M  V30 3421 C 307.671 2.4151 -2.4958 0
M  V30 3422 C 306.625 2.24792 -3.64215 0
M  V30 3423 C 305.951 3.61712 -3.93787 0
M  V30 3424 C 307.251 1.67749 -4.94629 0
M  V30 3425 H 308.945 0.694128 -2.91243 0
M  V30 3426 H 306.491 0.332448 -1.4011 0
M  V30 3427 H 308.444 3.12939 -2.82219 0
M  V30 3428 H 307.168 2.83943 -1.61381 0
M  V30 3429 H 305.827 1.55807 -3.31843 0
M  V30 3430 H 305.475 4.01697 -3.02735 0
M  V30 3431 H 305.175 3.51368 -4.70971 0
M  V30 3432 H 306.699 4.34587 -4.28913 0
M  V30 3433 H 308.113 2.29032 -5.25564 0
M  V30 3434 H 306.51 1.68128 -5.76067 0
M  V30 3435 H 307.58 0.638059 -4.80684 0
M  V30 3436 N 308.923 1.53595 0.353017 0
M  V30 3437 C 309.853 1.83902 1.43883 0
M  V30 3438 C 310.834 0.693421 1.55324 0
M  V30 3439 O 312.019 0.944452 1.69687 0
M  V30 3440 C 309.149 2.04016 2.8106 0
M  V30 3441 C 308.103 3.19814 2.84434 0
M  V30 3442 C 307.429 3.25244 4.24406 0
M  V30 3443 C 308.729 4.58133 2.50822 0
M  V30 3444 H 310.423 2.74835 1.1877 0
M  V30 3445 H 307.969 1.32242 0.569917 0
M  V30 3446 H 309.922 2.238 3.57059 0
M  V30 3447 H 308.646 1.09804 3.07588 0
M  V30 3448 H 307.305 2.9987 2.10887 0
M  V30 3449 H 306.953 2.28646 4.48029 0
M  V30 3450 H 306.653 4.03054 4.27576 0
M  V30 3451 H 308.177 3.47228 5.0226 0
M  V30 3452 H 309.591 4.77995 3.16534 0
M  V30 3453 H 307.988 5.38276 2.6529 0
M  V30 3454 H 309.058 4.62387 1.46034 0
M  V30 3455 N 310.401 -0.613514 1.45168 0
M  V30 3456 C 311.817 -0.933629 1.29443 0
M  V30 3457 C 312.017 -2.00028 0.243101 0
M  V30 3458 O 311.073 -2.49848 -0.364992 0
M  V30 3459 C 312.386 -1.38018 2.67155 0
M  V30 3460 C 313.934 -1.49471 2.75004 0
M  V30 3461 C 314.409 -1.97503 4.13227 0
M  V30 3462 N 315.9 -2.04746 4.15491 0
M  V30 3463 C 316.635 -2.43121 5.19307 0
M  V30 3464 N 316.131 -2.80506 6.33473 0
M  V30 3465 N 317.924 -2.43408 5.06664 0
M  V30 3466 H 310.075 0.0916097 2.12202 0
M  V30 3467 H 312.338 -0.0216655 0.947752 0
M  V30 3468 H 312.044 -0.670625 3.45247 0
M  V30 3469 H 311.918 -2.34784 2.95222 0
M  V30 3470 H 314.305 -2.19519 1.9722 0
M  V30 3471 H 314.386 -0.510342 2.50657 0
M  V30 3472 H 314.03 -1.28045 4.91495 0
M  V30 3473 H 313.96 -2.96843 4.34962 0
M  V30 3474 H 316.451 -1.78468 3.33103 0
M  V30 3475 H 316.764 -3.08652 7.08487 0
M  V30 3476 H 315.109 -2.78216 6.36884 0
M  V30 3477 H 318.3 -2.13604 4.16523 0
M  V30 3478 H 318.473 -2.72989 5.87691 0
M  V30 3479 N 311.879 -1.3236 -0.855495 0
M  V30 3480 C 313.125 -1.24064 -1.61182 0
M  V30 3481 C 313.48 0.195914 -1.914 0
M  V30 3482 O 312.773 1.13345 -1.54478 0
M  V30 3483 C 312.967 -2.03275 -2.93963 0
M  V30 3484 C 312.796 -3.54486 -2.76712 0
M  V30 3485 C 311.566 -4.23824 -2.75139 0
M  V30 3486 C 313.764 -4.49154 -2.50531 0
M  V30 3487 N 311.746 -5.61095 -2.4909 0
M  V30 3488 C 313.117 -5.74195 -2.3388 0
M  V30 3489 C 315.172 -4.3842 -2.35992 0
M  V30 3490 C 313.875 -6.89716 -2.04168 0
M  V30 3491 C 315.901 -5.53739 -2.0767 0
M  V30 3492 C 315.263 -6.77779 -1.9182 0
M  V30 3493 H 311.362 -0.509139 -0.59355 0
M  V30 3494 H 313.946 -1.66715 -1.00569 0
M  V30 3495 H 312.117 -1.6297 -3.52555 0
M  V30 3496 H 313.849 -1.86881 -3.58967 0
M  V30 3497 H 310.604 -3.75934 -2.88047 0
M  V30 3498 H 311.028 -6.33411 -2.38996 0
M  V30 3499 H 315.67 -3.43172 -2.46967 0
M  V30 3500 H 313.388 -7.84977 -1.9193 0
M  V30 3501 H 316.974 -5.4736 -1.97201 0
M  V30 3502 H 315.854 -7.65504 -1.70217 0
M  V30 3503 N 313.357 1.07166 -1.15556 0
M  V30 3504 C 314.605 1.79443 -0.929764 0
M  V30 3505 C 314.926 1.87246 0.544414 0
M  V30 3506 O 314.196 1.37473 1.39564 0
M  V30 3507 H 312.776 0.664625 -0.341003 0
M  V30 3508 H 315.438 1.29499 -1.45657 0
M  V30 3509 H 314.534 2.81832 -1.34079 0
M  V30 3510 N 314.835 0.952656 1.25548 0
M  V30 3511 C 315.765 0.489287 2.28316 0
M  V30 3512 C 316.746 -0.463359 1.63667 0
M  V30 3513 O 317.931 -0.36274 1.90782 0
M  V30 3514 C 315.061 -0.235603 3.465 0
M  V30 3515 C 314.015 0.631593 4.23314 0
M  V30 3516 C 313.341 -0.223923 5.34231 0
M  V30 3517 C 314.641 1.90871 4.86174 0
M  V30 3518 H 316.335 1.34822 2.67326 0
M  V30 3519 H 313.881 0.649728 1.28509 0
M  V30 3520 H 315.834 -0.570882 4.17515 0
M  V30 3521 H 314.558 -1.12877 3.06474 0
M  V30 3522 H 313.217 0.949929 3.54079 0
M  V30 3523 H 312.865 -1.11678 4.90446 0
M  V30 3524 H 312.565 0.35299 5.86539 0
M  V30 3525 H 314.089 -0.554214 6.0808 0
M  V30 3526 H 315.503 1.63997 5.49343 0
M  V30 3527 H 313.9 2.43112 5.4865 0
M  V30 3528 H 314.97 2.61304 4.08471 0
M  V30 3529 N 316.313 -1.40141 0.720998 0
M  V30 3530 C 317.541 -2.05096 0.272656 0
M  V30 3531 C 317.956 -1.54334 -1.0875 0
M  V30 3532 O 317.313 -0.702211 -1.6845 0
M  V30 3533 C 317.364 -3.60636 0.249835 0
M  V30 3534 O 317.085 -4.09526 1.55629 0
M  V30 3535 C 318.586 -4.42772 -0.216396 0
M  V30 3536 H 315.806 -0.659897 0.121558 0
M  V30 3537 H 318.35 -1.79449 0.980723 0
M  V30 3538 H 316.505 -3.85232 -0.409237 0
M  V30 3539 H 316.919 -5.03758 1.4604 0
M  V30 3540 H 318.393 -5.51702 -0.181212 0
M  V30 3541 H 318.87 -4.20756 -1.25941 0
M  V30 3542 H 319.476 -4.23294 0.412596 0
M  V30 3543 N 317.792 -0.46758 -1.50504 0
M  V30 3544 C 319.02 0.0864133 -2.06719 0
M  V30 3545 C 319.435 1.33819 -1.33184 0
M  V30 3546 O 318.792 1.78061 -0.400083 0
M  V30 3547 C 318.843 0.378079 -3.59517 0
M  V30 3548 O 318.564 -0.824044 -4.3028 0
M  V30 3549 C 320.065 0.979426 -4.32345 0
M  V30 3550 H 317.285 -0.00551697 -0.670977 0
M  V30 3551 H 319.829 -0.655354 -1.93715 0
M  V30 3552 H 317.984 1.06977 -3.72337 0
M  V30 3553 H 318.398 -0.566518 -5.21432 0
M  V30 3554 H 319.872 1.1333 -5.40241 0
M  V30 3555 H 320.349 1.9686 -3.9261 0
M  V30 3556 H 320.955 0.326216 -4.24047 0
M  V30 3557 N 319.27 1.56325 -0.20005 0
M  V30 3558 C 320.681 1.8408 0.31167 0
M  V30 3559 C 321.032 1.12087 1.61031 0
M  V30 3560 O 320.157 0.38332 2.12978 0
M  V30 3561 C 320.752 3.33932 0.57226 0
M  V30 3562 C 319.311 3.6208 1.02834 0
M  V30 3563 C 318.458 2.77186 0.079634 0
M  V30 3564 H 321.409 1.52939 -0.423729 0
M  V30 3565 H 321.43 3.52971 1.42096 0
M  V30 3566 H 320.942 3.86303 -0.37308 0
M  V30 3567 H 319.043 3.15147 1.98778 0
M  V30 3568 H 319.156 4.7023 0.917624 0
M  V30 3569 H 317.52 2.47951 0.582448 0
M  V30 3570 H 318.303 3.32347 -0.860238 0
M  V30 3571 N 320.748 -0.0735177 1.57428 0
M  V30 3572 C 322.025 -0.805903 1.78226 0
M  V30 3573 C 322.405 -1.95874 0.787189 0
M  V30 3574 O 321.753 -2.2779 -0.180029 0
M  V30 3575 C 321.963 -1.28045 3.24662 0
M  V30 3576 C 323.311 -1.71453 3.88444 0
M  V30 3577 O 324.335 -1.37616 3.28543 0
M  V30 3578 O 323.194 -2.34093 4.93825 0
M  V30 3579 H 320.288 -0.386041 0.73137 0
M  V30 3580 H 322.834 -0.0537269 1.69615 0
M  V30 3581 H 321.606 -0.455476 3.8864 0
M  V30 3582 H 321.229 -2.094 3.37991 0
M  V30 3583 N 322.226 -1.5378 -0.344866 0
M  V30 3584 C 323.173 -1.81676 -1.42346 0
M  V30 3585 C 324.143 -0.662376 -1.52321 0
M  V30 3586 O 325.328 -0.906675 -1.67881 0
M  V30 3587 C 322.468 -2.03087 -2.79015 0
M  V30 3588 C 321.581 -3.30799 -2.77842 0
M  V30 3589 C 320.716 -3.42285 -4.0622 0
M  V30 3590 C 319.755 -4.6395 -3.9927 0
M  V30 3591 N 318.892 -4.72477 -5.19336 0
M  V30 3592 H 323.732 -2.73703 -1.17858 0
M  V30 3593 H 321.269 -1.35568 -0.570949 0
M  V30 3594 H 323.227 -2.1349 -3.58438 0
M  V30 3595 H 321.857 -1.14375 -3.01858 0
M  V30 3596 H 320.909 -3.29244 -1.90533 0
M  V30 3597 H 322.221 -4.20314 -2.68584 0
M  V30 3598 H 321.375 -3.52113 -4.94066 0
M  V30 3599 H 320.114 -2.50823 -4.18258 0
M  V30 3600 H 319.119 -4.54201 -3.09809 0
M  V30 3601 H 320.344 -5.56775 -3.88817 0
M  V30 3602 H 318.29 -3.83924 -5.3192 0
M  V30 3603 H 318.207 -5.55927 -5.12329 0
M  V30 3604 H 319.475 -4.86613 -6.08957 0
M  V30 3605 N 323.704 0.605807 -1.45491 0
M  V30 3606 C 324.651 1.7164 -1.54299 0
M  V30 3607 C 325.621 1.61486 -0.388761 0
M  V30 3608 O 326.806 1.81039 -0.602445 0
M  V30 3609 C 323.946 3.09953 -1.51734 0
M  V30 3610 C 323.059 3.309 -2.77721 0
M  V30 3611 C 322.194 4.59329 -2.66816 0
M  V30 3612 C 321.233 4.7354 -3.87848 0
M  V30 3613 N 320.37 5.9327 -3.75467 0
M  V30 3614 H 325.21 1.63449 -2.49176 0
M  V30 3615 H 322.747 0.796957 -1.23641 0
M  V30 3616 H 324.705 3.89977 -1.48235 0
M  V30 3617 H 323.335 3.17098 -0.604068 0
M  V30 3618 H 322.387 2.44639 -2.913 0
M  V30 3619 H 323.699 3.37274 -3.67488 0
M  V30 3620 H 322.853 5.4755 -2.61292 0
M  V30 3621 H 321.592 4.55355 -1.74651 0
M  V30 3622 H 320.597 3.83741 -3.93729 0
M  V30 3623 H 321.822 4.79309 -4.81082 0
M  V30 3624 H 319.768 5.90338 -2.86072 0
M  V30 3625 H 319.685 6.00811 -4.5887 0
M  V30 3626 H 320.953 6.83984 -3.73879 0
M  V30 3627 N 325.182 1.32811 0.848464 0
M  V30 3628 C 326.132 1.18842 1.94578 0
M  V30 3629 C 327.116 0.0937517 1.60627 0
M  V30 3630 O 328.308 0.320887 1.74067 0
M  V30 3631 C 325.437 0.91999 3.30743 0
M  V30 3632 C 324.523 2.05665 3.70894 0
M  V30 3633 N 324.914 3.30579 3.8282 0
M  V30 3634 C 323.212 1.9612 4.00566 0
M  V30 3635 C 323.913 4.05067 4.17487 0
M  V30 3636 N 322.889 3.33419 4.2934 0
M  V30 3637 H 326.691 2.13536 2.0194 0
M  V30 3638 H 324.205 1.2468 1.0406 0
M  V30 3639 H 326.202 0.800859 4.09136 0
M  V30 3640 H 324.862 -0.0185076 3.24695 0
M  V30 3641 H 325.873 3.65441 3.66978 0
M  V30 3642 H 322.55 1.09871 4.02784 0
M  V30 3643 H 323.94 5.12815 4.34131 0
M  V30 3644 N 326.66 -1.06551 1.16123 0
M  V30 3645 C 327.592 -2.13908 0.823171 0
M  V30 3646 C 328.605 -1.61926 -0.16843 0
M  V30 3647 O 329.794 -1.78412 0.055962 0
M  V30 3648 C 326.894 -3.38283 0.204424 0
M  V30 3649 C 326.067 -4.19589 1.23548 0
M  V30 3650 C 325.126 -5.2233 0.637011 0
M  V30 3651 O 324.152 -5.54034 1.30516 0
M  V30 3652 N 325.354 -5.77621 -0.577474 0
M  V30 3653 H 328.119 -2.43508 1.74711 0
M  V30 3654 H 325.68 -1.2253 1.05821 0
M  V30 3655 H 327.672 -4.0416 -0.208909 0
M  V30 3656 H 326.242 -3.06329 -0.623012 0
M  V30 3657 H 325.462 -3.49406 1.82507 0
M  V30 3658 H 326.75 -4.70718 1.93137 0
M  V30 3659 H 326.148 -5.54125 -1.13853 0
M  V30 3660 H 324.705 -6.45087 -0.933053 0
M  V30 3661 N 328.138 -0.959301 -1.25041 0
M  V30 3662 C 329.085 -0.482057 -2.2571 0
M  V30 3663 C 330.055 0.467939 -1.59372 0
M  V30 3664 O 331.24 0.380159 -1.86974 0
M  V30 3665 C 328.38 0.229623 -3.44335 0
M  V30 3666 C 327.493 -0.758156 -4.25295 0
M  V30 3667 C 326.628 -0.0234403 -5.31195 0
M  V30 3668 C 325.667 -1.00184 -6.03846 0
M  V30 3669 N 324.804 -0.29769 -7.01469 0
M  V30 3670 H 329.644 -1.34538 -2.65901 0
M  V30 3671 H 327.181 -0.674592 -1.3072 0
M  V30 3672 H 329.139 0.658856 -4.11965 0
M  V30 3673 H 327.769 1.05696 -3.05005 0
M  V30 3674 H 326.821 -1.30586 -3.57284 0
M  V30 3675 H 328.133 -1.50458 -4.75567 0
M  V30 3676 H 327.287 0.464201 -6.04922 0
M  V30 3677 H 326.026 0.755741 -4.81809 0
M  V30 3678 H 325.031 -1.50044 -5.2893 0
M  V30 3679 H 326.256 -1.78133 -6.55321 0
M  V30 3680 H 324.202 0.462668 -6.54366 0
M  V30 3681 H 324.119 -0.983128 -7.4958 0
M  V30 3682 H 325.387 0.16826 -7.79318 0
M  V30 3683 N 329.616 1.39756 -0.72842 0
M  V30 3684 C 330.526 2.34444 -0.0855374 0
M  V30 3685 C 331.542 1.57976 0.729356 0
M  V30 3686 O 332.718 1.90301 0.659346 0
M  V30 3687 C 329.783 3.36965 0.815798 0
M  V30 3688 C 328.844 4.29299 -0.0105996 0
M  V30 3689 C 328.077 5.26923 0.84781 0
M  V30 3690 O 328.3 5.30859 2.08673 0
M  V30 3691 O 327.234 6.01249 0.279969 0
M  V30 3692 H 331.06 2.91065 -0.866892 0
M  V30 3693 H 328.645 1.4117 -0.48902 0
M  V30 3694 H 330.527 3.99804 1.33171 0
M  V30 3695 H 329.202 2.82739 1.57608 0
M  V30 3696 H 328.109 3.69703 -0.571877 0
M  V30 3697 H 329.442 4.86712 -0.73295 0
M  V30 3698 N 331.094 0.475555 1.50254 0
M  V30 3699 C 332.505 0.0215174 1.86688 0
M  V30 3700 C 332.856 -1.38467 1.39001 0
M  V30 3701 O 331.981 -2.02732 0.756894 0
M  V30 3702 C 332.576 0.0322715 3.38785 0
M  V30 3703 C 331.135 -0.366314 3.74613 0
M  V30 3704 C 330.282 0.415832 2.74164 0
M  V30 3705 H 333.233 0.689612 1.42934 0
M  V30 3706 H 333.254 -0.76889 3.7265 0
M  V30 3707 H 332.766 1.05584 3.73462 0
M  V30 3708 H 330.867 -1.39406 3.45538 0
M  V30 3709 H 330.98 -0.064555 4.79057 0
M  V30 3710 H 329.344 -0.131048 2.54363 0
M  V30 3711 H 330.127 1.43899 3.11686 0
M  V30 3712 N 332.573 -1.56217 0.208337 0
M  V30 3713 C 333.984 -1.84243 -0.301904 0
M  V30 3714 C 334.335 -1.12939 -1.60434 0
M  V30 3715 O 333.46 -0.39461 -2.12772 0
M  V30 3716 C 334.055 -3.34231 -0.554543 0
M  V30 3717 C 332.614 -3.62621 -1.00912 0
M  V30 3718 C 331.761 -2.77224 -0.064933 0
M  V30 3719 H 334.712 -1.52712 0.431833 0
M  V30 3720 H 334.733 -3.5372 -1.40223 0
M  V30 3721 H 334.245 -3.86099 0.393561 0
M  V30 3722 H 332.346 -3.16197 -1.97104 0
M  V30 3723 H 332.459 -4.7071 -0.892674 0
M  V30 3724 H 330.823 -2.48256 -0.56929 0
M  V30 3725 H 331.606 -3.31887 0.877851 0
M  V30 3726 N 334.051 0.0651679 -1.57465 0
M  V30 3727 C 335.298 0.763063 -1.87573 0
M  V30 3728 C 335.626 1.77242 -0.800961 0
M  V30 3729 O 334.881 1.94651 0.202316 0
M  V30 3730 C 335.18 1.50081 -3.24362 0
M  V30 3731 C 334.846 0.630816 -4.46466 0
M  V30 3732 C 333.508 0.391082 -4.79608 0
M  V30 3733 C 335.86 0.0279465 -5.21193 0
M  V30 3734 C 333.188 -0.460894 -5.84887 0
M  V30 3735 C 335.54 -0.811522 -6.27373 0
M  V30 3736 C 334.204 -1.06106 -6.59013 0
M  V30 3737 H 333.474 0.279224 -0.686378 0
M  V30 3738 H 336.121 0.0236726 -1.91485 0
M  V30 3739 H 334.426 2.31258 -3.16271 0
M  V30 3740 H 336.123 2.04571 -3.44894 0
M  V30 3741 H 332.713 0.8278 -4.2053 0
M  V30 3742 H 336.897 0.200262 -4.95896 0
M  V30 3743 H 332.153 -0.662907 -6.07796 0
M  V30 3744 H 336.327 -1.28537 -6.84435 0
M  V30 3745 H 333.954 -1.723 -7.40417 0
M  V30 3746 N 335.529 1.53961 0.336706 0
M  V30 3747 C 336.459 1.85417 1.41925 0
M  V30 3748 C 337.44 0.709856 1.5458 0
M  V30 3749 O 338.625 0.962396 1.68676 0
M  V30 3750 C 335.755 2.06985 2.78881 0
M  V30 3751 C 334.709 3.22813 2.81026 0
M  V30 3752 C 334.035 3.29727 4.20932 0
M  V30 3753 C 335.335 4.60767 2.45949 0
M  V30 3754 H 337.029 2.76079 1.15848 0
M  V30 3755 H 334.575 1.32839 0.555859 0
M  V30 3756 H 336.528 2.27575 3.54665 0
M  V30 3757 H 335.252 1.13061 3.06406 0
M  V30 3758 H 333.911 3.0209 2.07695 0
M  V30 3759 H 333.559 2.33385 4.45579 0
M  V30 3760 H 333.259 4.07566 4.23277 0
M  V30 3761 H 334.783 3.52536 4.98549 0
M  V30 3762 H 336.197 4.81325 3.11446 0
M  V30 3763 H 334.594 5.4106 2.59566 0
M  V30 3764 H 335.664 4.6391 1.41122 0
M  V30 3765 N 337.007 -0.598083 1.45811 0
M  V30 3766 C 338.253 -1.35679 1.51535 0
M  V30 3767 C 338.608 -1.91745 0.15864 0
M  V30 3768 O 337.901 -1.72654 -0.830724 0
M  V30 3769 C 338.095 -2.51669 2.53766 0
M  V30 3770 C 337.924 -2.06963 3.99245 0
M  V30 3771 C 336.694 -1.92693 4.67116 0
M  V30 3772 C 338.892 -1.63855 4.875 0
M  V30 3773 N 336.874 -1.41897 5.97276 0
M  V30 3774 C 338.245 -1.24541 6.07363 0
M  V30 3775 C 340.3 -1.51533 4.74281 0
M  V30 3776 C 339.003 -0.741354 7.15469 0
M  V30 3777 C 341.029 -1.0253 5.82444 0
M  V30 3778 C 340.391 -0.641869 7.01469 0
M  V30 3779 H 336.49 -0.490042 0.609412 0
M  V30 3780 H 339.074 -0.682687 1.82339 0
M  V30 3781 H 337.245 -3.16663 2.24898 0
M  V30 3782 H 338.977 -3.18578 2.4958 0
M  V30 3783 H 335.732 -2.1417 4.22408 0
M  V30 3784 H 336.156 -1.18704 6.66512 0
M  V30 3785 H 340.798 -1.798 3.82664 0
M  V30 3786 H 338.516 -0.446243 8.06867 0
M  V30 3787 H 342.102 -0.934088 5.74253 0
M  V30 3788 H 340.982 -0.268531 7.8374 0
M  V30 3789 N 338.485 -1.33259 -0.841409 0
M  V30 3790 C 339.418 -1.1764 -1.95541 0
M  V30 3791 C 340.396 -0.072501 -1.62438 0
M  V30 3792 O 341.58 -0.23427 -1.87039 0
M  V30 3793 C 338.707 -0.803794 -3.29024 0
M  V30 3794 C 337.753 -1.91482 -3.81099 0
M  V30 3795 S 338.586 -3.52538 -4.03085 0
M  V30 3796 C 339.742 -3.17279 -5.39523 0
M  V30 3797 H 339.975 -2.11941 -2.08491 0
M  V30 3798 H 337.508 -1.18072 -0.9949 0
M  V30 3799 H 339.466 -0.595592 -4.06156 0
M  V30 3800 H 338.127 0.120574 -3.13868 0
M  V30 3801 H 337.32 -1.60742 -4.7768 0
M  V30 3802 H 336.922 -2.07956 -3.10854 0
M  V30 3803 H 339.214 -2.67946 -6.22263 0
M  V30 3804 H 340.157 -4.1293 -5.75234 0
M  V30 3805 H 340.565 -2.53943 -5.04156 0
M  V30 3806 N 339.963 1.05934 -1.16686 0
M  V30 3807 C 341.211 1.78447 -0.948744 0
M  V30 3808 C 341.532 1.87813 0.524523 0
M  V30 3809 O 340.802 1.38945 1.38098 0
M  V30 3810 H 339.382 0.660971 -0.348033 0
M  V30 3811 H 342.044 1.27947 -1.47022 0
M  V30 3812 H 341.14 2.80394 -1.37061 0
M  V30 3813 N 341.441 0.965919 1.2453 0
M  V30 3814 C 342.671 0.643451 1.96324 0
M  V30 3815 C 343.079 -0.790927 1.71875 0
M  V30 3816 O 342.422 -1.54208 0.998273 0
M  V30 3817 C 342.484 0.836078 3.49643 0
M  V30 3818 C 342.148 2.24975 3.97788 0
M  V30 3819 C 343.145 3.22735 4.07601 0
M  V30 3820 C 340.83 2.57697 4.31158 0
M  V30 3821 C 342.824 4.51303 4.50116 0
M  V30 3822 C 340.511 3.86492 4.73357 0
M  V30 3823 C 341.509 4.83107 4.828 0
M  V30 3824 O 341.197 6.09605 5.24058 0
M  V30 3825 H 340.929 0.239223 0.632257 0
M  V30 3826 H 343.483 1.29587 1.59362 0
M  V30 3827 H 341.713 0.12649 3.86493 0
M  V30 3828 H 343.402 0.512965 4.02646 0
M  V30 3829 H 344.168 2.98783 3.82039 0
M  V30 3830 H 340.047 1.83216 4.23028 0
M  V30 3831 H 343.591 5.26716 4.57401 0
M  V30 3832 H 339.488 4.10245 4.98366 0
M  V30 3833 H 340.256 6.13146 5.42213 0
M  V30 3834 N 342.919 -1.39368 0.735821 0
M  V30 3835 C 343.829 -2.34395 0.0979693 0
M  V30 3836 C 344.845 -1.58361 -0.720968 0
M  V30 3837 O 346.021 -1.90648 -0.649245 0
M  V30 3838 C 343.086 -3.37393 -0.797916 0
M  V30 3839 C 342.147 -4.29287 0.0333662 0
M  V30 3840 C 341.38 -5.27365 -0.819854 0
M  V30 3841 O 341.603 -5.31959 -2.05855 0
M  V30 3842 O 340.537 -6.01389 -0.248079 0
M  V30 3843 H 344.363 -2.90601 0.882315 0
M  V30 3844 H 341.948 -1.40909 0.4965 0
M  V30 3845 H 343.83 -4.00505 -1.31048 0
M  V30 3846 H 342.505 -2.83571 -1.56106 0
M  V30 3847 H 341.412 -3.69395 0.591475 0
M  V30 3848 H 342.745 -4.86317 0.758752 0
M  V30 3849 N 344.397 -0.483516 -1.5 0
M  V30 3850 C 345.327 0.293829 -2.31644 0
M  V30 3851 C 346.308 0.978864 -1.39112 0
M  V30 3852 O 347.493 0.973644 -1.68029 0
M  V30 3853 C 344.623 1.36897 -3.19181 0
M  V30 3854 C 343.577 0.804833 -4.20365 0
M  V30 3855 C 342.903 1.9792 -4.96721 0
M  V30 3856 C 344.203 -0.192313 -5.21946 0
M  V30 3857 H 345.897 -0.387616 -2.9688 0
M  V30 3858 H 343.443 -0.187856 -1.42769 0
M  V30 3859 H 345.396 1.92037 -3.751 0
M  V30 3860 H 344.12 2.07936 -2.51853 0
M  V30 3861 H 342.779 0.275319 -3.65565 0
M  V30 3862 H 342.427 2.67686 -4.25856 0
M  V30 3863 H 342.127 1.60789 -5.65173 0
M  V30 3864 H 343.651 2.53526 -5.55479 0
M  V30 3865 H 345.065 0.270333 -5.72662 0
M  V30 3866 H 343.462 -0.478543 -5.98189 0
M  V30 3867 H 344.532 -1.11409 -4.71928 0
M  V30 3868 N 345.875 1.56104 -0.216619 0
M  V30 3869 C 346.825 2.16703 0.708798 0
M  V30 3870 C 347.809 1.11392 1.16106 0
M  V30 3871 O 349.001 1.37395 1.11587 0
M  V30 3872 C 346.13 2.84666 1.91886 0
M  V30 3873 C 345.216 3.97195 1.48651 0
M  V30 3874 N 345.607 4.99959 0.766434 0
M  V30 3875 C 343.905 4.09193 1.77418 0
M  V30 3876 C 344.606 5.79126 0.546659 0
M  V30 3877 N 343.582 5.32315 1.10188 0
M  V30 3878 H 347.384 2.93516 0.150162 0
M  V30 3879 H 344.898 1.6239 -0.0176768 0
M  V30 3880 H 346.895 3.26486 2.59253 0
M  V30 3881 H 345.555 2.09347 2.48202 0
M  V30 3882 H 346.566 5.16197 0.419634 0
M  V30 3883 H 343.243 3.45021 2.35088 0
M  V30 3884 H 344.633 6.71895 -0.026103 0
M  V30 3885 N 347.353 -0.0568162 1.57498 0
M  V30 3886 C 348.764 -0.606858 1.76562 0
M  V30 3887 C 349.115 -1.77114 0.844094 0
M  V30 3888 O 348.24 -2.16376 0.0318911 0
M  V30 3889 C 348.835 -1.10766 3.20182 0
M  V30 3890 C 347.394 -1.60344 3.40539 0
M  V30 3891 C 346.541 -0.529311 2.72201 0
M  V30 3892 H 349.492 0.169393 1.57793 0
M  V30 3893 H 349.513 -1.97602 3.25167 0
M  V30 3894 H 349.025 -0.26006 3.87228 0
M  V30 3895 H 347.126 -2.47379 2.78629 0
M  V30 3896 H 347.239 -1.67006 4.4905 0
M  V30 3897 H 345.603 -0.977893 2.35179 0
M  V30 3898 H 346.386 0.308352 3.41912 0
M  V30 3899 N 348.832 -1.54138 -0.328536 0
M  V30 3900 C 350.109 -1.62749 -1.08499 0
M  V30 3901 C 350.489 -0.458198 -2.06067 0
M  V30 3902 O 349.837 0.548046 -2.2183 0
M  V30 3903 C 350.047 -2.99519 -1.79135 0
M  V30 3904 C 351.395 -3.55394 -2.32337 0
M  V30 3905 O 352.419 -3.01792 -1.89209 0
M  V30 3906 O 351.278 -4.49186 -3.11279 0
M  V30 3907 H 348.372 -0.65886 -0.499832 0
M  V30 3908 H 350.918 -1.66484 -0.328826 0
M  V30 3909 H 349.69 -3.76061 -1.08139 0
M  V30 3910 H 349.313 -2.99441 -2.61574 0
M  V30 3911 N 350.31 0.590341 -1.46126 0
M  V30 3912 C 351.257 1.69994 -1.56111 0
M  V30 3913 C 352.227 1.61065 -0.405867 0
M  V30 3914 O 353.412 1.8039 -0.621613 0
M  V30 3915 C 350.552 3.08326 -1.55013 0
M  V30 3916 C 349.665 3.27936 -2.81215 0
M  V30 3917 C 348.8 4.56473 -2.71673 0
M  V30 3918 C 347.839 4.694 -3.92849 0
M  V30 3919 N 346.976 5.89254 -3.81738 0
M  V30 3920 H 351.816 1.60797 -2.50895 0
M  V30 3921 H 349.353 0.783799 -1.24479 0
M  V30 3922 H 351.311 3.88383 -1.52362 0
M  V30 3923 H 349.941 3.16439 -0.637667 0
M  V30 3924 H 348.993 2.41536 -2.93879 0
M  V30 3925 H 350.305 3.33357 -3.71045 0
M  V30 3926 H 349.459 5.44748 -2.67085 0
M  V30 3927 H 348.198 4.53477 -1.7947 0
M  V30 3928 H 347.203 3.79544 -3.97777 0
M  V30 3929 H 348.428 4.7418 -4.86138 0
M  V30 3930 H 346.374 5.87271 -2.92317 0
M  V30 3931 H 346.291 5.95911 -4.65217 0
M  V30 3932 H 347.559 6.79981 -3.81112 0
M  V30 3933 N 351.788 1.33704 0.83433 0
M  V30 3934 C 353.034 1.26612 1.59188 0
M  V30 3935 C 353.389 -0.165439 1.91687 0
M  V30 3936 O 352.682 -1.10873 1.56262 0
M  V30 3937 C 352.876 2.07926 2.90692 0
M  V30 3938 C 352.705 3.58844 2.71038 0
M  V30 3939 C 351.475 4.28148 2.68361 0
M  V30 3940 C 353.673 4.53082 2.43353 0
M  V30 3941 N 351.655 5.64987 2.40132 0
M  V30 3942 C 353.026 5.77843 2.24716 0
M  V30 3943 C 355.081 4.42119 2.28987 0
M  V30 3944 C 353.784 6.92877 1.9317 0
M  V30 3945 C 355.81 5.56973 1.98835 0
M  V30 3946 C 355.172 6.80745 1.81012 0
M  V30 3947 H 351.271 0.518517 0.585375 0
M  V30 3948 H 353.855 1.68294 0.979044 0
M  V30 3949 H 352.026 1.68558 3.49918 0
M  V30 3950 H 353.758 1.92568 3.55949 0
M  V30 3951 H 350.513 3.80469 2.82029 0
M  V30 3952 H 350.937 6.37133 2.28889 0
M  V30 3953 H 355.579 3.47058 2.41477 0
M  V30 3954 H 353.297 7.87931 1.79418 0
M  V30 3955 H 356.883 5.50428 1.88468 0
M  V30 3956 H 355.763 7.68115 1.58017 0
M  V30 3957 N 353.266 -1.05314 1.17247 0
M  V30 3958 C 354.494 -1.81971 0.984593 0
M  V30 3959 C 354.909 -1.82929 -0.467166 0
M  V30 3960 O 354.266 -1.25564 -1.32438 0
M  V30 3961 C 354.317 -3.28143 1.51672 0
M  V30 3962 O 354.038 -3.27347 2.91163 0
M  V30 3963 C 355.539 -4.21493 1.37326 0
M  V30 3964 H 352.759 -0.573455 0.348411 0
M  V30 3965 H 355.303 -1.32808 1.55506 0
M  V30 3966 H 353.458 -3.74582 0.988302 0
M  V30 3967 H 353.872 -4.18824 3.15732 0
M  V30 3968 H 355.346 -5.22043 1.79375 0
M  V30 3969 H 355.823 -4.38031 0.320169 0
M  V30 3970 H 356.429 -3.80909 1.89178 0
M  V30 3971 N 354.744 -0.972509 -1.24016 0
M  V30 3972 C 355.99 -0.637978 -1.92504 0
M  V30 3973 C 356.323 0.825383 -1.75787 0
M  V30 3974 O 355.598 1.59442 -1.11393 0
M  V30 3975 C 355.881 -1.01942 -3.45369 0
M  V30 3976 C 355.734 -2.53983 -3.71231 0
M  V30 3977 C 357.053 -0.55751 -4.36555 0
M  V30 3978 H 354.172 -0.233248 -0.699117 0
M  V30 3979 H 356.814 -1.21238 -1.46292 0
M  V30 3980 H 354.964 -0.530656 -3.84859 0
M  V30 3981 H 356.636 -3.10374 -3.41271 0
M  V30 3982 H 354.879 -2.96968 -3.16216 0
M  V30 3983 H 355.55 -2.75723 -4.78206 0
M  V30 3984 H 358.026 -0.977029 -4.04467 0
M  V30 3985 H 356.902 -0.85292 -5.42233 0
M  V30 3986 H 357.163 0.542328 -4.38761 0
M  V30 3987 N 356.222 1.38976 -0.743202 0
M  V30 3988 C 357.154 2.29096 -0.0689228 0
M  V30 3989 C 358.167 1.47229 0.694791 0
M  V30 3990 O 359.356 1.70212 0.537597 0
M  V30 3991 C 356.456 3.25988 0.926548 0
M  V30 3992 C 355.629 4.36833 0.222647 0
M  V30 3993 C 354.688 5.13981 1.12739 0
M  V30 3994 O 353.714 5.6601 0.601795 0
M  V30 3995 N 354.916 5.25966 2.45641 0
M  V30 3996 H 357.681 2.87604 -0.842846 0
M  V30 3997 H 355.242 1.50645 -0.593109 0
M  V30 3998 H 357.234 3.74476 1.5346 0
M  V30 3999 H 355.804 2.68453 1.60162 0
M  V30 4000 H 355.024 3.90116 -0.565983 0
M  V30 4001 H 356.312 5.0811 -0.264841 0
M  V30 4002 H 355.71 4.85228 2.9081 0
M  V30 4003 H 354.267 5.77865 3.01522 0
M  V30 4004 N 357.7 0.491464 1.49741 0
M  V30 4005 C 359.111 0.0413169 1.86654 0
M  V30 4006 C 359.462 -1.36985 1.40462 0
M  V30 4007 O 358.587 -2.01917 0.778354 0
M  V30 4008 C 359.182 0.0682023 3.38731 0
M  V30 4009 C 357.741 -0.32656 3.74981 0
M  V30 4010 C 356.888 0.444888 2.73708 0
M  V30 4011 H 359.839 0.704733 1.42194 0
M  V30 4012 H 359.86 -0.729322 3.73445 0
M  V30 4013 H 359.372 1.09539 3.72321 0
M  V30 4014 H 357.473 -1.35734 3.46997 0
M  V30 4015 H 357.586 -0.013741 4.79098 0
M  V30 4016 H 355.95 -0.104062 2.54487 0
M  V30 4017 H 356.733 1.47197 3.10142 0
M  V30 4018 N 359.178 -1.55987 0.224894 0
M  V30 4019 C 360.427 -1.97566 -0.406273 0
M  V30 4020 C 360.74 -1.11569 -1.6066 0
M  V30 4021 O 361.946 -1.43062 -2.3075 0
M  V30 4022 C 360.402 -3.51474 -0.774207 0
M  V30 4023 C 360.01 -4.46179 0.403496 0
M  V30 4024 C 361.754 -4.01758 -1.37079 0
M  V30 4025 C 359.661 -5.91399 0.0129412 0
M  V30 4026 H 358.591 -0.737777 -0.155565 0
M  V30 4027 H 361.242 -1.80659 0.321635 0
M  V30 4028 H 359.624 -3.63994 -1.55963 0
M  V30 4029 H 360.798 -4.45409 1.18101 0
M  V30 4030 H 359.113 -4.06255 0.913536 0
M  V30 4031 H 361.71 -5.07756 -1.67596 0
M  V30 4032 H 362.053 -3.47805 -2.28773 0
M  V30 4033 H 362.586 -3.92475 -0.648733 0
M  V30 4034 H 359.325 -6.49341 0.896451 0
M  V30 4035 H 358.845 -5.95356 -0.728821 0
M  V30 4036 H 360.524 -6.45683 -0.412582 0
M  V30 4037 N 360.656 0.0484629 -1.57525 0
M  V30 4038 C 361.902 0.744226 -1.88651 0
M  V30 4039 C 362.235 1.76029 -0.820212 0
M  V30 4040 O 361.51 1.93782 0.166985 0
M  V30 4041 C 361.793 1.43128 -3.30434 0
M  V30 4042 C 361.646 0.43005 -4.47739 0
M  V30 4043 C 362.965 2.37031 -3.70816 0
M  V30 4044 H 360.084 0.269089 -0.68612 0
M  V30 4045 H 362.726 0.00713532 -1.89999 0
M  V30 4046 H 360.876 2.05956 -3.29415 0
M  V30 4047 H 362.548 -0.194816 -4.60888 0
M  V30 4048 H 360.791 -0.252522 -4.33064 0
M  V30 4049 H 361.462 0.948874 -5.43783 0
M  V30 4050 H 363.938 1.84263 -3.73077 0
M  V30 4051 H 362.814 2.82094 -4.70865 0
M  V30 4052 H 363.075 3.22864 -3.02012 0
M  V30 4053 N 362.134 1.5431 0.320358 0
M  V30 4054 C 363.064 1.86912 1.3995 0
M  V30 4055 C 364.045 0.726211 1.53819 0
M  V30 4056 O 365.23 0.980233 1.67646 0
M  V30 4057 C 362.36 2.09932 2.7667 0
M  V30 4058 C 361.314 3.25776 2.77586 0
M  V30 4059 C 360.64 3.34173 4.17412 0
M  V30 4060 C 361.94 4.6335 2.41048 0
M  V30 4061 H 363.634 2.77292 1.12914 0
M  V30 4062 H 361.18 1.33421 0.541738 0
M  V30 4063 H 363.133 2.31324 3.52232 0
M  V30 4064 H 361.857 1.16304 3.0519 0
M  V30 4065 H 360.516 3.04276 2.04479 0
M  V30 4066 H 360.164 2.38098 4.43078 0
M  V30 4067 H 359.864 4.12033 4.18931 0
M  V30 4068 H 361.388 3.57803 4.94782 0
M  V30 4069 H 362.802 4.84602 3.06324 0
M  V30 4070 H 361.199 5.43782 2.53813 0
M  V30 4071 H 362.269 4.65381 1.36193 0
M  V30 4072 N 363.613 -0.582584 1.46437 0
M  V30 4073 C 365.024 -1.1647 1.45916 0
M  V30 4074 C 365.375 -1.95177 0.200077 0
M  V30 4075 O 364.5 -2.04874 -0.696819 0
M  V30 4076 C 365.095 -2.11885 2.64367 0
M  V30 4077 C 363.654 -2.65421 2.66887 0
M  V30 4078 C 362.801 -1.41294 2.38603 0
M  V30 4079 H 365.752 -0.370514 1.54314 0
M  V30 4080 H 365.773 -2.9535 2.39892 0
M  V30 4081 H 365.285 -1.54573 3.5599 0
M  V30 4082 H 363.386 -3.26602 1.79338 0
M  V30 4083 H 363.499 -3.08147 3.66854 0
M  V30 4084 H 361.863 -1.71109 1.88663 0
M  V30 4085 H 362.646 -0.858125 3.32402 0
M  V30 4086 N 365.091 -1.34144 -0.827227 0
M  V30 4087 C 366.001 -1.27428 -1.96975 0
M  V30 4088 C 367.017 -0.182728 -1.73038 0
M  V30 4089 O 368.193 -0.408426 -1.97215 0
M  V30 4090 C 365.258 -1.02526 -3.31194 0
M  V30 4091 C 364.319 -2.20796 -3.68168 0
M  V30 4092 C 363.552 -1.97073 -4.95982 0
M  V30 4093 O 363.775 -0.926822 -5.6282 0
M  V30 4094 O 362.709 -2.83912 -5.30733 0
M  V30 4095 H 366.535 -2.23537 -2.05584 0
M  V30 4096 H 364.12 -1.14307 -0.961989 0
M  V30 4097 H 366.002 -0.904026 -4.11589 0
M  V30 4098 H 364.677 -0.0945389 -3.23562 0
M  V30 4099 H 363.584 -2.38477 -2.88235 0
M  V30 4100 H 364.917 -3.12243 -3.8048 0
M  V30 4101 N 366.569 1.04691 -1.17803 0
M  V30 4102 C 367.516 2.12557 -0.899343 0
M  V30 4103 C 368.486 1.65339 0.158771 0
M  V30 4104 O 369.671 1.90789 0.0204797 0
M  V30 4105 C 366.811 3.42481 -0.424315 0
M  V30 4106 C 365.924 4.03346 -1.54713 0
M  V30 4107 C 365.059 5.21208 -1.02546 0
M  V30 4108 C 364.098 5.74089 -2.12339 0
M  V30 4109 N 363.235 6.83247 -1.61612 0
M  V30 4110 H 368.075 2.35734 -1.823 0
M  V30 4111 H 365.612 1.1564 -0.909159 0
M  V30 4112 H 367.57 4.16996 -0.130421 0
M  V30 4113 H 366.2 3.19471 0.462377 0
M  V30 4114 H 365.252 3.2622 -1.95664 0
M  V30 4115 H 366.564 4.38628 -2.37501 0
M  V30 4116 H 365.718 6.02812 -0.685718 0
M  V30 4117 H 364.457 4.87414 -0.167084 0
M  V30 4118 H 363.462 4.91111 -2.47165 0
M  V30 4119 H 364.687 6.0993 -2.98601 0
M  V30 4120 H 362.633 6.5134 -0.780533 0
M  V30 4121 H 362.55 7.17559 -2.38003 0
M  V30 4122 H 363.818 7.68491 -1.30545 0
M  V30 4123 N 368.047 0.979072 1.23499 0
M  V30 4124 C 369.324 0.563674 1.87302 0
M  V30 4125 C 369.704 -0.959199 1.88049 0
M  V30 4126 O 369.052 -1.83535 1.36114 0
M  V30 4127 C 369.262 1.16822 3.28867 0
M  V30 4128 C 370.61 1.26014 4.0547 0
M  V30 4129 O 371.634 1.12158 3.38082 0
M  V30 4130 O 370.493 1.48044 5.26066 0
M  V30 4131 H 367.587 0.189602 0.804972 0
M  V30 4132 H 370.133 1.07407 1.31384 0
M  V30 4133 H 368.905 2.21049 3.22883 0
M  V30 4134 H 368.528 0.642564 3.92373 0
M  V30 4135 N 369.525 -1.3858 0.750561 0
M  V30 4136 C 370.75 -2.04997 0.314812 0
M  V30 4137 C 371.175 -1.56235 -1.04749 0
M  V30 4138 O 370.533 -0.712981 -1.66692 0
M  V30 4139 C 370.581 -3.58961 0.343415 0
M  V30 4140 O 369.685 -4.07025 -0.663628 0
M  V30 4141 H 369.026 -0.649081 0.139962 0
M  V30 4142 H 371.556 -1.77313 1.02084 0
M  V30 4143 H 371.566 -4.07542 0.193233 0
M  V30 4144 H 370.241 -3.93811 1.33738 0
M  V30 4145 H 368.818 -3.6982 -0.478307 0
M  V30 4146 N 371.003 -0.499398 -1.49478 0
M  V30 4147 C 372.249 0.0377587 -2.03365 0
M  V30 4148 C 372.604 1.3484 -1.37244 0
M  V30 4149 O 371.897 1.85 -0.498547 0
M  V30 4150 C 372.091 0.248424 -3.56536 0
M  V30 4151 C 371.92 -1.04025 -4.37503 0
M  V30 4152 C 370.69 -1.59159 -4.79579 0
M  V30 4153 C 372.888 -1.9431 -4.76181 0
M  V30 4154 N 370.87 -2.82634 -5.44969 0
M  V30 4155 C 372.241 -3.02364 -5.41272 0
M  V30 4156 C 374.296 -1.95008 -4.58123 0
M  V30 4157 C 372.999 -4.1114 -5.90217 0
M  V30 4158 C 375.025 -3.02758 -5.08027 0
M  V30 4159 C 374.387 -4.09531 -5.73118 0
M  V30 4160 H 370.486 -0.026923 -0.781536 0
M  V30 4161 H 373.07 -0.673901 -1.82665 0
M  V30 4162 H 371.241 0.929139 -3.77123 0
M  V30 4163 H 372.973 0.782445 -3.97064 0
M  V30 4164 H 369.728 -1.13696 -4.5975 0
M  V30 4165 H 370.152 -3.45416 -5.82252 0
M  V30 4166 H 374.794 -1.13766 -4.07207 0
M  V30 4167 H 372.512 -4.93181 -6.40155 0
M  V30 4168 H 376.098 -3.04315 -4.95866 0
M  V30 4169 H 374.978 -4.91534 -6.11035 0
M  V30 4170 N 372.481 1.55866 -0.233164 0
M  V30 4171 C 373.709 2.02998 0.399905 0
M  V30 4172 C 374.124 1.11274 1.52524 0
M  V30 4173 O 373.481 0.124528 1.82075 0
M  V30 4174 C 373.532 3.4958 0.920639 0
M  V30 4175 O 373.253 4.37808 -0.159834 0
M  V30 4176 C 374.754 4.12411 1.62578 0
M  V30 4177 H 371.974 0.664006 0.0966281 0
M  V30 4178 H 374.518 2.0143 -0.353013 0
M  V30 4179 H 372.673 3.51727 1.62379 0
M  V30 4180 H 373.087 5.23981 0.23337 0
M  V30 4181 H 374.561 5.16711 1.94201 0
M  V30 4182 H 375.038 3.5809 2.54299 0
M  V30 4183 H 375.644 4.14148 0.967553 0
M  V30 4184 N 373.959 -0.0401083 1.57549 0
M  V30 4185 C 375.205 -0.734211 1.89043 0
M  V30 4186 C 375.538 -1.75591 0.829535 0
M  V30 4187 O 374.813 -1.93868 -0.156706 0
M  V30 4188 C 375.096 -1.41374 3.31188 0
M  V30 4189 C 374.949 -0.406299 4.47961 0
M  V30 4190 C 376.268 -2.35061 3.72068 0
M  V30 4191 H 373.387 -0.265447 0.687537 0
M  V30 4192 H 376.029 0.00294087 1.9 0
M  V30 4193 H 374.179 -2.04206 3.30503 0
M  V30 4194 H 375.851 0.219255 4.60779 0
M  V30 4195 H 374.094 0.275485 4.32924 0
M  V30 4196 H 374.765 -0.920022 5.44279 0
M  V30 4197 H 377.241 -1.82282 3.74049 0
M  V30 4198 H 376.117 -2.79593 4.72355 0
M  V30 4199 H 376.378 -3.21258 3.0372 0
M  V30 4200 N 375.437 -1.54477 -0.31217 0
M  V30 4201 C 376.385 -1.85395 -1.40469 0
M  V30 4202 C 377.379 -0.726749 -1.53019 0
M  V30 4203 O 378.585 -0.910582 -1.55269 0
M  V30 4204 H 374.96 -0.587845 -0.46898 0
M  V30 4205 H 376.931 -2.76736 -1.11623 0
M  V30 4206 C 375.68 -2.10811 -2.76503 0
M  V30 4207 H 375.003 -2.97014 -2.67625 0
M  V30 4208 H 376.443 -2.3639 -3.51988 0
M  V30 4209 C 374.902 -0.903165 -3.24568 0
M  V30 4210 O 375.432 -0.118085 -4.01526 0
M  V30 4211 N 373.638 -0.711634 -2.81752 0
M  V30 4212 H 373.185 -1.35171 -2.19286 0
M  V30 4213 H 373.143 0.0930473 -3.14262 0
M  V30 4214 N 376.915 0.57481 -1.46744 0
M  V30 4215 C 378.192 1.3352 -1.4294 0
M  V30 4216 C 378.572 2.10775 -0.117009 0
M  V30 4217 O 377.92 2.09966 0.901474 0
M  V30 4218 C 378.13 2.25456 -2.66403 0
M  V30 4219 C 379.478 2.87035 -3.12883 0
M  V30 4220 O 380.502 2.35766 -2.67007 0
M  V30 4221 O 379.361 3.80179 -3.92589 0
M  V30 4222 H 376.455 0.600318 -0.568812 0
M  V30 4223 H 379.001 0.595171 -1.58921 0
M  V30 4224 H 377.773 1.67851 -3.53471 0
M  V30 4225 H 377.396 3.06785 -2.52921 0
M  V30 4226 N 378.394 1.34581 0.820102 0
M  V30 4227 C 379.643 1.26437 1.57151 0
M  V30 4228 C 379.956 -0.163111 1.94919 0
M  V30 4229 O 381.162 -0.366722 2.69012 0
M  V30 4230 C 379.618 2.21658 2.83541 0
M  V30 4231 C 379.226 3.69679 2.53065 0
M  V30 4232 C 380.97 2.22428 3.61561 0
M  V30 4233 C 378.877 4.56761 3.75664 0
M  V30 4234 H 377.807 0.469707 0.589823 0
M  V30 4235 H 380.458 1.59763 0.902656 0
M  V30 4236 H 378.84 1.81287 3.52067 0
M  V30 4237 H 380.014 4.18605 1.92631 0
M  V30 4238 H 378.329 3.71384 1.88316 0
M  V30 4239 H 380.926 2.8471 4.52597 0
M  V30 4240 H 381.269 1.22434 3.97889 0
M  V30 4241 H 381.802 2.61259 2.99981 0
M  V30 4242 H 378.541 5.57702 3.44454 0
M  V30 4243 H 378.061 4.12568 4.35371 0
M  V30 4244 H 379.74 4.71509 4.43044 0
M  V30 4245 N 379.872 -1.04064 1.18357 0
M  V30 4246 C 380.804 -2.12114 0.868358 0
M  V30 4247 C 381.817 -1.62247 -0.134045 0
M  V30 4248 O 383.006 -1.78253 0.0937933 0
M  V30 4249 C 380.106 -3.37773 0.276132 0
M  V30 4250 C 379.279 -4.16874 1.3242 0
M  V30 4251 C 378.338 -5.20861 0.747662 0
M  V30 4252 O 377.364 -5.51141 1.42239 0
M  V30 4253 N 378.566 -5.78715 -0.454823 0
M  V30 4254 H 381.331 -2.39748 1.79836 0
M  V30 4255 H 378.892 -1.20258 1.08396 0
M  V30 4256 H 380.884 -4.04513 -0.123133 0
M  V30 4257 H 379.454 -3.07581 -0.557895 0
M  V30 4258 H 378.674 -3.45456 1.89878 0
M  V30 4259 H 379.962 -4.66516 2.03078 0
M  V30 4260 H 379.36 -5.56415 -1.02073 0
M  V30 4261 H 377.917 -6.46921 -0.79601 0
M  V30 4262 N 381.35 -0.985608 -1.22978 0
M  V30 4263 C 382.297 -0.529825 -2.24636 0
M  V30 4264 C 383.267 0.434028 -1.60329 0
M  V30 4265 O 384.452 0.340414 -1.87739 0
M  V30 4266 C 381.592 0.156533 -3.44745 0
M  V30 4267 C 380.705 -0.848197 -4.23591 0
M  V30 4268 C 379.84 -0.136109 -5.31026 0
M  V30 4269 C 378.879 -1.1297 -6.01585 0
M  V30 4270 N 378.016 -0.446415 -7.00679 0
M  V30 4271 H 382.856 -1.40148 -2.62988 0
M  V30 4272 H 380.393 -0.702168 -1.29259 0
M  V30 4273 H 382.351 0.571324 -4.1327 0
M  V30 4274 H 380.981 0.992025 -3.07179 0
M  V30 4275 H 380.033 -1.38135 -3.54433 0
M  V30 4276 H 381.345 -1.60512 -4.72268 0
M  V30 4277 H 380.499 0.335784 -6.0577 0
M  V30 4278 H 379.238 0.653373 -4.83304 0
M  V30 4279 H 378.243 -1.6123 -5.25628 0
M  V30 4280 H 379.468 -1.91993 -6.51395 0
M  V30 4281 H 377.414 0.323763 -6.55201 0
M  V30 4282 H 377.331 -1.1419 -7.47326 0
M  V30 4283 H 378.599 0.00291697 -7.795 0
M  V30 4284 N 382.828 1.3818 -0.7579 0
M  V30 4285 C 383.758 2.33027 -0.148597 0
M  V30 4286 C 384.739 1.55085 0.69875 0
M  V30 4287 O 385.924 1.83384 0.639053 0
M  V30 4288 C 383.054 3.3928 0.742034 0
M  V30 4289 C 382.008 4.28 -0.00291946 0
M  V30 4290 C 381.334 5.25146 1.00625 0
M  V30 4291 C 382.634 5.08938 -1.17385 0
M  V30 4292 H 384.328 2.84231 -0.940909 0
M  V30 4293 H 381.874 1.36659 -0.453908 0
M  V30 4294 H 383.827 4.046 1.17799 0
M  V30 4295 H 382.551 2.86569 1.56671 0
M  V30 4296 H 381.21 3.64192 -0.419504 0
M  V30 4297 H 380.858 4.68721 1.8251 0
M  V30 4298 H 380.558 5.85361 0.512428 0
M  V30 4299 H 382.082 5.93342 1.44143 0
M  V30 4300 H 383.496 5.67474 -0.815224 0
M  V30 4301 H 381.893 5.7841 -1.59882 0
M  V30 4302 H 382.963 4.42424 -1.98468 0
M  V30 4303 N 384.306 0.507319 1.49211 0
M  V30 4304 C 385.552 -0.0350047 2.0277 0
M  V30 4305 C 385.885 -1.3606 1.38569 0
M  V30 4306 O 385.16 -1.87321 0.523542 0
M  V30 4307 C 385.443 -0.180916 3.59645 0
M  V30 4308 C 385.296 1.16825 4.34364 0
M  V30 4309 C 386.615 -0.918558 4.30407 0
M  V30 4310 H 383.734 -0.0112473 0.736914 0
M  V30 4311 H 386.376 0.659956 1.7817 0
M  V30 4312 H 384.526 -0.772826 3.80736 0
M  V30 4313 H 386.198 1.79952 4.24753 0
M  V30 4314 H 384.441 1.75594 3.96673 0
M  V30 4315 H 385.112 1.01939 5.42506 0
M  V30 4316 H 387.588 -0.41649 4.1401 0
M  V30 4317 H 386.464 -0.989505 5.39907 0
M  V30 4318 H 386.725 -1.96373 3.96093 0
M  V30 4319 N 385.784 -1.5574 0.241426 0
M  V30 4320 C 387.032 -1.98417 -0.384075 0
M  V30 4321 C 387.353 -1.13078 -1.58866 0
M  V30 4322 O 386.623 -0.212312 -1.94746 0
M  V30 4323 H 385.203 -0.732813 -0.144894 0
M  V30 4324 H 387.865 -1.9193 0.338943 0
M  V30 4325 H 386.961 -3.04219 -0.696939 0
M  V30 4326 N 387.262 0.0317525 -1.57568 0
M  V30 4327 C 388.209 1.0332 -2.06382 0
M  V30 4328 C 389.179 1.36082 -0.952414 0
M  V30 4329 O 390.364 1.46466 -1.2228 0
M  V30 4330 C 387.504 2.32989 -2.54578 0
M  V30 4331 C 386.617 2.0641 -3.79498 0
M  V30 4332 C 385.752 3.2993 -4.16317 0
M  V30 4333 C 384.791 2.98893 -5.34162 0
M  V30 4334 N 383.928 4.14857 -5.66426 0
M  V30 4335 H 388.768 0.609982 -2.9169 0
M  V30 4336 H 386.305 0.289573 -1.44222 0
M  V30 4337 H 388.263 3.0875 -2.80587 0
M  V30 4338 H 386.893 2.73039 -1.7219 0
M  V30 4339 H 385.945 1.21158 -3.6059 0
M  V30 4340 H 387.257 1.79513 -4.65378 0
M  V30 4341 H 386.411 4.1406 -4.4344 0
M  V30 4342 H 385.15 3.59938 -3.29083 0
M  V30 4343 H 384.155 2.13164 -5.06795 0
M  V30 4344 H 385.38 2.70165 -6.23047 0
M  V30 4345 H 383.326 4.44821 -4.82151 0
M  V30 4346 H 383.243 3.91374 -6.4681 0
M  V30 4347 H 384.511 4.99868 -5.98124 0
M  V30 4348 N 388.74 1.54641 0.303973 0
M  V30 4349 C 389.67 1.88386 1.3796 0
M  V30 4350 C 390.651 0.742485 1.5304 0
M  V30 4351 O 391.836 0.997959 1.66597 0
M  V30 4352 C 388.966 2.12854 2.74427 0
M  V30 4353 C 387.92 3.28702 2.74115 0
M  V30 4354 C 387.246 3.38582 4.13844 0
M  V30 4355 C 388.546 4.65881 2.3612 0
M  V30 4356 H 390.24 2.78474 1.09966 0
M  V30 4357 H 387.786 1.33988 0.527556 0
M  V30 4358 H 389.739 2.35047 3.49758 0
M  V30 4359 H 388.463 1.19535 3.03939 0
M  V30 4360 H 387.122 3.06428 2.0124 0
M  V30 4361 H 386.77 2.42784 4.40528 0
M  V30 4362 H 386.47 4.16453 4.14537 0
M  V30 4363 H 387.994 3.63031 4.90959 0
M  V30 4364 H 389.408 4.87823 3.01167 0
M  V30 4365 H 387.805 5.46444 2.48031 0
M  V30 4366 H 388.875 4.66799 1.3125 0
M  V30 4367 N 390.218 -0.567019 1.47046 0
M  V30 4368 C 391.166 -1.69593 1.59188 0
M  V30 4369 C 392.16 -1.63046 0.459609 0
M  V30 4370 O 393.366 -1.6835 0.637058 0
M  V30 4371 H 389.741 -0.560993 0.500791 0
M  V30 4372 H 391.712 -1.56488 2.54075 0
M  V30 4373 C 390.461 -3.07964 1.61411 0
M  V30 4374 H 389.784 -3.13679 2.47881 0
M  V30 4375 H 391.224 -3.86671 1.73958 0
M  V30 4376 C 389.683 -3.35123 0.34559 0
M  V30 4377 O 390.213 -3.97812 -0.557521 0
M  V30 4378 N 388.419 -2.89699 0.22864 0
M  V30 4379 H 387.966 -2.38863 0.964479 0
M  V30 4380 H 387.924 -3.08242 -0.619192 0
M  V30 4381 N 391.696 -1.35014 -0.812953 0
M  V30 4382 C 392.942 -1.29129 -1.57154 0
M  V30 4383 C 393.297 0.134922 -1.91926 0
M  V30 4384 O 392.59 1.08373 -1.58006 0
M  V30 4385 C 392.784 -2.12524 -2.87347 0
M  V30 4386 C 392.613 -3.6311 -2.65294 0
M  V30 4387 C 391.383 -4.32363 -2.61516 0
M  V30 4388 C 393.581 -4.56897 -2.36114 0
M  V30 4389 N 391.563 -5.68735 -2.31113 0
M  V30 4390 C 392.934 -5.81345 -2.15494 0
M  V30 4391 C 394.989 -4.45706 -2.21925 0
M  V30 4392 C 393.692 -6.95862 -1.82122 0
M  V30 4393 C 395.718 -5.60066 -1.89948 0
M  V30 4394 C 395.08 -6.83539 -1.7016 0
M  V30 4395 H 391.179 -0.527764 -0.577052 0
M  V30 4396 H 393.763 -1.6983 -0.952146 0
M  V30 4397 H 391.934 -1.74104 -3.47192 0
M  V30 4398 H 393.666 -1.98207 -3.5284 0
M  V30 4399 H 390.421 -3.84907 -2.75941 0
M  V30 4400 H 390.845 -6.40694 -2.18724 0
M  V30 4401 H 395.487 -3.50855 -2.35925 0
M  V30 4402 H 393.205 -7.90685 -1.6686 0
M  V30 4403 H 396.791 -5.53357 -1.79687 0
M  V30 4404 H 395.671 -7.70531 -1.45777 0
M  V30 4405 N 393.175 1.03435 -1.18907 0
M  V30 4406 C 394.138 2.09756 -0.923844 0
M  V30 4407 C 395.138 1.60528 0.093416 0
M  V30 4408 O 396.328 1.73631 -0.140727 0
M  V30 4409 C 393.46 3.38692 -0.387354 0
M  V30 4410 H 394.653 2.34719 -1.86674 0
M  V30 4411 H 392.206 1.19959 -1.00197 0
M  V30 4412 H 392.941 3.19396 0.561845 0
M  V30 4413 H 392.726 3.75742 -1.12074 0
M  V30 4414 H 394.216 4.17016 -0.220694 0
M  V30 4415 N 394.653 0.992116 1.22453 0
M  V30 4416 C 395.878 0.685644 1.95739 0
M  V30 4417 C 396.303 -0.743 1.72804 0
M  V30 4418 O 395.661 -1.50778 1.00676 0
M  V30 4419 C 395.709 0.996293 3.46564 0
M  V30 4420 O 394.813 0.0945512 4.12292 0
M  V30 4421 H 394.154 0.256694 0.612376 0
M  V30 4422 H 396.684 1.32888 1.5557 0
M  V30 4423 H 396.694 0.93781 3.97076 0
M  V30 4424 H 395.369 2.03733 3.62582 0
M  V30 4425 H 393.946 0.208451 3.72317 0
M  V30 4426 N 396.131 -1.37776 0.765217 0
M  V30 4427 C 397.063 -2.28958 0.105361 0
M  V30 4428 C 398.076 -1.48316 -0.67128 0
M  V30 4429 O 399.265 -1.71046 -0.51045 0
M  V30 4430 C 396.365 -3.27421 -0.874569 0
M  V30 4431 C 395.538 -4.37132 -0.153123 0
M  V30 4432 C 394.597 -5.1571 -1.04547 0
M  V30 4433 O 393.623 -5.66896 -0.511672 0
M  V30 4434 N 394.825 -5.29808 -2.37243 0
M  V30 4435 H 397.59 -2.86227 0.888495 0
M  V30 4436 H 395.151 -1.49682 0.617 0
M  V30 4437 H 397.143 -3.7687 -1.47483 0
M  V30 4438 H 395.713 -2.70967 -1.55871 0
M  V30 4439 H 394.933 -3.89166 0.627975 0
M  V30 4440 H 396.221 -5.07625 0.345643 0
M  V30 4441 H 395.619 -4.89793 -2.83054 0
M  V30 4442 H 394.176 -5.82589 -2.9229 0
M  V30 4443 N 397.609 -0.515225 -1.4894 0
M  V30 4444 C 398.858 0.0261361 -2.01683 0
M  V30 4445 C 399.171 1.36719 -1.39883 0
M  V30 4446 O 400.377 1.99606 -1.84037 0
M  V30 4447 C 398.833 0.0970111 -3.59769 0
M  V30 4448 C 398.441 -1.23825 -4.30548 0
M  V30 4449 C 400.185 0.587981 -4.20408 0
M  V30 4450 C 398.092 -1.12877 -5.80528 0
M  V30 4451 H 397.022 0.0135398 -0.753878 0
M  V30 4452 H 399.673 -0.656787 -1.71343 0
M  V30 4453 H 398.055 0.844694 -3.86886 0
M  V30 4454 H 399.229 -2.00034 -4.15118 0
M  V30 4455 H 397.544 -1.66379 -3.81716 0
M  V30 4456 H 400.141 0.68763 -5.3026 0
M  V30 4457 H 400.484 1.59026 -3.84729 0
M  V30 4458 H 401.017 -0.103582 -3.97665 0
M  V30 4459 H 397.756 -2.10575 -6.20756 0
M  V30 4460 H 397.276 -0.407799 -5.98412 0
M  V30 4461 H 398.955 -0.813332 -6.41868 0
M  V30 4462 N 399.087 1.5561 -0.249682 0
M  V30 4463 C 400.317 2.03116 0.377803 0
M  V30 4464 C 400.725 1.12822 1.51881 0
M  V30 4465 O 400.068 0.13562 1.83199 0
M  V30 4466 C 400.13 3.46866 0.944693 0
M  V30 4467 C 399.794 4.56955 -0.0644259 0
M  V30 4468 C 400.791 5.12485 -0.874957 0
M  V30 4469 C 398.476 5.01936 -0.19132 0
M  V30 4470 C 400.47 6.11491 -1.79881 0
M  V30 4471 C 398.157 6.00773 -1.11868 0
M  V30 4472 C 399.155 6.5543 -1.92095 0
M  V30 4473 O 398.843 7.5234 -2.83267 0
M  V30 4474 H 398.575 0.669489 0.0935961 0
M  V30 4475 H 401.129 2.02004 -0.371966 0
M  V30 4476 H 399.359 3.45136 1.74407 0
M  V30 4477 H 401.048 3.77856 1.48255 0
M  V30 4478 H 401.814 4.78564 -0.787523 0
M  V30 4479 H 397.693 4.59055 0.423072 0
M  V30 4480 H 401.237 6.54078 -2.42543 0
M  V30 4481 H 397.134 6.34114 -1.20703 0
M  V30 4482 H 397.902 7.69966 -2.7766 0
M  V30 4483 N 400.565 -0.0233959 1.57583 0
M  V30 4484 C 401.976 -0.56927 1.77809 0
M  V30 4485 C 402.327 -1.75284 0.881472 0
M  V30 4486 O 401.452 -2.1626 0.0777805 0
M  V30 4487 C 402.047 -1.03949 3.22459 0
M  V30 4488 C 400.606 -1.53084 3.43864 0
M  V30 4489 C 399.753 -0.471454 2.73263 0
M  V30 4490 H 402.704 0.202825 1.57399 0
M  V30 4491 H 402.725 -1.90661 3.29285 0
M  V30 4492 H 402.237 -0.177865 3.87692 0
M  V30 4493 H 400.338 -2.41414 2.83814 0
M  V30 4494 H 400.451 -1.57443 4.52491 0
M  V30 4495 H 398.815 -0.927788 2.37201 0
M  V30 4496 H 399.598 0.380808 3.41181 0
M  V30 4497 N 402.043 -1.548 -0.295768 0
M  V30 4498 C 403.291 -1.73985 -1.02828 0
M  V30 4499 C 403.612 -0.531406 -1.87619 0
M  V30 4500 O 402.882 0.454221 -1.90561 0
M  V30 4501 H 401.462 -0.641556 -0.382642 0
M  V30 4502 H 404.124 -1.92163 -0.325489 0
M  V30 4503 H 403.22 -2.63129 -1.67838 0
M  V30 4504 N 403.521 0.559213 -1.47345 0
M  V30 4505 C 404.77 1.31281 -1.53128 0
M  V30 4506 C 405.083 1.94602 -0.197344 0
M  V30 4507 O 406.289 2.71173 -0.133154 0
M  V30 4508 C 404.745 2.38051 -2.69925 0
M  V30 4509 C 404.353 1.8093 -4.0984 0
M  V30 4510 C 406.097 3.14604 -2.84999 0
M  V30 4511 C 404.004 2.85468 -5.1794 0
M  V30 4512 H 402.934 0.493614 -0.569966 0
M  V30 4513 H 405.585 0.594155 -1.73615 0
M  V30 4514 H 403.967 3.12822 -2.42814 0
M  V30 4515 H 405.141 1.12544 -4.46845 0
M  V30 4516 H 403.456 1.16967 -3.99634 0
M  V30 4517 H 406.053 3.92666 -3.62929 0
M  V30 4518 H 406.396 3.68665 -1.93369 0
M  V30 4519 H 406.929 2.46945 -3.1187 0
M  V30 4520 H 403.668 2.36264 -6.1144 0
M  V30 4521 H 403.188 3.52269 -4.85455 0
M  V30 4522 H 404.867 3.48996 -5.44803 0
M  V30 4523 N 404.999 1.35443 0.805782 0
M  V30 4524 C 406.415 1.15499 1.10146 0
M  V30 4525 C 406.615 -0.0319975 2.01475 0
M  V30 4526 O 405.671 -0.70236 2.42535 0
M  V30 4527 C 406.984 2.45833 1.73166 0
M  V30 4528 C 408.532 2.52047 1.85583 0
M  V30 4529 C 409.007 3.82427 2.52019 0
M  V30 4530 N 410.498 3.83682 2.59504 0
M  V30 4531 C 411.233 4.81294 3.11679 0
M  V30 4532 N 410.729 5.89294 3.64287 0
M  V30 4533 N 412.522 4.6873 3.1024 0
M  V30 4534 H 404.673 2.11469 0.198678 0
M  V30 4535 H 406.936 0.93594 0.150731 0
M  V30 4536 H 406.642 3.32874 1.13526 0
M  V30 4537 H 406.516 2.6044 2.72857 0
M  V30 4538 H 408.903 1.65435 2.44367 0
M  V30 4539 H 408.984 2.41354 0.847455 0
M  V30 4540 H 408.628 4.69437 1.93885 0
M  V30 4541 H 408.558 3.90409 3.53395 0
M  V30 4542 H 411.049 3.05648 2.22234 0
M  V30 4543 H 411.362 6.59768 4.02401 0
M  V30 4544 H 409.707 5.92985 3.62483 0
M  V30 4545 H 412.898 3.83496 2.68419 0
M  V30 4546 H 413.071 5.44965 3.50596 0
M  V30 4547 N 406.477 -1.02803 1.19454 0
M  V30 4548 C 407.723 -1.76478 0.999171 0
M  V30 4549 C 408.056 -1.88456 -0.468828 0
M  V30 4550 O 407.331 -1.40198 -1.34814 0
M  V30 4551 C 407.614 -3.19044 1.66981 0
M  V30 4552 C 407.467 -3.14932 3.21151 0
M  V30 4553 C 408.786 -4.17456 1.39349 0
M  V30 4554 H 405.905 -0.640614 0.364393 0
M  V30 4555 H 408.547 -1.20005 1.47305 0
M  V30 4556 H 406.697 -3.67263 1.2669 0
M  V30 4557 H 408.369 -2.74605 3.70661 0
M  V30 4558 H 406.612 -2.52625 3.52652 0
M  V30 4559 H 407.283 -4.1566 3.63223 0
M  V30 4560 H 409.759 -3.77842 1.74283 0
M  V30 4561 H 408.635 -5.154 1.88823 0
M  V30 4562 H 408.896 -4.40949 0.318813 0
M  V30 4563 N 407.956 -0.998596 -1.21925 0
M  V30 4564 C 409.372 -0.710303 -1.42923 0
M  V30 4565 C 409.572 0.716933 -1.88314 0
M  V30 4566 O 408.628 1.48712 -2.04062 0
M  V30 4567 C 409.941 -1.72072 -2.466 0
M  V30 4568 C 411.489 -1.73681 -2.60392 0
M  V30 4569 C 411.964 -2.73601 -3.67296 0
M  V30 4570 N 413.455 -2.7223 -3.7476 0
M  V30 4571 C 414.19 -3.46206 -4.57087 0
M  V30 4572 N 413.686 -4.29802 -5.43362 0
M  V30 4573 N 415.479 -3.34886 -4.51451 0
M  V30 4574 H 407.63 -1.92028 -0.9077 0
M  V30 4575 H 409.893 -0.828487 -0.460775 0
M  V30 4576 H 409.599 -2.74231 -2.20206 0
M  V30 4577 H 409.473 -1.51818 -3.45299 0
M  V30 4578 H 411.86 -0.722173 -2.86127 0
M  V30 4579 H 411.941 -1.98005 -1.61949 0
M  V30 4580 H 411.585 -3.75217 -3.42307 0
M  V30 4581 H 411.515 -2.46545 -4.65321 0
M  V30 4582 H 414.006 -2.11576 -3.1312 0
M  V30 4583 H 414.319 -4.83061 -6.03218 0
M  V30 4584 H 412.664 -4.33887 -5.42925 0
M  V30 4585 H 415.855 -2.69015 -3.83078 0
M  V30 4586 H 416.028 -3.92796 -5.15379 0
M  V30 4587 N 409.434 1.37368 -0.772513 0
M  V30 4588 C 410.366 2.28899 -0.117502 0
M  V30 4589 C 411.379 1.4867 0.663405 0
M  V30 4590 O 412.568 1.71314 0.501372 0
M  V30 4591 C 409.668 3.2788 0.857192 0
M  V30 4592 C 408.841 4.37207 0.129938 0
M  V30 4593 C 407.9 5.16257 1.01811 0
M  V30 4594 O 406.926 5.67159 0.481601 0
M  V30 4595 N 408.128 5.31058 2.3443 0
M  V30 4596 H 410.893 2.85752 -0.903662 0
M  V30 4597 H 408.454 1.49353 -0.62493 0
M  V30 4598 H 410.446 3.77647 1.45482 0
M  V30 4599 H 409.016 2.7179 1.54432 0
M  V30 4600 H 408.236 3.88827 -0.648605 0
M  V30 4601 H 409.524 5.07434 -0.372559 0
M  V30 4602 H 408.922 4.91287 2.80452 0
M  V30 4603 H 407.479 5.84131 2.89197 0
M  V30 4604 N 410.912 0.523116 1.48665 0
M  V30 4605 C 411.842 -0.23231 2.32342 0
M  V30 4606 C 412.823 -0.941637 1.41659 0
M  V30 4607 O 414.008 -0.928751 1.70552 0
M  V30 4608 C 411.138 -1.28387 3.22698 0
M  V30 4609 C 410.092 -0.693098 4.22351 0
M  V30 4610 C 409.418 -1.8468 5.01794 0
M  V30 4611 C 410.718 0.33063 5.21252 0
M  V30 4612 H 412.412 0.466192 2.95748 0
M  V30 4613 H 409.958 0.225643 1.42221 0
M  V30 4614 H 411.911 -1.82024 3.80059 0
M  V30 4615 H 410.635 -2.01186 2.57278 0
M  V30 4616 H 409.294 -0.178299 3.66166 0
M  V30 4617 H 408.942 -2.56301 4.32804 0
M  V30 4618 H 408.642 -1.45747 5.69238 0
M  V30 4619 H 410.166 -2.38709 5.62006 0
M  V30 4620 H 411.58 -0.118407 5.73178 0
M  V30 4621 H 409.977 0.636974 5.9671 0
M  V30 4622 H 411.047 1.23883 4.68808 0
M  V30 4623 N 412.39 -1.55475 0.257931 0
M  V30 4624 C 413.63 -2.01112 -0.365129 0
M  V30 4625 C 413.994 -1.1423 -1.54323 0
M  V30 4626 O 415.195 -1.49371 -2.23477 0
M  V30 4627 C 413.466 -3.49353 -0.754117 0
M  V30 4628 S 415.025 -4.16992 -1.36614 0
M  V30 4629 H 411.843 -0.701737 -0.114397 0
M  V30 4630 H 414.445 -1.91855 0.375747 0
M  V30 4631 H 413.149 -4.10246 0.112441 0
M  V30 4632 H 412.68 -3.6256 -1.52689 0
M  V30 4633 H 414.695 -4.19191 -2.65505 0
M  V30 4634 N 413.868 0.0150385 -1.57593 0
M  V30 4635 C 414.815 1.01126 -2.07466 0
M  V30 4636 C 415.785 1.35064 -0.966794 0
M  V30 4637 O 416.97 1.4516 -1.23827 0
M  V30 4638 C 414.11 2.30276 -2.57035 0
M  V30 4639 C 413.223 2.02373 -3.81666 0
M  V30 4640 C 412.358 3.25496 -4.19793 0
M  V30 4641 C 411.397 2.93211 -5.37303 0
M  V30 4642 N 410.534 4.08826 -5.70794 0
M  V30 4643 H 415.374 0.57901 -2.92321 0
M  V30 4644 H 412.911 0.27426 -1.44521 0
M  V30 4645 H 414.869 3.05757 -2.83846 0
M  V30 4646 H 413.499 2.71197 -1.75077 0
M  V30 4647 H 412.551 1.17327 -3.61854 0
M  V30 4648 H 413.863 1.74567 -4.67256 0
M  V30 4649 H 413.017 4.09333 -4.47807 0
M  V30 4650 H 411.756 3.56428 -3.32882 0
M  V30 4651 H 410.761 2.07777 -5.09027 0
M  V30 4652 H 411.986 2.63542 -6.25877 0
M  V30 4653 H 409.932 4.39682 -4.86842 0
M  V30 4654 H 409.849 3.84491 -6.50924 0
M  V30 4655 H 411.117 4.93496 -6.03392 0
M  V30 4656 N 415.346 1.54954 0.287554 0
M  V30 4657 C 416.276 1.89839 1.35954 0
M  V30 4658 C 417.257 0.758675 1.52244 0
M  V30 4659 O 418.442 1.01557 1.65529 0
M  V30 4660 C 415.572 2.15753 2.72154 0
M  V30 4661 C 414.526 3.3159 2.70614 0
M  V30 4662 C 413.852 3.42952 4.10229 0
M  V30 4663 C 415.152 4.68359 2.31165 0
M  V30 4664 H 416.846 2.79625 1.07007 0
M  V30 4665 H 414.392 1.3454 0.513316 0
M  V30 4666 H 416.345 2.38743 3.47246 0
M  V30 4667 H 415.069 1.22752 3.02654 0
M  V30 4668 H 413.728 3.08545 1.97979 0
M  V30 4669 H 413.376 2.47443 4.37928 0
M  V30 4670 H 413.076 4.20826 4.10097 0
M  V30 4671 H 414.6 3.68218 4.87081 0
M  V30 4672 H 416.014 4.9099 2.95976 0
M  V30 4673 H 414.411 5.49044 2.42221 0
M  V30 4674 H 415.481 4.68165 1.26291 0
M  V30 4675 N 416.824 -0.551391 1.4764 0
M  V30 4676 C 417.754 -1.66757 1.63445 0
M  V30 4677 C 418.735 -1.63077 0.483742 0
M  V30 4678 O 419.92 -1.80607 0.71377 0
M  V30 4679 C 417.05 -3.05387 1.65396 0
M  V30 4680 C 416.004 -3.23918 2.79752 0
M  V30 4681 C 415.33 -4.63393 2.66779 0
M  V30 4682 C 416.63 -3.08735 4.21284 0
M  V30 4683 H 418.324 -1.53786 2.56886 0
M  V30 4684 H 415.87 -0.738415 1.23626 0
M  V30 4685 H 417.823 -3.83325 1.75043 0
M  V30 4686 H 416.547 -3.19332 0.685195 0
M  V30 4687 H 415.206 -2.48391 2.69625 0
M  V30 4688 H 414.854 -4.74144 1.67918 0
M  V30 4689 H 414.554 -4.7674 3.43501 0
M  V30 4690 H 416.078 -5.43458 2.78364 0
M  V30 4691 H 417.492 -3.76484 4.32357 0
M  V30 4692 H 415.889 -3.33588 4.98838 0
M  V30 4693 H 416.959 -2.0541 4.39243 0
M  V30 4694 N 418.302 -1.35869 -0.798587 0
M  V30 4695 C 419.718 -1.16082 -1.09532 0
M  V30 4696 C 419.918 0.0213124 -2.01489 0
M  V30 4697 O 418.974 0.689488 -2.42904 0
M  V30 4698 C 420.287 -2.46748 -1.7186 0
M  V30 4699 C 421.835 -2.53028 -1.84244 0
M  V30 4700 C 422.31 -3.83758 -2.49988 0
M  V30 4701 N 423.801 -3.85053 -2.57465 0
M  V30 4702 C 424.536 -4.8294 -3.09122 0
M  V30 4703 N 424.032 -5.91217 -3.61157 0
M  V30 4704 N 425.825 -4.70369 -3.0775 0
M  V30 4705 H 417.976 -2.11571 -0.187461 0
M  V30 4706 H 420.239 -0.936726 -0.145765 0
M  V30 4707 H 419.945 -3.33471 -1.11759 0
M  V30 4708 H 419.819 -2.61883 -2.71472 0
M  V30 4709 H 422.206 -1.66729 -2.43486 0
M  V30 4710 H 422.287 -2.418 -0.834643 0
M  V30 4711 H 421.931 -4.70459 -1.91393 0
M  V30 4712 H 421.861 -3.92278 -3.5132 0
M  V30 4713 H 424.352 -3.06822 -2.20609 0
M  V30 4714 H 424.665 -6.61892 -3.98896 0
M  V30 4715 H 423.01 -5.94899 -3.59333 0
M  V30 4716 H 426.201 -3.84914 -2.66381 0
M  V30 4717 H 426.374 -5.46816 -3.47701 0
M  V30 4718 N 419.78 1.02168 -1.19998 0
M  V30 4719 C 421.028 1.75338 -1.00504 0
M  V30 4720 C 421.349 1.89387 0.464506 0
M  V30 4721 O 420.619 1.43268 1.33608 0
M  V30 4722 H 419.199 0.649564 -0.368885 0
M  V30 4723 H 421.861 1.23205 -1.51018 0
M  V30 4724 H 420.957 2.75892 -1.45912 0
M  V30 4725 N 421.258 1.00505 1.21394 0
M  V30 4726 C 422.486 0.706609 1.9446 0
M  V30 4727 C 422.901 -0.73081 1.74082 0
M  V30 4728 O 422.258 -1.49446 1.04747 0
M  V30 4729 C 422.309 1.01824 3.46863 0
M  V30 4730 O 422.03 2.39919 3.66566 0
M  V30 4731 C 423.531 0.739216 4.37093 0
M  V30 4732 H 420.751 0.260394 0.618414 0
M  V30 4733 H 423.295 1.34311 1.54211 0
M  V30 4734 H 421.45 0.427343 3.85036 0
M  V30 4735 H 421.864 2.50784 4.6066 0
M  V30 4736 H 423.338 1.00744 5.42729 0
M  V30 4737 H 423.815 -0.326746 4.37983 0
M  V30 4738 H 424.421 1.31173 4.04566 0
M  V30 4739 N 422.737 -1.36956 0.779787 0
M  V30 4740 C 423.684 -2.30175 0.169697 0
M  V30 4741 C 424.654 -1.51501 -0.68094 0
M  V30 4742 O 425.839 -1.80042 -0.631629 0
M  V30 4743 C 422.979 -3.37985 -0.697131 0
M  V30 4744 C 422.092 -4.31661 0.170992 0
M  V30 4745 C 421.227 -5.2655 -0.701298 0
M  V30 4746 C 420.266 -6.11867 0.168869 0
M  V30 4747 N 419.403 -6.98973 -0.661855 0
M  V30 4748 H 424.243 -2.81767 0.970135 0
M  V30 4749 H 421.78 -1.38699 0.489994 0
M  V30 4750 H 423.738 -3.99128 -1.2146 0
M  V30 4751 H 422.368 -2.87739 -1.46309 0
M  V30 4752 H 421.42 -3.71756 0.80634 0
M  V30 4753 H 422.732 -4.91644 0.841875 0
M  V30 4754 H 421.886 -5.92937 -1.28494 0
M  V30 4755 H 420.625 -4.66998 -1.40584 0
M  V30 4756 H 419.63 -5.44452 0.764986 0
M  V30 4757 H 420.855 -6.73493 0.870863 0
M  V30 4758 H 418.801 -6.41941 -1.35086 0
M  V30 4759 H 418.718 -7.55984 -0.0484447 0
M  V30 4760 H 419.986 -7.6974 -1.22963 0
M  V30 4761 N 424.215 -0.530993 -1.48385 0
M  V30 4762 C 425.178 0.220497 -2.28137 0
M  V30 4763 C 426.178 0.866851 -1.35434 0
M  V30 4764 O 427.368 0.726746 -1.58316 0
M  V30 4765 C 424.5 1.31921 -3.1434 0
M  V30 4766 H 425.693 -0.479714 -2.96038 0
M  V30 4767 H 423.246 -0.286968 -1.53643 0
M  V30 4768 H 423.981 2.05264 -2.51072 0
M  V30 4769 H 423.766 0.86085 -3.82533 0
M  V30 4770 H 425.256 1.84776 -3.74497 0
M  V30 4771 N 425.693 1.55336 -0.266172 0
M  V30 4772 C 426.623 2.25146 0.618981 0
M  V30 4773 C 427.604 1.23845 1.16604 0
M  V30 4774 O 428.789 1.52544 1.20183 0
M  V30 4775 C 425.919 2.96572 1.80728 0
M  V30 4776 C 424.873 4.04726 1.39215 0
M  V30 4777 C 424.199 4.63678 2.66283 0
M  V30 4778 C 425.499 5.19407 0.548942 0
M  V30 4779 H 427.193 2.99377 0.0368116 0
M  V30 4780 H 424.739 1.43991 0.0162651 0
M  V30 4781 H 426.692 3.44116 2.43232 0
M  V30 4782 H 425.416 2.19861 2.41514 0
M  V30 4783 H 424.075 3.57979 0.790351 0
M  V30 4784 H 423.723 3.83646 3.25308 0
M  V30 4785 H 423.423 5.367 2.39222 0
M  V30 4786 H 424.947 5.13967 3.29651 0
M  V30 4787 H 426.361 5.63059 1.07876 0
M  V30 4788 H 424.758 5.98936 0.373593 0
M  V30 4789 H 425.828 4.8295 -0.434394 0
M  V30 4790 N 427.171 -0.0066808 1.57599 0
M  V30 4791 C 428.399 -0.704087 1.94551 0
M  V30 4792 C 428.814 -1.67677 0.867746 0
M  V30 4793 O 428.171 -1.8185 -0.153925 0
M  V30 4794 C 428.222 -1.44177 3.31505 0
M  V30 4795 O 427.943 -0.508097 4.35144 0
M  V30 4796 C 429.444 -2.23429 3.82876 0
M  V30 4797 H 426.664 -0.196523 0.641576 0
M  V30 4798 H 429.208 0.042453 2.04456 0
M  V30 4799 H 427.363 -2.13999 3.22929 0
M  V30 4800 H 427.777 -1.02782 5.14331 0
M  V30 4801 H 429.251 -2.70552 4.8115 0
M  V30 4802 H 429.728 -3.05818 3.15233 0
M  V30 4803 H 430.334 -1.58636 3.94607 0
M  V30 4804 N 428.649 -1.55105 -0.279332 0
M  V30 4805 C 429.559 -1.90638 -1.36727 0
M  V30 4806 C 430.575 -0.802899 -1.54368 0
M  V30 4807 O 431.751 -1.10138 -1.68616 0
M  V30 4808 C 428.816 -2.16547 -2.70755 0
M  V30 4809 C 427.877 -3.40146 -2.61915 0
M  V30 4810 C 427.11 -3.6481 -3.8955 0
M  V30 4811 O 427.333 -2.92095 -4.89935 0
M  V30 4812 O 426.267 -4.58343 -3.90135 0
M  V30 4813 H 430.093 -2.83237 -1.09591 0
M  V30 4814 H 427.678 -1.4157 -0.477306 0
M  V30 4815 H 429.56 -2.34665 -3.50014 0
M  V30 4816 H 428.235 -1.27131 -2.9769 0
M  V30 4817 H 427.142 -3.2737 -1.81052 0
M  V30 4818 H 428.475 -4.29761 -2.3993 0
M  V30 4819 N 430.127 0.543554 -1.4793 0
M  V30 4820 C 431.373 1.30201 -1.55485 0
M  V30 4821 C 431.706 1.92925 -0.222201 0
M  V30 4822 O 430.981 1.78586 0.77053 0
M  V30 4823 C 431.264 2.40174 -2.68307 0
M  V30 4824 C 431.117 1.8223 -4.11233 0
M  V30 4825 C 432.436 3.42024 -2.76961 0
M  V30 4826 H 429.555 0.472036 -0.565996 0
M  V30 4827 H 432.197 0.606914 -1.80046 0
M  V30 4828 H 430.347 2.99463 -2.47495 0
M  V30 4829 H 432.019 1.27096 -4.43446 0
M  V30 4830 H 430.262 1.12832 -4.18869 0
M  V30 4831 H 430.933 2.61793 -4.85972 0
M  V30 4832 H 433.409 2.92672 -2.95774 0
M  V30 4833 H 432.285 4.16383 -3.57654 0
M  V30 4834 H 432.546 4.0173 -1.84568 0
M  V30 4835 N 431.605 1.3629 0.791371 0
M  V30 4836 C 432.854 1.29742 1.54434 0
M  V30 4837 C 433.167 -0.121729 1.95221 0
M  V30 4838 O 434.373 -0.309579 2.69729 0
M  V30 4839 C 432.829 2.27623 2.78776 0
M  V30 4840 C 432.437 3.74963 2.45166 0
M  V30 4841 C 434.181 2.30047 3.56761 0
M  V30 4842 C 432.088 4.64626 3.65891 0
M  V30 4843 H 431.018 0.482113 0.579727 0
M  V30 4844 H 433.669 1.61642 0.868565 0
M  V30 4845 H 432.051 1.88714 3.48142 0
M  V30 4846 H 433.225 4.22596 1.83709 0
M  V30 4847 H 431.54 3.75295 1.80396 0
M  V30 4848 H 434.137 2.94247 4.46456 0
M  V30 4849 H 434.48 1.30846 3.95203 0
M  V30 4850 H 435.013 2.67563 2.94372 0
M  V30 4851 H 431.752 5.64883 3.32547 0
M  V30 4852 H 431.272 4.2171 4.26521 0
M  V30 4853 H 432.951 4.80801 4.32943 0
M  V30 4854 N 433.083 -1.0153 1.20538 0
M  V30 4855 C 434.494 -1.56598 1.01657 0
M  V30 4856 C 434.845 -1.91505 -0.426668 0
M  V30 4857 O 433.97 -1.72375 -1.30827 0
M  V30 4858 C 434.565 -2.84542 1.83905 0
M  V30 4859 C 433.124 -3.36133 1.69386 0
M  V30 4860 C 432.271 -2.09427 1.81757 0
M  V30 4861 H 435.222 -0.838974 1.34711 0
M  V30 4862 H 435.243 -3.56004 1.34319 0
M  V30 4863 H 434.755 -2.59105 2.8894 0
M  V30 4864 H 432.856 -3.66528 0.669933 0
M  V30 4865 H 432.969 -4.08248 2.50739 0
M  V30 4866 H 431.333 -2.21941 1.24957 0
M  V30 4867 H 432.116 -1.86414 2.88279 0
M  V30 4868 N 434.561 -1.01147 -1.20859 0
M  V30 4869 C 435.491 -0.597663 -2.25722 0
M  V30 4870 C 436.472 0.384744 -1.65692 0
M  V30 4871 O 437.657 0.271303 -1.92296 0
M  V30 4872 C 434.787 0.0700149 -3.47229 0
M  V30 4873 C 433.741 -0.832843 -4.19819 0
M  V30 4874 C 433.067 -0.0312202 -5.34691 0
M  V30 4875 C 434.367 -2.1385 -4.76514 0
M  V30 4876 H 436.061 -1.47423 -2.60589 0
M  V30 4877 H 433.607 -0.710301 -1.25263 0
M  V30 4878 H 435.56 0.37103 -4.19763 0
M  V30 4879 H 434.284 0.981259 -3.11511 0
M  V30 4880 H 432.943 -1.11778 -3.49144 0
M  V30 4881 H 432.591 0.881515 -4.95215 0
M  V30 4882 H 432.291 -0.632434 -5.84187 0
M  V30 4883 H 433.815 0.26346 -6.10031 0
M  V30 4884 H 435.229 -1.9002 -5.40893 0
M  V30 4885 H 433.626 -2.69012 -5.36426 0
M  V30 4886 H 434.696 -2.80495 -3.95538 0
M  V30 4887 N 436.039 1.36541 -0.78704 0
M  V30 4888 C 437.267 2.03561 -0.370199 0
M  V30 4889 C 437.682 1.59347 1.01263 0
M  V30 4890 O 437.039 0.781781 1.64907 0
M  V30 4891 C 437.09 3.59033 -0.421614 0
M  V30 4892 O 436.811 4.01634 -1.7499 0
M  V30 4893 C 438.312 4.433 0.00489763 0
M  V30 4894 H 435.532 0.653346 -0.152904 0
M  V30 4895 H 438.076 1.74566 -1.06522 0
M  V30 4896 H 436.231 3.86746 0.224971 0
M  V30 4897 H 436.645 4.96217 -1.69909 0
M  V30 4898 H 438.119 5.51939 -0.0822184 0
M  V30 4899 H 438.596 4.26285 1.05723 0
M  V30 4900 H 439.202 4.20843 -0.614085 0
M  V30 4901 N 437.518 0.538854 1.48102 0
M  V30 4902 C 438.428 -0.222648 2.33541 0
M  V30 4903 C 439.444 -0.930225 1.47047 0
M  V30 4904 O 440.62 -0.903211 1.80011 0
M  V30 4905 C 437.685 -1.25064 3.23357 0
M  V30 4906 C 436.746 -0.552469 4.2573 0
M  V30 4907 C 435.979 -1.53149 5.11254 0
M  V30 4908 O 436.202 -2.76487 4.9891 0
M  V30 4909 O 435.136 -1.06602 5.92385 0
M  V30 4910 H 438.962 0.477707 2.99919 0
M  V30 4911 H 436.547 0.299669 1.46364 0
M  V30 4912 H 438.429 -1.8445 3.78888 0
M  V30 4913 H 437.104 -1.93325 2.59629 0
M  V30 4914 H 436.011 0.082114 3.7401 0
M  V30 4915 H 437.344 0.0883526 4.92121 0
M  V30 4916 N 438.996 -1.55193 0.274407 0
M  V30 4917 C 439.906 -2.26164 -0.623473 0
M  V30 4918 C 440.922 -1.28729 -1.17068 0
M  V30 4919 O 442.098 -1.61663 -1.20112 0
M  V30 4920 C 439.163 -2.96833 -1.7914 0
M  V30 4921 C 438.224 -4.09745 -1.28093 0
M  V30 4922 C 437.457 -4.77034 -2.3932 0
M  V30 4923 O 437.68 -4.4353 -3.5866 0
M  V30 4924 O 436.614 -5.64996 -2.07516 0
M  V30 4925 H 440.44 -3.03661 -0.0485661 0
M  V30 4926 H 438.025 -1.49341 0.0418382 0
M  V30 4927 H 439.907 -3.41248 -2.4724 0
M  V30 4928 H 438.582 -2.22253 -2.35341 0
M  V30 4929 H 437.489 -3.69787 -0.566416 0
M  V30 4930 H 438.822 -4.86224 -0.764683 0
M  V30 4931 N 440.474 -0.00167713 -1.576 0
M  V30 4932 C 441.437 0.974046 -2.07473 0
M  V30 4933 C 442.437 1.27143 -0.984444 0
M  V30 4934 O 443.627 1.21633 -1.24703 0
M  V30 4935 C 440.759 2.29849 -2.51759 0
M  V30 4936 H 441.952 0.54262 -2.9495 0
M  V30 4937 H 439.505 0.245829 -1.54355 0
M  V30 4938 H 440.24 2.77677 -1.67529 0
M  V30 4939 H 440.025 2.09584 -3.31386 0
M  V30 4940 H 441.515 2.9984 -2.90664 0
M  V30 4941 N 441.952 1.55251 0.271103 0
M  V30 4942 C 442.862 1.9136 1.35714 0
M  V30 4943 C 443.878 0.811075 1.5394 0
M  V30 4944 O 445.054 1.11031 1.6803 0
M  V30 4945 C 442.119 2.1798 2.69603 0
M  V30 4946 C 441.18 3.4153 2.60107 0
M  V30 4947 C 440.413 3.66871 3.8761 0
M  V30 4948 O 440.636 2.94689 4.8838 0
M  V30 4949 O 439.57 4.60405 3.87699 0
M  V30 4950 H 443.396 2.83815 1.08088 0
M  V30 4951 H 440.981 1.41821 0.469792 0
M  V30 4952 H 442.863 2.36518 3.48765 0
M  V30 4953 H 441.538 1.28708 2.97012 0
M  V30 4954 H 440.445 3.28325 1.79314 0
M  V30 4955 H 441.778 4.31027 2.37647 0
M  V30 4956 N 443.43 -0.535701 1.48216 0
M  V30 4957 C 444.36 -1.65014 1.65204 0
M  V30 4958 C 445.341 -1.62554 0.501011 0
M  V30 4959 O 446.526 -1.7984 0.732886 0
M  V30 4960 C 443.656 -3.03616 1.68626 0
M  V30 4961 C 442.61 -3.20932 2.83172 0
M  V30 4962 C 441.936 -4.60537 2.71679 0
M  V30 4963 C 443.236 -3.04249 4.24535 0
M  V30 4964 H 444.93 -1.51053 2.58502 0
M  V30 4965 H 442.476 -0.725262 1.24402 0
M  V30 4966 H 444.429 -3.81446 1.79099 0
M  V30 4967 H 443.153 -3.18587 0.719026 0
M  V30 4968 H 441.812 -2.45517 2.72244 0
M  V30 4969 H 441.46 -4.72336 1.72937 0
M  V30 4970 H 441.16 -4.73069 3.48538 0
M  V30 4971 H 442.684 -5.40475 2.84112 0
M  V30 4972 H 444.098 -3.71877 4.36326 0
M  V30 4973 H 442.495 -3.28278 5.02348 0
M  V30 4974 H 443.565 -2.00739 4.41397 0
M  V30 4975 N 444.908 -1.36708 -0.784132 0
M  V30 4976 C 445.818 -1.3363 -1.92822 0
M  V30 4977 C 446.834 -0.237686 -1.72369 0
M  V30 4978 O 448.01 -0.470962 -1.95816 0
M  V30 4979 C 445.075 -1.13011 -3.27764 0
M  V30 4980 C 444.136 -2.32397 -3.60957 0
M  V30 4981 C 443.369 -2.12752 -4.89461 0
M  V30 4982 O 443.592 -1.10541 -5.59586 0
M  V30 4983 O 442.526 -3.00653 -5.21432 0
M  V30 4984 H 446.352 -2.29964 -1.98369 0
M  V30 4985 H 443.937 -1.1731 -0.925136 0
M  V30 4986 H 445.819 -1.03451 -4.08504 0
M  V30 4987 H 444.494 -0.19743 -3.23097 0
M  V30 4988 H 443.401 -2.47527 -2.80502 0
M  V30 4989 H 444.734 -3.2419 -3.70354 0
M  V30 4990 N 446.386 1.0089 -1.21074 0
M  V30 4991 C 447.316 2.1145 -0.990523 0
M  V30 4992 C 448.297 1.69897 0.0831699 0
M  V30 4993 O 449.482 1.94052 -0.0758853 0
M  V30 4994 C 446.612 3.42914 -0.550177 0
M  V30 4995 C 445.566 3.98244 -1.56799 0
M  V30 4996 C 444.892 5.25568 -0.984013 0
M  V30 4997 C 446.192 4.30752 -2.95381 0
M  V30 4998 H 447.886 2.3013 -1.91521 0
M  V30 4999 H 445.432 1.10592 -0.92225 0
M  V30 5000 H 447.385 4.19653 -0.383305 0
M  V30 5001 H 446.109 3.24014 0.41015 0
M  V30 5002 H 444.768 3.23621 -1.72236 0
M  V30 5003 H 444.416 5.02998 -0.0155216 0
M  V30 5004 H 444.116 5.63551 -1.66384 0
M  V30 5005 H 445.64 6.04955 -0.828378 0
M  V30 5006 H 447.054 4.98349 -2.8341 0
M  V30 5007 H 445.451 4.79869 -3.60341 0
M  V30 5008 H 446.521 3.39192 -3.46521 0
M  V30 5009 N 447.864 1.01787 1.20321 0
M  V30 5010 C 448.827 0.593972 2.2137 0
M  V30 5011 C 449.827 -0.336553 1.57239 0
M  V30 5012 O 451.017 -0.125069 1.7375 0
M  V30 5013 C 448.149 -0.132433 3.40643 0
M  V30 5014 H 449.342 1.48791 2.60387 0
M  V30 5015 H 446.895 0.807803 1.33807 0
M  V30 5016 H 447.63 -1.04123 3.0713 0
M  V30 5017 H 447.415 0.53605 3.88418 0
M  V30 5018 H 448.905 -0.416314 4.1552 0
M  V30 5019 N 449.342 -1.36122 0.79427 0
M  V30 5020 C 450.252 -2.33769 0.197296 0
M  V30 5021 C 451.268 -1.61276 -0.653153 0
M  V30 5022 O 452.444 -1.9323 -0.5678 0
M  V30 5023 C 449.509 -3.40474 -0.654098 0
M  V30 5024 C 448.57 -4.28759 0.215411 0
M  V30 5025 C 447.803 -5.30368 -0.595443 0
M  V30 5026 O 448.026 -5.40211 -1.83107 0
M  V30 5027 O 446.96 -6.019 0.00721351 0
M  V30 5028 H 450.786 -2.86597 1.00478 0
M  V30 5029 H 448.371 -1.38676 0.555818 0
M  V30 5030 H 450.253 -4.05703 -1.13944 0
M  V30 5031 H 448.928 -2.89937 -1.43938 0
M  V30 5032 H 447.835 -3.66554 0.747615 0
M  V30 5033 H 449.168 -4.82661 0.964332 0
M  V30 5034 N 450.82 -0.546701 -1.47814 0
M  V30 5035 C 451.768 0.220048 -2.31557 0
M  V30 5036 C 452.762 0.919472 -1.42275 0
M  V30 5037 O 453.968 0.841953 -1.59095 0
M  V30 5038 H 450.343 0.0898334 -0.746615 0
M  V30 5039 H 452.314 -0.505589 -2.94086 0
M  V30 5040 C 451.063 1.24353 -3.24702 0
M  V30 5041 H 450.386 0.714758 -3.93359 0
M  V30 5042 H 451.826 1.75112 -3.8615 0
M  V30 5043 C 450.285 2.28593 -2.47481 0
M  V30 5044 O 450.815 3.35334 -2.21165 0
M  V30 5045 N 449.021 2.02244 -2.08676 0
M  V30 5046 H 448.568 1.15455 -2.30278 0
M  V30 5047 H 448.526 2.72207 -1.57323 0
M  V30 5048 N 452.299 1.55045 -0.282633 0
M  V30 5049 C 453.715 1.59441 0.0712997 0
M  V30 5050 C 453.915 1.2998 1.53972 0
M  V30 5051 O 452.971 1.06431 2.28973 0
M  V30 5052 C 454.284 2.99097 -0.310104 0
M  V30 5053 C 455.832 3.1194 -0.257343 0
M  V30 5054 C 456.307 4.53875 -0.613297 0
M  V30 5055 N 457.798 4.5974 -0.565134 0
M  V30 5056 C 458.533 5.67603 -0.81326 0
M  V30 5057 N 458.029 6.83582 -1.1264 0
M  V30 5058 N 459.822 5.57187 -0.741553 0
M  V30 5059 H 451.973 1.72458 -1.23984 0
M  V30 5060 H 454.236 0.804549 -0.501403 0
M  V30 5061 H 453.942 3.25516 -1.33163 0
M  V30 5062 H 453.816 3.75616 0.345366 0
M  V30 5063 H 456.203 2.85281 0.754905 0
M  V30 5064 H 456.284 2.37618 -0.947178 0
M  V30 5065 H 455.928 4.81261 -1.62327 0
M  V30 5066 H 455.858 5.26508 0.09841 0
M  V30 5067 H 458.349 3.76427 -0.333294 0
M  V30 5068 H 458.662 7.6175 -1.30219 0
M  V30 5069 H 457.007 6.85179 -1.16425 0
M  V30 5070 H 460.198 4.65457 -0.496705 0
M  V30 5071 H 460.371 6.41171 -0.938306 0
M  V30 5072 N 453.777 0.010035 1.57597 0
M  V30 5073 C 454.687 -0.994226 2.12491 0
M  V30 5074 C 455.703 -1.37013 1.07254 0
M  V30 5075 O 456.879 -1.45542 1.3921 0
M  V30 5076 C 453.944 -2.2642 2.62555 0
M  V30 5077 C 453.005 -1.95049 3.82432 0
M  V30 5078 C 452.238 -3.15991 4.30099 0
M  V30 5079 O 452.461 -4.28015 3.7704 0
M  V30 5080 O 451.395 -2.99403 5.22151 0
M  V30 5081 H 455.221 -0.557549 2.98538 0
M  V30 5082 H 452.806 -0.209413 1.47925 0
M  V30 5083 H 454.688 -3.01009 2.9491 0
M  V30 5084 H 453.363 -2.69306 1.796 0
M  V30 5085 H 452.27 -1.17904 3.55034 0
M  V30 5086 H 453.603 -1.56992 4.66491 0
M  V30 5087 N 455.255 -1.55392 -0.262866 0
M  V30 5088 C 456.504 -1.75679 -0.990943 0
M  V30 5089 C 456.817 -0.57097 -1.87081 0
M  V30 5090 O 458.023 -0.656486 -2.63444 0
M  V30 5091 C 456.479 -3.10964 -1.81188 0
M  V30 5092 C 456.087 -4.37146 -0.980188 0
M  V30 5093 C 457.831 -3.40597 -2.53365 0
M  V30 5094 C 455.738 -5.63466 -1.7961 0
M  V30 5095 H 454.668 -0.654868 -0.373716 0
M  V30 5096 H 457.319 -1.81841 -0.246203 0
M  V30 5097 H 455.701 -2.98867 -2.59797 0
M  V30 5098 H 456.875 -4.60187 -0.237558 0
M  V30 5099 H 455.19 -4.14731 -0.372497 0
M  V30 5100 H 457.787 -4.32186 -3.14833 0
M  V30 5101 H 458.13 -2.6119 -3.24169 0
M  V30 5102 H 458.663 -3.53838 -1.81779 0
M  V30 5103 H 455.402 -6.4565 -1.13209 0
M  V30 5104 H 454.922 -5.44552 -2.51443 0
M  V30 5105 H 456.601 -6.02139 -2.36723 0
M  V30 5106 N 456.733 0.527833 -1.48498 0
M  V30 5107 C 457.663 1.64136 -1.66077 0
M  V30 5108 C 458.644 1.62286 -0.509625 0
M  V30 5109 O 459.829 1.79449 -0.742413 0
M  V30 5110 C 456.959 3.02717 -1.70234 0
M  V30 5111 C 455.913 3.19426 -2.8487 0
M  V30 5112 C 455.239 4.5909 -2.74118 0
M  V30 5113 C 456.539 3.01993 -4.26142 0
M  V30 5114 H 458.233 1.4968 -2.593 0
M  V30 5115 H 455.779 0.718654 -1.24785 0
M  V30 5116 H 457.732 3.80491 -1.8112 0
M  V30 5117 H 456.456 3.18201 -0.735911 0
M  V30 5118 H 455.115 2.4407 -2.73542 0
M  V30 5119 H 454.763 4.71413 -1.7544 0
M  V30 5120 H 454.463 4.71214 -3.51042 0
M  V30 5121 H 455.987 5.3896 -2.86974 0
M  V30 5122 H 457.401 3.69558 -4.38292 0
M  V30 5123 H 455.798 3.2561 -5.04082 0
M  V30 5124 H 456.868 1.98396 -4.42456 0
M  V30 5125 N 458.211 1.37122 0.776871 0
M  V30 5126 C 459.158 1.3247 1.88998 0
M  V30 5127 C 460.128 0.191143 1.64997 0
M  V30 5128 O 461.313 0.379683 1.86984 0
M  V30 5129 C 458.453 1.13241 3.25992 0
M  V30 5130 C 457.566 2.35782 3.61982 0
M  V30 5131 C 456.701 2.09465 4.88158 0
M  V30 5132 C 455.74 3.279 5.16864 0
M  V30 5133 N 454.877 3.01167 6.34226 0
M  V30 5134 H 459.717 2.27642 1.9231 0
M  V30 5135 H 457.254 1.13125 0.94027 0
M  V30 5136 H 459.212 1.00115 4.0501 0
M  V30 5137 H 457.842 0.217186 3.22069 0
M  V30 5138 H 456.894 2.59666 2.77989 0
M  V30 5139 H 458.206 3.24125 3.79137 0
M  V30 5140 H 457.36 1.93341 5.75069 0
M  V30 5141 H 456.099 1.18452 4.73097 0
M  V30 5142 H 455.104 3.44569 4.2843 0
M  V30 5143 H 456.329 4.19757 5.33836 0
M  V30 5144 H 454.275 2.12779 6.20533 0
M  V30 5145 H 454.192 3.83052 6.51772 0
M  V30 5146 H 455.46 2.88649 7.24087 0
M  V30 5147 N 459.689 -1.00246 1.21608 0
M  V30 5148 C 460.599 -2.12515 0.993709 0
M  V30 5149 C 461.615 -1.73913 -0.0549939 0
M  V30 5150 O 462.791 -2.00943 0.135619 0
M  V30 5151 C 459.856 -3.42083 0.563953 0
M  V30 5152 C 458.917 -3.94843 1.68516 0
M  V30 5153 C 458.15 -5.18226 1.27582 0
M  V30 5154 O 458.373 -5.70201 0.150506 0
M  V30 5155 O 457.307 -5.64497 2.0887 0
M  V30 5156 H 461.133 -2.34152 1.93407 0
M  V30 5157 H 458.718 -1.10891 1.00118 0
M  V30 5158 H 460.6 -4.20073 0.334194 0
M  V30 5159 H 459.275 -3.21828 -0.347665 0
M  V30 5160 H 458.182 -3.18068 1.96935 0
M  V30 5161 H 459.515 -4.19512 2.5743 0
M  V30 5162 N 461.167 -1.02423 -1.1978 0
M  V30 5163 C 462.578 -0.748389 -1.71044 0
M  V30 5164 C 462.929 0.732398 -1.82017 0
M  V30 5165 O 462.054 1.57116 -1.48807 0
M  V30 5166 C 462.649 -1.35187 -3.1066 0
M  V30 5167 C 461.208 -1.12472 -3.59203 0
M  V30 5168 C 460.355 -1.45283 -2.36195 0
M  V30 5169 H 463.306 -1.19275 -1.04686 0
M  V30 5170 H 463.327 -0.746408 -3.73107 0
M  V30 5171 H 462.839 -2.4296 -3.02642 0
M  V30 5172 H 460.94 -0.0649983 -3.72543 0
M  V30 5173 H 461.053 -1.81016 -4.43588 0
M  V30 5174 H 459.417 -0.872034 -2.39307 0
M  V30 5175 H 460.2 -2.54129 -2.30811 0
M  V30 5176 N 462.645 1.35699 -0.801477 0
M  V30 5177 C 463.891 1.99208 -0.380022 0
M  V30 5178 C 464.224 1.63445 1.04878 0
M  V30 5179 O 463.499 0.895223 1.72673 0
M  V30 5180 C 463.782 3.55755 -0.557708 0
M  V30 5181 C 463.635 4.01332 -2.03107 0
M  V30 5182 C 464.954 4.40096 0.0197968 0
M  V30 5183 H 462.073 0.723667 -0.139552 0
M  V30 5184 H 464.715 1.60928 -1.01006 0
M  V30 5185 H 462.865 3.88494 -0.0213741 0
M  V30 5186 H 464.537 3.79026 -2.62939 0
M  V30 5187 H 462.78 3.52429 -2.52936 0
M  V30 5188 H 463.451 5.10234 -2.1063 0
M  V30 5189 H 465.927 4.13786 -0.438179 0
M  V30 5190 H 464.803 5.48735 -0.134477 0
M  V30 5191 H 465.064 4.2786 1.11303 0
M  V30 5192 N 464.123 0.554532 1.47522 0
M  V30 5193 C 465.073 -0.215008 2.26984 0
M  V30 5194 C 466.057 -0.88774 1.34194 0
M  V30 5195 O 467.249 -0.786489 1.58567 0
M  V30 5196 C 464.378 -1.24604 3.19889 0
M  V30 5197 C 463.464 -0.576857 4.20159 0
M  V30 5198 N 463.855 0.351541 5.04577 0
M  V30 5199 C 462.153 -0.831104 4.38188 0
M  V30 5200 C 462.854 0.739995 5.76974 0
M  V30 5201 N 461.83 0.0954407 5.43516 0
M  V30 5202 H 465.632 0.498843 2.89636 0
M  V30 5203 H 463.146 0.374279 1.58028 0
M  V30 5204 H 465.143 -1.81128 3.75498 0
M  V30 5205 H 463.803 -1.96101 2.58794 0
M  V30 5206 H 464.814 0.725556 5.12792 0
M  V30 5207 H 461.491 -1.53479 3.88266 0
M  V30 5208 H 462.881 1.50271 6.5488 0
M  V30 5209 N 465.601 -1.54893 0.290851 0
M  V30 5210 C 466.849 -1.99538 -0.320756 0
M  V30 5211 C 467.17 -1.18075 -1.55188 0
M  V30 5212 O 466.44 -0.274162 -1.93972 0
M  V30 5213 H 465.02 -0.737052 -0.121507 0
M  V30 5214 H 467.682 -1.90755 0.399832 0
M  V30 5215 H 466.778 -3.06282 -0.599802 0
M  V30 5216 N 467.08 -0.0183926 -1.57589 0
M  V30 5217 C 468.326 0.663543 -1.91638 0
M  V30 5218 C 468.659 1.72392 -0.894134 0
M  V30 5219 O 467.934 1.94316 0.0846449 0
M  V30 5220 C 468.217 1.28984 -3.36207 0
M  V30 5221 C 468.07 0.239761 -4.49161 0
M  V30 5222 C 469.389 2.2109 -3.80536 0
M  V30 5223 H 466.508 0.239746 -0.696915 0
M  V30 5224 H 469.15 -0.073456 -1.89858 0
M  V30 5225 H 467.3 1.91799 -3.37854 0
M  V30 5226 H 468.972 -0.390119 -4.59647 0
M  V30 5227 H 467.215 -0.435972 -4.31604 0
M  V30 5228 H 467.886 0.717383 -5.47319 0
M  V30 5229 H 470.362 1.68273 -3.80557 0
M  V30 5230 H 469.238 2.61869 -4.82406 0
M  V30 5231 H 469.499 3.09764 -3.15434 0
M  V30 5232 N 468.558 1.5553 0.254621 0
M  V30 5233 C 469.788 1.80784 1.00004 0
M  V30 5234 C 470.196 0.59071 1.79742 0
M  V30 5235 O 469.539 -0.449988 1.78103 0
M  V30 5236 C 469.601 2.99268 1.99196 0
M  V30 5237 C 469.265 4.35595 1.38224 0
M  V30 5238 C 470.262 5.13884 0.788611 0
M  V30 5239 C 467.947 4.82281 1.40393 0
M  V30 5240 C 469.941 6.37004 0.224783 0
M  V30 5241 C 467.628 6.05351 0.836243 0
M  V30 5242 C 468.626 6.82551 0.24769 0
M  V30 5243 O 468.314 8.03297 -0.311249 0
M  V30 5244 H 468.046 0.60565 0.300274 0
M  V30 5245 H 470.6 2.03411 0.285143 0
M  V30 5246 H 468.83 2.72377 2.74496 0
M  V30 5247 H 470.519 3.11682 2.60018 0
M  V30 5248 H 471.285 4.78938 0.764423 0
M  V30 5249 H 467.164 4.22189 1.85142 0
M  V30 5250 H 470.708 6.97203 -0.235235 0
M  V30 5251 H 466.605 6.39776 0.857733 0
M  V30 5252 H 467.373 8.1825 -0.20237 0
M  V30 5253 N 470.036 -0.519951 1.48776 0
M  V30 5254 C 471.266 -1.29783 1.60748 0
M  V30 5255 C 471.674 -1.87253 0.27072 0
M  V30 5256 O 471.017 -1.67628 -0.751438 0
M  V30 5257 C 471.079 -2.47984 2.60277 0
M  V30 5258 C 470.743 -2.11526 4.051 0
M  V30 5259 C 471.74 -1.66608 4.92481 0
M  V30 5260 C 469.425 -2.21742 4.50706 0
M  V30 5261 C 471.419 -1.32384 6.23501 0
M  V30 5262 C 469.106 -1.87129 5.81744 0
M  V30 5263 C 470.104 -1.42523 6.67964 0
M  V30 5264 O 469.792 -1.0837 7.96562 0
M  V30 5265 H 469.524 -0.400562 0.544542 0
M  V30 5266 H 472.078 -0.632879 1.95407 0
M  V30 5267 H 470.308 -3.17493 2.2076 0
M  V30 5268 H 471.997 -3.10036 2.61978 0
M  V30 5269 H 472.763 -1.58178 4.58481 0
M  V30 5270 H 468.642 -2.55415 3.83776 0
M  V30 5271 H 472.186 -0.974949 6.90754 0
M  V30 5272 H 468.083 -1.95204 6.15277 0
M  V30 5273 H 468.851 -1.21681 8.09405 0
M  V30 5274 N 471.514 -1.37532 -0.769588 0
M  V30 5275 C 472.791 -1.23392 -1.51768 0
M  V30 5276 C 473.171 0.17157 -2.10402 0
M  V30 5277 O 472.519 1.17943 -1.95708 0
M  V30 5278 C 472.729 -2.33163 -2.59685 0
M  V30 5279 C 474.077 -2.70809 -3.27028 0
M  V30 5280 O 475.101 -2.32355 -2.69981 0
M  V30 5281 O 473.96 -3.37066 -4.30173 0
M  V30 5282 H 471.054 -0.481617 -0.67229 0
M  V30 5283 H 473.6 -1.49318 -0.806368 0
M  V30 5284 H 472.372 -3.27273 -2.14494 0
M  V30 5285 H 471.995 -2.08713 -3.38415 0
M  V30 5286 N 472.992 0.995999 -1.22138 0
M  V30 5287 C 474.403 1.54961 -1.04135 0
M  V30 5288 C 474.754 1.92159 0.396147 0
M  V30 5289 O 473.879 1.74435 1.28069 0
M  V30 5290 C 474.474 2.81581 -1.88408 0
M  V30 5291 C 473.033 3.33396 -1.74712 0
M  V30 5292 C 472.18 2.06509 -1.85066 0
M  V30 5293 H 475.131 0.817436 -1.36028 0
M  V30 5294 H 475.152 3.53822 -1.39966 0
M  V30 5295 H 474.664 2.54476 -2.93025 0
M  V30 5296 H 472.765 3.65416 -0.728159 0
M  V30 5297 H 472.878 4.04208 -2.57202 0
M  V30 5298 H 471.242 2.19925 -1.28472 0
M  V30 5299 H 472.025 1.81804 -2.91208 0
M  V30 5300 N 474.47 1.03057 1.19235 0
M  V30 5301 C 475.695 0.74757 1.93458 0
M  V30 5302 C 476.12 -0.687648 1.7508 0
M  V30 5303 O 475.478 -1.47499 1.05422 0
M  V30 5304 C 475.526 1.10604 3.43219 0
M  V30 5305 O 474.63 0.225671 4.11782 0
M  V30 5306 H 473.971 0.276047 0.603899 0
M  V30 5307 H 476.501 1.3777 1.51263 0
M  V30 5308 H 476.511 1.06366 3.93891 0
M  V30 5309 H 475.186 2.15165 3.55917 0
M  V30 5310 H 473.763 0.326795 3.71465 0
M  V30 5311 N 475.948 -1.35272 0.808662 0
M  V30 5312 C 476.895 -2.29764 0.218482 0
M  V30 5313 C 477.865 -1.52911 -0.648652 0
M  V30 5314 O 479.05 -1.81341 -0.593297 0
M  V30 5315 C 476.19 -3.39388 -0.625282 0
M  V30 5316 C 475.303 -4.31202 0.262516 0
M  V30 5317 C 474.438 -5.27919 -0.589451 0
M  V30 5318 C 473.477 -6.11371 0.298617 0
M  V30 5319 N 472.614 -7.0022 -0.513443 0
M  V30 5320 H 477.454 -2.79645 1.02968 0
M  V30 5321 H 474.991 -1.37629 0.519303 0
M  V30 5322 H 476.949 -4.01615 -1.12966 0
M  V30 5323 H 475.579 -2.90777 -1.40173 0
M  V30 5324 H 474.631 -3.69962 0.885013 0
M  V30 5325 H 475.943 -4.89748 0.945971 0
M  V30 5326 H 475.097 -5.95529 -1.15888 0
M  V30 5327 H 473.836 -4.69875 -1.30647 0
M  V30 5328 H 472.841 -5.42707 0.880301 0
M  V30 5329 H 474.066 -6.71494 1.01352 0
M  V30 5330 H 472.012 -6.44662 -1.21439 0
M  V30 5331 H 471.929 -7.55917 0.111922 0
M  V30 5332 H 473.197 -7.72175 -1.06608 0
M  V30 5333 N 477.426 -0.562348 -1.47226 0
M  V30 5334 C 478.703 0.0256985 -1.95583 0
M  V30 5335 C 479.083 1.48032 -1.50498 0
M  V30 5336 O 478.431 2.15973 -0.746181 0
M  V30 5337 C 478.641 -0.125129 -3.48776 0
M  V30 5338 C 479.989 0.0175728 -4.24596 0
M  V30 5339 O 481.013 -0.0529341 -3.56161 0
M  V30 5340 O 479.872 0.170145 -5.46235 0
M  V30 5341 H 476.966 0.0612565 -0.824728 0
M  V30 5342 H 479.512 -0.629233 -1.57603 0
M  V30 5343 H 478.284 -1.13715 -3.74412 0
M  V30 5344 H 477.907 0.567178 -3.93534 0
M  V30 5345 N 478.904 1.54736 -0.299062 0
M  V30 5346 C 479.834 2.26409 0.571085 0
M  V30 5347 C 480.815 1.2629 1.13951 0
M  V30 5348 O 482 1.55059 1.16921 0
M  V30 5349 C 479.13 3.00338 1.74396 0
M  V30 5350 C 478.084 4.07588 1.30599 0
M  V30 5351 C 477.41 4.69222 2.56387 0
M  V30 5352 C 478.71 5.20455 0.438645 0
M  V30 5353 H 480.404 2.99388 -0.0266991 0
M  V30 5354 H 477.95 1.43993 -0.0142812 0
M  V30 5355 H 479.903 3.49198 2.35878 0
M  V30 5356 H 478.627 2.24934 2.36796 0
M  V30 5357 H 477.286 3.59575 0.71424 0
M  V30 5358 H 476.934 3.9046 3.17097 0
M  V30 5359 H 476.634 5.41653 2.27784 0
M  V30 5360 H 478.158 5.20844 3.18675 0
M  V30 5361 H 479.572 5.65221 0.959085 0
M  V30 5362 H 477.969 5.99594 0.246466 0
M  V30 5363 H 479.039 4.8192 -0.536738 0
M  V30 5364 N 480.382 0.0267497 1.57577 0
M  V30 5365 C 481.631 -0.651736 1.9088 0
M  V30 5366 C 481.944 -1.73427 0.904576 0
M  V30 5367 O 483.15 -2.46923 1.12877 0
M  V30 5368 C 481.606 -1.21048 3.38933 0
M  V30 5369 C 481.214 -0.161362 4.47709 0
M  V30 5370 C 482.958 -1.86562 3.81307 0
M  V30 5371 C 480.865 -0.731611 5.86857 0
M  V30 5372 H 479.795 -0.247198 0.712326 0
M  V30 5373 H 482.446 0.0916641 1.83271 0
M  V30 5374 H 480.828 -2.00542 3.41466 0
M  V30 5375 H 482.002 0.61094 4.56732 0
M  V30 5376 H 480.317 0.394877 4.14523 0
M  V30 5377 H 482.914 -2.30178 4.8262 0
M  V30 5378 H 483.257 -2.70735 3.16241 0
M  V30 5379 H 483.79 -1.13762 3.81186 0
M  V30 5380 H 480.529 0.0719329 6.55461 0
M  V30 5381 H 480.049 -1.47245 5.81445 0
M  V30 5382 H 481.728 -1.22208 6.35354 0
M  V30 5383 N 481.861 -1.55662 -0.24637 0
M  V30 5384 C 482.824 -1.89558 -1.28842 0
M  V30 5385 C 483.824 -0.772082 -1.41052 0
M  V30 5386 O 485.014 -1.04007 -1.39743 0
M  V30 5387 C 482.146 -2.12449 -2.66605 0
M  V30 5388 H 483.339 -2.82735 -1.00004 0
M  V30 5389 H 480.892 -1.48562 -0.485684 0
M  V30 5390 H 481.627 -1.21742 -3.00582 0
M  V30 5391 H 481.412 -2.94273 -2.59125 0
M  V30 5392 H 482.902 -2.39854 -3.41847 0
M  V30 5393 N 483.339 0.512053 -1.4905 0
M  V30 5394 C 484.249 1.64139 -1.67617 0
M  V30 5395 C 485.265 1.64786 -0.558701 0
M  V30 5396 O 486.441 1.8341 -0.832034 0
M  V30 5397 C 483.506 3.00548 -1.72835 0
M  V30 5398 C 482.567 3.10615 -2.96339 0
M  V30 5399 C 481.8 4.40517 -3.01298 0
M  V30 5400 O 482.023 5.28671 -2.14157 0
M  V30 5401 O 480.957 4.55325 -3.93653 0
M  V30 5402 H 484.783 1.51407 -2.63267 0
M  V30 5403 H 482.368 0.687131 -1.32661 0
M  V30 5404 H 484.25 3.81641 -1.78683 0
M  V30 5405 H 482.925 3.13566 -0.803616 0
M  V30 5406 H 481.832 2.2875 -2.96014 0
M  V30 5407 H 483.165 3.0252 -3.88256 0
M  V30 5408 N 484.817 1.37938 0.762283 0
M  V30 5409 C 486.066 1.32989 1.51647 0
M  V30 5410 C 486.379 -0.0802922 1.95435 0
M  V30 5411 O 487.585 -0.252295 2.70325 0
M  V30 5412 C 486.041 2.33485 2.73885 0
M  V30 5413 C 485.649 3.80079 2.37157 0
M  V30 5414 C 487.393 2.37563 3.51801 0
M  V30 5415 C 485.3 4.72283 3.55954 0
M  V30 5416 H 484.23 0.494301 0.56937 0
M  V30 5417 H 486.881 1.63448 0.834083 0
M  V30 5418 H 485.263 1.96056 3.44061 0
M  V30 5419 H 486.437 4.26398 1.74704 0
M  V30 5420 H 484.752 3.79037 1.72395 0
M  V30 5421 H 487.349 3.0365 4.40114 0
M  V30 5422 H 487.692 1.39199 3.92338 0
M  V30 5423 H 488.225 2.73747 2.8863 0
M  V30 5424 H 484.964 5.7181 3.2049 0
M  V30 5425 H 484.484 4.30663 4.1748 0
M  V30 5426 H 486.163 4.89876 4.22647 0
M  V30 5427 N 486.295 -0.989507 1.22664 0
M  V30 5428 C 487.227 -2.0824 0.957542 0
M  V30 5429 C 488.24 -1.6267 -0.0651098 0
M  V30 5430 O 489.429 -1.77695 0.169312 0
M  V30 5431 C 486.529 -3.36298 0.419145 0
M  V30 5432 C 485.702 -4.10882 1.49982 0
M  V30 5433 C 484.761 -5.17221 0.967904 0
M  V30 5434 O 483.787 -5.44613 1.65487 0
M  V30 5435 N 484.989 -5.80124 -0.20896 0
M  V30 5436 H 487.754 -2.31904 1.89843 0
M  V30 5437 H 485.315 -1.15552 1.13399 0
M  V30 5438 H 487.307 -4.04671 0.0485451 0
M  V30 5439 H 485.877 -3.09671 -0.426937 0
M  V30 5440 H 485.097 -3.37092 2.04359 0
M  V30 5441 H 486.385 -4.57482 2.22682 0
M  V30 5442 H 485.783 -5.60244 -0.783818 0
M  V30 5443 H 484.34 -6.49715 -0.520913 0
M  V30 5444 N 487.773 -1.03688 -1.18687 0
M  V30 5445 C 488.72 -0.624624 -2.22187 0
M  V30 5446 C 489.69 0.365636 -1.62026 0
M  V30 5447 O 490.875 0.260481 -1.89014 0
M  V30 5448 C 488.015 0.0101738 -3.45099 0
M  V30 5449 C 487.128 -1.02709 -4.19613 0
M  V30 5450 C 486.263 -0.361213 -5.2997 0
M  V30 5451 C 485.302 -1.38384 -5.96252 0
M  V30 5452 N 484.439 -0.743196 -6.98155 0
M  V30 5453 H 489.279 -1.51176 -2.56807 0
M  V30 5454 H 486.816 -0.75636 -1.26165 0
M  V30 5455 H 488.774 0.395528 -4.15321 0
M  V30 5456 H 487.404 0.860848 -3.1111 0
M  V30 5457 H 486.456 -1.53043 -3.48256 0
M  V30 5458 H 487.768 -1.80398 -4.65036 0
M  V30 5459 H 486.922 0.0785537 -6.06649 0
M  V30 5460 H 485.661 0.447799 -4.8564 0
M  V30 5461 H 484.666 -1.83378 -5.18317 0
M  V30 5462 H 485.891 -2.19448 -6.42666 0
M  V30 5463 H 483.837 0.0455789 -6.55984 0
M  V30 5464 H 483.754 -1.45784 -7.41811 0
M  V30 5465 H 485.022 -0.327698 -7.78811 0
M  V30 5466 N 489.251 1.34841 -0.815825 0
M  V30 5467 C 490.183 2.28409 -0.190265 0
M  V30 5468 C 491.196 1.50705 0.615771 0
M  V30 5469 O 492.385 1.72822 0.446616 0
M  V30 5470 C 489.485 3.30441 0.752446 0
M  V30 5471 C 488.658 4.37399 -0.00922152 0
M  V30 5472 C 487.717 5.19234 0.853351 0
M  V30 5473 O 486.743 5.68404 0.300919 0
M  V30 5474 N 487.945 5.38248 2.17416 0
M  V30 5475 H 490.71 2.82732 -0.994114 0
M  V30 5476 H 488.271 1.47289 -0.672129 0
M  V30 5477 H 490.263 3.82084 1.33394 0
M  V30 5478 H 488.833 2.76565 1.45707 0
M  V30 5479 H 488.053 3.86567 -0.771979 0
M  V30 5480 H 489.341 5.05992 -0.533807 0
M  V30 5481 H 488.739 4.99961 2.6468 0
M  V30 5482 H 487.296 5.93035 2.70467 0
M  V30 5483 N 490.729 0.570148 1.46925 0
M  V30 5484 C 491.977 0.0508523 2.02036 0
M  V30 5485 C 492.298 -1.30885 1.44548 0
M  V30 5486 O 491.568 -1.85647 0.625453 0
M  V30 5487 H 490.148 0.0158088 0.746833 0
M  V30 5488 H 492.81 0.743086 1.80178 0
M  V30 5489 H 491.906 -0.027575 3.12088 0
M  V30 5490 N 492.207 -1.54576 0.307264 0
M  V30 5491 C 493.139 -2.21212 -0.599807 0
M  V30 5492 C 494.152 -1.20685 -1.09266 0
M  V30 5493 O 495.341 -1.47244 -1.00903 0
M  V30 5494 C 492.441 -2.84994 -1.83389 0
M  V30 5495 C 491.614 -4.11511 -1.48248 0
M  V30 5496 C 490.673 -4.59038 -2.57237 0
M  V30 5497 O 489.699 -5.24095 -2.22065 0
M  V30 5498 N 490.901 -4.31884 -3.87887 0
M  V30 5499 H 493.666 -2.99686 -0.0293075 0
M  V30 5500 H 491.227 -1.61379 0.129738 0
M  V30 5501 H 493.219 -3.1372 -2.5566 0
M  V30 5502 H 491.789 -2.10324 -2.31263 0
M  V30 5503 H 491.009 -3.89728 -0.592122 0
M  V30 5504 H 492.297 -4.93879 -1.22316 0
M  V30 5505 H 491.695 -3.79778 -4.19268 0
M  V30 5506 H 490.252 -4.65304 -4.56438 0
M  V30 5507 N 493.685 -0.035106 -1.57561 0
M  V30 5508 C 494.933 0.64096 -1.91667 0
M  V30 5509 C 495.254 1.72323 -0.912681 0
M  V30 5510 O 494.524 1.95849 0.0449089 0
M  V30 5511 H 493.104 0.239743 -0.707483 0
M  V30 5512 H 495.766 -0.084321 -1.94718 0
M  V30 5513 H 494.862 1.08987 -2.92452 0
M  V30 5514 N 495.163 1.55791 0.238111 0
M  V30 5515 C 496.095 1.87513 1.31802 0
M  V30 5516 C 497.108 0.762053 1.43863 0
M  V30 5517 O 498.297 1.04024 1.45056 0
M  V30 5518 C 495.397 2.05402 2.69561 0
M  V30 5519 C 494.57 3.3632 2.79656 0
M  V30 5520 C 493.629 3.43844 3.98319 0
M  V30 5521 O 492.655 4.16994 3.87433 0
M  V30 5522 N 493.857 2.73777 5.11885 0
M  V30 5523 H 496.622 2.80734 1.04922 0
M  V30 5524 H 494.183 1.56135 0.428196 0
M  V30 5525 H 496.175 2.07769 3.47296 0
M  V30 5526 H 494.745 1.18884 2.89111 0
M  V30 5527 H 493.965 3.46195 1.88528 0
M  V30 5528 H 495.253 4.22594 2.83358 0
M  V30 5529 H 494.651 2.14094 5.23622 0
M  V30 5530 H 493.208 2.81825 5.87723 0
M  V30 5531 N 496.642 -0.504142 1.49319 0
M  V30 5532 C 497.888 -1.25767 1.59857 0
M  V30 5533 C 498.243 -1.90348 0.280262 0
M  V30 5534 O 497.536 -1.77588 -0.719241 0
M  V30 5535 C 497.73 -2.35021 2.69258 0
M  V30 5536 C 497.559 -1.81154 4.11598 0
M  V30 5537 C 496.329 -1.62596 4.78425 0
M  V30 5538 C 498.527 -1.3252 4.96934 0
M  V30 5539 N 496.509 -1.03625 6.05091 0
M  V30 5540 C 497.88 -0.856633 6.14054 0
M  V30 5541 C 499.935 -1.21063 4.82958 0
M  V30 5542 C 498.638 -0.284841 7.18736 0
M  V30 5543 C 500.664 -0.652815 5.87786 0
M  V30 5544 C 500.026 -0.194461 7.04132 0
M  V30 5545 H 496.125 -0.450293 0.639343 0
M  V30 5546 H 498.709 -0.565344 1.86311 0
M  V30 5547 H 496.88 -3.01719 2.44581 0
M  V30 5548 H 498.612 -3.02061 2.69335 0
M  V30 5549 H 495.367 -1.86873 4.35173 0
M  V30 5550 H 495.791 -0.76076 6.72712 0
M  V30 5551 H 500.433 -1.551 3.93324 0
M  V30 5552 H 498.151 0.0677979 8.08072 0
M  V30 5553 H 501.737 -0.566994 5.79031 0
M  V30 5554 H 500.617 0.230442 7.83861 0
M  V30 5555 N 498.12 -1.38341 -0.754957 0
M  V30 5556 C 499.348 -1.37704 -1.54419 0
M  V30 5557 C 499.763 0.0335243 -1.8877 0
M  V30 5558 O 499.12 0.999773 -1.52679 0
M  V30 5559 C 499.171 -2.23136 -2.84416 0
M  V30 5560 O 498.892 -3.58697 -2.51531 0
M  V30 5561 C 500.393 -2.30664 -3.78562 0
M  V30 5562 H 497.613 -0.471061 -0.477852 0
M  V30 5563 H 500.157 -1.81902 -0.934446 0
M  V30 5564 H 498.312 -1.82403 -3.41772 0
M  V30 5565 H 498.726 -4.03665 -3.34896 0
M  V30 5566 H 500.2 -2.9473 -4.66732 0
M  V30 5567 H 500.677 -1.3199 -4.18898 0
M  V30 5568 H 501.283 -2.71781 -3.27131 0
M  V30 5569 N 499.598 0.982988 -1.23187 0
M  V30 5570 C 500.828 1.75666 -1.08743 0
M  V30 5571 C 501.236 1.85662 0.364195 0
M  V30 5572 O 500.579 1.33317 1.26382 0
M  V30 5573 C 500.641 3.20144 -1.63549 0
M  V30 5574 C 500.305 3.33665 -3.12277 0
M  V30 5575 C 501.302 3.20194 -4.096 0
M  V30 5576 C 498.987 3.58397 -3.51933 0
M  V30 5577 C 500.981 3.31256 -5.44563 0
M  V30 5578 C 498.668 3.69098 -4.87042 0
M  V30 5579 C 499.666 3.55537 -5.83166 0
M  V30 5580 O 499.354 3.65864 -7.1582 0
M  V30 5581 H 499.086 0.558194 -0.381307 0
M  V30 5582 H 501.64 1.24387 -1.63454 0
M  V30 5583 H 499.87 3.72659 -1.03256 0
M  V30 5584 H 501.559 3.79262 -1.4462 0
M  V30 5585 H 502.325 3.00987 -3.80305 0
M  V30 5586 H 498.204 3.68025 -2.77631 0
M  V30 5587 H 501.748 3.20588 -6.19572 0
M  V30 5588 H 497.645 3.87814 -5.16014 0
M  V30 5589 H 498.413 3.82675 -7.23534 0
M  V30 5590 N 501.076 1.04316 1.18135 0
M  V30 5591 C 502.008 0.594444 2.21357 0
M  V30 5592 C 503.021 -0.337215 1.59269 0
M  V30 5593 O 504.21 -0.131337 1.78016 0
M  V30 5594 C 501.31 -0.151251 3.38562 0
M  V30 5595 C 500.483 0.788907 4.30227 0
M  V30 5596 C 499.542 0.0860572 5.2613 0
M  V30 5597 O 498.568 0.717302 5.64662 0
M  V30 5598 N 499.77 -1.17969 5.68387 0
M  V30 5599 H 502.535 1.48227 2.60478 0
M  V30 5600 H 500.096 0.92396 1.32946 0
M  V30 5601 H 502.088 -0.631352 3.99745 0
M  V30 5602 H 500.658 -0.940639 2.98112 0
M  V30 5603 H 499.878 1.44882 3.6661 0
M  V30 5604 H 501.166 1.42738 4.88368 0
M  V30 5605 H 500.564 -1.71302 5.3914 0
M  V30 5606 H 499.121 -1.60402 6.31755 0
M  V30 5607 N 502.554 -1.34406 0.822964 0
M  V30 5608 C 503.803 -1.97542 0.407458 0
M  V30 5609 C 504.116 -1.65973 -1.035 0
M  V30 5610 O 505.322 -2.22598 -1.55442 0
M  V30 5611 C 503.778 -3.53463 0.677623 0
M  V30 5612 C 503.386 -3.93925 2.1337 0
M  V30 5613 C 505.13 -4.23229 0.328284 0
M  V30 5614 C 503.037 -5.42759 2.34876 0
M  V30 5615 H 501.967 -0.739207 0.148623 0
M  V30 5616 H 504.618 -1.53248 1.00932 0
M  V30 5617 H 503 -3.96 0.00558965 0
M  V30 5618 H 504.174 -3.62494 2.8449 0
M  V30 5619 H 502.489 -3.37097 2.44448 0
M  V30 5620 H 505.086 -5.32659 0.466794 0
M  V30 5621 H 505.429 -4.09899 -0.727224 0
M  V30 5622 H 505.962 -3.86169 0.954896 0
M  V30 5623 H 502.701 -5.61075 3.38932 0
M  V30 5624 H 502.221 -5.75704 1.68299 0
M  V30 5625 H 503.9 -6.0944 2.17236 0
M  V30 5626 N 504.032 -0.577932 -1.46621 0
M  V30 5627 C 505.262 -0.0670668 -2.06491 0
M  V30 5628 C 505.67 1.24119 -1.42798 0
M  V30 5629 O 505.013 1.76016 -0.525759 0
M  V30 5630 C 505.075 0.177995 -3.59059 0
M  V30 5631 C 504.739 -1.04394 -4.44917 0
M  V30 5632 C 505.736 -1.95479 -4.81751 0
M  V30 5633 C 503.421 -1.26444 -4.86125 0
M  V30 5634 C 505.415 -3.06965 -5.58615 0
M  V30 5635 C 503.102 -2.38237 -5.62749 0
M  V30 5636 C 504.1 -3.28327 -5.98908 0
M  V30 5637 O 503.788 -4.38179 -6.73984 0
M  V30 5638 H 503.52 -0.0523159 -0.673973 0
M  V30 5639 H 506.074 -0.796966 -1.89308 0
M  V30 5640 H 504.304 0.962451 -3.74531 0
M  V30 5641 H 505.993 0.636782 -4.00874 0
M  V30 5642 H 506.759 -1.79657 -4.50498 0
M  V30 5643 H 502.638 -0.572316 -4.57434 0
M  V30 5644 H 506.182 -3.77309 -5.86757 0
M  V30 5645 H 502.079 -2.54023 -5.93416 0
M  V30 5646 H 502.847 -4.36486 -6.92403 0
M  V30 5647 N 505.51 1.54411 -0.315457 0
M  V30 5648 C 506.442 2.21527 0.588067 0
M  V30 5649 C 507.455 1.21263 1.08624 0
M  V30 5650 O 508.644 1.47777 1.00121 0
M  V30 5651 C 505.744 2.85963 1.81875 0
M  V30 5652 C 504.917 4.12291 1.46063 0
M  V30 5653 C 503.976 4.60396 2.54799 0
M  V30 5654 O 503.002 5.25265 2.19283 0
M  V30 5655 N 504.204 4.33935 3.85591 0
M  V30 5656 H 506.969 2.99697 0.013414 0
M  V30 5657 H 504.53 1.61308 -0.138295 0
M  V30 5658 H 506.522 3.15071 2.53993 0
M  V30 5659 H 505.092 2.11548 2.30144 0
M  V30 5660 H 504.312 3.90036 0.571445 0
M  V30 5661 H 505.6 4.9452 1.19695 0
M  V30 5662 H 504.998 3.81996 4.17248 0
M  V30 5663 H 503.555 4.67718 4.53964 0
M  V30 5664 N 506.988 0.0434614 1.5754 0
M  V30 5665 C 507.898 -0.94893 2.14552 0
M  V30 5666 C 508.914 -1.34707 1.10136 0
M  V30 5667 O 510.09 -1.42557 1.42266 0
M  V30 5668 C 507.155 -2.208 2.67298 0
M  V30 5669 C 506.216 -1.86893 3.86484 0
M  V30 5670 C 505.449 -3.06797 4.36705 0
M  V30 5671 O 505.672 -4.19921 3.86034 0
M  V30 5672 O 504.606 -2.8826 5.28384 0
M  V30 5673 H 508.432 -0.494099 2.99654 0
M  V30 5674 H 506.017 -0.177989 1.48336 0
M  V30 5675 H 507.899 -2.94686 3.01228 0
M  V30 5676 H 506.574 -2.65436 1.85272 0
M  V30 5677 H 505.481 -1.10347 3.57455 0
M  V30 5678 H 506.814 -1.47062 4.69716 0
M  V30 5679 N 508.466 -1.55915 -0.229846 0
M  V30 5680 C 509.877 -1.68809 -0.797531 0
M  V30 5681 C 510.228 -0.643995 -1.8533 0
M  V30 5682 O 509.353 0.206492 -2.15413 0
M  V30 5683 C 509.948 -3.06043 -1.45338 0
M  V30 5684 C 508.507 -3.20819 -1.96856 0
M  V30 5685 C 507.654 -2.6472 -0.825736 0
M  V30 5686 H 510.605 -1.58699 -0.00533733 0
M  V30 5687 H 510.626 -3.01438 -2.32196 0
M  V30 5688 H 510.138 -3.82012 -0.684743 0
M  V30 5689 H 508.239 -2.49704 -2.76548 0
M  V30 5690 H 508.352 -4.27937 -2.15423 0
M  V30 5691 H 506.716 -2.22985 -1.23084 0
M  V30 5692 H 507.499 -3.43229 -0.0699019 0
M  V30 5693 N 509.944 0.496216 -1.49584 0
M  V30 5694 C 511.191 1.25003 -1.59312 0
M  V30 5695 C 511.519 1.92445 -0.28198 0
M  V30 5696 O 510.774 1.81557 0.730452 0
M  V30 5697 C 511.073 2.3359 -2.705 0
M  V30 5698 C 510.739 1.83574 -4.11839 0
M  V30 5699 C 509.401 1.69653 -4.50302 0
M  V30 5700 C 511.753 1.46193 -5.00277 0
M  V30 5701 C 509.081 1.16736 -5.74969 0
M  V30 5702 C 511.433 0.947265 -6.25468 0
M  V30 5703 C 510.097 0.794485 -6.62755 0
M  V30 5704 H 509.367 0.45742 -0.582965 0
M  V30 5705 H 512.014 0.549996 -1.83432 0
M  V30 5706 H 510.319 3.09401 -2.40371 0
M  V30 5707 H 512.016 2.91627 -2.75235 0
M  V30 5708 H 508.606 1.9537 -3.81482 0
M  V30 5709 H 512.79 1.55793 -4.71214 0
M  V30 5710 H 508.046 1.03623 -6.02555 0
M  V30 5711 H 512.22 0.648846 -6.93371 0
M  V30 5712 H 509.847 0.382271 -7.59238 0
M  V30 5713 N 511.423 1.38739 0.74761 0
M  V30 5714 C 512.37 1.36449 1.86146 0
M  V30 5715 C 513.34 0.226098 1.64554 0
M  V30 5716 O 514.525 0.41926 1.86137 0
M  V30 5717 C 511.665 1.2013 3.23516 0
M  V30 5718 C 510.778 2.43407 3.56899 0
M  V30 5719 C 509.913 2.19773 4.83605 0
M  V30 5720 C 508.952 3.3879 5.09792 0
M  V30 5721 N 508.089 3.14553 6.27695 0
M  V30 5722 H 512.929 2.3167 1.87438 0
M  V30 5723 H 510.466 1.15094 0.916063 0
M  V30 5724 H 512.424 1.08683 4.02795 0
M  V30 5725 H 511.054 0.285453 3.21535 0
M  V30 5726 H 510.106 2.65504 2.72418 0
M  V30 5727 H 511.418 3.32094 3.72176 0
M  V30 5728 H 510.572 2.05496 5.70838 0
M  V30 5729 H 509.311 1.28461 4.70478 0
M  V30 5730 H 508.316 3.53579 4.21025 0
M  V30 5731 H 509.541 4.30986 5.24812 0
M  V30 5732 H 507.487 2.25893 6.1588 0
M  V30 5733 H 507.404 3.96791 6.435 0
M  V30 5734 H 508.672 3.03943 7.17801 0
M  V30 5735 N 512.901 -0.976442 1.23707 0
M  V30 5736 C 513.849 -2.09078 1.01927 0
M  V30 5737 C 514.843 -1.69345 -0.0430193 0
M  V30 5738 O 516.049 -1.79659 0.110814 0
M  V30 5739 H 512.424 -0.68398 0.312531 0
M  V30 5740 H 514.395 -2.24614 1.96447 0
M  V30 5741 C 513.144 -3.41919 0.631385 0
M  V30 5742 H 512.467 -3.72946 1.44053 0
M  V30 5743 H 513.907 -4.20817 0.518532 0
M  V30 5744 C 512.366 -3.30357 -0.660723 0
M  V30 5745 O 512.896 -3.63542 -1.70881 0
M  V30 5746 N 511.102 -2.83507 -0.638139 0
M  V30 5747 H 510.649 -2.567 0.215108 0
M  V30 5748 H 510.607 -2.76153 -1.50289 0
M  V30 5749 N 514.379 -1.04941 -1.1758 0
M  V30 5750 C 515.309 -0.669172 -2.23706 0
M  V30 5751 C 516.29 0.331835 -1.66832 0
M  V30 5752 O 517.475 0.209988 -1.93061 0
M  V30 5753 C 514.605 -0.0404889 -3.47276 0
M  V30 5754 C 513.559 -0.965983 -4.16957 0
M  V30 5755 C 512.885 -0.201312 -5.34321 0
M  V30 5756 C 514.185 -2.28902 -4.69469 0
M  V30 5757 H 515.879 -1.55639 -2.55767 0
M  V30 5758 H 513.425 -0.749793 -1.22939 0
M  V30 5759 H 515.378 0.237298 -4.20731 0
M  V30 5760 H 514.102 0.881658 -3.14475 0
M  V30 5761 H 512.761 -1.22829 -3.45411 0
M  V30 5762 H 512.409 0.723519 -4.97769 0
M  V30 5763 H 512.109 -0.817968 -5.81879 0
M  V30 5764 H 513.633 0.0692499 -6.10561 0
M  V30 5765 H 515.047 -2.07132 -5.34574 0
M  V30 5766 H 513.444 -2.85942 -5.27596 0
M  V30 5767 H 514.514 -2.92937 -3.86414 0
M  V30 5768 N 515.857 1.33968 -0.830081 0
M  V30 5769 C 517.273 1.51003 -0.516742 0
M  V30 5770 C 517.473 1.77286 0.957694 0
M  V30 5771 O 516.529 1.82797 1.74188 0
M  V30 5772 C 517.842 2.67036 -1.38247 0
M  V30 5773 C 519.39 2.80919 -1.38034 0
M  V30 5774 C 519.865 4.00004 -2.23071 0
M  V30 5775 N 521.356 4.07224 -2.20733 0
M  V30 5776 C 522.091 4.98541 -2.83275 0
M  V30 5777 N 521.587 5.95033 -3.54835 0
M  V30 5778 N 523.38 4.91469 -2.72791 0
M  V30 5779 H 515.531 1.15168 -1.78466 0
M  V30 5780 H 517.794 0.565443 -0.760906 0
M  V30 5781 H 517.5 2.54266 -2.42985 0
M  V30 5782 H 517.374 3.62226 -1.05225 0
M  V30 5783 H 519.761 2.93127 -0.340713 0
M  V30 5784 H 519.842 1.86517 -1.75057 0
M  V30 5785 H 519.486 3.88557 -3.27087 0
M  V30 5786 H 519.416 4.93634 -1.83394 0
M  V30 5787 H 521.907 3.38162 -1.68687 0
M  V30 5788 H 522.22 6.61357 -3.99784 0
M  V30 5789 H 520.565 5.95135 -3.58942 0
M  V30 5790 H 523.756 4.15048 -2.16456 0
M  V30 5791 H 523.929 5.62439 -3.21818 0
M  V30 5792 N 517.335 0.585699 1.46312 0
M  V30 5793 C 518.563 0.0781299 2.06752 0
M  V30 5794 C 518.978 -1.22812 1.43396 0
M  V30 5795 O 518.335 -1.74318 0.540314 0
M  V30 5796 C 518.386 -0.0911927 3.61385 0
M  V30 5797 O 518.107 1.16336 4.22371 0
M  V30 5798 C 519.608 -0.632765 4.38761 0
M  V30 5799 H 516.828 0.0588188 0.668417 0
M  V30 5800 H 519.372 0.807218 1.87894 0
M  V30 5801 H 517.527 -0.770514 3.7966 0
M  V30 5802 H 517.941 0.979082 5.15281 0
M  V30 5803 H 519.415 -0.70041 5.47538 0
M  V30 5804 H 519.892 -1.65039 4.07012 0
M  V30 5805 H 520.498 0.0117856 4.25298 0
M  V30 5806 N 518.813 -1.54241 0.323641 0
M  V30 5807 C 520.061 -2.00174 -0.278359 0
M  V30 5808 C 520.382 -1.2134 -1.52648 0
M  V30 5809 O 519.652 -0.315244 -1.93347 0
M  V30 5810 H 518.232 -0.739463 -0.105845 0
M  V30 5811 H 520.894 -1.89864 0.440204 0
M  V30 5812 H 519.99 -3.07486 -0.5347 0
M  V30 5813 N 520.291 -0.0518155 -1.57515 0
M  V30 5814 C 521.238 0.922352 -2.11569 0
M  V30 5815 C 522.208 1.30842 -1.02321 0
M  V30 5816 O 523.393 1.39778 -1.29872 0
M  V30 5817 C 520.533 2.19167 -2.6657 0
M  V30 5818 C 519.646 1.86003 -3.89906 0
M  V30 5819 C 518.781 3.07398 -4.33221 0
M  V30 5820 C 517.82 2.70158 -5.49255 0
M  V30 5821 N 516.957 3.84248 -5.8762 0
M  V30 5822 H 521.797 0.454506 -2.94514 0
M  V30 5823 H 519.334 0.212718 -1.45554 0
M  V30 5824 H 521.292 2.93443 -2.96559 0
M  V30 5825 H 519.922 2.63528 -1.86421 0
M  V30 5826 H 518.974 1.01874 -3.66505 0
M  V30 5827 H 520.286 1.54592 -4.74239 0
M  V30 5828 H 519.44 3.89972 -4.64765 0
M  V30 5829 H 518.179 3.41988 -3.477 0
M  V30 5830 H 517.184 1.86001 -5.17382 0
M  V30 5831 H 518.409 2.36759 -6.36492 0
M  V30 5832 H 516.355 4.18638 -5.05053 0
M  V30 5833 H 516.272 3.56538 -6.66646 0
M  V30 5834 H 517.54 4.6746 -6.2378 0
M  V30 5835 N 521.769 1.56035 0.221574 0
M  V30 5836 C 522.999 1.82864 0.961468 0
M  V30 5837 C 523.407 0.628703 1.78449 0
M  V30 5838 O 522.75 -0.412109 1.79018 0
M  V30 5839 C 522.812 3.03425 1.92804 0
M  V30 5840 C 522.476 4.38429 1.28954 0
M  V30 5841 C 523.473 5.15441 0.679431 0
M  V30 5842 C 521.158 4.85151 1.30131 0
M  V30 5843 C 523.152 6.37337 0.0896148 0
M  V30 5844 C 520.839 6.06989 0.707651 0
M  V30 5845 C 521.837 6.82923 0.102855 0
M  V30 5846 O 521.525 8.02456 -0.48157 0
M  V30 5847 H 521.257 0.611883 0.28736 0
M  V30 5848 H 523.811 2.0397 0.241932 0
M  V30 5849 H 522.041 2.78138 2.68656 0
M  V30 5850 H 523.73 3.17127 2.53348 0
M  V30 5851 H 524.496 4.80452 0.662661 0
M  V30 5852 H 520.375 4.26021 1.76145 0
M  V30 5853 H 523.919 6.96547 -0.383069 0
M  V30 5854 H 519.816 6.41451 0.721834 0
M  V30 5855 H 520.584 8.17636 -0.375887 0
M  V30 5856 N 523.247 -0.488276 1.49845 0
M  V30 5857 C 524.21 -1.57069 1.66919 0
M  V30 5858 C 525.21 -1.51445 0.540479 0
M  V30 5859 O 526.4 -1.5437 0.807188 0
M  V30 5860 C 523.532 -2.96718 1.67844 0
M  V30 5861 H 524.725 -1.43254 2.63474 0
M  V30 5862 H 522.278 -0.713435 1.39068 0
M  V30 5863 H 523.013 -3.15996 0.7292 0
M  V30 5864 H 522.798 -3.02208 2.49826 0
M  V30 5865 H 524.288 -3.75335 1.83066 0
M  V30 5866 N 524.725 -1.39134 -0.740242 0
M  V30 5867 C 526.141 -1.20623 -1.0451 0
M  V30 5868 C 526.341 -0.0641651 -2.01398 0
M  V30 5869 O 525.397 0.585843 -2.4561 0
M  V30 5870 C 526.71 -2.53815 -1.6124 0
M  V30 5871 C 528.258 -2.60615 -1.73346 0
M  V30 5872 C 528.733 -3.94015 -2.33486 0
M  V30 5873 N 530.224 -3.95627 -2.40902 0
M  V30 5874 C 530.959 -4.95616 -2.88361 0
M  V30 5875 N 530.455 -6.06003 -3.35756 0
M  V30 5876 N 532.248 -4.82998 -2.87523 0
M  V30 5877 H 524.399 -2.12176 -0.0975576 0
M  V30 5878 H 526.662 -0.942066 -0.105904 0
M  V30 5879 H 526.368 -3.37911 -0.975144 0
M  V30 5880 H 526.242 -2.73162 -2.6012 0
M  V30 5881 H 528.629 -1.76906 -2.36195 0
M  V30 5882 H 528.71 -2.45123 -0.731336 0
M  V30 5883 H 528.354 -4.78153 -1.71267 0
M  V30 5884 H 528.284 -4.06825 -3.34366 0
M  V30 5885 H 530.775 -3.15903 -2.07398 0
M  V30 5886 H 531.088 -6.78215 -3.70464 0
M  V30 5887 H 529.433 -6.09604 -3.33778 0
M  V30 5888 H 532.624 -3.95866 -2.49816 0
M  V30 5889 H 532.797 -5.61072 -3.24196 0
M  V30 5890 N 526.204 0.969867 -1.24223 0
M  V30 5891 C 527.137 2.06279 -0.975926 0
M  V30 5892 C 528.115 1.62353 0.0895385 0
M  V30 5893 O 529.299 1.88442 -0.0469418 0
M  V30 5894 C 526.426 3.35391 -0.472315 0
M  V30 5895 C 525.472 3.98266 -1.526 0
M  V30 5896 S 526.305 4.36172 -3.10667 0
M  V30 5897 C 527.461 5.68423 -2.62003 0
M  V30 5898 H 527.694 2.28551 -1.90137 0
M  V30 5899 H 525.227 1.10748 -1.07584 0
M  V30 5900 H 527.185 4.10068 -0.188376 0
M  V30 5901 H 525.846 3.1111 0.432378 0
M  V30 5902 H 525.039 4.91307 -1.12399 0
M  V30 5903 H 524.641 3.30009 -1.75983 0
M  V30 5904 H 526.933 6.45842 -2.0468 0
M  V30 5905 H 527.876 6.13478 -3.53625 0
M  V30 5906 H 528.284 5.26928 -2.02502 0
M  V30 5907 N 527.682 1.05563 1.17022 0
M  V30 5908 C 529.098 0.777684 1.39371 0
M  V30 5909 C 529.298 -0.626269 1.91521 0
M  V30 5910 O 528.354 -1.38806 2.10924 0
M  V30 5911 C 529.667 1.83642 2.3811 0
M  V30 5912 C 531.215 1.85907 2.51809 0
M  V30 5913 C 531.69 2.90813 3.53824 0
M  V30 5914 N 533.181 2.898 3.61345 0
M  V30 5915 C 533.916 3.6762 4.40049 0
M  V30 5916 N 533.412 4.55237 5.22237 0
M  V30 5917 N 535.205 3.56044 4.34959 0
M  V30 5918 H 527.356 1.9614 0.815047 0
M  V30 5919 H 529.619 0.849527 0.420722 0
M  V30 5920 H 529.325 2.84425 2.06871 0
M  V30 5921 H 529.199 1.6812 3.37662 0
M  V30 5922 H 531.586 0.857865 2.82356 0
M  V30 5923 H 531.667 2.05506 1.52318 0
M  V30 5924 H 531.311 3.91122 3.24015 0
M  V30 5925 H 531.241 2.68465 4.53028 0
M  V30 5926 H 533.732 2.26274 3.02669 0
M  V30 5927 H 534.045 5.11291 5.79484 0
M  V30 5928 H 532.39 4.59296 5.21605 0
M  V30 5929 H 535.581 2.86986 3.69806 0
M  V30 5930 H 535.754 4.16938 4.96051 0
M  V30 5931 N 529.16 -1.33526 0.837174 0
M  V30 5932 C 530.408 -1.97446 0.431211 0
M  V30 5933 C 530.729 -1.6665 -1.01255 0
M  V30 5934 O 529.999 -0.964559 -1.70508 0
M  V30 5935 H 528.579 -0.73043 0.156463 0
M  V30 5936 H 531.241 -1.62918 1.06976 0
M  V30 5937 H 530.337 -3.07001 0.561877 0
M  V30 5938 N 530.638 -0.59345 -1.46 0
M  V30 5939 C 531.601 0.123538 -2.28867 0
M  V30 5940 C 532.601 0.808628 -1.38989 0
M  V30 5941 O 533.791 0.658945 -1.61256 0
M  V30 5942 C 530.923 1.1847 -3.19653 0
M  V30 5943 H 532.116 -0.604843 -2.93737 0
M  V30 5944 H 529.669 -0.351875 -1.52288 0
M  V30 5945 H 530.404 1.94431 -2.59552 0
M  V30 5946 H 530.189 0.69783 -3.8584 0
M  V30 5947 H 531.679 1.68726 -3.81997 0
M  V30 5948 N 532.116 1.54067 -0.331816 0
M  V30 5949 C 533.066 2.21363 0.546101 0
M  V30 5950 C 534.05 1.19698 1.07523 0
M  V30 5951 O 535.242 1.45293 1.01088 0
M  V30 5952 C 532.371 2.98115 1.70242 0
M  V30 5953 C 531.457 4.07127 1.18779 0
M  V30 5954 N 531.848 5.04267 0.393465 0
M  V30 5955 C 530.146 4.21226 1.46576 0
M  V30 5956 C 530.847 5.81585 0.115572 0
M  V30 5957 N 529.823 5.39022 0.703987 0
M  V30 5958 H 533.625 2.93821 -0.0679751 0
M  V30 5959 H 531.139 1.61812 -0.138085 0
M  V30 5960 H 533.136 3.44818 2.34321 0
M  V30 5961 H 531.796 2.27181 2.31989 0
M  V30 5962 H 532.807 5.17888 0.0355757 0
M  V30 5963 H 529.484 3.61509 2.08848 0
M  V30 5964 H 530.874 6.6985 -0.524426 0
M  V30 5965 N 533.594 0.0601682 1.57485 0
M  V30 5966 C 534.822 -0.620937 1.97363 0
M  V30 5967 C 535.237 -1.63846 0.938082 0
M  V30 5968 O 534.594 -1.82339 -0.0766578 0
M  V30 5969 C 534.645 -1.29987 3.37321 0
M  V30 5970 O 534.366 -0.323081 4.36907 0
M  V30 5971 C 535.867 -2.06989 3.92008 0
M  V30 5972 H 533.087 -0.169135 0.649334 0
M  V30 5973 H 535.631 0.129132 2.04092 0
M  V30 5974 H 533.786 -2.0011 3.31715 0
M  V30 5975 H 534.2 -0.808754 5.18227 0
M  V30 5976 H 535.674 -2.49901 4.92192 0
M  V30 5977 H 536.151 -2.92173 3.2792 0
M  V30 5978 H 536.757 -1.41757 4.0098 0
M  V30 5979 N 535.072 -1.5615 -0.213296 0
M  V30 5980 C 536.02 -1.93953 -1.28394 0
M  V30 5981 C 537.014 -0.822592 -1.48087 0
M  V30 5982 O 538.22 -1.00748 -1.49164 0
M  V30 5983 H 534.595 -0.61648 -0.430646 0
M  V30 5984 H 536.566 -2.83275 -0.937977 0
M  V30 5985 C 535.315 -2.27969 -2.62537 0
M  V30 5986 H 534.638 -3.13432 -2.48194 0
M  V30 5987 H 536.078 -2.58297 -3.36242 0
M  V30 5988 C 534.537 -1.10775 -3.18167 0
M  V30 5989 O 535.067 -0.373201 -3.99963 0
M  V30 5990 N 533.273 -0.889377 -2.76656 0
M  V30 5991 H 532.82 -1.48843 -2.10246 0
M  V30 5992 H 532.778 -0.107 -3.14218 0
M  V30 5993 N 536.55 0.480323 -1.50102 0
M  V30 5994 C 537.827 1.24159 -1.51142 0
M  V30 5995 C 538.207 2.09605 -0.250818 0
M  V30 5996 O 537.555 2.15274 0.766118 0
M  V30 5997 C 537.765 2.08057 -2.80202 0
M  V30 5998 C 539.113 2.66556 -3.30504 0
M  V30 5999 O 540.137 2.18308 -2.81461 0
M  V30 6000 O 538.996 3.54442 -4.15973 0
M  V30 6001 H 536.09 0.562928 -0.605839 0
M  V30 6002 H 538.636 0.492899 -1.62384 0
M  V30 6003 H 537.408 1.45032 -3.6343 0
M  V30 6004 H 537.031 2.90079 -2.71919 0
M  V30 6005 N 538.028 1.39524 0.732853 0
M  V30 6006 C 539.274 1.37068 1.49467 0
M  V30 6007 C 539.607 -0.0327166 1.94172 0
M  V30 6008 O 538.882 -0.998071 1.66939 0
M  V30 6009 C 539.165 2.34494 2.73285 0
M  V30 6010 C 539.018 3.83784 2.34585 0
M  V30 6011 C 540.337 2.29717 3.75391 0
M  V30 6012 H 537.456 0.499206 0.542183 0
M  V30 6013 H 540.098 1.70532 0.837783 0
M  V30 6014 H 538.248 2.06087 3.29333 0
M  V30 6015 H 539.92 4.22949 1.84151 0
M  V30 6016 H 538.163 4.00455 1.66787 0
M  V30 6017 H 538.834 4.47444 3.23262 0
M  V30 6018 H 541.31 2.54839 3.28932 0
M  V30 6019 H 540.186 2.99962 4.59689 0
M  V30 6020 H 540.447 1.30291 4.22465 0
M  V30 6021 N 539.506 -0.963266 1.24736 0
M  V30 6022 C 540.453 -2.05857 1.04363 0
M  V30 6023 C 541.423 -1.6604 -0.0444951 0
M  V30 6024 O 542.608 -1.90477 0.110999 0
M  V30 6025 C 539.748 -3.38745 0.659235 0
M  V30 6026 C 538.861 -3.9173 1.82131 0
M  V30 6027 C 537.996 -5.12906 1.38208 0
M  V30 6028 C 537.035 -5.58098 2.51382 0
M  V30 6029 N 536.172 -6.7049 2.08295 0
M  V30 6030 H 541.012 -2.22616 1.98107 0
M  V30 6031 H 538.549 -1.09103 0.986661 0
M  V30 6032 H 540.507 -4.15107 0.417371 0
M  V30 6033 H 539.137 -3.21898 -0.241201 0
M  V30 6034 H 538.189 -3.11966 2.17672 0
M  V30 6035 H 539.501 -4.21225 2.67153 0
M  V30 6036 H 538.655 -5.96657 1.09935 0
M  V30 6037 H 537.394 -4.85105 0.502456 0
M  V30 6038 H 536.399 -4.72917 2.80409 0
M  V30 6039 H 537.624 -5.87911 3.39909 0
M  V30 6040 H 535.57 -6.44416 1.22737 0
M  V30 6041 H 535.487 -6.99458 2.86869 0
M  V30 6042 H 536.755 -7.57672 1.83175 0
M  V30 6043 N 540.985 -1.06182 -1.16461 0
M  V30 6044 C 541.917 -0.629584 -2.20383 0
M  V30 6045 C 542.93 0.311834 -1.59786 0
M  V30 6046 O 544.119 0.103 -1.78203 0
M  V30 6047 C 541.219 0.0973695 -3.3876 0
M  V30 6048 C 540.392 -0.857252 -4.28917 0
M  V30 6049 C 539.451 -0.169749 -5.25926 0
M  V30 6050 O 538.477 -0.807044 -5.6345 0
M  V30 6051 N 539.679 1.08911 -5.70192 0
M  V30 6052 H 542.444 -1.52352 -2.58087 0
M  V30 6053 H 540.005 -0.944993 -1.31459 0
M  V30 6054 H 541.997 0.567676 -4.00699 0
M  V30 6055 H 540.567 0.893093 -2.99571 0
M  V30 6056 H 539.787 -1.50696 -3.64259 0
M  V30 6057 H 541.075 -1.50489 -4.86035 0
M  V30 6058 H 540.473 1.62703 -5.41797 0
M  V30 6059 H 539.03 1.50331 -6.34227 0
M  V30 6060 N 542.463 1.3308 -0.844243 0
M  V30 6061 C 543.393 2.3161 -0.296493 0
M  V30 6062 C 544.374 1.59215 0.598707 0
M  V30 6063 O 545.559 1.87077 0.521134 0
M  V30 6064 C 542.689 3.43313 0.524762 0
M  V30 6065 C 541.643 4.27115 -0.275106 0
M  V30 6066 C 540.969 5.30483 0.670236 0
M  V30 6067 C 542.269 5.00443 -1.49514 0
M  V30 6068 H 543.963 2.77672 -1.11976 0
M  V30 6069 H 541.509 1.33496 -0.539899 0
M  V30 6070 H 543.462 4.11273 0.918298 0
M  V30 6071 H 542.186 2.95952 1.3813 0
M  V30 6072 H 540.845 3.60787 -0.650267 0
M  V30 6073 H 540.493 4.79379 1.52332 0
M  V30 6074 H 540.193 5.87435 0.139123 0
M  V30 6075 H 541.717 6.01308 1.06117 0
M  V30 6076 H 543.131 5.61141 -1.17447 0
M  V30 6077 H 541.528 5.67071 -1.96343 0
M  V30 6078 H 542.598 4.28906 -2.26202 0
M  V30 6079 N 543.941 0.601185 1.45683 0
M  V30 6080 C 545.169 0.100054 2.06658 0
M  V30 6081 C 545.584 -1.21285 1.44691 0
M  V30 6082 O 544.941 -1.73735 0.558772 0
M  V30 6083 C 544.992 -0.0528579 3.61461 0
M  V30 6084 O 544.713 1.20809 4.21114 0
M  V30 6085 C 546.214 -0.586193 4.39407 0
M  V30 6086 H 543.434 0.065905 0.667756 0
M  V30 6087 H 545.978 0.827101 1.87028 0
M  V30 6088 H 544.133 -0.730203 3.80456 0
M  V30 6089 H 544.547 1.03368 5.14213 0
M  V30 6090 H 546.021 -0.642297 5.4825 0
M  V30 6091 H 546.498 -1.60713 4.0874 0
M  V30 6092 H 547.104 0.0568935 4.25262 0
M  V30 6093 N 545.419 -1.53889 0.339982 0
M  V30 6094 C 546.329 -2.28604 -0.526988 0
M  V30 6095 C 547.345 -1.33578 -1.11503 0
M  V30 6096 O 548.521 -1.66612 -1.13148 0
M  V30 6097 C 545.586 -3.04164 -1.66389 0
M  V30 6098 C 544.647 -4.14809 -1.10599 0
M  V30 6099 C 543.88 -4.86756 -2.18871 0
M  V30 6100 O 544.103 -4.58343 -3.39526 0
M  V30 6101 O 543.037 -5.73289 -1.83366 0
M  V30 6102 H 546.863 -3.03594 0.0802707 0
M  V30 6103 H 544.448 -1.4903 0.105141 0
M  V30 6104 H 546.33 -3.51427 -2.32544 0
M  V30 6105 H 545.005 -2.32035 -2.25703 0
M  V30 6106 H 543.912 -3.71857 -0.409067 0
M  V30 6107 H 545.245 -4.89029 -0.557771 0
M  V30 6108 N 546.897 -0.0685191 -1.57451 0
M  V30 6109 C 547.86 0.885173 -2.11417 0
M  V30 6110 C 548.86 1.22853 -1.03748 0
M  V30 6111 O 550.05 1.16235 -1.2975 0
M  V30 6112 C 547.182 2.18964 -2.61281 0
M  V30 6113 H 548.375 0.417034 -2.96986 0
M  V30 6114 H 545.928 0.18014 -1.55258 0
M  V30 6115 H 546.663 2.70321 -1.79156 0
M  V30 6116 H 546.448 1.9534 -3.39977 0
M  V30 6117 H 547.938 2.87242 -3.0312 0
M  V30 6118 N 548.375 1.56261 0.205012 0
M  V30 6119 C 549.621 1.80306 0.9283 0
M  V30 6120 C 549.954 0.640932 1.83319 0
M  V30 6121 O 549.229 -0.359032 1.91158 0
M  V30 6122 C 549.512 3.14547 1.75306 0
M  V30 6123 C 549.365 4.41236 0.873562 0
M  V30 6124 C 550.684 3.45382 2.72762 0
M  V30 6125 H 547.803 0.655929 0.336044 0
M  V30 6126 H 550.445 1.88984 0.196211 0
M  V30 6127 H 548.595 3.0728 2.37721 0
M  V30 6128 H 550.267 4.60539 0.264887 0
M  V30 6129 H 548.51 4.33427 0.179773 0
M  V30 6130 H 549.181 5.31639 1.48541 0
M  V30 6131 H 551.657 3.52884 2.20481 0
M  V30 6132 H 550.533 4.40449 3.2756 0
M  V30 6133 H 550.794 2.68377 3.51321 0
M  V30 6134 N 549.853 -0.472356 1.50355 0
M  V30 6135 C 550.785 -1.58795 1.65278 0
M  V30 6136 C 551.798 -1.53782 0.534313 0
M  V30 6137 O 552.987 -1.59193 0.807446 0
M  V30 6138 C 550.087 -2.97672 1.62001 0
M  V30 6139 C 549.26 -3.27568 2.89859 0
M  V30 6140 C 548.319 -4.45993 2.79242 0
M  V30 6141 O 547.345 -4.46364 3.53197 0
M  V30 6142 N 548.547 -5.47578 1.92713 0
M  V30 6143 H 551.312 -1.46411 2.61503 0
M  V30 6144 H 548.873 -0.660751 1.47803 0
M  V30 6145 H 550.865 -3.74862 1.52513 0
M  V30 6146 H 549.435 -3.03832 0.735159 0
M  V30 6147 H 548.655 -2.39003 3.13483 0
M  V30 6148 H 549.943 -3.44352 3.74565 0
M  V30 6149 H 549.341 -5.50099 1.31939 0
M  V30 6150 H 547.898 -6.23757 1.8913 0
M  V30 6151 N 551.331 -1.39911 -0.725443 0
M  V30 6152 C 552.278 -1.39393 -1.83952 0
M  V30 6153 C 553.248 -0.252249 -1.64173 0
M  V30 6154 O 554.433 -0.44882 -1.85446 0
M  V30 6155 C 551.573 -1.25262 -3.21564 0
M  V30 6156 C 550.686 -2.49054 -3.52982 0
M  V30 6157 C 549.821 -2.27439 -4.80047 0
M  V30 6158 C 548.86 -3.46857 -5.04338 0
M  V30 6159 N 547.997 -3.24499 -6.22611 0
M  V30 6160 H 552.837 -2.34622 -1.83729 0
M  V30 6161 H 550.374 -1.16537 -0.897636 0
M  V30 6162 H 552.332 -1.15077 -4.01015 0
M  V30 6163 H 550.962 -0.33657 -3.21041 0
M  V30 6164 H 550.014 -2.69805 -2.6816 0
M  V30 6165 H 551.326 -3.37973 -3.66846 0
M  V30 6166 H 550.48 -2.14551 -5.67497 0
M  V30 6167 H 549.219 -1.35929 -4.68374 0
M  V30 6168 H 548.224 -3.60232 -4.15346 0
M  V30 6169 H 549.449 -4.3928 -5.17889 0
M  V30 6170 H 547.395 -2.35663 -6.12208 0
M  V30 6171 H 547.312 -4.06978 -6.37106 0
M  V30 6172 H 548.58 -3.15325 -7.12875 0
M  V30 6173 N 552.809 0.956637 -1.25245 0
M  V30 6174 C 554.058 1.69537 -1.0927 0
M  V30 6175 C 554.371 1.92136 0.366503 0
M  V30 6176 O 555.577 2.63687 0.64665 0
M  V30 6177 C 554.033 3.05211 -1.9072 0
M  V30 6178 C 553.641 2.90416 -3.41119 0
M  V30 6179 C 555.385 3.82882 -1.83308 0
M  V30 6180 C 553.292 4.21468 -4.14872 0
M  V30 6181 H 552.222 0.635804 -0.405302 0
M  V30 6182 H 554.873 1.06513 -1.49423 0
M  V30 6183 H 553.255 3.69128 -1.43389 0
M  V30 6184 H 554.429 2.35444 -3.9611 0
M  V30 6185 H 552.744 2.26203 -3.49602 0
M  V30 6186 H 555.341 4.79944 -2.35706 0
M  V30 6187 H 555.684 4.0853 -0.800572 0
M  V30 6188 H 556.217 3.25711 -2.28379 0
M  V30 6189 H 552.956 4.01009 -5.18529 0
M  V30 6190 H 552.476 4.76213 -3.64665 0
M  V30 6191 H 554.155 4.90022 -4.22478 0
M  V30 6192 N 554.287 1.06798 1.15896 0
M  V30 6193 C 555.515 0.808694 1.90441 0
M  V30 6194 C 555.93 -0.637506 1.77711 0
M  V30 6195 O 555.287 -1.43684 1.12522 0
M  V30 6196 C 555.338 1.20068 3.40978 0
M  V30 6197 O 555.059 2.59013 3.53333 0
M  V30 6198 C 556.56 0.96987 4.3256 0
M  V30 6199 H 553.78 0.292809 0.603742 0
M  V30 6200 H 556.324 1.42296 1.46874 0
M  V30 6201 H 554.479 0.630842 3.82229 0
M  V30 6202 H 554.893 2.7485 4.46719 0
M  V30 6203 H 556.367 1.29371 5.36626 0
M  V30 6204 H 556.844 -0.0941209 4.39099 0
M  V30 6205 H 557.45 1.52433 3.97044 0
M  V30 6206 N 555.766 -1.3263 0.851289 0
M  V30 6207 C 556.994 -2.01563 0.466899 0
M  V30 6208 C 557.409 -1.63996 -0.935447 0
M  V30 6209 O 556.766 -0.85957 -1.6099 0
M  V30 6210 C 556.817 -3.56613 0.592433 0
M  V30 6211 O 556.538 -3.92828 1.93954 0
M  V30 6212 C 558.039 -4.42818 0.206612 0
M  V30 6213 H 555.259 -0.645307 0.183902 0
M  V30 6214 H 557.803 -1.69285 1.1473 0
M  V30 6215 H 555.958 -3.87379 -0.0401936 0
M  V30 6216 H 556.372 -4.87545 1.9339 0
M  V30 6217 H 557.846 -5.50918 0.345462 0
M  V30 6218 H 558.323 -4.30844 -0.85264 0
M  V30 6219 H 558.929 -4.17434 0.814176 0
M  V30 6220 N 557.244 -0.608902 -1.45362 0
M  V30 6221 C 558.154 0.110969 -2.34337 0
M  V30 6222 C 559.17 0.859007 -1.51318 0
M  V30 6223 O 560.346 0.816296 -1.84116 0
M  V30 6224 C 557.411 1.09494 -3.28956 0
M  V30 6225 C 556.472 0.348718 -4.27881 0
M  V30 6226 C 555.705 1.28582 -5.17979 0
M  V30 6227 O 555.928 2.52369 -5.11533 0
M  V30 6228 O 554.862 0.782172 -5.96796 0
M  V30 6229 H 558.688 -0.620258 -2.97299 0
M  V30 6230 H 556.273 -0.36916 -1.44767 0
M  V30 6231 H 558.155 1.66163 -3.87257 0
M  V30 6232 H 556.83 1.80717 -2.68557 0
M  V30 6233 H 555.737 -0.260465 -3.73192 0
M  V30 6234 H 557.07 -0.323049 -4.91139 0
M  V30 6235 N 558.722 1.53707 -0.348139 0
M  V30 6236 C 559.947 2.05877 0.250883 0
M  V30 6237 C 560.372 1.22115 1.43072 0
M  V30 6238 O 559.73 0.235986 1.79758 0
M  V30 6239 C 559.778 3.54886 0.639416 0
M  V30 6240 O 558.882 3.73948 1.73888 0
M  V30 6241 H 558.223 0.662754 0.040653 0
M  V30 6242 H 560.753 1.98303 -0.503685 0
M  V30 6243 H 560.763 3.97601 0.915295 0
M  V30 6244 H 559.438 4.153 -0.223386 0
M  V30 6245 H 558.015 3.43134 1.45991 0
M  V30 6246 N 560.2 0.0768682 1.57412 0
M  V30 6247 C 561.449 -0.590679 1.92857 0
M  V30 6248 C 561.762 -1.70461 0.959293 0
M  V30 6249 O 562.968 -2.43207 1.20675 0
M  V30 6250 C 561.424 -1.10204 3.42612 0
M  V30 6251 C 561.032 -0.0188447 4.47996 0
M  V30 6252 C 562.776 -1.74336 3.87049 0
M  V30 6253 C 560.683 -0.544536 5.88888 0
M  V30 6254 H 559.613 -0.224411 0.71983 0
M  V30 6255 H 562.264 0.149924 1.82887 0
M  V30 6256 H 560.646 -1.89577 3.47673 0
M  V30 6257 H 561.82 0.755936 4.54557 0
M  V30 6258 H 560.135 0.526555 4.13057 0
M  V30 6259 H 562.732 -2.14708 4.89699 0
M  V30 6260 H 563.075 -2.60537 3.24694 0
M  V30 6261 H 563.608 -1.01577 3.84613 0
M  V30 6262 H 560.347 0.280426 6.549 0
M  V30 6263 H 559.867 -1.28673 5.85836 0
M  V30 6264 H 561.546 -1.01933 6.3892 0
M  V30 6265 N 561.678 -1.56367 -0.196722 0
M  V30 6266 C 562.924 -1.80796 -0.918725 0
M  V30 6267 C 563.257 -0.650645 -1.82976 0
M  V30 6268 O 562.532 0.348889 -1.91345 0
M  V30 6269 C 562.815 -3.15472 -1.73636 0
M  V30 6270 C 562.668 -4.41693 -0.85015 0
M  V30 6271 C 563.987 -3.46824 -2.70927 0
M  V30 6272 H 561.106 -0.657702 -0.332561 0
M  V30 6273 H 563.748 -1.89086 -0.186186 0
M  V30 6274 H 561.898 -3.08536 -2.36088 0
M  V30 6275 H 563.57 -4.60673 -0.240459 0
M  V30 6276 H 561.813 -4.33517 -0.156785 0
M  V30 6277 H 562.484 -5.32419 -1.45719 0
M  V30 6278 H 564.96 -3.54049 -2.18607 0
M  V30 6279 H 563.836 -4.4218 -3.25219 0
M  V30 6280 H 564.097 -2.70236 -3.49893 0
M  V30 6281 N 563.156 0.464375 -1.50603 0
M  V30 6282 C 564.405 1.21277 -1.61167 0
M  V30 6283 C 564.718 1.92953 -0.320704 0
M  V30 6284 O 565.924 2.69778 -0.30534 0
M  V30 6285 C 564.38 2.20403 -2.84518 0
M  V30 6286 C 563.988 1.54499 -4.20516 0
M  V30 6287 C 565.732 2.95843 -3.0443 0
M  V30 6288 C 563.639 2.51951 -5.35047 0
M  V30 6289 H 562.569 0.456367 -0.600204 0
M  V30 6290 H 565.22 0.48254 -1.77042 0
M  V30 6291 H 563.602 2.96746 -2.62217 0
M  V30 6292 H 564.776 0.83899 -4.53098 0
M  V30 6293 H 563.091 0.913152 -4.06264 0
M  V30 6294 H 565.688 3.6879 -3.87167 0
M  V30 6295 H 566.031 3.55622 -2.16423 0
M  V30 6296 H 566.564 2.26611 -3.26944 0
M  V30 6297 H 563.303 1.96901 -6.25228 0
M  V30 6298 H 562.823 3.20683 -5.06875 0
M  V30 6299 H 564.502 3.13643 -5.65895 0
M  V30 6300 N 564.634 1.40294 0.718013 0
M  V30 6301 C 565.88 1.39648 1.47885 0
M  V30 6302 C 566.235 -0.0023879 1.924 0
M  V30 6303 O 565.528 -0.972304 1.65096 0
M  V30 6304 C 565.722 2.31814 2.72024 0
M  V30 6305 C 565.551 3.80523 2.3965 0
M  V30 6306 C 564.321 4.49351 2.3111 0
M  V30 6307 C 566.519 4.72077 2.04079 0
M  V30 6308 N 564.501 5.83305 1.91385 0
M  V30 6309 C 565.872 5.94809 1.74935 0
M  V30 6310 C 567.927 4.59935 1.90694 0
M  V30 6311 C 566.63 7.06755 1.33753 0
M  V30 6312 C 568.656 5.7182 1.50915 0
M  V30 6313 C 568.018 6.93637 1.22668 0
M  V30 6314 H 564.117 0.566263 0.539324 0
M  V30 6315 H 566.701 1.75986 0.832891 0
M  V30 6316 H 564.872 1.97607 3.34374 0
M  V30 6317 H 566.604 2.22042 3.38348 0
M  V30 6318 H 563.359 4.03002 2.4877 0
M  V30 6319 H 563.783 6.54239 1.74068 0
M  V30 6320 H 568.425 3.66274 2.11194 0
M  V30 6321 H 566.143 8.00302 1.11995 0
M  V30 6322 H 569.729 5.64421 1.4114 0
M  V30 6323 H 568.609 7.78743 0.923502 0
M  V30 6324 N 566.112 -0.949982 1.2575 0
M  V30 6325 C 567.36 -1.6918 1.10555 0
M  V30 6326 C 567.681 -1.91773 -0.353298 0
M  V30 6327 O 566.951 -1.50814 -1.25027 0
M  V30 6328 H 565.531 -0.626952 0.406129 0
M  V30 6329 H 568.193 -1.1419 1.57945 0
M  V30 6330 H 567.289 -2.66915 1.61749 0
M  V30 6331 N 567.59 -1.07411 -1.15328 0
M  V30 6332 C 568.537 -0.694995 -2.20087 0
M  V30 6333 C 569.507 0.313904 -1.63107 0
M  V30 6334 O 570.692 0.200216 -1.89747 0
M  V30 6335 C 567.832 -0.0996218 -3.44956 0
M  V30 6336 C 566.945 -1.16007 -4.16133 0
M  V30 6337 C 566.08 -0.529636 -5.28553 0
M  V30 6338 C 565.119 -1.57283 -5.91548 0
M  V30 6339 N 564.256 -0.964932 -6.95438 0
M  V30 6340 H 569.096 -1.5927 -2.51867 0
M  V30 6341 H 566.633 -0.796115 -1.23695 0
M  V30 6342 H 568.591 0.263197 -4.16369 0
M  V30 6343 H 567.221 0.761435 -3.13691 0
M  V30 6344 H 566.273 -1.64045 -3.4321 0
M  V30 6345 H 567.585 -1.95101 -4.59061 0
M  V30 6346 H 566.739 -0.114487 -6.06592 0
M  V30 6347 H 565.478 0.29307 -4.86819 0
M  V30 6348 H 564.483 -1.99775 -5.12221 0
M  V30 6349 H 565.708 -2.39783 -6.35359 0
M  V30 6350 H 563.654 -0.16314 -6.55797 0
M  V30 6351 H 563.571 -1.69311 -7.36797 0
M  V30 6352 H 564.839 -0.575305 -7.77374 0
M  V30 6353 N 569.068 1.32177 -0.85831 0
M  V30 6354 C 570.296 2.01313 -0.477582 0
M  V30 6355 C 570.711 1.6449 0.926736 0
M  V30 6356 O 570.068 0.868096 1.60531 0
M  V30 6357 C 570.119 3.56293 -0.611337 0
M  V30 6358 O 569.84 3.91794 -1.96034 0
M  V30 6359 C 571.341 4.42702 -0.230093 0
M  V30 6360 H 568.561 0.644323 -0.187322 0
M  V30 6361 H 571.105 1.68674 -1.15626 0
M  V30 6362 H 569.26 3.87395 0.0196494 0
M  V30 6363 H 569.674 4.86513 -1.95973 0
M  V30 6364 H 571.148 5.50727 -0.374674 0
M  V30 6365 H 571.625 4.3129 0.829779 0
M  V30 6366 H 572.231 4.16997 -0.836302 0
M  V30 6367 N 570.547 0.616602 1.45037 0
M  V30 6368 C 571.958 0.199359 1.85633 0
M  V30 6369 C 572.309 -1.24588 1.51566 0
M  V30 6370 O 571.434 -1.94594 0.94668 0
M  V30 6371 C 572.029 0.355033 3.36935 0
M  V30 6372 C 570.588 -0.00758748 3.76399 0
M  V30 6373 C 569.735 0.675256 2.68953 0
M  V30 6374 H 572.686 0.822708 1.3571 0
M  V30 6375 H 572.707 -0.410201 3.78282 0
M  V30 6376 H 572.219 1.40699 3.61698 0
M  V30 6377 H 570.32 -1.05837 3.57252 0
M  V30 6378 H 570.433 0.392346 4.77491 0
M  V30 6379 H 568.797 0.111992 2.54454 0
M  V30 6380 H 569.58 1.72952 2.96551 0
M  V30 6381 N 572.025 -1.5352 0.356285 0
M  V30 6382 C 572.972 -2.25439 -0.494569 0
M  V30 6383 C 573.942 -1.25752 -1.08516 0
M  V30 6384 O 575.127 -1.54513 -1.1194 0
M  V30 6385 C 572.267 -3.04011 -1.63313 0
M  V30 6386 C 571.38 -4.18574 -1.06862 0
M  V30 6387 C 570.515 -4.84607 -2.17552 0
M  V30 6388 C 569.554 -5.91218 -1.58518 0
M  V30 6389 N 568.691 -6.50979 -2.63003 0
M  V30 6390 H 573.531 -2.97737 0.125244 0
M  V30 6391 H 571.068 -1.46916 0.0735789 0
M  V30 6392 H 573.026 -3.47834 -2.30363 0
M  V30 6393 H 571.656 -2.33986 -2.22374 0
M  V30 6394 H 570.708 -3.79303 -0.288672 0
M  V30 6395 H 572.02 -4.95215 -0.596924 0
M  V30 6396 H 571.174 -5.31566 -2.92442 0
M  V30 6397 H 569.913 -4.07418 -2.6807 0
M  V30 6398 H 568.918 -5.4363 -0.821391 0
M  V30 6399 H 570.143 -6.70322 -1.08836 0
M  V30 6400 H 568.089 -5.76648 -3.12751 0
M  V30 6401 H 568.006 -7.23131 -2.20493 0
M  V30 6402 H 569.274 -7.02589 -3.37623 0
M  V30 6403 N 573.503 -0.0852151 -1.57369 0
M  V30 6404 C 574.75 0.580806 -1.93992 0
M  V30 6405 C 575.078 1.68801 -0.966252 0
M  V30 6406 O 574.333 1.95694 0.0158649 0
M  V30 6407 C 574.632 1.18482 -3.3719 0
M  V30 6408 C 574.298 0.2024 -4.50446 0
M  V30 6409 C 572.96 -0.0678318 -4.81152 0
M  V30 6410 C 575.312 -0.46895 -5.19086 0
M  V30 6411 C 572.64 -1.01627 -5.77831 0
M  V30 6412 C 574.992 -1.4058 -6.16782 0
M  V30 6413 C 573.656 -1.68436 -6.45899 0
M  V30 6414 H 572.926 0.212532 -0.709867 0
M  V30 6415 H 575.573 -0.158947 -1.90839 0
M  V30 6416 H 573.878 2.0006 -3.36873 0
M  V30 6417 H 575.575 1.70767 -3.62822 0
M  V30 6418 H 572.165 0.423208 -4.26505 0
M  V30 6419 H 576.349 -0.273307 -4.95547 0
M  V30 6420 H 571.605 -1.2392 -5.9871 0
M  V30 6421 H 575.779 -1.93188 -6.69068 0
M  V30 6422 H 573.406 -2.42088 -7.20623 0
M  V30 6423 N 574.981 1.5647 0.188427 0
M  V30 6424 C 575.928 1.95073 1.23349 0
M  V30 6425 C 576.898 0.812238 1.44886 0
M  V30 6426 O 578.083 1.07095 1.57909 0
M  V30 6427 C 575.223 2.30124 2.57171 0
M  V30 6428 C 574.336 3.57069 2.43157 0
M  V30 6429 C 573.471 3.81411 3.69729 0
M  V30 6430 C 572.51 5.0176 3.50575 0
M  V30 6431 N 571.647 5.22321 4.69175 0
M  V30 6432 H 576.487 2.84171 0.89728 0
M  V30 6433 H 574.024 1.40623 0.431683 0
M  V30 6434 H 575.982 2.48463 3.35145 0
M  V30 6435 H 574.612 1.44159 2.88822 0
M  V30 6436 H 573.664 3.4674 1.56447 0
M  V30 6437 H 574.976 4.452 2.24942 0
M  V30 6438 H 574.13 4.00026 4.56141 0
M  V30 6439 H 572.869 2.91624 3.90905 0
M  V30 6440 H 571.874 4.83061 2.62549 0
M  V30 6441 H 573.099 5.93063 3.30837 0
M  V30 6442 H 571.045 4.35483 4.90602 0
M  V30 6443 H 570.962 6.04643 4.53809 0
M  V30 6444 H 572.23 5.45401 5.56919 0
M  V30 6445 N 576.459 -0.456382 1.50847 0
M  V30 6446 C 577.389 -1.56025 1.73719 0
M  V30 6447 C 578.37 -1.5967 0.586473 0
M  V30 6448 O 579.555 -1.75702 0.827185 0
M  V30 6449 C 576.685 -2.94251 1.84483 0
M  V30 6450 C 575.639 -3.05471 2.99786 0
M  V30 6451 C 574.965 -4.45489 2.95709 0
M  V30 6452 C 576.265 -2.81318 4.40065 0
M  V30 6453 H 577.959 -1.37138 2.66146 0
M  V30 6454 H 575.505 -0.658299 1.28072 0
M  V30 6455 H 577.458 -3.71417 1.99067 0
M  V30 6456 H 576.182 -3.14328 0.886891 0
M  V30 6457 H 574.841 -2.30741 2.84876 0
M  V30 6458 H 574.489 -4.62505 1.97732 0
M  V30 6459 H 574.189 -4.53929 3.73125 0
M  V30 6460 H 575.713 -5.24655 3.12362 0
M  V30 6461 H 577.127 -3.48226 4.55425 0
M  V30 6462 H 575.524 -3.01188 5.19043 0
M  V30 6463 H 576.594 -1.7706 4.51418 0
M  V30 6464 N 577.937 -1.40673 -0.710563 0
M  V30 6465 C 579.348 -1.34975 -1.28991 0
M  V30 6466 C 579.699 -0.0256272 -1.96183 0
M  V30 6467 O 578.824 0.876339 -1.97862 0
M  V30 6468 C 579.419 -2.44467 -2.34567 0
M  V30 6469 C 577.978 -2.42213 -2.88114 0
M  V30 6470 C 577.125 -2.25085 -1.61963 0
M  V30 6471 H 580.076 -1.50406 -0.506343 0
M  V30 6472 H 580.097 -2.12663 -3.15523 0
M  V30 6473 H 579.609 -3.40825 -1.85634 0
M  V30 6474 H 577.71 -1.49568 -3.41263 0
M  V30 6475 H 577.823 -3.37983 -3.39565 0
M  V30 6476 H 576.187 -1.72691 -1.87216 0
M  V30 6477 H 576.97 -3.23449 -1.15047 0
M  V30 6478 N 579.415 0.9433 -1.26252 0
M  V30 6479 C 580.664 1.68369 -1.11062 0
M  V30 6480 C 580.977 1.92514 0.346104 0
M  V30 6481 O 582.183 2.64358 0.618646 0
M  V30 6482 C 580.639 3.03171 -1.93946 0
M  V30 6483 C 580.247 2.86782 -3.4418 0
M  V30 6484 C 581.991 3.80916 -1.87359 0
M  V30 6485 C 579.898 4.17044 -4.19319 0
M  V30 6486 H 578.828 0.631469 -0.412023 0
M  V30 6487 H 581.479 1.04922 -1.50544 0
M  V30 6488 H 579.861 3.67587 -1.47296 0
M  V30 6489 H 581.035 2.31229 -3.98585 0
M  V30 6490 H 579.35 2.22482 -3.51981 0
M  V30 6491 H 581.947 4.77417 -2.40784 0
M  V30 6492 H 582.29 4.07658 -0.843857 0
M  V30 6493 H 582.823 3.2327 -2.31821 0
M  V30 6494 H 579.562 3.95487 -5.22753 0
M  V30 6495 H 579.082 4.72319 -3.69696 0
M  V30 6496 H 580.761 4.85513 -4.27651 0
M  V30 6497 N 580.893 1.08022 1.14757 0
M  V30 6498 C 581.825 0.664566 2.19354 0
M  V30 6499 C 582.838 -0.286374 1.60261 0
M  V30 6500 O 584.027 -0.0746362 1.78344 0
M  V30 6501 C 581.127 -0.0434634 3.38872 0
M  V30 6502 C 580.3 0.925381 4.27499 0
M  V30 6503 C 579.359 0.253398 5.2559 0
M  V30 6504 O 578.385 0.896581 5.62094 0
M  V30 6505 N 579.587 -0.998263 5.71852 0
M  V30 6506 H 582.352 1.56438 2.55631 0
M  V30 6507 H 579.913 0.965788 1.29939 0
M  V30 6508 H 581.905 -0.503857 4.01551 0
M  V30 6509 H 580.475 -0.845321 3.00954 0
M  V30 6510 H 579.695 1.56472 3.61815 0
M  V30 6511 H 580.983 1.58203 4.8358 0
M  V30 6512 H 580.381 -1.54063 5.44317 0
M  V30 6513 H 578.938 -1.40222 6.36538 0
M  V30 6514 N 582.371 -1.3172 0.865308 0
M  V30 6515 C 583.318 -2.2863 0.315736 0
M  V30 6516 C 584.288 -1.55524 -0.583213 0
M  V30 6517 O 585.473 -1.83694 -0.51585 0
M  V30 6518 C 582.613 -3.41735 -0.480773 0
M  V30 6519 C 581.726 -4.297 0.445167 0
M  V30 6520 C 580.861 -5.29944 -0.365012 0
M  V30 6521 C 579.9 -6.09554 0.557651 0
M  V30 6522 N 579.037 -7.01768 -0.215994 0
M  V30 6523 H 583.877 -2.75026 1.14736 0
M  V30 6524 H 581.414 -1.35302 0.577209 0
M  V30 6525 H 583.372 -4.06045 -0.958306 0
M  V30 6526 H 582.002 -2.96461 -1.27714 0
M  V30 6527 H 581.054 -3.65875 1.04113 0
M  V30 6528 H 582.366 -4.85295 1.15284 0
M  V30 6529 H 581.52 -5.99908 -0.905255 0
M  V30 6530 H 580.259 -4.74994 -1.106 0
M  V30 6531 H 579.264 -5.38485 1.10969 0
M  V30 6532 H 580.489 -6.66591 1.29742 0
M  V30 6533 H 578.435 -6.49232 -0.939878 0
M  V30 6534 H 578.352 -7.54762 0.432431 0
M  V30 6535 H 579.62 -7.76002 -0.737618 0
M  V30 6536 N 583.85 -0.624285 -1.44708 0
M  V30 6537 C 584.76 0.0861083 -2.34442 0
M  V30 6538 C 585.776 0.84291 -1.5222 0
M  V30 6539 O 586.952 0.796723 -1.84971 0
M  V30 6540 C 584.017 1.05999 -3.30099 0
M  V30 6541 C 583.077 0.303316 -4.28227 0
M  V30 6542 C 582.311 1.23081 -5.19314 0
M  V30 6543 O 582.534 2.46929 -5.14181 0
M  V30 6544 O 581.468 0.71883 -5.97592 0
M  V30 6545 H 585.293 -0.651756 -2.96624 0
M  V30 6546 H 582.879 -0.384493 -1.44368 0
M  V30 6547 H 584.76 1.62046 -3.88997 0
M  V30 6548 H 583.436 1.77859 -2.70459 0
M  V30 6549 H 582.343 -0.300033 -3.72895 0
M  V30 6550 H 583.676 -0.375123 -4.90768 0
M  V30 6551 N 585.328 1.53329 -0.364422 0
M  V30 6552 C 586.556 2.05657 0.226424 0
M  V30 6553 C 586.971 1.23801 1.42544 0
M  V30 6554 O 586.328 0.27839 1.80364 0
M  V30 6555 C 586.379 3.56125 0.621056 0
M  V30 6556 O 586.1 4.34879 -0.530304 0
M  V30 6557 C 587.601 4.24706 1.27041 0
M  V30 6558 H 584.821 0.669806 0.0400056 0
M  V30 6559 H 587.365 1.97714 -0.522456 0
M  V30 6560 H 585.52 3.64223 1.31985 0
M  V30 6561 H 585.934 5.24073 -0.211546 0
M  V30 6562 H 587.408 5.3131 1.49711 0
M  V30 6563 H 587.885 3.78354 2.23036 0
M  V30 6564 H 588.491 4.20858 0.613079 0
M  V30 6565 N 586.806 0.0935595 1.57322 0
M  V30 6566 C 588.052 -0.565234 1.95388 0
M  V30 6567 C 588.407 -1.65888 0.974632 0
M  V30 6568 O 587.7 -1.916 0.000376385 0
M  V30 6569 C 587.894 -1.16692 3.37813 0
M  V30 6570 C 587.723 -0.133091 4.49503 0
M  V30 6571 C 586.493 0.289884 5.04468 0
M  V30 6572 C 588.691 0.638141 5.10326 0
M  V30 6573 N 586.673 1.31214 5.99713 0
M  V30 6574 C 588.044 1.51227 6.01274 0
M  V30 6575 C 590.099 0.691827 4.9307 0
M  V30 6576 C 588.802 2.43536 6.76818 0
M  V30 6577 C 590.828 1.60251 5.69274 0
M  V30 6578 C 590.19 2.46427 6.59889 0
M  V30 6579 H 586.289 -0.177212 0.761656 0
M  V30 6580 H 588.873 0.175769 1.93905 0
M  V30 6581 H 587.044 -1.87775 3.39993 0
M  V30 6582 H 588.776 -1.78795 3.63063 0
M  V30 6583 H 585.531 -0.0975541 4.735 0
M  V30 6584 H 585.955 1.82143 6.52038 0
M  V30 6585 H 590.597 0.0397431 4.22781 0
M  V30 6586 H 588.315 3.0977 7.4637 0
M  V30 6587 H 591.901 1.64917 5.57937 0
M  V30 6588 H 590.781 3.15751 7.17824 0
M  V30 6589 N 588.284 -1.56567 -0.180126 0
M  V30 6590 C 589.194 -1.98947 -1.24327 0
M  V30 6591 C 590.21 -0.899446 -1.4895 0
M  V30 6592 O 591.386 -1.20639 -1.61271 0
M  V30 6593 C 588.451 -2.33328 -2.56435 0
M  V30 6594 C 587.512 -3.56114 -2.39752 0
M  V30 6595 C 586.745 -3.88845 -3.65561 0
M  V30 6596 O 586.968 -3.22662 -4.70368 0
M  V30 6597 O 585.902 -4.82226 -3.60197 0
M  V30 6598 H 589.728 -2.89634 -0.913565 0
M  V30 6599 H 587.313 -1.44319 -0.386306 0
M  V30 6600 H 589.195 -2.5645 -3.34382 0
M  V30 6601 H 587.87 -1.45806 -2.89002 0
M  V30 6602 H 586.777 -3.38221 -1.59866 0
M  V30 6603 H 588.11 -4.4415 -2.12113 0
M  V30 6604 N 589.762 0.448376 -1.51087 0
M  V30 6605 C 590.99 1.22143 -1.66999 0
M  V30 6606 C 591.405 1.85283 -0.362699 0
M  V30 6607 O 590.762 1.70236 0.65772 0
M  V30 6608 C 590.813 2.31357 -2.7777 0
M  V30 6609 O 590.534 1.70801 -4.03434 0
M  V30 6610 C 592.035 3.21836 -3.04855 0
M  V30 6611 H 589.255 0.368558 -0.560719 0
M  V30 6612 H 591.799 0.532618 -1.97442 0
M  V30 6613 H 589.954 2.95973 -2.49958 0
M  V30 6614 H 590.368 2.42895 -4.64868 0
M  V30 6615 H 591.842 3.94627 -3.85971 0
M  V30 6616 H 592.319 3.81949 -2.16821 0
M  V30 6617 H 592.925 2.62933 -3.34285 0
M  V30 6618 N 591.24 1.41047 0.703093 0
M  V30 6619 C 592.486 1.41209 1.46396 0
M  V30 6620 C 592.841 0.0180188 1.92392 0
M  V30 6621 O 592.134 -0.954739 1.66118 0
M  V30 6622 C 592.328 2.34686 2.6955 0
M  V30 6623 C 592.157 3.83044 2.35601 0
M  V30 6624 C 590.927 4.51777 2.26331 0
M  V30 6625 C 593.125 4.74215 1.9906 0
M  V30 6626 N 591.107 5.85302 1.85188 0
M  V30 6627 C 592.478 5.96631 1.68616 0
M  V30 6628 C 594.533 4.61932 1.85805 0
M  V30 6629 C 593.236 7.08134 1.26249 0
M  V30 6630 C 595.262 5.73389 1.44842 0
M  V30 6631 C 594.624 6.94899 1.15304 0
M  V30 6632 H 590.723 0.571951 0.533288 0
M  V30 6633 H 593.307 1.76859 0.814179 0
M  V30 6634 H 591.478 2.01143 3.32259 0
M  V30 6635 H 593.21 2.25618 3.35974 0
M  V30 6636 H 589.965 4.05618 2.44482 0
M  V30 6637 H 590.389 6.56049 1.67119 0
M  V30 6638 H 595.031 3.68494 2.07298 0
M  V30 6639 H 592.749 8.01445 1.035 0
M  V30 6640 H 596.335 5.65886 1.35146 0
M  V30 6641 H 595.215 7.79679 0.840854 0
M  V30 6642 N 592.718 -0.936591 1.26751 0
M  V30 6643 C 593.964 -1.68625 1.13741 0
M  V30 6644 C 594.319 -1.898 -0.315221 0
M  V30 6645 O 593.612 -1.47088 -1.22783 0
M  V30 6646 C 593.806 -3.06099 1.84494 0
M  V30 6647 C 593.635 -2.98338 3.36488 0
M  V30 6648 C 592.405 -3.01104 4.05789 0
M  V30 6649 C 594.603 -2.78128 4.32608 0
M  V30 6650 N 592.585 -2.8369 5.4442 0
M  V30 6651 C 593.956 -2.69329 5.58446 0
M  V30 6652 C 596.011 -2.62946 4.22804 0
M  V30 6653 C 594.714 -2.46899 6.75598 0
M  V30 6654 C 596.74 -2.41892 5.39669 0
M  V30 6655 C 596.102 -2.33829 6.64457 0
M  V30 6656 H 592.201 -0.624227 0.471025 0
M  V30 6657 H 594.785 -1.10798 1.601 0
M  V30 6658 H 592.956 -3.62057 1.40604 0
M  V30 6659 H 594.688 -3.69951 1.64067 0
M  V30 6660 H 591.443 -3.10992 3.57185 0
M  V30 6661 H 591.867 -2.78138 6.17226 0
M  V30 6662 H 596.509 -2.67944 3.27056 0
M  V30 6663 H 594.227 -2.40642 7.71438 0
M  V30 6664 H 597.813 -2.31043 5.33957 0
M  V30 6665 H 596.693 -2.17754 7.53361 0
M  V30 6666 N 594.196 -1.08629 -1.14182 0
M  V30 6667 C 595.424 -0.838889 -1.8913 0
M  V30 6668 C 595.839 0.609153 -1.78703 0
M  V30 6669 O 595.196 1.41876 -1.14794 0
M  V30 6670 C 595.247 -1.25477 -3.39025 0
M  V30 6671 O 594.968 -2.64601 -3.49167 0
M  V30 6672 C 596.469 -1.03856 -4.30963 0
M  V30 6673 H 593.689 -0.302377 -0.599007 0
M  V30 6674 H 596.233 -1.44615 -1.44592 0
M  V30 6675 H 594.388 -0.691571 -3.81177 0
M  V30 6676 H 594.802 -2.81922 -4.42289 0
M  V30 6677 H 596.276 -1.37892 -5.345 0
M  V30 6678 H 596.753 0.0242522 -4.39193 0
M  V30 6679 H 597.359 -1.58731 -3.94569 0
M  V30 6680 N 595.674 1.31259 -0.872281 0
M  V30 6681 C 596.584 2.32221 -0.333255 0
M  V30 6682 C 597.6 1.6481 0.558013 0
M  V30 6683 O 598.776 1.96212 0.454175 0
M  V30 6684 C 595.841 3.43708 0.454479 0
M  V30 6685 C 594.902 4.26774 -0.465024 0
M  V30 6686 C 594.135 5.32937 0.28521 0
M  V30 6687 O 594.358 5.49968 1.513 0
M  V30 6688 O 593.292 6.00834 -0.358126 0
M  V30 6689 H 597.118 2.80252 -1.17016 0
M  V30 6690 H 594.703 1.352 -0.635724 0
M  V30 6691 H 596.585 4.11656 0.900963 0
M  V30 6692 H 595.26 2.97836 1.26789 0
M  V30 6693 H 594.167 3.61571 -0.960055 0
M  V30 6694 H 595.5 4.76217 -1.2441 0
M  V30 6695 N 597.152 0.631951 1.44375 0
M  V30 6696 C 598.382 0.143658 2.061 0
M  V30 6697 C 598.79 -1.18733 1.47306 0
M  V30 6698 O 598.133 -1.73943 0.590724 0
M  V30 6699 C 598.195 -0.0446102 3.59472 0
M  V30 6700 C 597.859 1.20835 4.40736 0
M  V30 6701 C 598.856 2.13224 4.74164 0
M  V30 6702 C 596.541 1.44399 4.81097 0
M  V30 6703 C 598.535 3.27487 5.46838 0
M  V30 6704 C 596.222 2.58959 5.53519 0
M  V30 6705 C 597.22 3.50329 5.86309 0
M  V30 6706 O 596.908 4.62891 6.57257 0
M  V30 6707 H 596.64 0.0772939 0.671567 0
M  V30 6708 H 599.194 0.866677 1.8622 0
M  V30 6709 H 597.424 -0.822783 3.77845 0
M  V30 6710 H 599.113 -0.487561 4.02961 0
M  V30 6711 H 599.879 1.96253 4.4352 0
M  V30 6712 H 595.758 0.741696 4.54994 0
M  V30 6713 H 599.302 3.98826 5.72349 0
M  V30 6714 H 595.199 2.75873 5.83579 0
M  V30 6715 H 595.967 4.61883 6.75726 0
M  V30 6716 N 598.631 -1.53133 0.372548 0
M  V30 6717 C 599.877 -2.02336 -0.207823 0
M  V30 6718 C 600.232 -1.25477 -1.45853 0
M  V30 6719 O 599.525 -0.341971 -1.88524 0
M  V30 6720 C 599.719 -3.53206 -0.545938 0
M  V30 6721 C 599.548 -4.44674 0.670454 0
M  V30 6722 C 598.318 -4.91217 1.18465 0
M  V30 6723 C 600.516 -4.90772 1.53777 0
M  V30 6724 N 598.498 -5.66711 2.36034 0
M  V30 6725 C 599.869 -5.64678 2.56004 0
M  V30 6726 C 601.924 -4.72836 1.55983 0
M  V30 6727 C 600.627 -6.22555 3.60303 0
M  V30 6728 C 602.653 -5.31583 2.59179 0
M  V30 6729 C 602.015 -6.05381 3.6013 0
M  V30 6730 H 598.114 -0.781048 -0.0385783 0
M  V30 6731 H 600.698 -1.87665 0.518664 0
M  V30 6732 H 598.869 -3.68024 -1.24149 0
M  V30 6733 H 600.601 -3.89123 -1.112 0
M  V30 6734 H 597.356 -4.67652 0.748205 0
M  V30 6735 H 597.78 -6.09117 2.95475 0
M  V30 6736 H 602.422 -4.15299 0.792877 0
M  V30 6737 H 600.14 -6.79183 4.37876 0
M  V30 6738 H 603.726 -5.19595 2.61749 0
M  V30 6739 H 602.606 -6.50028 4.38672 0
M  V30 6740 N 600.109 -0.101901 -1.5727 0
M  V30 6741 C 601.041 0.884723 -2.11436 0
M  V30 6742 C 602.054 1.24149 -1.05314 0
M  V30 6743 O 603.243 1.19341 -1.3274 0
M  V30 6744 C 600.343 2.19179 -2.58484 0
M  V30 6745 C 599.516 2.00933 -3.88516 0
M  V30 6746 C 598.575 3.15213 -4.2134 0
M  V30 6747 O 597.601 2.88877 -4.90448 0
M  V30 6748 N 598.803 4.41174 -3.77288 0
M  V30 6749 H 601.568 0.422058 -2.96713 0
M  V30 6750 H 599.129 0.0830128 -1.61687 0
M  V30 6751 H 601.121 2.94593 -2.77484 0
M  V30 6752 H 599.691 2.56847 -1.7818 0
M  V30 6753 H 598.911 1.09809 -3.78597 0
M  V30 6754 H 600.199 1.86026 -4.73573 0
M  V30 6755 H 599.597 4.6545 -3.21516 0
M  V30 6756 H 598.154 5.13515 -4.01429 0
M  V30 6757 N 601.587 1.56661 0.17182 0
M  V30 6758 C 602.55 1.9549 1.19651 0
M  V30 6759 C 603.55 0.838501 1.37207 0
M  V30 6760 O 604.74 1.10556 1.34622 0
M  V30 6761 C 601.872 2.24927 2.56166 0
M  V30 6762 H 603.065 2.87184 0.864007 0
M  V30 6763 H 600.618 1.50711 0.41425 0
M  V30 6764 H 601.353 1.35944 2.94431 0
M  V30 6765 H 601.138 3.06301 2.4479 0
M  V30 6766 H 602.628 2.55891 3.30014 0
M  V30 6767 N 603.065 -0.440357 1.51323 0
M  V30 6768 C 604.293 -1.21255 1.67645 0
M  V30 6769 C 604.708 -1.85088 0.37252 0
M  V30 6770 O 604.065 -1.70582 -0.648683 0
M  V30 6771 C 604.116 -2.29881 2.78993 0
M  V30 6772 O 603.837 -1.68659 4.04334 0
M  V30 6773 C 605.338 -3.20214 3.06558 0
M  V30 6774 H 602.558 -0.36558 0.562666 0
M  V30 6775 H 605.102 -0.52214 1.97722 0
M  V30 6776 H 603.257 -2.94643 2.51524 0
M  V30 6777 H 603.671 -2.40426 4.6615 0
M  V30 6778 H 605.145 -3.92575 3.88058 0
M  V30 6779 H 605.622 -3.80794 2.18844 0
M  V30 6780 H 606.228 -2.61156 3.35675 0
M  V30 6781 N 604.543 -1.41418 -0.695603 0
M  V30 6782 C 605.789 -1.41983 -1.45645 0
M  V30 6783 C 606.144 -0.0282216 -1.92379 0
M  V30 6784 O 605.437 0.945916 -1.66622 0
M  V30 6785 C 605.631 -2.36112 -2.68302 0
M  V30 6786 C 605.46 -3.84288 -2.33566 0
M  V30 6787 C 604.23 -4.52971 -2.23932 0
M  V30 6788 C 606.428 -4.75264 -1.96543 0
M  V30 6789 N 604.41 -5.86276 -1.82081 0
M  V30 6790 C 605.781 -5.97517 -1.6545 0
M  V30 6791 C 607.836 -4.62911 -1.83352 0
M  V30 6792 C 606.539 -7.08793 -1.22492 0
M  V30 6793 C 608.565 -5.74149 -1.41799 0
M  V30 6794 C 607.927 -6.95501 -1.11617 0
M  V30 6795 H 604.026 -0.574771 -0.530247 0
M  V30 6796 H 606.61 -1.77289 -0.804788 0
M  V30 6797 H 604.781 -2.02902 -3.31188 0
M  V30 6798 H 606.513 -2.27397 -3.34773 0
M  V30 6799 H 603.268 -4.06909 -2.42327 0
M  V30 6800 H 603.692 -6.56926 -1.63638 0
M  V30 6801 H 608.334 -3.69588 -2.05341 0
M  V30 6802 H 606.052 -8.01982 -0.992482 0
M  V30 6803 H 609.638 -5.66595 -1.32143 0
M  V30 6804 H 608.518 -7.80114 -0.799493 0
M  V30 6805 N 606.021 0.929856 -1.27246 0
M  V30 6806 C 607.27 1.67182 -1.12842 0
M  V30 6807 C 607.583 1.9287 0.325666 0
M  V30 6808 O 608.789 2.64999 0.590572 0
M  V30 6809 C 607.245 3.01097 -1.97151 0
M  V30 6810 C 606.853 2.83115 -3.47203 0
M  V30 6811 C 608.597 3.78907 -1.91389 0
M  V30 6812 C 606.504 4.12573 -4.23719 0
M  V30 6813 H 605.434 0.627064 -0.418697 0
M  V30 6814 H 608.085 1.0332 -1.51649 0
M  V30 6815 H 606.467 3.66004 -1.51186 0
M  V30 6816 H 607.641 2.26989 -4.01015 0
M  V30 6817 H 605.956 2.18736 -3.54321 0
M  V30 6818 H 608.553 4.74837 -2.45834 0
M  V30 6819 H 608.896 4.0674 -0.887047 0
M  V30 6820 H 609.429 3.20794 -2.35237 0
M  V30 6821 H 606.168 3.8992 -5.26918 0
M  V30 6822 H 605.688 4.68371 -3.74685 0
M  V30 6823 H 607.367 4.8095 -4.32777 0
M  V30 6824 N 607.499 1.09233 1.13605 0
M  V30 6825 C 608.91 0.846839 1.6639 0
M  V30 6826 C 609.261 -0.625031 1.85978 0
M  V30 6827 O 608.386 -1.48173 1.57714 0
M  V30 6828 C 608.981 1.5307 3.0225 0
M  V30 6829 C 607.54 1.33223 3.52035 0
M  V30 6830 C 606.687 1.58806 2.27323 0
M  V30 6831 H 609.638 1.25175 0.975541 0
M  V30 6832 H 609.659 0.96267 3.68121 0
M  V30 6833 H 609.171 2.60192 2.87961 0
M  V30 6834 H 607.272 0.282091 3.71531 0
M  V30 6835 H 607.385 2.0657 4.32279 0
M  V30 6836 H 605.749 1.01007 2.33815 0
M  V30 6837 H 606.532 2.67153 2.15602 0
M  V30 6838 N 608.977 -1.30795 0.87923 0
M  V30 6839 C 609.887 -2.32041 0.345565 0
M  V30 6840 C 610.903 -1.65103 -0.549265 0
M  V30 6841 O 612.079 -1.9645 -0.443763 0
M  V30 6842 C 609.144 -3.43944 -0.436245 0
M  V30 6843 C 608.205 -4.26521 0.48765 0
M  V30 6844 C 607.438 -5.33081 -0.256943 0
M  V30 6845 O 607.661 -5.50762 -1.48381 0
M  V30 6846 O 606.595 -6.00635 0.389985 0
M  V30 6847 H 610.421 -2.79627 1.18501 0
M  V30 6848 H 608.006 -1.3486 0.642885 0
M  V30 6849 H 609.888 -4.12128 -0.879119 0
M  V30 6850 H 608.563 -2.98504 -1.25208 0
M  V30 6851 H 607.47 -3.61057 0.979216 0
M  V30 6852 H 608.803 -4.75551 1.26933 0
M  V30 6853 N 610.455 -0.639598 -1.44038 0
M  V30 6854 C 611.701 -0.156248 -2.02799 0
M  V30 6855 C 612.056 1.21145 -1.49471 0
M  V30 6856 O 611.349 1.79406 -0.672608 0
M  V30 6857 C 611.543 -0.0925348 -3.5728 0
M  V30 6858 C 611.372 -1.45252 -4.25596 0
M  V30 6859 C 610.142 -2.04145 -4.62226 0
M  V30 6860 C 612.34 -2.38812 -4.55492 0
M  V30 6861 N 610.322 -3.3329 -5.15549 0
M  V30 6862 C 611.693 -3.52578 -5.09989 0
M  V30 6863 C 613.748 -2.37785 -4.3745 0
M  V30 6864 C 612.451 -4.65525 -5.48342 0
M  V30 6865 C 614.477 -3.49802 -4.76857 0
M  V30 6866 C 613.839 -4.62292 -5.31475 0
M  V30 6867 H 609.938 -0.101292 -0.775412 0
M  V30 6868 H 612.522 -0.844938 -1.75411 0
M  V30 6869 H 610.693 0.565459 -3.84262 0
M  V30 6870 H 612.425 0.400426 -4.02714 0
M  V30 6871 H 609.18 -1.56999 -4.4682 0
M  V30 6872 H 609.604 -3.9934 -5.46678 0
M  V30 6873 H 614.246 -1.52061 -3.94509 0
M  V30 6874 H 611.964 -5.51951 -5.90233 0
M  V30 6875 H 615.55 -3.50193 -4.64603 0
M  V30 6876 H 614.43 -5.47536 -5.61403 0
M  V30 6877 N 611.933 1.52934 -0.380664 0
M  V30 6878 C 612.843 2.29921 0.466192 0
M  V30 6879 C 613.859 1.36488 1.07922 0
M  V30 6880 O 615.035 1.69553 1.0869 0
M  V30 6881 C 612.1 3.08468 1.58266 0
M  V30 6882 C 611.161 4.17595 0.995627 0
M  V30 6883 C 610.394 4.92387 2.05889 0
M  V30 6884 O 610.617 4.67184 3.27254 0
M  V30 6885 O 609.551 5.77949 1.68102 0
M  V30 6886 H 613.377 3.03274 -0.160735 0
M  V30 6887 H 610.962 1.48698 -0.144617 0
M  V30 6888 H 612.844 3.57469 2.23145 0
M  V30 6889 H 611.519 2.37937 2.19471 0
M  V30 6890 H 610.426 3.72811 0.310332 0
M  V30 6891 H 611.759 4.90336 0.427918 0
M  V30 6892 N 613.412 0.11024 1.57214 0
M  V30 6893 C 614.659 -0.54987 1.94891 0
M  V30 6894 C 614.987 -1.67243 0.992984 0
M  V30 6895 O 614.242 -1.95694 0.0152703 0
M  V30 6896 C 614.541 -1.13102 3.39032 0
M  V30 6897 C 614.207 -0.130713 4.5071 0
M  V30 6898 C 612.869 0.14437 4.80983 0
M  V30 6899 C 615.221 0.551472 5.18274 0
M  V30 6900 C 612.549 1.10807 5.76141 0
M  V30 6901 C 614.901 1.50375 6.14467 0
M  V30 6902 C 613.565 1.78691 6.43138 0
M  V30 6903 H 612.835 -0.201212 0.713158 0
M  V30 6904 H 615.482 0.189288 1.90562 0
M  V30 6905 H 613.787 -1.94675 3.40013 0
M  V30 6906 H 615.484 -1.64973 3.65493 0
M  V30 6907 H 612.074 -0.355301 4.27125 0
M  V30 6908 H 616.258 0.35211 4.95049 0
M  V30 6909 H 611.514 1.3343 5.96663 0
M  V30 6910 H 615.688 2.03808 6.65909 0
M  V30 6911 H 613.315 2.53522 7.1668 0
M  V30 6912 N 614.89 -1.56749 -0.16351 0
M  V30 6913 C 616.136 -1.82704 -0.880168 0
M  V30 6914 C 616.469 -0.689311 -1.81555 0
M  V30 6915 O 615.744 0.308224 -1.92042 0
M  V30 6916 C 616.027 -3.19084 -1.66905 0
M  V30 6917 C 615.88 -4.43397 -0.756269 0
M  V30 6918 C 617.199 -3.52493 -2.63509 0
M  V30 6919 H 614.318 -0.664608 -0.318535 0
M  V30 6920 H 616.96 -1.89438 -0.146036 0
M  V30 6921 H 615.11 -3.13475 -2.2949 0
M  V30 6922 H 616.782 -4.61079 -0.14269 0
M  V30 6923 H 615.025 -4.33752 -0.0647944 0
M  V30 6924 H 615.696 -5.3539 -1.34393 0
M  V30 6925 H 618.172 -3.58606 -2.11047 0
M  V30 6926 H 617.048 -4.48979 -3.15767 0
M  V30 6927 H 617.309 -2.77597 -3.44082 0
M  V30 6928 N 616.368 0.432326 -1.51554 0
M  V30 6929 C 617.316 1.54572 -1.73811 0
M  V30 6930 C 618.31 1.58246 -0.604539 0
M  V30 6931 O 619.516 1.6193 -0.786041 0
M  V30 6932 H 615.891 0.513626 -0.549265 0
M  V30 6933 H 617.862 1.32977 -2.67132 0
M  V30 6934 C 616.611 2.92181 -1.88483 0
M  V30 6935 H 615.934 2.90088 -2.75116 0
M  V30 6936 H 617.374 3.69439 -2.08065 0
M  V30 6937 C 615.833 3.3065 -0.645909 0
M  V30 6938 O 616.363 4.01216 0.197093 0
M  V30 6939 N 614.569 2.86464 -0.488538 0
M  V30 6940 H 614.116 2.29209 -1.17562 0
M  V30 6941 H 614.074 3.12565 0.339156 0
M  V30 6942 N 617.846 1.41785 0.688094 0
M  V30 6943 C 619.074 1.44915 1.47673 0
M  V30 6944 C 619.489 0.0565786 1.88715 0
M  V30 6945 O 618.846 -0.92579 1.57275 0
M  V30 6946 C 618.897 2.36452 2.73446 0
M  V30 6947 O 618.618 3.7029 2.34131 0
M  V30 6948 C 620.119 2.48463 3.67125 0
M  V30 6949 H 617.339 0.493324 0.454832 0
M  V30 6950 H 619.883 1.86153 0.846594 0
M  V30 6951 H 618.038 1.98502 3.3268 0
M  V30 6952 H 618.452 4.19183 3.15255 0
M  V30 6953 H 619.926 3.16662 4.52138 0
M  V30 6954 H 620.403 1.51826 4.12123 0
M  V30 6955 H 621.009 2.8708 3.13792 0
M  V30 6956 N 619.324 -0.923095 1.27737 0
M  V30 6957 C 620.735 -1.48626 1.12993 0
M  V30 6958 C 621.086 -1.94142 -0.283439 0
M  V30 6959 O 620.211 -1.81605 -1.17681 0
M  V30 6960 C 620.806 -2.70117 2.04505 0
M  V30 6961 C 619.365 -3.22642 1.93853 0
M  V30 6962 C 618.512 -1.95368 1.96791 0
M  V30 6963 H 621.463 -0.736737 1.40563 0
M  V30 6964 H 621.484 -3.4506 1.60356 0
M  V30 6965 H 620.996 -2.36959 3.07363 0
M  V30 6966 H 619.097 -3.60549 0.939968 0
M  V30 6967 H 619.21 -3.88525 2.80331 0
M  V30 6968 H 617.574 -2.12061 1.41076 0
M  V30 6969 H 618.357 -1.64517 3.01312 0
M  V30 6970 N 620.802 -1.09834 -1.13024 0
M  V30 6971 C 622.213 -0.855651 -1.65938 0
M  V30 6972 C 622.564 0.615159 -1.86307 0
M  V30 6973 O 621.689 1.47335 -1.58497 0
M  V30 6974 C 622.284 -1.5467 -3.01434 0
M  V30 6975 C 620.843 -1.35088 -3.51323 0
M  V30 6976 C 619.99 -1.6001 -2.26478 0
M  V30 6977 H 622.941 -1.25691 -0.968889 0
M  V30 6978 H 622.962 -0.982179 -3.67605 0
M  V30 6979 H 622.474 -2.61715 -2.86578 0
M  V30 6980 H 620.575 -0.30179 -3.71376 0
M  V30 6981 H 620.688 -2.0886 -4.31178 0
M  V30 6982 H 619.052 -1.02246 -2.33276 0
M  V30 6983 H 619.835 -2.68293 -2.14182 0
M  V30 6984 N 622.28 1.30327 -0.886154 0
M  V30 6985 C 623.21 2.30549 -0.370028 0
M  V30 6986 C 624.191 1.61039 0.547751 0
M  V30 6987 O 625.376 1.8864 0.461353 0
M  V30 6988 C 622.506 3.44808 0.415275 0
M  V30 6989 C 621.46 4.26024 -0.41085 0
M  V30 6990 C 620.786 5.32347 0.501128 0
M  V30 6991 C 622.086 4.95433 -1.65359 0
M  V30 6992 H 623.78 2.73969 -1.20754 0
M  V30 6993 H 621.326 1.3171 -0.582097 0
M  V30 6994 H 623.279 4.13986 0.78699 0
M  V30 6995 H 622.003 3.00197 1.28644 0
M  V30 6996 H 620.662 3.58535 -0.764719 0
M  V30 6997 H 620.31 4.83982 1.37004 0
M  V30 6998 H 620.01 5.87581 -0.0478356 0
M  V30 6999 H 621.534 6.0438 0.869333 0
M  V30 7000 H 622.948 5.5712 -1.35239 0
M  V30 7001 H 621.345 5.60537 -2.14284 0
M  V30 7002 H 622.415 4.21493 -2.39733 0
M  V30 7003 N 623.758 0.647228 1.43697 0
M  V30 7004 C 625.004 0.158422 2.0218 0
M  V30 7005 C 625.337 -1.22233 1.50907 0
M  V30 7006 O 624.612 -1.81478 0.699702 0
M  V30 7007 C 624.895 0.1627 3.59732 0
M  V30 7008 C 624.748 1.57694 4.21251 0
M  V30 7009 C 626.067 -0.504138 4.37203 0
M  V30 7010 H 623.186 0.059042 0.734631 0
M  V30 7011 H 625.828 0.826772 1.71069 0
M  V30 7012 H 623.978 -0.406414 3.86368 0
M  V30 7013 H 625.65 2.19618 4.05667 0
M  V30 7014 H 623.893 2.12603 3.7813 0
M  V30 7015 H 624.564 1.53183 5.3032 0
M  V30 7016 H 627.04 -0.0199841 4.16095 0
M  V30 7017 H 625.916 -0.470394 5.46881 0
M  V30 7018 H 626.177 -1.57726 4.13007 0
M  V30 7019 N 625.236 -1.5273 0.388769 0
M  V30 7020 C 626.183 -2.26437 -0.446639 0
M  V30 7021 C 627.153 -1.28025 -1.05824 0
M  V30 7022 O 628.338 -1.56852 -1.08637 0
M  V30 7023 C 625.478 -3.07407 -1.56828 0
M  V30 7024 C 624.591 -4.20747 -0.979589 0
M  V30 7025 C 623.726 -4.89113 -2.07224 0
M  V30 7026 C 622.765 -5.94447 -1.45942 0
M  V30 7027 N 621.902 -6.56411 -2.49135 0
M  V30 7028 H 626.742 -2.97404 0.18837 0
M  V30 7029 H 624.279 -1.46727 0.104725 0
M  V30 7030 H 626.237 -3.52642 -2.22934 0
M  V30 7031 H 624.867 -2.3865 -2.17361 0
M  V30 7032 H 623.919 -3.7983 -0.208151 0
M  V30 7033 H 625.231 -4.9637 -0.491747 0
M  V30 7034 H 624.385 -5.3765 -2.81101 0
M  V30 7035 H 623.124 -4.13013 -2.59368 0
M  V30 7036 H 622.129 -5.4525 -0.705894 0
M  V30 7037 H 623.354 -6.7248 -0.945932 0
M  V30 7038 H 621.3 -5.83152 -3.00449 0
M  V30 7039 H 621.217 -7.27645 -2.05105 0
M  V30 7040 H 622.485 -7.09592 -3.22644 0
M  V30 7041 N 626.714 -0.118576 -1.57153 0
M  V30 7042 C 627.644 0.828436 -2.1831 0
M  V30 7043 C 628.625 1.27758 -1.12303 0
M  V30 7044 O 629.81 1.34026 -1.40537 0
M  V30 7045 C 626.94 2.07876 -2.78217 0
M  V30 7046 C 625.894 1.76742 -3.89803 0
M  V30 7047 C 625.22 3.08801 -4.36516 0
M  V30 7048 C 626.52 1.03606 -5.11921 0
M  V30 7049 H 628.214 0.318824 -2.97698 0
M  V30 7050 H 625.76 0.151911 -1.43196 0
M  V30 7051 H 627.713 2.74584 -3.19659 0
M  V30 7052 H 626.437 2.61161 -1.96118 0
M  V30 7053 H 625.096 1.12424 -3.48936 0
M  V30 7054 H 624.744 3.6002 -3.51276 0
M  V30 7055 H 624.444 2.88743 -5.11763 0
M  V30 7056 H 625.968 3.76627 -4.80608 0
M  V30 7057 H 627.382 1.60467 -5.50385 0
M  V30 7058 H 625.779 0.936454 -5.92748 0
M  V30 7059 H 626.849 0.0227421 -4.84895 0
M  V30 7060 N 628.193 1.56834 0.155195 0
M  V30 7061 C 629.439 1.84058 0.865687 0
M  V30 7062 C 629.794 0.701418 1.79159 0
M  V30 7063 O 629.087 -0.301162 1.89218 0
M  V30 7064 C 629.281 3.15239 1.68402 0
M  V30 7065 C 629.11 4.41807 0.838847 0
M  V30 7066 C 627.88 5.02744 0.507645 0
M  V30 7067 C 630.078 5.14009 0.172946 0
M  V30 7068 N 628.06 6.1289 -0.351978 0
M  V30 7069 C 629.431 6.17581 -0.547158 0
M  V30 7070 C 631.486 4.97814 0.0927721 0
M  V30 7071 C 630.189 7.06711 -1.33985 0
M  V30 7072 C 632.215 5.874 -0.686638 0
M  V30 7073 C 631.577 6.90447 -1.39505 0
M  V30 7074 H 627.676 0.724276 0.294871 0
M  V30 7075 H 630.26 1.94255 0.131583 0
M  V30 7076 H 628.431 3.06205 2.38942 0
M  V30 7077 H 630.163 3.304 2.33705 0
M  V30 7078 H 626.918 4.66064 0.841517 0
M  V30 7079 H 627.342 6.72577 -0.772573 0
M  V30 7080 H 631.984 4.18138 0.626112 0
M  V30 7081 H 629.702 7.8582 -1.88448 0
M  V30 7082 H 633.288 5.76938 -0.750555 0
M  V30 7083 H 632.168 7.58571 -1.98847 0
M  V30 7084 N 629.671 -0.424282 1.51781 0
M  V30 7085 C 630.901 -1.19297 1.68677 0
M  V30 7086 C 631.309 -1.85152 0.389258 0
M  V30 7087 O 630.652 -1.72067 -0.643311 0
M  V30 7088 C 630.714 -2.30929 2.75521 0
M  V30 7089 C 630.378 -1.85335 4.17732 0
M  V30 7090 C 631.375 -1.34951 5.0208 0
M  V30 7091 C 629.06 -1.92629 4.63896 0
M  V30 7092 C 631.054 -0.924636 6.30658 0
M  V30 7093 C 628.741 -1.49754 5.92467 0
M  V30 7094 C 629.739 -0.997543 6.75676 0
M  V30 7095 O 629.427 -0.57492 8.01842 0
M  V30 7096 H 629.159 -0.36512 0.568914 0
M  V30 7097 H 631.713 -0.507327 1.99036 0
M  V30 7098 H 629.943 -3.02811 2.40505 0
M  V30 7099 H 631.632 -2.92748 2.81165 0
M  V30 7100 H 632.398 -1.287 4.67612 0
M  V30 7101 H 628.277 -2.30491 3.99243 0
M  V30 7102 H 631.821 -0.533682 6.95556 0
M  V30 7103 H 627.718 -1.55679 6.26446 0
M  V30 7104 H 628.486 -0.699597 8.15505 0
M  V30 7105 N 631.149 -1.42148 -0.680565 0
M  V30 7106 C 632.081 -1.41119 -1.80605 0
M  V30 7107 C 633.094 -0.311099 -1.598 0
M  V30 7108 O 634.283 -0.573813 -1.69026 0
M  V30 7109 C 631.383 -1.18204 -3.17618 0
M  V30 7110 C 630.556 -2.40537 -3.65322 0
M  V30 7111 C 629.615 -2.13254 -4.8105 0
M  V30 7112 O 628.641 -2.8641 -4.91892 0
M  V30 7113 N 629.843 -1.13208 -5.69354 0
M  V30 7114 H 632.608 -2.38128 -1.81975 0
M  V30 7115 H 630.169 -1.36953 -0.863446 0
M  V30 7116 H 632.161 -0.97878 -3.92686 0
M  V30 7117 H 630.731 -0.29738 -3.11182 0
M  V30 7118 H 629.951 -2.76468 -2.80996 0
M  V30 7119 H 631.239 -3.22012 -3.93936 0
M  V30 7120 H 630.637 -0.526893 -5.63241 0
M  V30 7121 H 629.194 -0.988699 -6.44258 0
M  V30 7122 N 632.627 0.916307 -1.28225 0
M  V30 7123 C 633.557 2.0352 -1.14464 0
M  V30 7124 C 634.538 1.70045 -0.0430844 0
M  V30 7125 O 635.723 1.92954 -0.219619 0
M  V30 7126 C 632.853 3.37889 -0.803027 0
M  V30 7127 C 631.807 3.85516 -1.85908 0
M  V30 7128 C 631.133 5.1682 -1.37116 0
M  V30 7129 C 632.433 4.07655 -3.26519 0
M  V30 7130 H 634.127 2.1529 -2.08064 0
M  V30 7131 H 631.673 1.03446 -1.00174 0
M  V30 7132 H 633.626 4.15654 -0.693537 0
M  V30 7133 H 632.35 3.26164 0.168674 0
M  V30 7134 H 631.009 3.09953 -1.95767 0
M  V30 7135 H 630.657 5.01497 -0.38859 0
M  V30 7136 H 630.357 5.49657 -2.07728 0
M  V30 7137 H 631.881 5.97143 -1.27484 0
M  V30 7138 H 633.295 4.75953 -3.19596 0
M  V30 7139 H 631.692 4.51818 -3.94943 0
M  V30 7140 H 632.762 3.12553 -3.70727 0
M  V30 7141 N 634.105 1.10431 1.1244 0
M  V30 7142 C 635.015 0.765502 2.21759 0
M  V30 7143 C 636.031 -0.236966 1.72379 0
M  V30 7144 O 637.207 -0.0757329 2.01258 0
M  V30 7145 C 634.272 0.202316 3.46109 0
M  V30 7146 C 633.333 1.26205 4.1033 0
M  V30 7147 C 632.566 0.725648 5.28744 0
M  V30 7148 O 632.789 -0.447942 5.68638 0
M  V30 7149 O 631.723 1.48555 5.83279 0
M  V30 7150 H 635.549 1.67801 2.53133 0
M  V30 7151 H 633.134 0.879443 1.20773 0
M  V30 7152 H 635.016 -0.107918 4.21262 0
M  V30 7153 H 633.691 -0.683052 3.16411 0
M  V30 7154 H 632.598 1.62514 3.36957 0
M  V30 7155 H 633.931 2.12044 4.44183 0
M  V30 7156 N 635.583 -1.29855 0.893053 0
M  V30 7157 C 636.53 -2.27909 0.364161 0
M  V30 7158 C 637.5 -1.56726 -0.550093 0
M  V30 7159 O 638.685 -1.84747 -0.47677 0
M  V30 7160 C 635.825 -3.42678 -0.408178 0
M  V30 7161 C 634.938 -4.28659 0.536212 0
M  V30 7162 C 634.073 -5.30599 -0.252521 0
M  V30 7163 C 633.112 -6.08234 0.686822 0
M  V30 7164 N 632.249 -7.02068 -0.0670902 0
M  V30 7165 H 637.089 -2.72531 1.20544 0
M  V30 7166 H 634.626 -1.34047 0.605779 0
M  V30 7167 H 636.584 -4.07986 -0.871962 0
M  V30 7168 H 635.214 -2.99103 -1.21397 0
M  V30 7169 H 634.266 -3.63584 1.1185 0
M  V30 7170 H 635.578 -4.8274 1.25552 0
M  V30 7171 H 634.732 -6.01694 -0.777801 0
M  V30 7172 H 633.471 -4.77233 -1.005 0
M  V30 7173 H 632.476 -5.3601 1.22366 0
M  V30 7174 H 633.701 -6.63689 1.43852 0
M  V30 7175 H 631.647 -6.5108 -0.801955 0
M  V30 7176 H 631.564 -7.53675 0.59243 0
M  V30 7177 H 632.832 -7.77392 -0.572851 0
M  V30 7178 N 637.061 -0.65484 -1.43351 0
M  V30 7179 C 637.971 0.0363603 -2.34572 0
M  V30 7180 C 638.987 0.810432 -1.53974 0
M  V30 7181 O 640.163 0.757308 -1.86619 0
M  V30 7182 C 637.228 0.989733 -3.32273 0
M  V30 7183 C 636.289 0.212414 -4.28774 0
M  V30 7184 C 635.522 1.12038 -5.21808 0
M  V30 7185 O 635.745 2.35967 -5.19303 0
M  V30 7186 O 634.679 0.59191 -5.98982 0
M  V30 7187 H 638.505 -0.714527 -2.95175 0
M  V30 7188 H 636.09 -0.415029 -1.4352 0
M  V30 7189 H 637.972 1.53759 -3.92347 0
M  V30 7190 H 636.647 1.72082 -2.74171 0
M  V30 7191 H 635.554 -0.379062 -3.72175 0
M  V30 7192 H 636.887 -0.479138 -4.89862 0
M  V30 7193 N 638.539 1.52521 -0.396863 0
M  V30 7194 C 639.95 1.86547 0.0754868 0
M  V30 7195 C 640.301 1.31621 1.45501 0
M  V30 7196 O 639.426 0.650563 2.0639 0
M  V30 7197 C 640.021 3.38495 0.143754 0
M  V30 7198 C 638.58 3.72205 0.560413 0
M  V30 7199 C 637.727 2.75954 -0.272856 0
M  V30 7200 H 640.678 1.46323 -0.614434 0
M  V30 7201 H 640.699 3.68153 0.961425 0
M  V30 7202 H 640.211 3.78442 -0.860415 0
M  V30 7203 H 638.312 3.3783 1.57167 0
M  V30 7204 H 638.425 4.78074 0.313314 0
M  V30 7205 H 636.789 2.53339 0.263 0
M  V30 7206 H 637.572 3.1874 -1.27515 0
M  V30 7207 N 640.017 0.126909 1.57088 0
M  V30 7208 C 641.266 -0.529024 1.94639 0
M  V30 7209 C 641.579 -1.67323 1.01304 0
M  V30 7210 O 642.785 -2.39245 1.28352 0
M  V30 7211 C 641.241 -0.992483 3.45945 0
M  V30 7212 C 640.849 0.123691 4.47829 0
M  V30 7213 C 642.593 -1.61934 3.924 0
M  V30 7214 C 640.5 -0.356911 5.90322 0
M  V30 7215 H 639.43 -0.201397 0.726605 0
M  V30 7216 H 642.081 0.208032 1.82317 0
M  V30 7217 H 640.463 -1.7842 3.53528 0
M  V30 7218 H 641.637 0.900168 4.51922 0
M  V30 7219 H 639.952 0.657699 4.11173 0
M  V30 7220 H 642.549 -1.9902 4.96281 0
M  V30 7221 H 642.892 -2.50075 3.32819 0
M  V30 7222 H 643.425 -0.892894 3.8765 0
M  V30 7223 H 640.164 0.488636 6.53676 0
M  V30 7224 H 639.684 -1.0997 5.89633 0
M  V30 7225 H 641.363 -0.815547 6.41839 0
M  V30 7226 N 641.495 -1.56914 -0.146875 0
M  V30 7227 C 642.741 -1.83628 -0.860741 0
M  V30 7228 C 643.074 -0.708528 -1.80813 0
M  V30 7229 O 642.349 0.287838 -1.92358 0
M  V30 7230 C 642.632 -3.20836 -1.63511 0
M  V30 7231 C 642.485 -4.44174 -0.709199 0
M  V30 7232 C 643.804 -3.55268 -2.59756 0
M  V30 7233 H 640.923 -0.667949 -0.311468 0
M  V30 7234 H 643.565 -1.89582 -0.125936 0
M  V30 7235 H 641.715 -3.15891 -2.26153 0
M  V30 7236 H 643.387 -4.61205 -0.0937781 0
M  V30 7237 H 641.63 -4.33796 -0.0187856 0
M  V30 7238 H 642.301 -5.36785 -1.28707 0
M  V30 7239 H 644.777 -3.60824 -2.07232 0
M  V30 7240 H 643.653 -4.52303 -3.10987 0
M  V30 7241 H 643.914 -2.81231 -3.41118 0
M  V30 7242 N 642.974 0.416227 -1.52004 0
M  V30 7243 C 644.222 1.16153 -1.65387 0
M  V30 7244 C 644.543 1.91208 -0.382669 0
M  V30 7245 O 643.813 1.86413 0.602231 0
M  V30 7246 H 642.393 0.431765 -0.60958 0
M  V30 7247 H 645.055 0.475151 -1.89019 0
M  V30 7248 H 644.151 1.87952 -2.4916 0
M  V30 7249 N 644.452 1.42507 0.673017 0
M  V30 7250 C 645.415 1.4582 1.76831 0
M  V30 7251 C 646.415 0.345542 1.57043 0
M  V30 7252 O 647.605 0.606447 1.63303 0
M  V30 7253 C 644.737 1.29158 3.15485 0
M  V30 7254 H 645.93 2.43345 1.7528 0
M  V30 7255 H 643.483 1.28981 0.882817 0
M  V30 7256 H 644.218 0.325626 3.22661 0
M  V30 7257 H 644.003 2.09797 3.31252 0
M  V30 7258 H 645.493 1.34363 3.95394 0
M  V30 7259 N 645.93 -0.909495 1.28709 0
M  V30 7260 C 646.84 -2.04558 1.14861 0
M  V30 7261 C 647.856 -1.73842 0.0741621 0
M  V30 7262 O 649.032 -1.99383 0.2843 0
M  V30 7263 C 646.097 -3.36957 0.816148 0
M  V30 7264 C 645.158 -3.81255 1.97341 0
M  V30 7265 C 644.391 -5.07335 1.65671 0
M  V30 7266 O 644.614 -5.67514 0.573053 0
M  V30 7267 O 643.548 -5.47449 2.50167 0
M  V30 7268 H 647.374 -2.19161 2.10243 0
M  V30 7269 H 644.959 -1.03159 1.08068 0
M  V30 7270 H 646.841 -4.16436 0.644873 0
M  V30 7271 H 645.516 -3.2352 -0.107983 0
M  V30 7272 H 644.423 -3.02584 2.19986 0
M  V30 7273 H 645.756 -3.99261 2.87839 0
M  V30 7274 N 647.408 -1.11026 -1.11852 0
M  V30 7275 C 648.636 -0.878818 -1.87308 0
M  V30 7276 C 649.051 0.57111 -1.79955 0
M  V30 7277 O 648.408 1.39409 -1.17777 0
M  V30 7278 C 648.459 -1.3264 -3.36287 0
M  V30 7279 O 648.18 -2.71948 -3.43476 0
M  V30 7280 C 649.681 -1.12974 -4.28663 0
M  V30 7281 H 646.901 -0.315015 -0.592458 0
M  V30 7282 H 649.445 -1.47649 -1.41492 0
M  V30 7283 H 647.6 -0.772269 -3.79625 0
M  V30 7284 H 648.014 -2.91241 -4.3621 0
M  V30 7285 H 649.488 -1.49198 -5.31454 0
M  V30 7286 H 649.965 -0.0689127 -4.39146 0
M  V30 7287 H 650.571 -1.67064 -3.91113 0
M  V30 7288 N 648.886 1.2938 -0.899927 0
M  V30 7289 C 650.133 1.9555 -0.525963 0
M  V30 7290 C 650.461 1.70945 0.927789 0
M  V30 7291 O 649.716 1.01545 1.67293 0
M  V30 7292 C 650.015 3.49114 -0.765113 0
M  V30 7293 C 649.681 3.93796 -2.19626 0
M  V30 7294 C 648.343 4.05707 -2.58758 0
M  V30 7295 C 650.695 4.16883 -3.12823 0
M  V30 7296 C 648.023 4.38074 -3.90267 0
M  V30 7297 C 650.375 4.50725 -4.4388 0
M  V30 7298 C 649.039 4.60845 -4.82885 0
M  V30 7299 H 648.309 0.715569 -0.192463 0
M  V30 7300 H 650.956 1.53972 -1.13863 0
M  V30 7301 H 649.261 3.91738 -0.069531 0
M  V30 7302 H 650.958 3.98409 -0.455144 0
M  V30 7303 H 647.548 3.85042 -1.88256 0
M  V30 7304 H 651.732 4.07147 -2.83804 0
M  V30 7305 H 646.988 4.44112 -4.20207 0
M  V30 7306 H 651.162 4.67538 -5.16121 0
M  V30 7307 H 648.789 4.85681 -5.84823 0
M  V30 7308 N 650.364 0.662433 1.43002 0
M  V30 7309 C 651.594 0.187343 2.05749 0
M  V30 7310 C 652.002 -1.15582 1.49791 0
M  V30 7311 O 651.345 -1.72651 0.627487 0
M  V30 7312 C 651.407 0.0316493 3.59486 0
M  V30 7313 C 651.071 1.30156 4.38073 0
M  V30 7314 C 652.068 2.23234 4.69535 0
M  V30 7315 C 649.753 1.54572 4.77926 0
M  V30 7316 C 651.747 3.39012 5.39768 0
M  V30 7317 C 649.434 2.70641 5.47902 0
M  V30 7318 C 650.432 3.62687 5.78746 0
M  V30 7319 O 650.12 4.76728 6.47291 0
M  V30 7320 H 649.852 0.0915214 0.669776 0
M  V30 7321 H 652.406 0.905982 1.8434 0
M  V30 7322 H 650.636 -0.742451 3.79506 0
M  V30 7323 H 652.325 -0.401977 4.03905 0
M  V30 7324 H 653.091 2.05616 4.39257 0
M  V30 7325 H 648.97 0.83804 4.53319 0
M  V30 7326 H 652.514 4.10877 5.63761 0
M  V30 7327 H 648.411 2.88189 5.77596 0
M  V30 7328 H 649.179 4.76113 6.65777 0
M  V30 7329 N 651.842 -1.52309 0.404946 0
M  V30 7330 C 653.088 -2.02065 -0.172455 0
M  V30 7331 C 653.421 -1.29022 -1.45145 0
M  V30 7332 O 652.696 -0.395284 -1.90441 0
M  V30 7333 C 652.979 -3.5759 -0.424433 0
M  V30 7334 C 652.832 -4.41287 0.870945 0
M  V30 7335 C 654.151 -4.23186 -1.20837 0
M  V30 7336 H 651.27 -0.734454 -0.0612035 0
M  V30 7337 H 653.912 -1.82236 0.53759 0
M  V30 7338 H 652.062 -3.74617 -1.02929 0
M  V30 7339 H 653.734 -4.3598 1.50729 0
M  V30 7340 H 651.977 -4.07669 1.48284 0
M  V30 7341 H 652.648 -5.48171 0.649083 0
M  V30 7342 H 655.124 -4.10232 -0.696338 0
M  V30 7343 H 654 -5.31953 -1.35343 0
M  V30 7344 H 654.261 -3.81862 -2.22786 0
M  V30 7345 N 653.32 -0.135238 -1.57019 0
M  V30 7346 C 654.597 0.563227 -1.87316 0
M  V30 7347 C 654.977 1.83749 -1.03921 0
M  V30 7348 O 654.325 2.2817 -0.122675 0
M  V30 7349 C 654.535 0.840031 -3.3874 0
M  V30 7350 C 655.883 1.18598 -4.077 0
M  V30 7351 O 656.907 0.92977 -3.43851 0
M  V30 7352 O 655.766 1.66758 -5.20436 0
M  V30 7353 H 652.86 0.285971 -0.775983 0
M  V30 7354 H 655.406 -0.170965 -1.68837 0
M  V30 7355 H 654.178 -0.0622785 -3.9125 0
M  V30 7356 H 653.801 1.62882 -3.62706 0
M  V30 7357 N 654.798 1.5699 0.138552 0
M  V30 7358 C 656.046 1.83446 0.848053 0
M  V30 7359 C 656.367 0.71744 1.81322 0
M  V30 7360 O 655.637 -0.260228 1.94164 0
M  V30 7361 H 654.217 0.676792 0.316166 0
M  V30 7362 H 656.879 1.94462 0.130538 0
M  V30 7363 H 655.975 2.78677 1.40518 0
M  V30 7364 N 656.276 -0.40816 1.52223 0
M  V30 7365 C 657.239 -1.48 1.7501 0
M  V30 7366 C 658.239 -1.48367 0.619996 0
M  V30 7367 O 659.429 -1.49874 0.887881 0
M  V30 7368 C 656.561 -2.87403 1.83336 0
M  V30 7369 H 657.754 -1.29086 2.70697 0
M  V30 7370 H 655.307 -0.638715 1.42654 0
M  V30 7371 H 656.042 -3.11686 0.895677 0
M  V30 7372 H 655.827 -2.8854 2.65494 0
M  V30 7373 H 657.317 -3.65103 2.02705 0
M  V30 7374 N 657.755 -1.42862 -0.66545 0
M  V30 7375 C 658.718 -1.46756 -1.76055 0
M  V30 7376 C 659.718 -0.353866 -1.56858 0
M  V30 7377 O 660.908 -0.615099 -1.62979 0
M  V30 7378 C 658.04 -1.30829 -3.14796 0
M  V30 7379 H 659.233 -2.44271 -1.73987 0
M  V30 7380 H 656.786 -1.29447 -0.875965 0
M  V30 7381 H 657.521 -0.342733 -3.22484 0
M  V30 7382 H 657.306 -2.11551 -3.30134 0
M  V30 7383 H 658.796 -1.36458 -3.94676 0
M  V30 7384 N 659.233 0.902656 -1.29189 0
M  V30 7385 C 660.181 2.0278 -1.13943 0
M  V30 7386 C 661.175 1.69308 -0.055787 0
M  V30 7387 O 662.381 1.78707 -0.215371 0
M  V30 7388 H 658.756 0.664595 -0.351877 0
M  V30 7389 H 660.727 2.12778 -2.09208 0
M  V30 7390 C 659.476 3.37657 -0.82966 0
M  V30 7391 H 658.799 3.63913 -1.65551 0
M  V30 7392 H 660.239 4.17078 -0.762998 0
M  V30 7393 C 658.698 3.33648 0.466991 0
M  V30 7394 O 659.228 3.72886 1.49395 0
M  V30 7395 N 657.434 2.86745 0.471761 0
M  V30 7396 H 656.981 2.55009 -0.364406 0
M  V30 7397 H 656.939 2.84446 1.33933 0
M  V30 7398 N 660.711 1.11618 1.11262 0
M  V30 7399 C 662.127 0.850468 1.35053 0
M  V30 7400 C 662.327 -0.523868 1.94571 0
M  V30 7401 O 661.383 -1.2743 2.17986 0
M  V30 7402 C 662.696 1.96005 2.28041 0
M  V30 7403 C 664.244 1.98993 2.416 0
M  V30 7404 C 664.719 3.0916 3.37911 0
M  V30 7405 N 666.21 3.08547 3.45475 0
M  V30 7406 C 666.945 3.9043 4.19943 0
M  V30 7407 N 666.441 4.8228 4.97371 0
M  V30 7408 N 668.234 3.786 4.15474 0
M  V30 7409 H 660.385 2.00184 0.709932 0
M  V30 7410 H 662.648 0.870635 0.375099 0
M  V30 7411 H 662.354 2.9499 1.91503 0
M  V30 7412 H 662.228 1.85782 3.28275 0
M  V30 7413 H 664.615 1.00633 2.77411 0
M  V30 7414 H 664.696 2.13292 1.4121 0
M  V30 7415 H 664.34 4.07748 3.02827 0
M  V30 7416 H 664.27 2.92102 4.3816 0
M  V30 7417 H 666.761 2.42 2.90249 0
M  V30 7418 H 667.074 5.41289 5.51567 0
M  V30 7419 H 665.419 4.863 4.96525 0
M  V30 7420 H 668.61 3.06185 3.54074 0
M  V30 7421 H 668.783 4.42647 4.73253 0
M  V30 7422 N 662.189 -1.289 0.906776 0
M  V30 7423 C 663.099 -2.31256 0.394707 0
M  V30 7424 C 664.115 -1.66231 -0.514121 0
M  V30 7425 O 665.291 -1.97347 -0.401994 0
M  V30 7426 C 662.356 -3.44792 -0.363191 0
M  V30 7427 C 661.417 -4.25391 0.578012 0
M  V30 7428 C 660.65 -5.33506 -0.143811 0
M  V30 7429 O 660.873 -5.53786 -1.36665 0
M  V30 7430 O 659.807 -5.99673 0.5173 0
M  V30 7431 H 663.633 -2.77051 1.24405 0
M  V30 7432 H 661.218 -1.33466 0.671346 0
M  V30 7433 H 663.1 -4.139 -0.791503 0
M  V30 7434 H 661.775 -3.01093 -1.18848 0
M  V30 7435 H 660.682 -3.58899 1.05558 0
M  V30 7436 H 662.015 -4.72752 1.36992 0
M  V30 7437 N 663.667 -0.670007 -1.42649 0
M  V30 7438 C 664.895 -0.19854 -2.05945 0
M  V30 7439 C 665.31 1.14243 -1.50313 0
M  V30 7440 O 664.667 1.70872 -0.641027 0
M  V30 7441 C 664.718 -0.11966 -3.61302 0
M  V30 7442 O 664.439 -1.40764 -4.1487 0
M  V30 7443 C 665.94 0.375878 -4.41704 0
M  V30 7444 H 663.16 -0.0976894 -0.663851 0
M  V30 7445 H 665.704 -0.915392 -1.82868 0
M  V30 7446 H 663.859 0.547851 -3.83507 0
M  V30 7447 H 664.273 -1.27784 -5.08696 0
M  V30 7448 H 665.747 0.379988 -5.50691 0
M  V30 7449 H 666.224 1.41028 -4.15942 0
M  V30 7450 H 666.83 -0.259727 -4.24506 0
M  V30 7451 N 665.145 1.52092 -0.413018 0
M  V30 7452 C 666.092 2.27119 0.410558 0
M  V30 7453 C 667.062 1.29692 1.03774 0
M  V30 7454 O 668.247 1.58561 1.06128 0
M  V30 7455 C 665.387 3.09863 1.51918 0
M  V30 7456 C 664.5 4.22252 0.912528 0
M  V30 7457 C 663.635 4.92348 1.99417 0
M  V30 7458 C 662.674 5.96694 1.36466 0
M  V30 7459 N 661.811 6.60292 2.38661 0
M  V30 7460 H 666.651 2.97067 -0.235661 0
M  V30 7461 H 664.188 1.46542 -0.128055 0
M  V30 7462 H 666.146 3.56144 2.17295 0
M  V30 7463 H 664.776 2.42078 2.13537 0
M  V30 7464 H 663.828 3.80113 0.147697 0
M  V30 7465 H 665.14 4.9709 0.412717 0
M  V30 7466 H 664.294 5.42054 2.72512 0
M  V30 7467 H 663.033 4.17087 2.52764 0
M  V30 7468 H 662.038 5.46304 0.61906 0
M  V30 7469 H 663.263 6.73899 0.838827 0
M  V30 7470 H 661.209 5.87858 2.91134 0
M  V30 7471 H 661.126 7.30816 1.93503 0
M  V30 7472 H 662.394 7.14635 3.11314 0
M  V30 7473 N 666.623 0.143563 1.56945 0
M  V30 7474 C 667.553 -0.7936 2.196 0
M  V30 7475 C 668.534 -1.25955 1.14321 0
M  V30 7476 O 669.719 -1.31773 1.42651 0
M  V30 7477 C 666.849 -2.03424 2.81489 0
M  V30 7478 C 665.803 -1.70519 3.92565 0
M  V30 7479 C 665.129 -3.01817 4.41373 0
M  V30 7480 C 666.429 -0.95449 5.13504 0
M  V30 7481 H 668.123 -0.271423 2.98167 0
M  V30 7482 H 665.669 -0.12911 1.4342 0
M  V30 7483 H 667.622 -2.69463 3.23987 0
M  V30 7484 H 666.346 -2.58008 2.00248 0
M  V30 7485 H 665.005 -1.06859 3.5068 0
M  V30 7486 H 664.653 -3.54386 3.56959 0
M  V30 7487 H 664.353 -2.80565 5.16292 0
M  V30 7488 H 665.877 -3.68934 4.86539 0
M  V30 7489 H 667.291 -1.5169 5.52868 0
M  V30 7490 H 665.688 -0.842035 5.94163 0
M  V30 7491 H 666.758 0.0544033 4.84869 0
M  V30 7492 N 668.101 -1.57061 -0.130224 0
M  V30 7493 C 669.349 -1.83893 -0.838313 0
M  V30 7494 C 669.67 -0.727046 -1.80939 0
M  V30 7495 O 668.94 0.249927 -1.94299 0
M  V30 7496 H 667.52 -0.67846 -0.312573 0
M  V30 7497 H 670.182 -1.94529 -0.120224 0
M  V30 7498 H 669.278 -2.79419 -1.39038 0
M  V30 7499 N 669.579 0.400081 -1.52437 0
M  V30 7500 C 670.526 1.48803 -1.76426 0
M  V30 7501 C 671.496 1.5461 -0.607032 0
M  V30 7502 O 672.681 1.71041 -0.845563 0
M  V30 7503 C 669.821 2.86156 -1.92896 0
M  V30 7504 C 668.934 2.89587 -3.20567 0
M  V30 7505 C 668.069 4.18296 -3.27417 0
M  V30 7506 C 667.108 4.15736 -4.49255 0
M  V30 7507 N 666.245 5.36032 -4.53447 0
M  V30 7508 H 671.085 1.27649 -2.69276 0
M  V30 7509 H 668.622 0.619451 -1.33421 0
M  V30 7510 H 670.58 3.65901 -2.00429 0
M  V30 7511 H 669.21 3.05785 -1.03418 0
M  V30 7512 H 668.262 2.02278 -3.22161 0
M  V30 7513 H 669.574 2.83562 -4.10358 0
M  V30 7514 H 668.728 5.06439 -3.34072 0
M  V30 7515 H 667.467 4.27028 -2.35581 0
M  V30 7516 H 666.472 3.25982 -4.42737 0
M  V30 7517 H 667.697 4.08636 -5.42396 0
M  V30 7518 H 665.643 5.45415 -3.64498 0
M  V30 7519 H 665.56 5.32038 -5.37096 0
M  V30 7520 H 666.828 6.26104 -4.64343 0
M  V30 7521 N 671.057 1.43213 0.657864 0
M  V30 7522 C 672.02 1.47687 1.75275 0
M  V30 7523 C 673.02 0.362179 1.56668 0
M  V30 7524 O 674.21 0.623734 1.62651 0
M  V30 7525 C 671.342 1.32497 3.14098 0
M  V30 7526 H 672.535 2.4519 1.7269 0
M  V30 7527 H 670.088 1.2991 0.869087 0
M  V30 7528 H 670.823 0.359831 3.22298 0
M  V30 7529 H 670.608 2.13299 3.29008 0
M  V30 7530 H 672.098 1.38549 3.93946 0
M  V30 7531 N 672.536 -0.895792 1.29666 0
M  V30 7532 C 673.784 -1.64339 1.17631 0
M  V30 7533 C 674.105 -1.93099 -0.271643 0
M  V30 7534 O 673.375 -1.55981 -1.18518 0
M  V30 7535 H 671.955 -0.609162 0.432354 0
M  V30 7536 H 674.617 -1.07389 1.62646 0
M  V30 7537 H 673.713 -2.59815 1.72924 0
M  V30 7538 N 674.014 -1.12206 -1.10668 0
M  V30 7539 C 675.244 -0.897332 -1.86095 0
M  V30 7540 C 675.652 0.556778 -1.80822 0
M  V30 7541 O 674.995 1.39658 -1.19337 0
M  V30 7542 C 675.057 -1.29095 -3.35522 0
M  V30 7543 C 674.721 -2.75586 -3.64556 0
M  V30 7544 C 675.718 -3.73785 -3.6136 0
M  V30 7545 C 673.403 -3.12432 -3.93309 0
M  V30 7546 C 675.397 -5.06845 -3.86506 0
M  V30 7547 C 673.084 -4.45675 -4.18111 0
M  V30 7548 C 674.082 -5.42691 -4.147 0
M  V30 7549 O 673.77 -6.73532 -4.38873 0
M  V30 7550 H 673.502 -0.320704 -0.595084 0
M  V30 7551 H 676.056 -1.49517 -1.40833 0
M  V30 7552 H 674.286 -0.636299 -3.81429 0
M  V30 7553 H 675.975 -1.04073 -3.92331 0
M  V30 7554 H 676.741 -3.46664 -3.39189 0
M  V30 7555 H 672.62 -2.3753 -3.95096 0
M  V30 7556 H 676.164 -5.82559 -3.83758 0
M  V30 7557 H 672.061 -4.72526 -4.39761 0
M  V30 7558 H 672.829 -6.79442 -4.564 0
M  V30 7559 N 675.492 1.28418 -0.913599 0
M  V30 7560 C 676.738 1.9527 -0.547484 0
M  V30 7561 C 677.071 1.71745 0.906486 0
M  V30 7562 O 676.346 1.03834 1.64465 0
M  V30 7563 C 676.629 3.49748 -0.857205 0
M  V30 7564 C 676.482 3.82675 -2.3639 0
M  V30 7565 C 677.801 4.3868 -0.353258 0
M  V30 7566 H 674.92 0.709236 -0.200381 0
M  V30 7567 H 677.562 1.51789 -1.14281 0
M  V30 7568 H 675.712 3.86915 -0.350548 0
M  V30 7569 H 677.384 3.55378 -2.94116 0
M  V30 7570 H 675.627 3.29724 -2.81894 0
M  V30 7571 H 676.298 4.90547 -2.53115 0
M  V30 7572 H 678.774 4.08584 -0.787288 0
M  V30 7573 H 677.65 5.45621 -0.599049 0
M  V30 7574 H 677.911 4.35753 0.746413 0
M  V30 7575 N 676.97 0.677563 1.42291 0
M  V30 7576 C 678.198 0.209459 2.05837 0
M  V30 7577 C 678.613 -1.13444 1.50917 0
M  V30 7578 O 677.97 -1.70529 0.65008 0
M  V30 7579 C 678.021 0.138819 3.61233 0
M  V30 7580 O 677.742 1.42962 4.14118 0
M  V30 7581 C 679.243 -0.352449 4.41897 0
M  V30 7582 H 676.463 0.101209 0.663323 0
M  V30 7583 H 679.007 0.925077 1.8238 0
M  V30 7584 H 677.162 -0.527505 3.83792 0
M  V30 7585 H 677.576 1.3048 5.08011 0
M  V30 7586 H 679.05 -0.350778 5.50884 0
M  V30 7587 H 679.527 -1.3882 4.16684 0
M  V30 7588 H 680.133 0.282236 4.24362 0
M  V30 7589 N 678.448 -1.51871 0.421078 0
M  V30 7590 C 679.396 -2.28903 -0.413066 0
M  V30 7591 C 680.39 -1.3408 -1.03532 0
M  V30 7592 O 681.596 -1.5149 -0.972146 0
M  V30 7593 H 677.971 -0.736478 -0.152003 0
M  V30 7594 H 679.942 -2.97285 0.257695 0
M  V30 7595 C 678.691 -3.13156 -1.51091 0
M  V30 7596 H 678.014 -3.85997 -1.04145 0
M  V30 7597 H 679.454 -3.7014 -2.06814 0
M  V30 7598 C 677.913 -2.27482 -2.48503 0
M  V30 7599 O 678.443 -1.92325 -3.52667 0
M  V30 7600 N 676.649 -1.91019 -2.18998 0
M  V30 7601 H 676.196 -2.19808 -1.34322 0
M  V30 7602 H 676.154 -1.3399 -2.84419 0
M  V30 7603 N 679.926 -0.151884 -1.56866 0
M  V30 7604 C 681.342 0.204486 -1.58285 0
M  V30 7605 C 681.542 1.6431 -1.16639 0
M  V30 7606 O 680.598 2.37077 -0.868946 0
M  V30 7607 C 681.911 -0.0587019 -3.00643 0
M  V30 7608 C 683.459 0.00462303 -3.13 0
M  V30 7609 C 683.934 -0.231297 -4.57416 0
M  V30 7610 N 685.425 -0.178394 -4.62856 0
M  V30 7611 C 686.16 -0.335379 -5.72418 0
M  V30 7612 N 685.656 -0.550355 -6.90611 0
M  V30 7613 N 687.449 -0.272641 -5.61438 0
M  V30 7614 H 679.6 -1.09116 -1.82229 0
M  V30 7615 H 681.863 -0.432311 -0.843689 0
M  V30 7616 H 681.569 -1.05453 -3.35518 0
M  V30 7617 H 681.443 0.658508 -3.71407 0
M  V30 7618 H 683.83 0.991009 -2.77962 0
M  V30 7619 H 683.911 -0.744992 -2.44711 0
M  V30 7620 H 683.555 -1.2148 -4.93158 0
M  V30 7621 H 683.485 0.5387 -5.23837 0
M  V30 7622 H 685.976 -0.0170923 -3.77896 0
M  V30 7623 H 686.289 -0.660116 -7.69976 0
M  V30 7624 H 684.634 -0.586736 -6.92519 0
M  V30 7625 H 687.825 -0.105421 -4.67981 0
M  V30 7626 H 687.998 -0.398418 -6.46774 0
M  V30 7627 N 681.404 1.57128 0.121893 0
M  V30 7628 C 682.652 1.84335 0.828548 0
M  V30 7629 C 682.973 0.736632 1.80551 0
M  V30 7630 O 682.243 -0.23962 1.94429 0
M  V30 7631 H 680.823 0.680108 0.30897 0
M  V30 7632 H 683.485 1.9459 0.109906 0
M  V30 7633 H 682.581 2.80152 1.37554 0
M  V30 7634 N 682.882 -0.391992 1.52647 0
M  V30 7635 C 684.298 -0.731848 1.41831 0
M  V30 7636 C 684.498 -1.9423 0.536361 0
M  V30 7637 O 683.554 -2.52499 0.00866571 0
M  V30 7638 C 684.867 -0.969743 2.84634 0
M  V30 7639 C 686.415 -1.0714 2.94092 0
M  V30 7640 C 686.89 -1.34195 4.37899 0
M  V30 7641 N 688.381 -1.41023 4.41211 0
M  V30 7642 C 689.116 -1.63616 5.49561 0
M  V30 7643 N 688.612 -1.83699 6.68002 0
M  V30 7644 N 690.405 -1.65771 5.371 0
M  V30 7645 H 682.556 0.404547 2.08512 0
M  V30 7646 H 684.819 0.11879 0.940528 0
M  V30 7647 H 684.525 -0.152465 3.51369 0
M  V30 7648 H 684.399 -1.88523 3.26709 0
M  V30 7649 H 686.786 -1.87925 2.27526 0
M  V30 7650 H 686.867 -0.133887 2.55449 0
M  V30 7651 H 686.511 -0.539207 5.0503 0
M  V30 7652 H 686.441 -2.29226 4.74092 0
M  V30 7653 H 688.932 -1.27223 3.55841 0
M  V30 7654 H 689.245 -2.00437 7.46354 0
M  V30 7655 H 687.59 -1.8093 6.71036 0
M  V30 7656 H 690.781 -1.4963 4.43541 0
M  V30 7657 H 690.954 -1.83038 6.21612 0
M  V30 7658 N 684.36 -1.4356 -0.65026 0
M  V30 7659 C 685.292 -1.44918 -1.77571 0
M  V30 7660 C 686.305 -0.344925 -1.59104 0
M  V30 7661 O 687.494 -0.609537 -1.6777 0
M  V30 7662 C 684.594 -1.24914 -3.15039 0
M  V30 7663 C 683.767 -2.48232 -3.60138 0
M  V30 7664 C 682.826 -2.23409 -4.76419 0
M  V30 7665 O 681.852 -2.9678 -4.85706 0
M  V30 7666 N 683.054 -1.25259 -5.66825 0
M  V30 7667 H 685.819 -2.41935 -1.76883 0
M  V30 7668 H 683.38 -1.38754 -0.834202 0
M  V30 7669 H 685.372 -1.06185 -3.90521 0
M  V30 7670 H 683.942 -0.363319 -3.10481 0
M  V30 7671 H 683.162 -2.82366 -2.75069 0
M  V30 7672 H 684.45 -3.30296 -3.87017 0
M  V30 7673 H 683.848 -0.646246 -5.61997 0
M  V30 7674 H 682.405 -1.12513 -6.42016 0
M  V30 7675 N 685.838 0.888903 -1.30139 0
M  V30 7676 C 686.785 1.99422 -1.16188 0
M  V30 7677 C 687.755 1.66017 -0.0523869 0
M  V30 7678 O 688.94 1.89506 -0.221864 0
M  V30 7679 C 686.08 3.34325 -0.855612 0
M  V30 7680 C 685.193 3.80445 -2.0466 0
M  V30 7681 C 684.328 5.03975 -1.67876 0
M  V30 7682 C 683.367 5.42492 -2.83493 0
M  V30 7683 N 682.504 6.57206 -2.47032 0
M  V30 7684 H 687.344 2.10687 -2.10749 0
M  V30 7685 H 684.881 1.03165 -1.04859 0
M  V30 7686 H 686.839 4.11968 -0.658681 0
M  V30 7687 H 685.469 3.22756 0.0531155 0
M  V30 7688 H 684.521 2.98745 -2.3549 0
M  V30 7689 H 685.833 4.04933 -2.91257 0
M  V30 7690 H 684.987 5.89232 -1.44535 0
M  V30 7691 H 683.726 4.8135 -0.784431 0
M  V30 7692 H 682.731 4.55764 -3.07505 0
M  V30 7693 H 683.956 5.67093 -3.73607 0
M  V30 7694 H 681.902 6.36164 -1.601 0
M  V30 7695 H 681.819 6.81543 -3.27161 0
M  V30 7696 H 683.087 7.45704 -2.27038 0
M  V30 7697 N 687.317 1.12792 1.10072 0
M  V30 7698 C 688.563 0.886857 1.82381 0
M  V30 7699 C 688.896 -0.58576 1.85155 0
M  V30 7700 O 688.171 -1.43317 1.31493 0
M  V30 7701 C 688.454 1.46703 3.28862 0
M  V30 7702 C 688.307 3.00829 3.34398 0
M  V30 7703 C 689.626 1.12971 4.25353 0
M  V30 7704 H 686.745 0.32362 0.662148 0
M  V30 7705 H 689.387 1.39513 1.28982 0
M  V30 7706 H 687.537 1.03476 3.74466 0
M  V30 7707 H 689.209 3.52764 2.97247 0
M  V30 7708 H 687.452 3.36164 2.74183 0
M  V30 7709 H 688.123 3.36519 4.3756 0
M  V30 7710 H 690.599 1.50313 3.88001 0
M  V30 7711 H 689.475 1.56223 5.26199 0
M  V30 7712 H 689.736 0.0424452 4.4208 0
M  V30 7713 N 688.795 -1.27931 0.920396 0
M  V30 7714 C 690.041 -1.94977 0.557832 0
M  V30 7715 C 690.374 -1.72224 -0.897365 0
M  V30 7716 O 689.649 -1.04705 -1.63912 0
M  V30 7717 C 689.932 -3.49289 0.875741 0
M  V30 7718 C 689.785 -3.81416 2.38416 0
M  V30 7719 C 691.104 -4.38486 0.376517 0
M  V30 7720 H 688.223 -0.708164 0.20414 0
M  V30 7721 H 690.865 -1.5118 1.15085 0
M  V30 7722 H 689.015 -3.86724 0.371062 0
M  V30 7723 H 690.687 -3.53813 2.95997 0
M  V30 7724 H 688.93 -3.28225 2.83639 0
M  V30 7725 H 689.601 -4.89198 2.55713 0
M  V30 7726 H 692.077 -4.08161 0.808945 0
M  V30 7727 H 690.953 -5.45296 0.627976 0
M  V30 7728 H 691.214 -4.36143 -0.723293 0
M  V30 7729 N 690.273 -0.685099 -1.4193 0
M  V30 7730 C 691.501 -0.220372 -2.05723 0
M  V30 7731 C 691.916 1.12642 -1.51516 0
M  V30 7732 O 691.273 1.70182 -0.659114 0
M  V30 7733 C 691.324 -0.157974 -3.61155 0
M  V30 7734 O 691.045 -1.45156 -4.13354 0
M  V30 7735 C 692.546 0.329009 -4.42077 0
M  V30 7736 H 689.766 -0.104725 -0.662777 0
M  V30 7737 H 692.31 -0.934736 -1.81887 0
M  V30 7738 H 690.465 0.507144 -3.84066 0
M  V30 7739 H 690.879 -1.33172 -5.07312 0
M  V30 7740 H 692.353 0.321559 -5.51063 0
M  V30 7741 H 692.83 1.36608 -4.17414 0
M  V30 7742 H 693.436 -0.304737 -4.24207 0
M  V30 7743 N 691.751 1.51645 -0.429126 0
M  V30 7744 C 692.681 2.30434 0.377148 0
M  V30 7745 C 693.662 1.35493 1.02838 0
M  V30 7746 O 694.847 1.6441 1.03359 0
M  V30 7747 C 691.977 3.14038 1.48315 0
M  V30 7748 C 690.931 4.1719 0.955855 0
M  V30 7749 C 690.257 4.89263 2.15698 0
M  V30 7750 C 691.557 5.223 -0.00402136 0
M  V30 7751 H 693.251 2.98085 -0.280336 0
M  V30 7752 H 690.797 1.43354 -0.136265 0
M  V30 7753 H 692.75 3.67933 2.05435 0
M  V30 7754 H 691.474 2.44193 2.16881 0
M  V30 7755 H 690.133 3.64335 0.406929 0
M  V30 7756 H 689.781 4.15929 2.82864 0
M  V30 7757 H 689.481 5.59009 1.81059 0
M  V30 7758 H 691.005 5.45978 2.73387 0
M  V30 7759 H 692.419 5.71315 0.476607 0
M  V30 7760 H 690.816 5.99525 -0.26258 0
M  V30 7761 H 691.886 4.75638 -0.943236 0
M  V30 7762 N 693.229 0.160201 1.56784 0
M  V30 7763 C 694.457 -0.494165 2.00912 0
M  V30 7764 C 694.872 -1.57548 1.04038 0
M  V30 7765 O 694.229 -1.82457 0.0394581 0
M  V30 7766 C 694.28 -1.08271 3.44905 0
M  V30 7767 O 694.001 -0.0445704 4.38077 0
M  V30 7768 C 695.502 -1.8164 4.04378 0
M  V30 7769 H 692.722 -0.127498 0.658776 0
M  V30 7770 H 695.266 0.258665 2.02858 0
M  V30 7771 H 693.421 -1.78609 3.4377 0
M  V30 7772 H 693.835 -0.477544 5.22322 0
M  V30 7773 H 695.309 -2.18094 5.07089 0
M  V30 7774 H 695.786 -2.70727 3.45838 0
M  V30 7775 H 696.392 -1.15969 4.09184 0
M  V30 7776 N 694.707 -1.5719 -0.113559 0
M  V30 7777 C 695.984 -1.76117 -0.850999 0
M  V30 7778 C 696.364 -0.737085 -1.97814 0
M  V30 7779 O 695.712 0.237942 -2.27258 0
M  V30 7780 C 695.922 -3.21298 -1.36266 0
M  V30 7781 C 697.27 -3.83955 -1.81283 0
M  V30 7782 O 698.294 -3.24934 -1.45933 0
M  V30 7783 O 697.153 -4.87707 -2.46585 0
M  V30 7784 H 694.247 -0.721308 -0.404529 0
M  V30 7785 H 696.793 -1.69423 -0.0968756 0
M  V30 7786 H 695.565 -3.87355 -0.554235 0
M  V30 7787 H 695.188 -3.32552 -2.17933 0
M  V30 7788 N 696.185 0.383891 -1.52853 0
M  V30 7789 C 697.413 1.1495 -1.7203 0
M  V30 7790 C 697.828 1.83578 -0.440957 0
M  V30 7791 O 697.185 1.72872 0.584925 0
M  V30 7792 C 697.236 2.19368 -2.87333 0
M  V30 7793 O 696.957 1.53536 -4.10315 0
M  V30 7794 C 698.458 3.08616 -3.18231 0
M  V30 7795 H 695.678 0.344445 -0.575846 0
M  V30 7796 H 698.222 0.448397 -1.99524 0
M  V30 7797 H 696.377 2.85105 -2.62286 0
M  V30 7798 H 696.791 2.2296 -4.74752 0
M  V30 7799 H 698.265 3.77902 -4.02361 0
M  V30 7800 H 698.742 3.72409 -2.32826 0
M  V30 7801 H 699.348 2.48518 -3.45136 0
M  V30 7802 N 697.663 1.43903 0.642637 0
M  V30 7803 C 698.891 1.4954 1.42988 0
M  V30 7804 C 699.306 0.116588 1.8844 0
M  V30 7805 O 698.663 -0.875285 1.60141 0
M  V30 7806 C 698.714 2.45031 2.65785 0
M  V30 7807 O 698.435 3.77551 2.22232 0
M  V30 7808 C 699.936 2.60017 3.59035 0
M  V30 7809 H 697.156 0.507544 0.438907 0
M  V30 7810 H 699.7 1.88752 0.786942 0
M  V30 7811 H 697.855 2.08985 3.26196 0
M  V30 7812 H 698.269 4.29001 3.01759 0
M  V30 7813 H 699.743 3.30887 4.41835 0
M  V30 7814 H 700.22 1.64861 4.07084 0
M  V30 7815 H 700.826 2.96918 3.045 0
M  V30 7816 N 699.141 -0.881989 1.30609 0
M  V30 7817 C 700.089 -2.00942 1.17155 0
M  V30 7818 C 701.083 -1.69198 0.0827154 0
M  V30 7819 O 702.289 -1.78342 0.243775 0
M  V30 7820 H 698.664 -0.658913 0.362406 0
M  V30 7821 H 700.635 -2.09423 2.12567 0
M  V30 7822 C 699.384 -3.36294 0.883273 0
M  V30 7823 H 698.707 -3.61233 1.7132 0
M  V30 7824 H 700.147 -4.15812 0.829255 0
M  V30 7825 C 698.606 -3.34348 -0.413851 0
M  V30 7826 O 699.136 -3.75216 -1.43444 0
M  V30 7827 N 697.342 -2.87459 -0.426082 0
M  V30 7828 H 696.889 -2.54397 0.40493 0
M  V30 7829 H 696.847 -2.8654 -1.29391 0
M  V30 7830 N 700.619 -1.13374 -1.09472 0
M  V30 7831 C 701.551 -0.768466 -2.15933 0
M  V30 7832 C 702.564 0.209585 -1.61445 0
M  V30 7833 O 703.753 -0.010539 -1.78497 0
M  V30 7834 C 700.853 -0.118266 -3.38694 0
M  V30 7835 C 700.026 -1.12829 -4.22597 0
M  V30 7836 C 699.085 -0.503875 -5.23782 0
M  V30 7837 O 698.111 -1.16374 -5.57177 0
M  V30 7838 N 699.313 0.724288 -5.75964 0
M  V30 7839 H 702.078 -1.68457 -2.47876 0
M  V30 7840 H 699.639 -1.02668 -1.25183 0
M  V30 7841 H 701.631 0.311698 -4.03498 0
M  V30 7842 H 700.201 0.700769 -3.04644 0
M  V30 7843 H 699.421 -1.73556 -3.53938 0
M  V30 7844 H 700.709 -1.81095 -4.75481 0
M  V30 7845 H 700.107 1.27918 -5.51048 0
M  V30 7846 H 698.664 1.09692 -6.42504 0
M  V30 7847 N 702.098 1.27442 -0.927168 0
M  V30 7848 C 703.045 2.26863 -0.424459 0
M  V30 7849 C 704.015 1.5813 0.508346 0
M  V30 7850 O 705.2 1.85946 0.42762 0
M  V30 7851 C 702.34 3.43639 0.31718 0
M  V30 7852 C 701.453 4.27087 -0.649675 0
M  V30 7853 C 700.588 5.31082 0.111753 0
M  V30 7854 C 699.627 6.062 -0.847843 0
M  V30 7855 N 698.764 7.01999 -0.119074 0
M  V30 7856 H 703.604 2.69239 -1.27728 0
M  V30 7857 H 701.141 1.32394 -0.641106 0
M  V30 7858 H 703.099 4.10155 0.763486 0
M  V30 7859 H 701.729 3.02217 1.13424 0
M  V30 7860 H 700.781 3.60491 -1.21451 0
M  V30 7861 H 702.093 4.79242 -1.38307 0
M  V30 7862 H 701.247 6.03544 0.618 0
M  V30 7863 H 699.986 4.7973 0.878114 0
M  V30 7864 H 698.991 5.32577 -1.36534 0
M  V30 7865 H 700.216 6.59642 -1.61398 0
M  V30 7866 H 698.162 6.52977 0.629051 0
M  V30 7867 H 698.079 7.5184 -0.792046 0
M  V30 7868 H 699.347 7.78638 0.366537 0
M  V30 7869 N 703.576 0.692616 1.41565 0
M  V30 7870 C 704.804 0.231279 2.05603 0
M  V30 7871 C 705.219 -1.11837 1.52111 0
M  V30 7872 O 704.576 -1.6983 0.66813 0
M  V30 7873 C 704.627 0.177125 3.61066 0
M  V30 7874 O 704.348 1.47346 4.12578 0
M  V30 7875 C 705.849 -0.30556 4.42246 0
M  V30 7876 H 703.069 0.108238 0.662213 0
M  V30 7877 H 705.613 0.944369 1.81389 0
M  V30 7878 H 703.768 -0.486769 3.8433 0
M  V30 7879 H 704.182 1.35861 5.06599 0
M  V30 7880 H 705.656 -0.29233 5.51225 0
M  V30 7881 H 706.133 -1.34393 4.18133 0
M  V30 7882 H 706.739 0.327229 4.24039 0
M  V30 7883 N 705.054 -1.51416 0.437162 0
M  V30 7884 C 705.964 -2.31493 -0.380537 0
M  V30 7885 C 706.98 -1.40399 -1.02782 0
M  V30 7886 O 708.156 -1.73471 -1.02323 0
M  V30 7887 C 705.221 -3.1413 -1.46709 0
M  V30 7888 C 704.282 -4.21003 -0.839953 0
M  V30 7889 C 703.515 -4.9969 -1.87473 0
M  V30 7890 O 703.738 -4.79008 -3.09689 0
M  V30 7891 O 702.672 -5.8379 -1.46536 0
M  V30 7892 H 706.498 -3.02469 0.273183 0
M  V30 7893 H 704.083 -1.48059 0.199706 0
M  V30 7894 H 705.965 -3.65505 -2.09724 0
M  V30 7895 H 704.64 -2.45919 -2.10489 0
M  V30 7896 H 703.547 -3.73706 -0.171752 0
M  V30 7897 H 704.88 -4.91587 -0.245638 0
M  V30 7898 N 706.532 -0.168513 -1.56696 0
M  V30 7899 C 707.462 0.758563 -2.20835 0
M  V30 7900 C 708.443 1.24121 -1.1631 0
M  V30 7901 O 709.628 1.29487 -1.4473 0
M  V30 7902 C 706.758 1.9892 -2.8469 0
M  V30 7903 C 705.712 1.64252 -3.95228 0
M  V30 7904 C 705.038 2.94757 -4.46119 0
M  V30 7905 C 706.338 0.872675 -5.14958 0
M  V30 7906 H 708.032 0.223953 -2.98561 0
M  V30 7907 H 705.578 0.106277 -1.43607 0
M  V30 7908 H 707.531 2.64275 -3.28233 0
M  V30 7909 H 706.255 2.5479 -2.04327 0
M  V30 7910 H 704.914 1.01266 -3.52336 0
M  V30 7911 H 704.562 3.48662 -3.62552 0
M  V30 7912 H 704.262 2.72316 -5.2069 0
M  V30 7913 H 705.786 3.61147 -4.92347 0
M  V30 7914 H 707.2 1.42875 -5.55211 0
M  V30 7915 H 705.597 0.747402 -5.95428 0
M  V30 7916 H 706.667 -0.131535 -4.84722 0
M  V30 7917 N 708.01 1.57248 0.105221 0
M  V30 7918 C 708.942 1.98008 1.15436 0
M  V30 7919 C 709.955 0.881236 1.36887 0
M  V30 7920 O 711.144 1.15943 1.35718 0
M  V30 7921 C 708.244 2.27509 2.51183 0
M  V30 7922 C 707.417 3.58811 2.50147 0
M  V30 7923 C 706.476 3.76365 3.67745 0
M  V30 7924 O 705.502 4.48329 3.50699 0
M  V30 7925 N 706.704 3.16174 4.86841 0
M  V30 7926 H 709.469 2.88616 0.807519 0
M  V30 7927 H 707.03 1.59202 0.29433 0
M  V30 7928 H 709.022 2.36455 3.28438 0
M  V30 7929 H 707.592 1.42959 2.77995 0
M  V30 7930 H 706.812 3.60927 1.5851 0
M  V30 7931 H 708.1 4.45088 2.46524 0
M  V30 7932 H 707.498 2.57701 5.03594 0
M  V30 7933 H 706.055 3.30621 5.61723 0
M  V30 7934 N 709.488 -0.375779 1.53054 0
M  V30 7935 C 710.451 -1.44254 1.7811 0
M  V30 7936 C 711.451 -1.47018 0.651328 0
M  V30 7937 O 712.641 -1.47957 0.919472 0
M  V30 7938 C 709.773 -2.8345 1.89391 0
M  V30 7939 H 710.966 -1.23316 2.73374 0
M  V30 7940 H 708.519 -0.608312 1.43977 0
M  V30 7941 H 709.254 -3.09716 0.961589 0
M  V30 7942 H 709.039 -2.82844 2.71555 0
M  V30 7943 H 710.529 -3.60722 2.10404 0
M  V30 7944 N 710.966 -1.44241 -0.634997 0
M  V30 7945 C 712.215 -1.46102 -1.39058 0
M  V30 7946 C 712.528 -0.0959909 -1.95364 0
M  V30 7947 O 713.734 0.00788751 -2.71499 0
M  V30 7948 C 712.19 -2.57195 -2.51751 0
M  V30 7949 C 711.798 -3.99888 -2.01974 0
M  V30 7950 C 713.542 -2.68272 -3.28984 0
M  V30 7951 C 711.449 -5.02412 -3.11987 0
M  V30 7952 H 710.379 -0.543556 -0.522554 0
M  V30 7953 H 713.03 -1.70294 -0.683538 0
M  V30 7954 H 711.412 -2.26237 -3.25012 0
M  V30 7955 H 712.586 -4.40396 -1.35604 0
M  V30 7956 H 710.901 -3.93019 -1.37568 0
M  V30 7957 H 713.498 -3.42042 -4.10988 0
M  V30 7958 H 713.841 -1.73957 -3.78212 0
M  V30 7959 H 714.374 -2.98622 -2.62812 0
M  V30 7960 H 711.113 -5.98342 -2.67707 0
M  V30 7961 H 710.633 -4.66501 -3.77011 0
M  V30 7962 H 712.312 -5.25939 -3.76825 0
M  V30 7963 N 712.444 0.87505 -1.31075 0
M  V30 7964 C 713.674 1.65818 -1.2324 0
M  V30 7965 C 714.082 1.8808 0.205536 0
M  V30 7966 O 713.425 1.43548 1.14628 0
M  V30 7967 C 713.487 3.05131 -1.90093 0
M  V30 7968 C 713.151 3.05999 -3.39432 0
M  V30 7969 C 714.148 2.84328 -4.35263 0
M  V30 7970 C 711.833 3.27281 -3.81041 0
M  V30 7971 C 713.827 2.83912 -5.70678 0
M  V30 7972 C 711.514 3.26493 -5.16571 0
M  V30 7973 C 712.512 3.04834 -6.112 0
M  V30 7974 O 712.2 3.03882 -7.44252 0
M  V30 7975 H 711.932 0.52387 -0.427242 0
M  V30 7976 H 714.486 1.10086 -1.73408 0
M  V30 7977 H 712.716 3.62568 -1.34468 0
M  V30 7978 H 714.405 3.65641 -1.76242 0
M  V30 7979 H 715.171 2.67673 -4.04445 0
M  V30 7980 H 711.05 3.43171 -3.07822 0
M  V30 7981 H 714.594 2.66925 -6.44513 0
M  V30 7982 H 710.491 3.42687 -5.47025 0
M  V30 7983 H 711.259 3.19979 -7.53363 0
M  V30 7984 N 713.922 1.13953 1.08869 0
M  V30 7985 C 714.852 0.844824 2.17681 0
M  V30 7986 C 715.833 -0.198213 1.68941 0
M  V30 7987 O 717.018 -0.0559073 1.9412 0
M  V30 7988 C 714.148 0.316325 3.45856 0
M  V30 7989 C 713.102 1.29426 4.07962 0
M  V30 7990 C 712.428 0.625275 5.31031 0
M  V30 7991 C 713.728 2.65484 4.49795 0
M  V30 7992 H 715.422 1.75471 2.42591 0
M  V30 7993 H 712.968 0.845116 1.16592 0
M  V30 7994 H 714.921 0.0977876 4.21287 0
M  V30 7995 H 713.645 -0.628972 3.20486 0
M  V30 7996 H 712.304 1.49889 3.34558 0
M  V30 7997 H 711.952 -0.325678 5.01945 0
M  V30 7998 H 711.652 1.27777 5.73539 0
M  V30 7999 H 713.176 0.416152 6.0918 0
M  V30 8000 H 714.59 2.48957 5.16424 0
M  V30 8001 H 712.987 3.26963 5.03205 0
M  V30 8002 H 714.057 3.22717 3.61914 0
M  V30 8003 N 715.4 -1.26948 0.933913 0
M  V30 8004 C 716.363 -2.24889 0.442457 0
M  V30 8005 C 717.363 -1.54594 -0.442426 0
M  V30 8006 O 718.553 -1.72502 -0.242629 0
M  V30 8007 C 715.685 -3.3896 -0.363173 0
M  V30 8008 H 716.878 -2.69879 1.30787 0
M  V30 8009 H 714.431 -1.38978 0.715187 0
M  V30 8010 H 715.166 -2.99361 -1.24714 0
M  V30 8011 H 714.951 -3.9116 0.271366 0
M  V30 8012 H 716.441 -4.11739 -0.697186 0
M  V30 8013 N 716.879 -0.700114 -1.41195 0
M  V30 8014 C 717.809 -0.0521132 -2.33442 0
M  V30 8015 C 718.79 0.76228 -1.52063 0
M  V30 8016 O 719.975 0.714336 -1.80585 0
M  V30 8017 C 717.105 0.881693 -3.35922 0
M  V30 8018 C 716.059 0.174062 -4.27646 0
M  V30 8019 C 715.385 1.22254 -5.20536 0
M  V30 8020 C 716.685 -0.962396 -5.13357 0
M  V30 8021 H 718.379 -0.822574 -2.87879 0
M  V30 8022 H 715.925 -0.397011 -1.38419 0
M  V30 8023 H 717.878 1.34429 -3.99383 0
M  V30 8024 H 716.602 1.68387 -2.79845 0
M  V30 8025 H 715.261 -0.268551 -3.65615 0
M  V30 8026 H 714.909 2.01736 -4.60773 0
M  V30 8027 H 714.609 0.754038 -5.82742 0
M  V30 8028 H 716.133 1.68555 -5.86874 0
M  V30 8029 H 717.547 -0.579875 -5.7036 0
M  V30 8030 H 715.944 -1.35828 -5.84526 0
M  V30 8031 H 717.014 -1.80003 -4.50252 0
M  V30 8032 N 718.357 1.51182 -0.445186 0
M  V30 8033 C 719.289 2.25714 0.398206 0
M  V30 8034 C 720.302 1.30032 0.979562 0
M  V30 8035 O 721.491 1.55731 0.872368 0
M  V30 8036 C 718.591 3.00348 1.56985 0
M  V30 8037 C 717.764 4.23187 1.10596 0
M  V30 8038 C 716.823 4.80334 2.14863 0
M  V30 8039 O 715.849 5.4196 1.73977 0
M  V30 8040 N 717.051 4.65053 3.47427 0
M  V30 8041 H 719.816 2.98732 -0.240629 0
M  V30 8042 H 717.377 1.59556 -0.274507 0
M  V30 8043 H 719.369 3.35464 2.26376 0
M  V30 8044 H 717.939 2.30291 2.11387 0
M  V30 8045 H 717.159 3.93476 0.238832 0
M  V30 8046 H 718.447 5.02886 0.773537 0
M  V30 8047 H 717.845 4.15984 3.83372 0
M  V30 8048 H 716.402 5.04509 4.12691 0
M  V30 8049 N 719.835 0.176821 1.56605 0
M  V30 8050 C 721.112 -0.513365 1.88743 0
M  V30 8051 C 721.492 -1.80929 1.08757 0
M  V30 8052 O 720.84 -2.27765 0.183127 0
M  V30 8053 C 721.05 -0.749925 3.40848 0
M  V30 8054 C 722.398 -1.07747 4.10701 0
M  V30 8055 O 723.422 -0.838277 3.46196 0
M  V30 8056 O 722.281 -1.52901 5.24675 0
M  V30 8057 H 719.375 -0.265296 0.783292 0
M  V30 8058 H 721.921 0.215669 1.68324 0
M  V30 8059 H 720.693 0.16599 3.90948 0
M  V30 8060 H 720.316 -1.53208 3.66897 0
M  V30 8061 N 721.313 -1.57302 -0.09688 0
M  V30 8062 C 722.538 -1.9058 -0.818169 0
M  V30 8063 C 722.963 -0.770921 -1.71576 0
M  V30 8064 O 722.321 0.277588 -1.79162 0
M  V30 8065 C 722.369 -3.22714 -1.60898 0
M  V30 8066 O 721.473 -3.10178 -2.71779 0
M  V30 8067 H 720.814 -0.624759 -0.224882 0
M  V30 8068 H 723.344 -2.04471 -0.07264 0
M  V30 8069 H 723.354 -3.55978 -1.99358 0
M  V30 8070 H 722.029 -4.04899 -0.950227 0
M  V30 8071 H 720.606 -2.88424 -2.3636 0
M  V30 8072 N 722.791 0.367657 -1.53252 0
M  V30 8073 C 724.039 1.10832 -1.68999 0
M  V30 8074 C 724.36 1.89894 -0.443306 0
M  V30 8075 O 723.63 1.88235 0.54262 0
M  V30 8076 H 722.21 0.412153 -0.623008 0
M  V30 8077 H 724.872 0.414775 -1.90435 0
M  V30 8078 H 723.968 1.7993 -2.55013 0
M  V30 8079 N 724.269 1.44576 0.627338 0
M  V30 8080 C 725.199 1.54562 1.75022 0
M  V30 8081 C 726.18 0.398378 1.65369 0
M  V30 8082 O 727.365 0.61899 1.84071 0
M  V30 8083 C 724.495 1.49309 3.13567 0
M  V30 8084 C 723.449 2.62549 3.38012 0
M  V30 8085 C 722.775 2.42348 4.76625 0
M  V30 8086 C 724.075 4.04678 3.30202 0
M  V30 8087 H 725.769 2.4855 1.66922 0
M  V30 8088 H 723.315 1.19624 0.801636 0
M  V30 8089 H 725.268 1.54895 3.919 0
M  V30 8090 H 723.992 0.518392 3.2246 0
M  V30 8091 H 722.651 2.56358 2.62061 0
M  V30 8092 H 722.299 1.43062 4.82226 0
M  V30 8093 H 721.999 3.18273 4.93939 0
M  V30 8094 H 723.523 2.49758 5.57183 0
M  V30 8095 H 724.937 4.12217 3.98435 0
M  V30 8096 H 723.334 4.80836 3.5905 0
M  V30 8097 H 724.404 4.2798 2.27949 0
M  V30 8098 N 725.747 -0.868086 1.31537 0
M  V30 8099 C 726.657 -2.00801 1.21311 0
M  V30 8100 C 727.673 -1.73518 0.129431 0
M  V30 8101 O 728.849 -1.98378 0.347588 0
M  V30 8102 C 725.914 -3.3419 0.922935 0
M  V30 8103 C 724.975 -3.74783 2.0937 0
M  V30 8104 C 724.208 -5.01807 1.81728 0
M  V30 8105 O 724.431 -5.65404 0.753313 0
M  V30 8106 O 723.365 -5.39213 2.67457 0
M  V30 8107 H 727.191 -2.12361 2.17109 0
M  V30 8108 H 724.776 -0.996684 1.11295 0
M  V30 8109 H 726.658 -4.14174 0.777033 0
M  V30 8110 H 725.333 -3.237 -0.00500301 0
M  V30 8111 H 724.24 -2.95432 2.29501 0
M  V30 8112 H 725.573 -3.89902 3.00396 0
M  V30 8113 N 727.225 -1.14528 -1.08264 0
M  V30 8114 C 728.471 -0.91576 -1.80947 0
M  V30 8115 C 728.804 0.55623 -1.86064 0
M  V30 8116 O 728.079 1.41207 -1.33756 0
M  V30 8117 C 728.362 -1.51917 -3.26486 0
M  V30 8118 C 728.215 -3.06111 -3.2957 0
M  V30 8119 C 729.534 -1.19724 -4.23502 0
M  V30 8120 H 726.653 -0.334113 -0.656915 0
M  V30 8121 H 729.295 -1.41547 -1.26746 0
M  V30 8122 H 727.445 -1.0942 -3.72773 0
M  V30 8123 H 729.117 -3.57448 -2.91597 0
M  V30 8124 H 727.36 -3.40483 -2.688 0
M  V30 8125 H 728.031 -3.43438 -4.32151 0
M  V30 8126 H 730.507 -1.56467 -3.85561 0
M  V30 8127 H 729.383 -1.64575 -5.23647 0
M  V30 8128 H 729.644 -0.112771 -4.41956 0
M  V30 8129 N 728.703 1.26451 -0.940633 0
M  V30 8130 C 729.651 2.28389 -0.440581 0
M  V30 8131 C 730.645 1.62402 0.481859 0
M  V30 8132 O 731.851 1.76361 0.360132 0
M  V30 8133 H 728.226 0.741716 -0.123938 0
M  V30 8134 H 730.197 2.67967 -1.31288 0
M  V30 8135 C 728.946 3.46576 0.279364 0
M  V30 8136 H 728.269 3.97574 -0.421274 0
M  V30 8137 H 729.709 4.19826 0.59348 0
M  V30 8138 C 728.168 3.01815 1.49697 0
M  V30 8139 O 728.698 3.06607 2.59529 0
M  V30 8140 N 726.904 2.57163 1.35334 0
M  V30 8141 H 726.451 2.53464 0.459743 0
M  V30 8142 H 726.409 2.27578 2.16923 0
M  V30 8143 N 730.181 0.707592 1.40822 0
M  V30 8144 C 731.43 0.240705 2.00259 0
M  V30 8145 C 731.743 -1.17027 1.56729 0
M  V30 8146 O 732.949 -1.73526 2.08809 0
M  V30 8147 C 731.405 0.379432 3.57894 0
M  V30 8148 C 731.013 1.79654 4.104 0
M  V30 8149 C 732.757 -0.0270684 4.24491 0
M  V30 8150 C 730.664 1.88628 5.60512 0
M  V30 8151 H 729.594 0.0862369 0.749052 0
M  V30 8152 H 732.245 0.877528 1.61157 0
M  V30 8153 H 730.627 -0.325842 3.94657 0
M  V30 8154 H 731.801 2.53155 3.85032 0
M  V30 8155 H 730.116 2.15379 3.56372 0
M  V30 8156 H 732.713 0.0193743 5.34696 0
M  V30 8157 H 733.056 -1.06772 4.02375 0
M  V30 8158 H 733.589 0.628361 3.92806 0
M  V30 8159 H 730.328 2.90787 5.87472 0
M  V30 8160 H 729.848 1.19528 5.8777 0
M  V30 8161 H 731.527 1.6547 6.25483 0
M  V30 8162 N 731.66 -1.50943 0.453197 0
M  V30 8163 C 732.906 -2.02512 -0.108082 0
M  V30 8164 C 733.239 -1.33574 -1.40967 0
M  V30 8165 O 732.514 -0.455671 -1.89087 0
M  V30 8166 C 732.797 -3.58759 -0.310453 0
M  V30 8167 C 732.65 -4.38293 1.0109 0
M  V30 8168 C 733.969 -4.26816 -1.07313 0
M  V30 8169 H 731.088 -0.73603 -0.0378064 0
M  V30 8170 H 733.73 -1.80433 0.595295 0
M  V30 8171 H 731.88 -3.77702 -0.909582 0
M  V30 8172 H 733.552 -4.30964 1.64523 0
M  V30 8173 H 731.795 -4.02745 1.61179 0
M  V30 8174 H 732.466 -5.45828 0.82315 0
M  V30 8175 H 734.942 -4.1224 -0.565473 0
M  V30 8176 H 733.818 -5.35989 -1.1835 0
M  V30 8177 H 734.079 -3.88757 -2.10525 0
M  V30 8178 N 733.138 -0.185124 -1.56509 0
M  V30 8179 C 734.366 0.462139 -2.01673 0
M  V30 8180 C 734.781 1.55873 -1.06532 0
M  V30 8181 O 734.138 1.82371 -0.0684805 0
M  V30 8182 C 734.189 1.0277 -3.46584 0
M  V30 8183 O 733.91 -0.0251296 -4.38093 0
M  V30 8184 C 735.411 1.75183 -4.07217 0
M  V30 8185 H 732.631 0.117001 -0.660721 0
M  V30 8186 H 735.175 -0.290905 -2.0242 0
M  V30 8187 H 733.33 1.73118 -3.46568 0
M  V30 8188 H 733.744 0.394387 -5.23015 0
M  V30 8189 H 735.218 2.09999 -5.10494 0
M  V30 8190 H 735.695 2.6519 -3.50101 0
M  V30 8191 H 736.301 1.09445 -4.10977 0
M  V30 8192 N 734.616 1.57351 0.0885366 0
M  V30 8193 C 735.893 1.77449 0.822873 0
M  V30 8194 C 736.273 0.768463 1.96616 0
M  V30 8195 O 735.621 -0.201757 2.27608 0
M  V30 8196 C 735.831 3.23425 1.31137 0
M  V30 8197 C 737.179 3.86791 1.75152 0
M  V30 8198 O 738.203 3.27215 1.40745 0
M  V30 8199 O 737.062 4.91568 2.38794 0
M  V30 8200 H 734.156 0.727653 0.393002 0
M  V30 8201 H 736.702 1.69556 0.0699095 0
M  V30 8202 H 735.474 3.88188 0.49254 0
M  V30 8203 H 735.097 3.35977 2.12615 0
M  V30 8204 N 736.094 -0.359525 1.53444 0
M  V30 8205 C 737.319 -1.12644 1.74144 0
M  V30 8206 C 737.744 -1.82082 0.472007 0
M  V30 8207 O 737.102 -1.71962 -0.57436 0
M  V30 8208 C 737.15 -2.12781 2.9113 0
M  V30 8209 O 736.254 -3.19984 2.60162 0
M  V30 8210 H 735.595 -0.326553 0.578152 0
M  V30 8211 H 738.125 -0.414798 2.00351 0
M  V30 8212 H 738.135 -2.56278 3.17467 0
M  V30 8213 H 736.81 -1.61634 3.83207 0
M  V30 8214 H 735.387 -2.81417 2.44661 0
M  V30 8215 N 737.572 -1.44907 -0.619662 0
M  V30 8216 C 738.504 -1.48652 -1.74457 0
M  V30 8217 C 739.517 -0.378596 -1.58337 0
M  V30 8218 O 740.706 -0.644987 -1.6644 0
M  V30 8219 C 737.806 -1.31568 -3.12319 0
M  V30 8220 C 736.979 -2.55816 -3.54792 0
M  V30 8221 C 736.038 -2.33465 -4.71573 0
M  V30 8222 O 735.064 -3.07015 -4.79302 0
M  V30 8223 N 736.266 -1.37254 -5.6404 0
M  V30 8224 H 739.031 -2.45632 -1.71712 0
M  V30 8225 H 736.592 -1.40492 -0.804582 0
M  V30 8226 H 738.584 -1.14445 -3.88181 0
M  V30 8227 H 737.154 -0.429095 -3.09641 0
M  V30 8228 H 736.374 -2.88137 -2.69018 0
M  V30 8229 H 737.662 -3.38431 -3.79924 0
M  V30 8230 H 737.06 -0.765309 -5.60499 0
M  V30 8231 H 735.617 -1.26106 -6.39485 0
M  V30 8232 N 739.05 0.861098 -1.31996 0
M  V30 8233 C 740.28 1.64501 -1.24992 0
M  V30 8234 C 740.688 1.88288 0.185576 0
M  V30 8235 O 740.031 1.44756 1.131 0
M  V30 8236 C 740.093 3.03098 -1.93319 0
M  V30 8237 C 739.757 3.02381 -3.42658 0
M  V30 8238 C 740.754 2.79696 -4.38254 0
M  V30 8239 C 738.439 3.23221 -3.84491 0
M  V30 8240 C 740.433 2.77843 -5.73657 0
M  V30 8241 C 738.12 3.20996 -5.20005 0
M  V30 8242 C 739.118 2.98335 -6.14398 0
M  V30 8243 O 738.806 2.95971 -7.47433 0
M  V30 8244 H 738.538 0.519309 -0.432775 0
M  V30 8245 H 741.092 1.08241 -1.74565 0
M  V30 8246 H 739.322 3.61121 -1.38306 0
M  V30 8247 H 741.011 3.63751 -1.8011 0
M  V30 8248 H 741.777 2.63368 -4.07262 0
M  V30 8249 H 737.656 3.39887 -3.11445 0
M  V30 8250 H 741.2 2.60074 -6.47308 0
M  V30 8251 H 737.097 3.36865 -5.50629 0
M  V30 8252 H 737.865 3.1197 -7.56714 0
M  V30 8253 N 740.528 1.15101 1.07655 0
M  V30 8254 C 741.491 0.847625 2.12951 0
M  V30 8255 C 742.491 -0.151227 1.60087 0
M  V30 8256 O 743.681 0.0780399 1.74025 0
M  V30 8257 C 740.813 0.265 3.39868 0
M  V30 8258 H 742.006 1.7809 2.41296 0
M  V30 8259 H 739.559 0.958072 1.23494 0
M  V30 8260 H 740.294 -0.676625 3.17163 0
M  V30 8261 H 740.079 0.984554 3.79538 0
M  V30 8262 H 741.569 0.0702121 4.17541 0
M  V30 8263 N 742.006 -1.2595 0.947325 0
M  V30 8264 C 742.936 -2.28521 0.479604 0
M  V30 8265 C 743.917 -1.63469 -0.470293 0
M  V30 8266 O 745.102 -1.90627 -0.370824 0
M  V30 8267 C 742.232 -3.46397 -0.250289 0
M  V30 8268 C 741.186 -4.23578 0.613643 0
M  V30 8269 C 740.512 -5.34131 -0.246568 0
M  V30 8270 C 741.812 -4.86979 1.88809 0
M  V30 8271 H 743.506 -2.67895 1.33688 0
M  V30 8272 H 741.052 -1.28783 0.644274 0
M  V30 8273 H 743.005 -4.17269 -0.588576 0
M  V30 8274 H 741.729 -3.05993 -1.14175 0
M  V30 8275 H 740.388 -3.54478 0.93491 0
M  V30 8276 H 740.036 -4.89968 -1.13756 0
M  V30 8277 H 739.736 -5.86683 0.328123 0
M  V30 8278 H 741.26 -6.07839 -0.579986 0
M  V30 8279 H 742.674 -5.50034 1.61666 0
M  V30 8280 H 741.071 -5.49675 2.40784 0
M  V30 8281 H 742.141 -4.09575 2.5957 0
M  V30 8282 N 743.484 -0.715051 -1.40445 0
M  V30 8283 C 744.732 -0.253826 -2.005 0
M  V30 8284 C 745.053 1.15681 -1.5698 0
M  V30 8285 O 744.323 1.78414 -0.809027 0
M  V30 8286 H 742.903 -0.0908537 -0.741454 0
M  V30 8287 H 745.565 -0.920561 -1.7179 0
M  V30 8288 H 744.661 -0.286499 -3.10782 0
M  V30 8289 N 744.962 1.50701 -0.461195 0
M  V30 8290 C 746.211 2.01458 0.0988277 0
M  V30 8291 C 746.524 1.34863 1.41673 0
M  V30 8292 O 747.73 1.76721 2.06111 0
M  V30 8293 C 746.186 3.59186 0.226648 0
M  V30 8294 C 745.794 4.34732 -1.08223 0
M  V30 8295 C 747.538 4.18015 0.73916 0
M  V30 8296 C 745.445 5.8422 -0.918747 0
M  V30 8297 H 744.375 0.7529 0.040709 0
M  V30 8298 H 747.026 1.736 -0.594589 0
M  V30 8299 H 745.408 3.83589 0.983621 0
M  V30 8300 H 746.582 4.22059 -1.84939 0
M  V30 8301 H 744.897 3.87466 -1.52509 0
M  V30 8302 H 747.494 5.27436 0.878347 0
M  V30 8303 H 747.837 3.78746 1.72793 0
M  V30 8304 H 748.37 3.9778 0.0398469 0
M  V30 8305 H 745.109 6.27944 -1.88059 0
M  V30 8306 H 744.629 5.99493 -0.191801 0
M  V30 8307 H 746.308 6.44382 -0.581405 0
M  V30 8308 N 746.441 0.193421 1.56409 0
M  V30 8309 C 747.69 -0.445995 1.96707 0
M  V30 8310 C 748.003 -1.62876 1.08309 0
M  V30 8311 O 749.209 -2.33586 1.38383 0
M  V30 8312 C 747.665 -0.844863 3.49843 0
M  V30 8313 C 747.273 0.31352 4.46902 0
M  V30 8314 C 749.017 -1.45146 3.98915 0
M  V30 8315 C 746.924 -0.106214 5.91305 0
M  V30 8316 H 745.854 -0.170398 0.734493 0
M  V30 8317 H 748.505 0.285172 1.81271 0
M  V30 8318 H 746.887 -1.63265 3.60778 0
M  V30 8319 H 748.061 1.09103 4.47698 0
M  V30 8320 H 746.376 0.8315 4.08014 0
M  V30 8321 H 748.973 -1.77792 5.04276 0
M  V30 8322 H 749.316 -2.35734 3.43126 0
M  V30 8323 H 749.849 -0.727675 3.91088 0
M  V30 8324 H 746.588 0.765442 6.51016 0
M  V30 8325 H 746.108 -0.848623 5.93766 0
M  V30 8326 H 747.787 -0.542588 6.44721 0
M  V30 8327 N 747.919 -1.57396 -0.0801906 0
M  V30 8328 C 748.851 -1.9982 -1.12271 0
M  V30 8329 C 749.864 -0.902902 -1.35468 0
M  V30 8330 O 751.053 -1.18088 -1.33856 0
M  V30 8331 C 748.153 -2.31476 -2.47532 0
M  V30 8332 C 747.326 -3.62745 -2.44407 0
M  V30 8333 C 746.385 -3.82168 -3.6171 0
M  V30 8334 O 745.411 -4.53852 -3.43522 0
M  V30 8335 N 746.613 -3.2388 -4.81749 0
M  V30 8336 H 749.378 -2.89864 -0.761501 0
M  V30 8337 H 746.939 -1.5965 -0.268965 0
M  V30 8338 H 748.931 -2.4165 -3.24634 0
M  V30 8339 H 747.501 -1.47364 -2.75686 0
M  V30 8340 H 746.721 -3.63403 -1.52747 0
M  V30 8341 H 748.009 -4.48954 -2.39412 0
M  V30 8342 H 747.407 -2.6568 -4.9943 0
M  V30 8343 H 745.964 -3.39515 -5.56392 0
M  V30 8344 N 749.397 0.351382 -1.53633 0
M  V30 8345 C 750.36 1.41403 -1.80383 0
M  V30 8346 C 751.36 1.45963 -0.674635 0
M  V30 8347 O 752.55 1.46476 -0.942895 0
M  V30 8348 C 749.682 2.80401 -1.93876 0
M  V30 8349 H 750.875 1.18951 -2.75301 0
M  V30 8350 H 748.428 0.58533 -1.44926 0
M  V30 8351 H 749.163 3.08147 -1.01074 0
M  V30 8352 H 748.948 2.78488 -2.7602 0
M  V30 8353 H 750.438 3.57329 -2.16116 0
M  V30 8354 N 750.875 1.45233 0.611969 0
M  V30 8355 C 751.807 1.49575 1.73666 0
M  V30 8356 C 752.82 0.386987 1.58134 0
M  V30 8357 O 754.009 0.653804 1.66095 0
M  V30 8358 C 751.109 1.33223 3.11617 0
M  V30 8359 C 750.282 2.57694 3.5343 0
M  V30 8360 C 749.341 2.35962 4.70328 0
M  V30 8361 O 748.367 3.09553 4.77667 0
M  V30 8362 N 749.569 1.40243 5.63305 0
M  V30 8363 H 752.334 2.46539 1.70407 0
M  V30 8364 H 749.895 1.40917 0.79712 0
M  V30 8365 H 751.887 1.16502 3.87569 0
M  V30 8366 H 750.457 0.44551 3.09409 0
M  V30 8367 H 749.677 2.8956 2.67486 0
M  V30 8368 H 750.965 3.40441 3.78124 0
M  V30 8369 H 750.363 0.795023 5.60086 0
M  V30 8370 H 748.92 1.29496 6.38807 0
M  V30 8371 N 752.353 -0.854086 1.3245 0
M  V30 8372 C 753.764 -1.42427 1.20712 0
M  V30 8373 C 754.115 -1.95371 -0.18013 0
M  V30 8374 O 753.24 -1.87587 -1.07889 0
M  V30 8375 C 753.835 -2.58897 2.18536 0
M  V30 8376 C 752.394 -3.11913 2.10683 0
M  V30 8377 C 751.541 -1.84661 2.06871 0
M  V30 8378 H 754.492 -0.661192 1.4427 0
M  V30 8379 H 754.513 -3.36074 1.78422 0
M  V30 8380 H 754.025 -2.20333 3.19492 0
M  V30 8381 H 752.126 -3.55059 1.12977 0
M  V30 8382 H 752.239 -3.73119 3.00532 0
M  V30 8383 H 750.603 -2.04285 1.52118 0
M  V30 8384 H 751.386 -1.48314 3.09609 0
M  V30 8385 N 753.831 -1.1567 -1.07043 0
M  V30 8386 C 755.108 -0.843948 -1.76456 0
M  V30 8387 C 755.488 0.659806 -2.00524 0
M  V30 8388 O 754.836 1.60518 -1.62623 0
M  V30 8389 C 755.046 -1.65822 -3.0709 0
M  V30 8390 C 756.394 -1.8664 -3.8138 0
M  V30 8391 O 757.418 -1.62624 -3.1691 0
M  V30 8392 O 756.277 -2.26884 -4.97178 0
M  V30 8393 H 753.371 -0.310677 -0.766426 0
M  V30 8394 H 755.917 -1.26266 -1.1338 0
M  V30 8395 H 754.689 -2.67902 -2.85209 0
M  V30 8396 H 754.312 -1.23605 -3.77899 0
M  V30 8397 N 755.309 1.25446 -0.953992 0
M  V30 8398 C 756.241 2.25111 -0.431004 0
M  V30 8399 C 757.254 1.56377 0.452764 0
M  V30 8400 O 758.443 1.76579 0.261144 0
M  V30 8401 C 755.543 3.3655 0.39839 0
M  V30 8402 C 754.716 4.34843 -0.472229 0
M  V30 8403 C 753.775 5.25351 0.29886 0
M  V30 8404 O 752.801 5.68396 -0.302522 0
M  V30 8405 N 754.003 5.5824 1.59211 0
M  V30 8406 H 756.768 2.70619 -1.28785 0
M  V30 8407 H 754.329 1.39346 -0.824281 0
M  V30 8408 H 756.321 3.94059 0.921941 0
M  V30 8409 H 754.891 2.90436 1.15609 0
M  V30 8410 H 754.111 3.76222 -1.17689 0
M  V30 8411 H 755.399 4.97497 -1.06648 0
M  V30 8412 H 754.797 5.25172 2.10264 0
M  V30 8413 H 753.354 6.18336 2.06164 0
M  V30 8414 N 756.787 0.722489 1.40064 0
M  V30 8415 C 758.012 0.273446 2.05589 0
M  V30 8416 C 758.437 -1.07875 1.54093 0
M  V30 8417 O 757.795 -1.68095 0.679252 0
M  V30 8418 C 757.843 0.271023 3.5958 0
M  V30 8419 O 756.947 -0.745499 4.05606 0
M  V30 8420 H 756.288 0.126856 0.65177 0
M  V30 8421 H 758.818 0.984906 1.79334 0
M  V30 8422 H 758.828 0.111084 4.07849 0
M  V30 8423 H 757.503 1.25776 3.96425 0
M  V30 8424 H 756.08 -0.552719 3.68781 0
M  V30 8425 N 758.265 -1.50454 0.469181 0
M  V30 8426 C 759.175 -2.32248 -0.331349 0
M  V30 8427 C 760.191 -1.42548 -0.997807 0
M  V30 8428 O 761.367 -1.75602 -0.9862 0
M  V30 8429 C 758.432 -3.17171 -1.40012 0
M  V30 8430 C 757.493 -4.2269 -0.750463 0
M  V30 8431 C 756.726 -5.03554 -1.76831 0
M  V30 8432 O 756.949 -4.85469 -2.99459 0
M  V30 8433 O 755.883 -5.86767 -1.3412 0
M  V30 8434 H 759.709 -3.01821 0.337279 0
M  V30 8435 H 757.294 -1.47602 0.231066 0
M  V30 8436 H 759.176 -3.69871 -2.01924 0
M  V30 8437 H 757.851 -2.50328 -2.05226 0
M  V30 8438 H 756.758 -3.73986 -0.0924446 0
M  V30 8439 H 758.091 -4.91997 -0.14131 0
M  V30 8440 N 759.743 -0.201713 -1.56304 0
M  V30 8441 C 760.968 0.443815 -2.02596 0
M  V30 8442 C 761.393 1.53945 -1.08086 0
M  V30 8443 O 760.751 1.81182 -0.0655056 0
M  V30 8444 C 760.799 0.971066 -3.47279 0
M  V30 8445 O 759.903 2.0836 -3.55893 0
M  V30 8446 H 759.244 0.10294 -0.655972 0
M  V30 8447 H 761.774 -0.314533 -2.02168 0
M  V30 8448 H 761.784 1.28598 -3.87204 0
M  V30 8449 H 760.459 0.169048 -4.15556 0
M  V30 8450 H 759.036 1.77683 -3.27846 0
M  V30 8451 N 761.222 1.57436 0.0718424 0
M  V30 8452 C 762.132 2.07039 1.10326 0
M  V30 8453 C 763.148 0.999918 1.424 0
M  V30 8454 O 764.324 1.31462 1.52577 0
M  V30 8455 C 761.389 2.50439 2.39752 0
M  V30 8456 C 760.45 3.71784 2.14651 0
M  V30 8457 C 759.683 4.13104 3.37906 0
M  V30 8458 O 759.906 3.54298 4.47023 0
M  V30 8459 O 758.84 5.05894 3.26121 0
M  V30 8460 H 762.666 2.95239 0.711872 0
M  V30 8461 H 760.251 1.46638 0.28597 0
M  V30 8462 H 762.133 2.78876 3.15921 0
M  V30 8463 H 760.808 1.65368 2.78271 0
M  V30 8464 H 759.715 3.48431 1.36187 0
M  V30 8465 H 761.048 4.57707 1.81012 0
M  V30 8466 N 762.7 -0.34323 1.53817 0
M  V30 8467 C 763.63 -1.42709 1.84814 0
M  V30 8468 C 764.611 -1.5488 0.703297 0
M  V30 8469 O 765.796 -1.69082 0.955237 0
M  V30 8470 C 762.926 -2.79756 2.05801 0
M  V30 8471 C 761.88 -2.82392 3.21619 0
M  V30 8472 C 761.206 -4.22326 3.2794 0
M  V30 8473 C 762.506 -2.479 4.59721 0
M  V30 8474 H 764.2 -1.17018 2.75585 0
M  V30 8475 H 761.746 -0.561485 1.32602 0
M  V30 8476 H 763.699 -3.55627 2.26069 0
M  V30 8477 H 762.423 -3.06883 1.11761 0
M  V30 8478 H 761.082 -2.08974 3.01207 0
M  V30 8479 H 760.73 -4.46564 2.31494 0
M  V30 8480 H 760.43 -4.25001 4.05768 0
M  V30 8481 H 761.954 -5.00039 3.50419 0
M  V30 8482 H 763.368 -3.13484 4.80001 0
M  V30 8483 H 761.765 -2.61857 5.39954 0
M  V30 8484 H 762.835 -1.43087 4.63308 0
M  V30 8485 N 764.178 -1.45556 -0.604258 0
M  V30 8486 C 765.424 -1.49968 -1.36519 0
M  V30 8487 C 765.757 -0.142236 -1.93678 0
M  V30 8488 O 765.032 0.843717 -1.75247 0
M  V30 8489 C 765.315 -2.58146 -2.51063 0
M  V30 8490 C 765.168 -4.03346 -1.99078 0
M  V30 8491 C 766.487 -2.62581 -3.53184 0
M  V30 8492 H 763.606 -0.545993 -0.495036 0
M  V30 8493 H 766.248 -1.77382 -0.680845 0
M  V30 8494 H 764.398 -2.34901 -3.09441 0
M  V30 8495 H 766.07 -4.37811 -1.45323 0
M  V30 8496 H 764.313 -4.13845 -1.30055 0
M  V30 8497 H 764.984 -4.74731 -2.81664 0
M  V30 8498 H 767.46 -2.83419 -3.04652 0
M  V30 8499 H 766.336 -3.40131 -4.30816 0
M  V30 8500 H 766.597 -1.67798 -4.09019 0
M  V30 8501 N 765.656 0.84705 -1.32902 0
M  V30 8502 C 766.604 1.97765 -1.22441 0
M  V30 8503 C 767.598 1.68919 -0.127546 0
M  V30 8504 O 768.804 1.77633 -0.290973 0
M  V30 8505 H 765.179 0.649072 -0.379748 0
M  V30 8506 H 767.15 2.03713 -2.18044 0
M  V30 8507 C 765.899 3.33834 -0.972125 0
M  V30 8508 H 765.222 3.56564 -1.80837 0
M  V30 8509 H 766.662 4.13467 -0.939209 0
M  V30 8510 C 765.121 3.35328 0.325059 0
M  V30 8511 O 765.651 3.78887 1.33445 0
M  V30 8512 N 763.857 2.88488 0.349718 0
M  V30 8513 H 763.404 2.53234 -0.472236 0
M  V30 8514 H 763.362 2.8987 1.21748 0
M  V30 8515 N 767.134 1.16236 1.06428 0
M  V30 8516 C 768.066 0.825446 2.1382 0
M  V30 8517 C 769.079 -0.166707 1.61944 0
M  V30 8518 O 770.268 0.0578606 1.78406 0
M  V30 8519 C 767.368 0.208023 3.38261 0
M  V30 8520 C 766.541 1.23994 4.19457 0
M  V30 8521 C 765.6 0.642569 5.22262 0
M  V30 8522 O 764.626 1.31106 5.53895 0
M  V30 8523 N 765.828 -0.571327 5.77682 0
M  V30 8524 H 768.593 1.7497 2.43322 0
M  V30 8525 H 766.154 1.05951 1.22417 0
M  V30 8526 H 768.146 -0.204608 4.04182 0
M  V30 8527 H 766.716 -0.619752 3.06395 0
M  V30 8528 H 765.936 1.82879 3.49212 0
M  V30 8529 H 767.224 1.93638 4.70512 0
M  V30 8530 H 766.622 -1.13263 5.54245 0
M  V30 8531 H 765.179 -0.926187 6.45186 0
M  V30 8532 N 768.612 -1.24939 0.960631 0
M  V30 8533 C 769.861 -1.92118 0.614298 0
M  V30 8534 C 770.174 -1.75998 -0.853474 0
M  V30 8535 O 771.38 -2.37804 -1.31003 0
M  V30 8536 C 769.836 -3.44303 1.04801 0
M  V30 8537 C 769.444 -3.69123 2.53875 0
M  V30 8538 C 771.188 -4.17375 0.774497 0
M  V30 8539 C 769.095 -5.14843 2.91016 0
M  V30 8540 H 768.025 -0.719319 0.226045 0
M  V30 8541 H 770.676 -1.41701 1.16589 0
M  V30 8542 H 769.058 -3.93715 0.42479 0
M  V30 8543 H 770.232 -3.30339 3.21267 0
M  V30 8544 H 768.547 -3.09323 2.78762 0
M  V30 8545 H 771.144 -5.24723 1.02808 0
M  V30 8546 H 771.487 -4.15294 -0.289192 0
M  V30 8547 H 772.02 -3.7389 1.35835 0
M  V30 8548 H 768.759 -5.2204 3.96427 0
M  V30 8549 H 768.279 -5.54652 2.28302 0
M  V30 8550 H 769.958 -5.83017 2.80535 0
M  V30 8551 N 770.09 -0.729906 -1.39679 0
M  V30 8552 C 771.339 -0.272534 -1.9985 0
M  V30 8553 C 771.652 1.14519 -1.58571 0
M  V30 8554 O 772.858 1.70182 -2.11543 0
M  V30 8555 C 771.314 -0.436322 -3.57245 0
M  V30 8556 C 770.922 -1.86161 -4.0749 0
M  V30 8557 C 772.666 -0.0404679 -4.24481 0
M  V30 8558 C 770.573 -1.97522 -5.5744 0
M  V30 8559 H 769.503 -0.0981428 -0.747585 0
M  V30 8560 H 772.154 -0.903056 -1.59741 0
M  V30 8561 H 770.536 0.263015 -3.95126 0
M  V30 8562 H 771.71 -2.59248 -3.80955 0
M  V30 8563 H 770.025 -2.21021 -3.529 0
M  V30 8564 H 772.622 -0.104437 -5.34598 0
M  V30 8565 H 772.965 1.00357 -4.04023 0
M  V30 8566 H 773.498 -0.690774 -3.91757 0
M  V30 8567 H 770.237 -3.00096 -5.82771 0
M  V30 8568 H 769.757 -1.28864 -5.85794 0
M  V30 8569 H 771.436 -1.754 -6.22771 0
M  V30 8570 N 771.568 1.50203 -0.477153 0
M  V30 8571 C 772.478 2.32421 0.319027 0
M  V30 8572 C 773.494 1.43075 0.990233 0
M  V30 8573 O 774.67 1.76123 0.976873 0
M  V30 8574 C 771.735 3.17909 1.38328 0
M  V30 8575 C 770.796 4.23082 0.728036 0
M  V30 8576 C 770.029 5.04484 1.74158 0
M  V30 8577 O 770.252 4.8705 2.96881 0
M  V30 8578 O 769.186 5.8747 1.31006 0
M  V30 8579 H 773.012 3.01638 -0.353281 0
M  V30 8580 H 770.597 1.47478 -0.238891 0
M  V30 8581 H 772.479 3.70937 1.9996 0
M  V30 8582 H 771.154 2.51413 2.03895 0
M  V30 8583 H 770.061 3.7403 0.07261 0
M  V30 8584 H 771.394 4.92065 0.115216 0
M  V30 8585 N 773.046 0.209999 1.56195 0
M  V30 8586 C 773.978 -0.736967 2.17029 0
M  V30 8587 C 774.991 -1.16599 1.13616 0
M  V30 8588 O 776.18 -1.09914 1.40646 0
M  V30 8589 C 773.28 -2.00852 2.72969 0
M  V30 8590 C 772.453 -1.73691 4.01435 0
M  V30 8591 C 771.512 -2.85439 4.42053 0
M  V30 8592 O 770.538 -2.54405 5.09183 0
M  V30 8593 N 771.74 -4.14135 4.06783 0
M  V30 8594 H 774.505 -0.216656 2.98916 0
M  V30 8595 H 772.066 0.0285672 1.61875 0
M  V30 8596 H 774.058 -2.74778 2.97118 0
M  V30 8597 H 772.628 -2.43963 1.95451 0
M  V30 8598 H 771.848 -0.834676 3.85262 0
M  V30 8599 H 773.136 -1.52961 4.85263 0
M  V30 8600 H 772.534 -4.42196 3.52816 0
M  V30 8601 H 771.091 -4.84642 4.35851 0
M  V30 8602 N 774.524 -1.57472 -0.0634922 0
M  V30 8603 C 775.454 -2.07297 -1.07473 0
M  V30 8604 C 776.435 -0.968162 -1.39859 0
M  V30 8605 O 777.62 -1.24139 -1.49343 0
M  V30 8606 C 774.75 -2.52381 -2.38581 0
M  V30 8607 C 773.704 -3.66813 -2.20526 0
M  V30 8608 C 773.03 -3.97982 -3.57092 0
M  V30 8609 C 774.33 -4.96553 -1.61965 0
M  V30 8610 H 776.024 -2.92033 -0.660092 0
M  V30 8611 H 773.57 -1.40488 -0.316074 0
M  V30 8612 H 775.523 -2.85852 -3.09624 0
M  V30 8613 H 774.247 -1.64684 -2.8204 0
M  V30 8614 H 772.906 -3.33639 -1.51924 0
M  V30 8615 H 772.554 -3.07403 -3.98136 0
M  V30 8616 H 772.254 -4.7504 -3.45848 0
M  V30 8617 H 773.778 -4.33956 -4.29552 0
M  V30 8618 H 775.192 -5.28201 -2.22883 0
M  V30 8619 H 773.589 -5.7799 -1.61394 0
M  V30 8620 H 774.659 -4.81396 -0.581918 0
M  V30 8621 N 776.003 0.335068 -1.53997 0
M  V30 8622 C 777.252 1.07182 -1.70865 0
M  V30 8623 C 777.565 1.89541 -0.483078 0
M  V30 8624 O 778.771 2.66219 -0.532879 0
M  V30 8625 C 777.227 1.95497 -3.02174 0
M  V30 8626 C 776.835 1.18304 -4.32097 0
M  V30 8627 C 778.579 2.68978 -3.28407 0
M  V30 8628 C 776.486 2.05699 -5.54474 0
M  V30 8629 H 775.416 0.403857 -0.636722 0
M  V30 8630 H 778.067 0.33076 -1.80494 0
M  V30 8631 H 776.449 2.73456 -2.86423 0
M  V30 8632 H 777.623 0.451969 -4.58578 0
M  V30 8633 H 775.938 0.565556 -4.12541 0
M  V30 8634 H 778.535 3.34651 -4.17029 0
M  V30 8635 H 778.878 3.36 -2.45784 0
M  V30 8636 H 779.411 1.98087 -3.44973 0
M  V30 8637 H 776.15 1.43204 -6.39666 0
M  V30 8638 H 775.67 2.76572 -5.32229 0
M  V30 8639 H 777.349 2.64554 -5.90441 0
M  V30 8640 N 777.481 1.45874 0.596531 0
M  V30 8641 C 778.428 1.55389 1.70655 0
M  V30 8642 C 779.398 0.399036 1.61236 0
M  V30 8643 O 780.583 0.61396 1.80652 0
M  V30 8644 C 777.723 1.53705 3.0898 0
M  V30 8645 C 776.836 2.79823 3.29125 0
M  V30 8646 C 775.971 2.69735 4.5762 0
M  V30 8647 C 775.01 3.90856 4.71061 0
M  V30 8648 N 774.147 3.79237 5.90867 0
M  V30 8649 H 778.987 2.50211 1.61859 0
M  V30 8650 H 776.524 1.24146 0.789069 0
M  V30 8651 H 778.482 1.50715 3.89026 0
M  V30 8652 H 777.112 0.624247 3.16706 0
M  V30 8653 H 776.164 2.92852 2.42779 0
M  V30 8654 H 777.476 3.69628 3.34927 0
M  V30 8655 H 776.63 2.64773 5.45875 0
M  V30 8656 H 775.369 1.77547 4.54234 0
M  V30 8657 H 774.374 3.96164 3.81227 0
M  V30 8658 H 775.599 4.84124 4.76236 0
M  V30 8659 H 773.545 2.89825 5.88504 0
M  V30 8660 H 773.462 4.62686 5.97877 0
M  V30 8661 H 774.73 3.78227 6.8159 0
M  V30 8662 N 778.959 -0.83999 1.33349 0
M  V30 8663 C 779.906 -1.94972 1.23509 0
M  V30 8664 C 780.876 -1.65709 0.113967 0
M  V30 8665 O 782.061 -1.88552 0.292045 0
M  V30 8666 C 779.201 -3.30919 0.979105 0
M  V30 8667 C 778.314 -3.72587 2.18639 0
M  V30 8668 C 777.449 -4.97397 1.86465 0
M  V30 8669 C 776.488 -5.31597 3.03432 0
M  V30 8670 N 775.625 -6.47584 2.71254 0
M  V30 8671 H 780.465 -2.0272 2.18423 0
M  V30 8672 H 778.002 -0.992017 1.08616 0
M  V30 8673 H 779.96 -4.09239 0.811126 0
M  V30 8674 H 778.59 -3.22731 0.0667099 0
M  V30 8675 H 777.642 -2.89799 2.46416 0
M  V30 8676 H 778.954 -3.93844 3.06086 0
M  V30 8677 H 778.108 -5.83462 1.66305 0
M  V30 8678 H 776.847 -4.78107 0.96254 0
M  V30 8679 H 775.852 -4.44037 3.24208 0
M  V30 8680 H 777.077 -5.52836 3.94397 0
M  V30 8681 H 775.023 -6.29783 1.836 0
M  V30 8682 H 774.94 -6.68931 3.52231 0
M  V30 8683 H 776.208 -7.36764 2.54558 0
M  V30 8684 N 780.437 -1.16799 -1.0581 0
M  V30 8685 C 781.347 -0.893492 -2.16919 0
M  V30 8686 C 782.363 0.136061 -1.73467 0
M  V30 8687 O 783.539 -0.0417348 -2.01357 0
M  V30 8688 C 780.604 -0.403763 -3.44341 0
M  V30 8689 C 779.665 -1.49914 -4.02274 0
M  V30 8690 C 778.898 -1.03269 -5.23614 0
M  V30 8691 O 779.121 0.115647 -5.70283 0
M  V30 8692 O 778.055 -1.8231 -5.73626 0
M  V30 8693 H 781.881 -1.82274 -2.42919 0
M  V30 8694 H 779.466 -0.948361 -1.1544 0
M  V30 8695 H 781.348 -0.137874 -4.21174 0
M  V30 8696 H 780.023 0.497413 -3.19855 0
M  V30 8697 H 778.93 -1.81883 -3.26909 0
M  V30 8698 H 780.263 -2.3758 -4.31064 0
M  V30 8699 N 781.915 1.24427 -0.967243 0
M  V30 8700 C 782.862 2.25398 -0.496419 0
M  V30 8701 C 783.832 1.59667 0.457781 0
M  V30 8702 O 785.017 1.87213 0.368246 0
M  V30 8703 C 782.157 3.44474 0.207693 0
M  V30 8704 C 781.27 4.24804 -0.785221 0
M  V30 8705 C 780.405 5.31169 -0.0572631 0
M  V30 8706 C 779.444 6.03195 -1.04027 0
M  V30 8707 N 778.581 7.01265 -0.34235 0
M  V30 8708 H 783.421 2.65039 -1.36229 0
M  V30 8709 H 780.958 1.30288 -0.682902 0
M  V30 8710 H 782.916 4.12376 0.632612 0
M  V30 8711 H 781.546 3.05672 1.03752 0
M  V30 8712 H 780.598 3.56445 -1.32858 0
M  V30 8713 H 781.91 4.74599 -1.53483 0
M  V30 8714 H 781.064 6.05205 0.425674 0
M  V30 8715 H 779.803 4.8228 0.725047 0
M  V30 8716 H 778.808 5.27964 -1.53409 0
M  V30 8717 H 780.033 6.54173 -1.82302 0
M  V30 8718 H 777.979 6.54648 0.420993 0
M  V30 8719 H 777.896 7.48939 -1.03084 0
M  V30 8720 H 779.164 7.7941 0.118634 0
M  V30 8721 N 783.393 0.737304 1.3929 0
M  V30 8722 C 784.639 0.286681 2.00763 0
M  V30 8723 C 784.972 -1.12388 1.58375 0
M  V30 8724 O 784.247 -1.76661 0.813699 0
M  V30 8725 C 784.53 0.391147 3.57969 0
M  V30 8726 C 784.383 1.84165 4.1037 0
M  V30 8727 C 785.702 -0.225072 4.39524 0
M  V30 8728 H 782.821 0.105642 0.729389 0
M  V30 8729 H 785.463 0.933892 1.65464 0
M  V30 8730 H 783.613 -0.159875 3.88171 0
M  V30 8731 H 785.285 2.44972 3.90879 0
M  V30 8732 H 783.528 2.3622 3.63844 0
M  V30 8733 H 784.199 1.866 5.19504 0
M  V30 8734 H 786.675 0.244677 4.1538 0
M  V30 8735 H 785.551 -0.121646 5.48765 0
M  V30 8736 H 785.812 -1.31141 4.22202 0
M  V30 8737 N 784.871 -1.49948 0.485112 0
M  V30 8738 C 786.101 -2.06506 -0.0621921 0
M  V30 8739 C 786.509 -1.34756 -1.32806 0
M  V30 8740 O 785.852 -0.41466 -1.78959 0
M  V30 8741 C 785.914 -3.57243 -0.402182 0
M  V30 8742 C 785.578 -4.50574 0.763671 0
M  V30 8743 C 786.575 -4.93032 1.6497 0
M  V30 8744 C 784.26 -4.9308 0.957973 0
M  V30 8745 C 786.254 -5.76718 2.71432 0
M  V30 8746 C 783.941 -5.76546 2.0258 0
M  V30 8747 C 784.939 -6.18267 2.90232 0
M  V30 8748 O 784.627 -7.00066 3.95174 0
M  V30 8749 H 784.359 -0.675925 0.0100672 0
M  V30 8750 H 786.913 -1.93922 0.677023 0
M  V30 8751 H 785.143 -3.6778 -1.19478 0
M  V30 8752 H 786.832 -3.96107 -0.886219 0
M  V30 8753 H 787.598 -4.60851 1.51134 0
M  V30 8754 H 783.477 -4.60117 0.285144 0
M  V30 8755 H 787.021 -6.09203 3.39878 0
M  V30 8756 H 782.918 -6.0814 2.16417 0
M  V30 8757 H 783.686 -7.18343 3.92333 0
M  V30 8758 N 786.349 -0.21828 -1.56081 0
M  V30 8759 C 787.279 0.687922 -2.23136 0
M  V30 8760 C 788.26 1.20357 -1.202 0
M  V30 8761 O 789.445 1.24817 -1.48776 0
M  V30 8762 C 786.575 1.89762 -2.90874 0
M  V30 8763 C 785.529 1.51595 -4.00254 0
M  V30 8764 C 784.855 2.80415 -4.55271 0
M  V30 8765 C 786.155 0.708404 -5.17474 0
M  V30 8766 H 787.849 0.128854 -2.99123 0
M  V30 8767 H 785.395 0.0605354 -1.43873 0
M  V30 8768 H 787.348 2.53699 -3.36474 0
M  V30 8769 H 786.072 2.4816 -2.1233 0
M  V30 8770 H 784.731 0.900058 -3.55379 0
M  V30 8771 H 784.379 3.36951 -3.73461 0
M  V30 8772 H 784.079 2.55613 -5.2909 0
M  V30 8773 H 785.603 3.453 -5.03587 0
M  V30 8774 H 787.017 1.2514 -5.59476 0
M  V30 8775 H 785.414 0.557593 -5.97504 0
M  V30 8776 H 786.484 -0.285679 -4.84058 0
M  V30 8777 N 787.827 1.57504 0.0551401 0
M  V30 8778 C 788.79 2.03826 1.04821 0
M  V30 8779 C 789.79 0.937968 1.30609 0
M  V30 8780 O 790.98 1.20237 1.2605 0
M  V30 8781 C 788.112 2.43309 2.38775 0
M  V30 8782 H 789.305 2.92802 0.6486 0
M  V30 8783 H 786.858 1.53368 0.301315 0
M  V30 8784 H 787.593 1.5741 2.83536 0
M  V30 8785 H 787.378 3.23615 2.21395 0
M  V30 8786 H 788.868 2.79666 3.10124 0
M  V30 8787 N 789.305 -0.326896 1.54172 0
M  V30 8788 C 790.551 -1.06304 1.7341 0
M  V30 8789 C 790.906 -1.85791 0.499935 0
M  V30 8790 O 790.199 -1.84753 -0.507625 0
M  V30 8791 C 790.393 -2.0208 2.94785 0
M  V30 8792 C 790.222 -1.32009 4.29888 0
M  V30 8793 C 788.992 -1.05798 4.941 0
M  V30 8794 C 791.19 -0.737721 5.08982 0
M  V30 8795 N 789.172 -0.324836 6.1304 0
M  V30 8796 C 790.543 -0.136006 6.19851 0
M  V30 8797 C 792.598 -0.640206 4.93767 0
M  V30 8798 C 791.301 0.553757 7.17165 0
M  V30 8799 C 793.327 0.0358492 5.91389 0
M  V30 8800 C 792.689 0.626522 7.01608 0
M  V30 8801 H 788.788 -0.372808 0.687414 0
M  V30 8802 H 791.372 -0.34462 1.91626 0
M  V30 8803 H 789.543 -2.71197 2.78041 0
M  V30 8804 H 791.275 -2.68655 3.02666 0
M  V30 8805 H 788.03 -1.34945 4.53968 0
M  V30 8806 H 788.454 0.0274982 6.76994 0
M  V30 8807 H 793.096 -1.0826 4.08705 0
M  V30 8808 H 790.814 1.00799 8.01789 0
M  V30 8809 H 794.4 0.110895 5.81694 0
M  V30 8810 H 793.28 1.14135 7.7585 0
M  V30 8811 N 790.784 -1.46188 -0.588786 0
M  V30 8812 C 792.03 -1.51407 -1.34921 0
M  V30 8813 C 792.363 -0.162771 -1.93517 0
M  V30 8814 O 791.638 0.825082 -1.76132 0
M  V30 8815 C 791.921 -2.60795 -2.48311 0
M  V30 8816 C 791.774 -4.05435 -1.94789 0
M  V30 8817 C 793.093 -2.66313 -3.50379 0
M  V30 8818 H 790.212 -0.551213 -0.489217 0
M  V30 8819 H 792.854 -1.78095 -0.661993 0
M  V30 8820 H 791.004 -2.3817 -3.06932 0
M  V30 8821 H 792.676 -4.39328 -1.40672 0
M  V30 8822 H 790.919 -4.15202 -1.25659 0
M  V30 8823 H 791.59 -4.77691 -2.76613 0
M  V30 8824 H 794.066 -2.86634 -3.01629 0
M  V30 8825 H 792.942 -3.44681 -4.27184 0
M  V30 8826 H 793.203 -1.72127 -4.07216 0
M  V30 8827 N 792.262 0.832906 -1.33792 0
M  V30 8828 C 793.673 1.40489 -1.22963 0
M  V30 8829 C 794.024 1.95633 0.149026 0
M  V30 8830 O 793.149 1.8928 1.04891 0
M  V30 8831 C 793.744 2.55387 -2.22627 0
M  V30 8832 C 792.303 3.08522 -2.15618 0
M  V30 8833 C 791.45 1.81347 -2.09782 0
M  V30 8834 H 794.401 0.638156 -1.45304 0
M  V30 8835 H 794.422 3.33193 -1.83746 0
M  V30 8836 H 793.934 2.15222 -3.22957 0
M  V30 8837 H 792.035 3.53217 -1.18611 0
M  V30 8838 H 792.148 3.6829 -3.0643 0
M  V30 8839 H 790.512 2.01839 -1.55349 0
M  V30 8840 H 791.295 1.43369 -3.1193 0
M  V30 8841 N 793.74 1.17359 1.05189 0
M  V30 8842 C 794.703 0.892604 2.11105 0
M  V30 8843 C 795.703 -0.117236 1.60372 0
M  V30 8844 O 796.893 0.114936 1.7382 0
M  V30 8845 C 794.025 0.337032 3.3923 0
M  V30 8846 H 795.218 1.83169 2.37464 0
M  V30 8847 H 792.771 0.984051 1.21434 0
M  V30 8848 H 793.506 -0.609198 3.18527 0
M  V30 8849 H 793.291 1.06484 3.77364 0
M  V30 8850 H 794.781 0.158763 4.17298 0
M  V30 8851 N 795.218 -1.23913 0.973828 0
M  V30 8852 C 796.168 -2.22892 0.479933 0
M  V30 8853 C 797.152 -1.54726 -0.441434 0
M  V30 8854 O 798.344 -1.74908 -0.271358 0
M  V30 8855 C 795.473 -3.42577 -0.222702 0
M  V30 8856 C 794.559 -4.17981 0.717851 0
M  V30 8857 N 794.95 -4.7045 1.8577 0
M  V30 8858 C 793.248 -4.42841 0.529858 0
M  V30 8859 C 793.949 -5.27751 2.44651 0
M  V30 8860 N 792.925 -5.15302 1.73104 0
M  V30 8861 H 796.727 -2.61083 1.34956 0
M  V30 8862 H 794.241 -1.39368 0.83368 0
M  V30 8863 H 796.238 -4.1265 -0.593793 0
M  V30 8864 H 794.898 -3.05904 -1.0887 0
M  V30 8865 H 795.909 -4.66997 2.23908 0
M  V30 8866 H 792.586 -4.1648 -0.291664 0
M  V30 8867 H 793.976 -5.79011 3.40875 0
M  V30 8868 N 796.696 -0.74468 -1.38897 0
M  V30 8869 C 797.643 -0.111064 -2.30533 0
M  V30 8870 C 798.613 0.719276 -1.49719 0
M  V30 8871 O 799.798 0.677244 -1.78376 0
M  V30 8872 C 796.938 0.78292 -3.36102 0
M  V30 8873 C 796.051 -0.0610817 -4.31957 0
M  V30 8874 C 795.186 0.835075 -5.24595 0
M  V30 8875 C 794.225 -0.0130974 -6.12099 0
M  V30 8876 N 793.362 0.839525 -6.97063 0
M  V30 8877 H 798.202 -0.898113 -2.84144 0
M  V30 8878 H 795.739 -0.454537 -1.39901 0
M  V30 8879 H 797.697 1.31578 -3.95908 0
M  V30 8880 H 796.327 1.53585 -2.83922 0
M  V30 8881 H 795.379 -0.711469 -3.73687 0
M  V30 8882 H 796.691 -0.716482 -4.93627 0
M  V30 8883 H 795.845 1.43542 -5.89475 0
M  V30 8884 H 794.584 1.52423 -4.63269 0
M  V30 8885 H 793.589 -0.626179 -5.46223 0
M  V30 8886 H 794.814 -0.699181 -6.75491 0
M  V30 8887 H 792.76 1.5138 -6.38295 0
M  V30 8888 H 792.677 0.240823 -7.55616 0
M  V30 8889 H 793.945 1.42513 -7.66362 0
M  V30 8890 N 798.174 1.49689 -0.493057 0
M  V30 8891 C 799.422 2.02027 0.0541642 0
M  V30 8892 C 799.743 1.37554 1.38217 0
M  V30 8893 O 799.013 0.528174 1.88646 0
M  V30 8894 H 797.593 0.746646 0.0230069 0
M  V30 8895 H 800.255 1.83795 -0.648489 0
M  V30 8896 H 799.351 3.11523 0.189652 0
M  V30 8897 N 799.652 0.226554 1.55963 0
M  V30 8898 C 800.901 -0.40417 1.97609 0
M  V30 8899 C 801.214 -1.60541 1.1174 0
M  V30 8900 O 802.42 -2.30598 1.43307 0
M  V30 8901 C 800.876 -0.770466 3.51556 0
M  V30 8902 C 800.484 0.408244 4.46136 0
M  V30 8903 C 802.228 -1.36651 4.01904 0
M  V30 8904 C 800.135 0.0192347 5.91397 0
M  V30 8905 H 799.065 -0.15478 0.737943 0
M  V30 8906 H 801.716 0.323558 1.80625 0
M  V30 8907 H 800.098 -1.55575 3.6416 0
M  V30 8908 H 801.272 1.18575 4.45283 0
M  V30 8909 H 799.587 0.917859 4.06158 0
M  V30 8910 H 802.184 -1.67055 5.07934 0
M  V30 8911 H 802.527 -2.28403 3.48049 0
M  V30 8912 H 803.06 -0.644556 3.92543 0
M  V30 8913 H 799.799 0.90336 6.49245 0
M  V30 8914 H 799.319 -0.722485 5.95433 0
M  V30 8915 H 800.998 -0.405711 6.45727 0
M  V30 8916 N 801.13 -1.57531 -0.0467866 0
M  V30 8917 C 802.378 -1.88078 -0.739656 0
M  V30 8918 C 802.699 -0.821936 -1.76831 0
M  V30 8919 O 801.969 0.146582 -1.95351 0
M  V30 8920 H 800.549 -0.694075 -0.276169 0
M  V30 8921 H 803.211 -1.94893 -0.0169391 0
M  V30 8922 H 802.307 -2.86396 -1.24031 0
M  V30 8923 N 802.608 0.318715 -1.54344 0
M  V30 8924 C 803.856 1.054 -1.72439 0
M  V30 8925 C 804.177 1.88388 -0.503495 0
M  V30 8926 O 803.447 1.89866 0.48246 0
M  V30 8927 H 802.027 0.392124 -0.635805 0
M  V30 8928 H 804.689 0.35398 -1.91659 0
M  V30 8929 H 803.785 1.71726 -2.60608 0
M  V30 8930 N 804.086 1.46499 0.581025 0
M  V30 8931 C 805.034 1.57562 1.71105 0
M  V30 8932 C 806.028 0.44403 1.63477 0
M  V30 8933 O 807.234 0.620964 1.6895 0
M  V30 8934 H 803.609 0.495415 0.565746 0
M  V30 8935 H 805.58 2.5257 1.58905 0
M  V30 8936 C 804.329 1.58465 3.0949 0
M  V30 8937 H 803.652 2.44877 3.16031 0
M  V30 8938 H 805.092 1.70261 3.88313 0
M  V30 8939 C 803.551 0.313596 3.35437 0
M  V30 8940 O 804.081 -0.595456 3.97262 0
M  V30 8941 N 802.287 0.200986 2.89904 0
M  V30 8942 H 801.834 0.941643 2.39773 0
M  V30 8943 H 801.792 -0.648577 3.07638 0
M  V30 8944 N 805.565 -0.825799 1.34232 0
M  V30 8945 C 806.475 -1.9684 1.27638 0
M  V30 8946 C 807.491 -1.73018 0.184569 0
M  V30 8947 O 808.667 -1.97172 0.410525 0
M  V30 8948 C 805.732 -3.31084 1.02879 0
M  V30 8949 C 804.793 -3.67933 2.21188 0
M  V30 8950 C 804.026 -4.95772 1.976 0
M  V30 8951 O 804.249 -5.62721 0.93281 0
M  V30 8952 O 803.183 -5.30431 2.84477 0
M  V30 8953 H 807.009 -2.05346 2.23756 0
M  V30 8954 H 804.594 -0.960772 1.1441 0
M  V30 8955 H 806.476 -4.11492 0.908406 0
M  V30 8956 H 805.151 -3.23552 0.0979821 0
M  V30 8957 H 804.058 -2.87981 2.38784 0
M  V30 8958 H 805.391 -3.80147 3.12648 0
M  V30 8959 N 807.043 -1.17915 -1.04565 0
M  V30 8960 C 807.975 -0.859359 -2.1248 0
M  V30 8961 C 808.988 0.140922 -1.62189 0
M  V30 8962 O 810.177 -0.0862361 -1.78292 0
M  V30 8963 C 807.277 -0.261811 -3.37887 0
M  V30 8964 C 806.45 -1.30651 -4.17431 0
M  V30 8965 C 805.509 -0.725575 -5.21174 0
M  V30 8966 O 804.535 -1.39901 -5.51739 0
M  V30 8967 N 805.737 0.479351 -5.78517 0
M  V30 8968 H 808.502 -1.78818 -2.40508 0
M  V30 8969 H 806.063 -1.07885 -1.20716 0
M  V30 8970 H 808.055 0.14028 -4.04457 0
M  V30 8971 H 806.625 0.570929 -3.07342 0
M  V30 8972 H 805.845 -1.88412 -3.46258 0
M  V30 8973 H 807.133 -2.01099 -4.67372 0
M  V30 8974 H 806.531 1.04431 -5.55977 0
M  V30 8975 H 805.088 0.823427 -6.46578 0
M  V30 8976 N 808.521 1.23394 -0.980386 0
M  V30 8977 C 809.767 1.92094 -0.650223 0
M  V30 8978 C 810.1 1.76309 0.814173 0
M  V30 8979 O 809.375 1.12406 1.5873 0
M  V30 8980 C 809.658 3.44713 -1.04139 0
M  V30 8981 C 809.511 3.69606 -2.56342 0
M  V30 8982 C 810.83 4.36191 -0.585296 0
M  V30 8983 H 807.949 0.697618 -0.237695 0
M  V30 8984 H 810.591 1.45517 -1.22167 0
M  V30 8985 H 808.741 3.84513 -0.55515 0
M  V30 8986 H 810.413 3.39288 -3.1254 0
M  V30 8987 H 808.656 3.14318 -2.98976 0
M  V30 8988 H 809.327 4.76441 -2.78762 0
M  V30 8989 H 811.803 4.03836 -1.00276 0
M  V30 8990 H 810.679 5.41679 -0.887428 0
M  V30 8991 H 810.94 4.39097 0.51438 0
M  V30 8992 N 809.999 0.752036 1.385 0
M  V30 8993 C 811.276 0.233075 1.94206 0
M  V30 8994 C 811.656 -1.26838 1.68746 0
M  V30 8995 O 811.004 -2.04214 1.02513 0
M  V30 8996 C 811.214 0.58509 3.44061 0
M  V30 8997 C 812.562 0.543871 4.21102 0
M  V30 8998 O 813.586 0.523291 3.52335 0
M  V30 8999 O 812.445 0.553436 5.4369 0
M  V30 9000 H 809.539 0.0483049 0.825588 0
M  V30 9001 H 812.085 0.832053 1.47902 0
M  V30 9002 H 810.857 1.62212 3.56094 0
M  V30 9003 H 810.48 -0.0419738 3.97578 0
M  V30 9004 N 811.477 -1.49425 0.500989 0
M  V30 9005 C 812.424 -2.29126 -0.277443 0
M  V30 9006 C 813.394 -1.35522 -0.960363 0
M  V30 9007 O 814.579 -1.64479 -0.967027 0
M  V30 9008 C 811.719 -3.18193 -1.33593 0
M  V30 9009 C 810.832 -4.26854 -0.664791 0
M  V30 9010 C 809.967 -5.03137 -1.70372 0
M  V30 9011 C 809.006 -6.03635 -1.01445 0
M  V30 9012 N 808.143 -6.73083 -1.99758 0
M  V30 9013 H 812.983 -2.95187 0.408458 0
M  V30 9014 H 810.52 -1.45546 0.213275 0
M  V30 9015 H 812.478 -3.68207 -1.96161 0
M  V30 9016 H 811.108 -2.54116 -1.9906 0
M  V30 9017 H 810.16 -3.80328 0.0741708 0
M  V30 9018 H 811.472 -4.9865 -0.122197 0
M  V30 9019 H 810.626 -5.5702 -2.40445 0
M  V30 9020 H 809.365 -4.31114 -2.28017 0
M  V30 9021 H 808.37 -5.48984 -0.299496 0
M  V30 9022 H 809.595 -6.77644 -0.444497 0
M  V30 9023 H 807.541 -6.03832 -2.56365 0
M  V30 9024 H 807.458 -7.40855 -1.50565 0
M  V30 9025 H 808.726 -7.3157 -2.69119 0
M  V30 9026 N 812.955 -0.234822 -1.55841 0
M  V30 9027 C 813.885 0.664217 -2.23854 0
M  V30 9028 C 814.866 1.19076 -1.2147 0
M  V30 9029 O 816.051 1.23232 -1.50091 0
M  V30 9030 C 813.181 1.86666 -2.9287 0
M  V30 9031 C 812.135 1.47341 -4.01839 0
M  V30 9032 C 811.461 2.75571 -4.58219 0
M  V30 9033 C 812.761 0.653479 -5.18196 0
M  V30 9034 H 814.455 0.0971213 -2.99242 0
M  V30 9035 H 812.001 0.0452724 -1.43929 0
M  V30 9036 H 813.954 2.50116 -3.39146 0
M  V30 9037 H 812.678 2.45894 -2.1495 0
M  V30 9038 H 811.337 0.862314 -3.56314 0
M  V30 9039 H 810.985 3.32971 -3.77014 0
M  V30 9040 H 810.685 2.49987 -5.31771 0
M  V30 9041 H 812.209 3.39939 -5.07221 0
M  V30 9042 H 813.623 1.19198 -5.60771 0
M  V30 9043 H 812.02 0.494188 -5.98062 0
M  V30 9044 H 813.09 -0.337004 -4.83728 0
M  V30 9045 N 814.433 1.57553 0.0384317 0
M  V30 9046 C 815.679 1.89121 0.732199 0
M  V30 9047 C 816.012 0.831404 1.75503 0
M  V30 9048 O 815.287 -0.154642 1.93884 0
M  V30 9049 C 815.57 3.31338 1.41021 0
M  V30 9050 C 815.423 4.48004 0.401532 0
M  V30 9051 C 816.742 3.72318 2.34665 0
M  V30 9052 H 813.861 0.687819 0.264715 0
M  V30 9053 H 816.503 1.89999 -0.00496279 0
M  V30 9054 H 814.653 3.3072 2.03854 0
M  V30 9055 H 816.325 4.60755 -0.224159 0
M  V30 9056 H 814.568 4.32895 -0.280092 0
M  V30 9057 H 815.239 5.44377 0.91423 0
M  V30 9058 H 817.715 3.74243 1.81883 0
M  V30 9059 H 816.591 4.72652 2.7909 0
M  V30 9060 H 816.852 3.04062 3.20934 0
M  V30 9061 N 815.911 -0.310526 1.54511 0
M  V30 9062 C 817.136 -1.07046 1.7764 0
M  V30 9063 C 817.561 -1.80488 0.529696 0
M  V30 9064 O 816.919 -1.73702 -0.519361 0
M  V30 9065 C 816.967 -2.03411 2.97752 0
M  V30 9066 O 816.071 -3.11545 2.7021 0
M  V30 9067 H 815.412 -0.307994 0.588248 0
M  V30 9068 H 817.942 -0.350848 2.01569 0
M  V30 9069 H 817.952 -2.46048 3.2546 0
M  V30 9070 H 816.627 -1.49361 3.88155 0
M  V30 9071 H 815.204 -2.7349 2.53491 0
M  V30 9072 N 817.389 -1.46805 -0.573248 0
M  V30 9073 C 818.352 -1.57655 -1.66366 0
M  V30 9074 C 819.352 -0.452905 -1.5429 0
M  V30 9075 O 820.542 -0.717502 -1.58737 0
M  V30 9076 C 817.674 -1.50584 -3.05839 0
M  V30 9077 H 818.867 -2.54842 -1.581 0
M  V30 9078 H 816.42 -1.34756 -0.791868 0
M  V30 9079 H 817.155 -0.547127 -3.19651 0
M  V30 9080 H 816.94 -2.32118 -3.16012 0
M  V30 9081 H 818.43 -1.61282 -3.85199 0
M  V30 9082 N 818.867 0.818669 -1.34668 0
M  V30 9083 C 820.115 1.57201 -1.27013 0
M  V30 9084 C 820.436 1.94354 0.158599 0
M  V30 9085 O 819.706 1.62626 1.09223 0
M  V30 9086 H 818.286 0.582919 -0.467135 0
M  V30 9087 H 820.948 0.977234 -1.6863 0
M  V30 9088 H 820.044 2.49291 -1.87778 0
M  V30 9089 N 820.346 1.18468 1.03938 0
M  V30 9090 C 821.595 0.975193 1.76558 0
M  V30 9091 C 821.908 -0.495978 1.89207 0
M  V30 9092 O 823.114 -0.824009 2.58694 0
M  V30 9093 C 821.57 1.69579 3.17444 0
M  V30 9094 C 821.178 3.20636 3.12884 0
M  V30 9095 C 822.922 1.56917 3.94433 0
M  V30 9096 C 820.829 3.8533 4.48636 0
M  V30 9097 H 819.759 0.361244 0.66183 0
M  V30 9098 H 822.41 1.41854 1.16403 0
M  V30 9099 H 820.792 1.18022 3.78004 0
M  V30 9100 H 821.966 3.79228 2.61768 0
M  V30 9101 H 820.281 3.33454 2.49394 0
M  V30 9102 H 822.878 2.02611 4.94826 0
M  V30 9103 H 823.221 0.521638 4.13019 0
M  V30 9104 H 823.754 2.05762 3.40451 0
M  V30 9105 H 820.493 4.90136 4.35255 0
M  V30 9106 H 820.013 3.31526 4.99851 0
M  V30 9107 H 821.692 3.88269 5.17549 0
M  V30 9108 N 821.824 -1.22873 0.986916 0
M  V30 9109 C 823.24 -1.43594 0.696633 0
M  V30 9110 C 823.44 -1.87622 -0.734869 0
M  V30 9111 O 822.496 -2.02633 -1.50652 0
M  V30 9112 C 823.809 -2.48231 1.69711 0
M  V30 9113 C 825.357 -2.62037 1.71188 0
M  V30 9114 C 825.832 -3.6989 2.70084 0
M  V30 9115 N 827.323 -3.77341 2.68641 0
M  V30 9116 C 828.058 -4.6037 3.41829 0
M  V30 9117 N 827.554 -5.47438 4.24598 0
M  V30 9118 N 829.347 -4.54626 3.30563 0
M  V30 9119 H 821.498 -0.925982 1.91153 0
M  V30 9120 H 823.761 -0.46866 0.824052 0
M  V30 9121 H 823.467 -2.22812 2.72117 0
M  V30 9122 H 823.341 -3.46731 1.48516 0
M  V30 9123 H 825.728 -2.86803 0.694837 0
M  V30 9124 H 825.809 -1.63831 1.96451 0
M  V30 9125 H 825.453 -3.45872 3.71934 0
M  V30 9126 H 825.383 -4.67652 2.42093 0
M  V30 9127 H 827.874 -3.15124 2.08578 0
M  V30 9128 H 828.187 -6.078 4.77283 0
M  V30 9129 H 826.532 -5.4704 4.28687 0
M  V30 9130 H 829.723 -3.85627 2.65347 0
M  V30 9131 H 829.896 -5.19103 3.8786 0
M  V30 9132 N 823.302 -0.75937 -1.38099 0
M  V30 9133 C 824.249 -0.135508 -2.30402 0
M  V30 9134 C 825.219 0.703356 -1.50473 0
M  V30 9135 O 826.404 0.658287 -1.79084 0
M  V30 9136 C 823.544 0.747228 -3.36913 0
M  V30 9137 C 822.657 -0.106893 -4.31868 0
M  V30 9138 C 821.792 0.779388 -5.25451 0
M  V30 9139 C 820.831 -0.0780179 -6.1205 0
M  V30 9140 N 819.968 0.765545 -6.97914 0
M  V30 9141 H 824.808 -0.9282 -2.83176 0
M  V30 9142 H 822.345 -0.46935 -1.39411 0
M  V30 9143 H 824.303 1.27371 -3.97281 0
M  V30 9144 H 822.933 1.50565 -2.85535 0
M  V30 9145 H 821.985 -0.751063 -3.72912 0
M  V30 9146 H 823.297 -0.768798 -4.9284 0
M  V30 9147 H 822.451 1.37282 -5.90964 0
M  V30 9148 H 821.19 1.47501 -4.6486 0
M  V30 9149 H 820.195 -0.684078 -5.45528 0
M  V30 9150 H 821.42 -0.770786 -6.74712 0
M  V30 9151 H 819.366 1.44601 -6.39864 0
M  V30 9152 H 819.283 0.160666 -7.55829 0
M  V30 9153 H 820.551 1.34377 -7.6783 0
M  V30 9154 N 824.78 1.49157 -0.508906 0
M  V30 9155 C 826.026 2.02773 0.0328469 0
M  V30 9156 C 826.359 1.38714 1.35912 0
M  V30 9157 O 825.634 0.525536 1.87266 0
M  V30 9158 C 825.917 3.59664 0.177088 0
M  V30 9159 C 825.77 4.34239 -1.17287 0
M  V30 9160 C 827.089 4.30505 0.913977 0
M  V30 9161 H 824.208 0.736926 0.0104631 0
M  V30 9162 H 826.85 1.781 -0.661851 0
M  V30 9163 H 825 3.80818 0.768774 0
M  V30 9164 H 826.672 4.24561 -1.80404 0
M  V30 9165 H 824.915 3.96486 -1.76016 0
M  V30 9166 H 825.586 5.42397 -1.02516 0
M  V30 9167 H 828.062 4.14054 0.412084 0
M  V30 9168 H 826.938 5.40012 0.983759 0
M  V30 9169 H 827.199 3.96302 1.95951 0
M  V30 9170 N 826.258 0.243083 1.55714 0
M  V30 9171 C 827.188 -0.652336 2.24203 0
M  V30 9172 C 828.169 -1.1843 1.221 0
M  V30 9173 O 829.354 -1.22435 1.50743 0
M  V30 9174 C 826.484 -1.85111 2.93856 0
M  V30 9175 C 825.438 -1.45208 4.02615 0
M  V30 9176 C 824.764 -2.73137 4.59674 0
M  V30 9177 C 826.064 -0.625988 5.18535 0
M  V30 9178 H 827.758 -0.0812504 2.9929 0
M  V30 9179 H 825.304 -0.0376388 1.43951 0
M  V30 9180 H 827.257 -2.48314 3.40468 0
M  V30 9181 H 825.981 -2.44751 2.16251 0
M  V30 9182 H 824.64 -0.843406 3.56766 0
M  V30 9183 H 824.288 -3.30967 3.78774 0
M  V30 9184 H 823.988 -2.47163 5.33089 0
M  V30 9185 H 825.512 -3.37245 5.09017 0
M  V30 9186 H 826.926 -1.16223 5.61396 0
M  V30 9187 H 825.323 -0.462465 5.98315 0
M  V30 9188 H 826.393 0.362652 4.83542 0
M  V30 9189 N 827.736 -1.57571 -0.0300757 0
M  V30 9190 C 828.983 -1.89226 -0.721091 0
M  V30 9191 C 829.311 -0.840244 -1.75414 0
M  V30 9192 O 828.566 0.158906 -1.95054 0
M  V30 9193 C 828.865 -3.27624 -1.42818 0
M  V30 9194 C 828.531 -4.4776 -0.531208 0
M  V30 9195 C 827.193 -4.8036 -0.28415 0
M  V30 9196 C 829.545 -5.21125 0.0881582 0
M  V30 9197 C 826.873 -5.83715 0.591065 0
M  V30 9198 C 829.225 -6.2541 0.95107 0
M  V30 9199 C 827.889 -6.56486 1.2076 0
M  V30 9200 H 827.159 -0.692428 -0.263866 0
M  V30 9201 H 829.806 -1.91491 0.0189874 0
M  V30 9202 H 828.111 -3.21343 -2.24155 0
M  V30 9203 H 829.808 -3.49365 -1.96838 0
M  V30 9204 H 826.398 -4.2227 -0.73392 0
M  V30 9205 H 830.582 -4.96219 -0.0897496 0
M  V30 9206 H 825.838 -6.06168 0.798132 0
M  V30 9207 H 830.012 -6.81402 1.43751 0
M  V30 9208 H 827.639 -7.36395 1.88751 0
M  V30 9209 N 829.214 0.302327 -1.54673 0
M  V30 9210 C 830.144 1.37759 -1.88533 0
M  V30 9211 C 831.125 1.52961 -0.744113 0
M  V30 9212 O 832.31 1.6649 -0.999731 0
M  V30 9213 C 829.44 2.74201 -2.13146 0
M  V30 9214 C 828.394 2.73765 -3.28993 0
M  V30 9215 C 827.72 4.13483 -3.39022 0
M  V30 9216 C 829.02 2.35624 -4.66132 0
M  V30 9217 H 830.714 1.0967 -2.78591 0
M  V30 9218 H 828.26 0.52613 -1.34044 0
M  V30 9219 H 830.213 3.49508 -2.35419 0
M  V30 9220 H 828.937 3.03812 -1.19858 0
M  V30 9221 H 827.596 2.00914 -3.06642 0
M  V30 9222 H 827.244 4.40269 -2.43253 0
M  V30 9223 H 826.944 4.14093 -4.16894 0
M  V30 9224 H 828.468 4.90572 -3.63553 0
M  V30 9225 H 829.882 3.00647 -4.88143 0
M  V30 9226 H 828.279 2.47449 -5.46707 0
M  V30 9227 H 829.349 1.30753 -4.66939 0
M  V30 9228 N 830.692 1.47107 0.565454 0
M  V30 9229 C 831.969 1.43787 1.32607 0
M  V30 9230 C 832.349 0.130428 2.10697 0
M  V30 9231 O 831.697 -0.888086 2.10536 0
M  V30 9232 C 831.907 2.67833 2.23755 0
M  V30 9233 C 833.255 3.14704 2.85037 0
M  V30 9234 O 834.279 2.68503 2.34061 0
M  V30 9235 O 833.138 3.95002 3.77671 0
M  V30 9236 H 830.232 0.572623 0.596684 0
M  V30 9237 H 832.778 1.59296 0.58504 0
M  V30 9238 H 831.55 3.54532 1.65597 0
M  V30 9239 H 831.173 2.54869 3.05168 0
M  V30 9240 N 832.17 -0.811516 1.35101 0
M  V30 9241 C 833.418 -1.56525 1.27845 0
M  V30 9242 C 833.739 -1.94435 -0.14829 0
M  V30 9243 O 833.009 -1.63203 -1.08359 0
M  V30 9244 H 831.589 -0.580433 0.47022 0
M  V30 9245 H 834.251 -0.968277 1.69146 0
M  V30 9246 H 833.347 -2.48291 1.89097 0
M  V30 9247 N 833.648 -1.19017 -1.03309 0
M  V30 9248 C 834.897 -0.984542 -1.76039 0
M  V30 9249 C 835.21 0.485937 -1.89468 0
M  V30 9250 O 836.416 0.810278 -2.59127 0
M  V30 9251 C 834.872 -1.71261 -3.1654 0
M  V30 9252 C 834.48 -3.22291 -3.11179 0
M  V30 9253 C 836.224 -1.59007 -3.93595 0
M  V30 9254 C 834.131 -3.87704 -4.46587 0
M  V30 9255 H 833.061 -0.364749 -0.659905 0
M  V30 9256 H 835.712 -1.4247 -1.15649 0
M  V30 9257 H 834.094 -1.20025 -3.77373 0
M  V30 9258 H 835.268 -3.80611 -2.59753 0
M  V30 9259 H 833.583 -3.34772 -2.47622 0
M  V30 9260 H 836.18 -2.05232 -4.93745 0
M  V30 9261 H 836.523 -0.543534 -4.12736 0
M  V30 9262 H 837.056 -2.07564 -3.39355 0
M  V30 9263 H 833.795 -4.92437 -4.3265 0
M  V30 9264 H 833.315 -3.34172 -4.98085 0
M  V30 9265 H 834.994 -3.91008 -5.15482 0
M  V30 9266 N 835.127 1.22348 -0.993418 0
M  V30 9267 C 836.404 1.86632 -0.585495 0
M  V30 9268 C 836.784 1.89156 0.937187 0
M  V30 9269 O 836.132 1.38247 1.81934 0
M  V30 9270 C 836.342 3.27481 -1.20652 0
M  V30 9271 C 837.69 4.03971 -1.30738 0
M  V30 9272 O 838.714 3.3675 -1.16096 0
M  V30 9273 O 837.573 5.24302 -1.54173 0
M  V30 9274 H 834.667 0.802704 -0.198984 0
M  V30 9275 H 837.213 1.30122 -1.08933 0
M  V30 9276 H 835.985 3.20281 -2.24802 0
M  V30 9277 H 835.608 3.91597 -0.688312 0
M  V30 9278 O 836.644 0.903602 1.33855 0
M  V30 9279 H 837.335 0.516266 1.86693 0
M  V30 END ATOM
M  V30 BEGIN BOND
M  V30 END BOND
M  V30 END CTAB
M  END
$$$$
