drugbank_target|P71447 Beta-phosphoglucomutase (DB01857; DB02317; DB02835)
 OpenBabel12092119523D

  0  0  0     0  0            999 V3000
M  V30 BEGIN CTAB
M  V30 COUNTS 3434 3464 0 0 0
M  V30 BEGIN ATOM
M  V30 1 H -0.908 1.98254 -0.117106 0
M  V30 2 N 0 1.576 0 0
M  V30 3 C 0.933 2.03868 1.02534 0
M  V30 4 C 1.911 0.928543 1.3348 0
M  V30 5 O 3.095 1.19667 1.45644 0
M  V30 6 C 0.222 2.43627 2.35294 0
M  V30 7 C -0.732 3.65373 2.2001 0
M  V30 8 S 0.101 5.13292 1.52614 0
M  V30 9 C 1.257 5.56322 2.86805 0
M  V30 10 H 1.49 2.90518 0.631377 0
M  V30 11 H -0.977 1.52953 0.210867 0
M  V30 12 H 0.981 2.67203 3.11629 0
M  V30 13 H -0.358 1.57376 2.7183 0
M  V30 14 H -1.165 3.90944 3.18086 0
M  V30 15 H -1.563 3.418 1.51819 0
M  V30 16 H 0.729 5.58782 3.83104 0
M  V30 17 H 1.672 6.56266 2.65933 0
M  V30 18 H 2.08 4.83886 2.90714 0
M  V30 19 N 1.4781 -0.272755 1.55222 0
M  V30 20 C 2.7251 -1.00433 1.7584 0
M  V30 21 C 3.0531 -1.86275 0.559629 0
M  V30 22 O 2.3081 -1.90269 -0.457857 0
M  V30 23 C 2.6071 -1.91642 3.01675 0
M  V30 24 C 2.2731 -1.21548 4.34208 0
M  V30 25 C 0.9351 -1.02166 4.70229 0
M  V30 26 C 3.2871 -0.716684 5.16249 0
M  V30 27 C 0.6151 -0.316334 5.85847 0
M  V30 28 C 2.9671 -0.0249476 6.32595 0
M  V30 29 C 1.6311 0.180579 6.67256 0
M  V30 30 H 0.9011 -0.367509 0.643443 0
M  V30 31 H 3.5481 -0.276596 1.89492 0
M  V30 32 H 1.8531 -2.71037 2.82924 0
M  V30 33 H 3.5501 -2.48369 3.14824 0
M  V30 34 H 0.1401 -1.37645 4.05896 0
M  V30 35 H 4.3241 -0.854047 4.88896 0
M  V30 36 H -0.4199 -0.146378 6.11225 0
M  V30 37 H 3.7541 0.369311 6.9542 0
M  V30 38 H 1.3811 0.729098 7.56696 0
M  V30 39 N 2.9562 -1.48159 -0.537278 0
M  V30 40 C 3.9032 -1.62138 -1.64256 0
M  V30 41 C 4.8732 -0.463668 -1.59497 0
M  V30 42 O 6.0582 -0.686241 -1.78032 0
M  V30 43 C 3.1982 -1.66028 -3.02537 0
M  V30 44 C 2.3112 -2.92855 -3.17585 0
M  V30 45 C 1.4462 -2.87952 -4.46382 0
M  V30 46 C 0.4852 -4.09516 -4.54932 0
M  V30 47 N -0.3778 -4.02733 -5.75109 0
M  V30 48 H 4.4622 -2.56529 -1.51647 0
M  V30 49 H 1.9992 -1.27224 -0.738414 0
M  V30 50 H 3.9572 -1.66265 -3.82638 0
M  V30 51 H 2.5872 -0.751331 -3.13934 0
M  V30 52 H 1.6392 -3.02395 -2.30784 0
M  V30 53 H 2.9512 -3.82822 -3.19764 0
M  V30 54 H 2.1052 -2.8655 -5.34765 0
M  V30 55 H 0.8442 -1.95702 -4.46712 0
M  V30 56 H -0.1508 -4.11201 -3.64957 0
M  V30 57 H 1.0742 -5.02917 -4.56346 0
M  V30 58 H -0.9798 -3.13299 -5.76351 0
M  V30 59 H -1.0628 -4.86397 -5.78752 0
M  V30 60 H 0.2052 -4.05379 -6.65799 0
M  V30 61 N 4.4343 0.785586 -1.36625 0
M  V30 62 C 5.3973 1.87999 -1.31107 0
M  V30 63 C 6.3973 1.59316 -0.217959 0
M  V30 64 O 7.5873 1.67656 -0.472977 0
M  V30 65 C 4.7193 3.24861 -1.03334 0
M  V30 66 H 5.9123 1.94307 -2.2844 0
M  V30 67 H 3.4653 0.983813 -1.21453 0
M  V30 68 H 4.2003 3.24235 -0.0647432 0
M  V30 69 H 3.9853 3.4707 -1.82441 0
M  V30 70 H 5.4753 4.04929 -1.02088 0
M  V30 71 N 5.9124 1.20967 1.01018 0
M  V30 72 C 7.1584 1.02526 1.74975 0
M  V30 73 C 7.4914 -0.4408 1.89131 0
M  V30 74 O 6.7664 -1.32718 1.42184 0
M  V30 75 C 7.0494 1.71699 3.1653 0
M  V30 76 C 6.9024 3.25791 3.10129 0
M  V30 77 C 8.2214 1.45531 4.15342 0
M  V30 78 H 5.3404 0.373863 0.635134 0
M  V30 79 H 7.9824 1.49071 1.17805 0
M  V30 80 H 6.1324 1.32128 3.65341 0
M  V30 81 H 7.8044 3.74697 2.69072 0
M  V30 82 H 6.0474 3.56363 2.47362 0
M  V30 83 H 6.7184 3.69353 4.10222 0
M  V30 84 H 9.1944 1.79872 3.75213 0
M  V30 85 H 8.0704 1.96453 5.1254 0
M  V30 86 H 8.3314 0.384237 4.40427 0
M  V30 87 N 7.3905 -1.2043 1.01659 0
M  V30 88 C 8.3205 -2.25466 0.607226 0
M  V30 89 C 9.3015 -1.65853 -0.377716 0
M  V30 90 O 10.4865 -1.92409 -0.263149 0
M  V30 91 C 7.6165 -3.47256 -0.0552949 0
M  V30 92 C 6.5705 -4.19462 0.850632 0
M  V30 93 C 5.8965 -5.34673 0.0538859 0
M  V30 94 C 7.1965 -4.75603 2.15868 0
M  V30 95 H 8.8905 -2.59962 1.48526 0
M  V30 96 H 6.4365 -1.2496 0.715605 0
M  V30 97 H 8.3895 -4.19917 -0.353233 0
M  V30 98 H 7.1135 -3.11924 -0.968045 0
M  V30 99 H 5.7725 -3.48667 1.13257 0
M  V30 100 H 5.4205 -4.95585 -0.860514 0
M  V30 101 H 5.1205 -5.83913 0.657192 0
M  V30 102 H 6.6445 -6.10138 -0.237598 0
M  V30 103 H 8.0585 -5.40083 1.92311 0
M  V30 104 H 6.4555 -5.3528 2.71284 0
M  V30 105 H 7.5255 -3.94346 2.82169 0
M  V30 106 N 8.8686 -0.792821 -1.36206 0
M  V30 107 C 10.1156 -0.366786 -1.99151 0
M  V30 108 C 10.4436 1.06243 -1.62919 0
M  V30 109 O 9.6986 1.74927 -0.877442 0
M  V30 110 C 9.9976 -0.481501 -3.54142 0
M  V30 111 C 9.6636 -1.87202 -4.10203 0
M  V30 112 C 8.3256 -2.25248 -4.25226 0
M  V30 113 C 10.6776 -2.78237 -4.40719 0
M  V30 114 C 8.0056 -3.53723 -4.68078 0
M  V30 115 C 10.3576 -4.06144 -4.85005 0
M  V30 116 C 9.0216 -4.44207 -4.98234 0
M  V30 117 H 8.2916 -0.134217 -0.728743 0
M  V30 118 H 10.9386 -1.01094 -1.62641 0
M  V30 119 H 9.2436 0.246146 -3.91026 0
M  V30 120 H 10.9406 -0.132844 -4.0078 0
M  V30 121 H 7.5306 -1.56639 -3.98951 0
M  V30 122 H 11.7146 -2.50097 -4.28679 0
M  V30 123 H 6.9706 -3.8308 -4.76508 0
M  V30 124 H 11.1446 -4.76796 -5.07581 0
M  V30 125 H 8.7716 -5.43814 -5.31197 0
M  V30 126 N 10.3467 1.47872 -0.545128 0
M  V30 127 C 11.6237 1.9554 0.0485222 0
M  V30 128 C 12.0037 1.4876 1.49779 0
M  V30 129 O 11.3517 0.720925 2.16829 0
M  V30 130 C 11.5617 3.48898 -0.084417 0
M  V30 131 C 12.9097 4.24547 0.0671239 0
M  V30 132 O 13.9337 3.56198 -0.0113649 0
M  V30 133 O 12.7927 5.45999 0.233882 0
M  V30 134 H 9.8867 0.823957 0.0708773 0
M  V30 135 H 12.4327 1.58327 -0.610798 0
M  V30 136 H 11.2047 3.75714 -1.09337 0
M  V30 137 H 10.8277 3.92845 0.613066 0
M  V30 138 N 11.8248 0.280983 1.55075 0
M  V30 139 C 12.7548 -0.597469 2.25727 0
M  V30 140 C 13.7358 -1.15417 1.24952 0
M  V30 141 O 14.9208 -1.18722 1.53684 0
M  V30 142 C 12.0508 -1.7789 2.98283 0
M  V30 143 C 11.0048 -1.35347 4.06036 0
M  V30 144 C 10.3308 -2.61846 4.66198 0
M  V30 145 C 11.6308 -0.499354 5.19907 0
M  V30 146 H 13.3248 -0.00824265 2.99399 0
M  V30 147 H 10.8708 -0.0025244 1.44 0
M  V30 148 H 12.8238 -2.39937 3.46422 0
M  V30 149 H 11.5478 -2.39405 2.22155 0
M  V30 150 H 10.2068 -0.756156 3.58717 0
M  V30 151 H 9.8548 -3.21632 3.86732 0
M  V30 152 H 9.5548 -2.3409 5.38958 0
M  V30 153 H 11.0788 -3.24732 5.1709 0
M  V30 154 H 12.4928 -1.02498 5.64063 0
M  V30 155 H 10.8898 -0.316424 5.99265 0
M  V30 156 H 11.9598 0.480459 4.82514 0
M  V30 157 N 13.3029 -1.57598 0.00835791 0
M  V30 158 C 14.5799 -1.82172 -0.712235 0
M  V30 159 C 14.9599 -0.887873 -1.9152 0
M  V30 160 O 14.3079 0.06146 -2.28417 0
M  V30 161 C 14.5179 -3.30875 -1.11008 0
M  V30 162 C 15.8659 -3.96826 -1.51044 0
M  V30 163 O 16.8899 -3.35248 -1.20364 0
M  V30 164 O 15.7489 -5.05318 -2.08125 0
M  V30 165 H 12.8429 -0.750435 -0.347529 0
M  V30 166 H 15.3889 -1.69665 0.0344523 0
M  V30 167 H 14.1609 -3.90481 -0.252982 0
M  V30 168 H 13.7839 -3.48412 -1.9156 0
M  V30 169 N 14.781 0.264519 -1.55364 0
M  V30 170 C 16.029 0.993021 -1.76021 0
M  V30 171 C 16.35 1.86511 -0.569099 0
M  V30 172 O 15.62 1.91438 0.415735 0
M  V30 173 H 14.2 0.369639 -0.649135 0
M  V30 174 H 16.862 0.286707 -1.9278 0
M  V30 175 H 15.958 1.62502 -2.66457 0
M  V30 176 N 16.2591 1.48442 0.529413 0
M  V30 177 C 17.5051 1.5672 1.28711 0
M  V30 178 C 17.8381 0.2406 1.92704 0
M  V30 179 O 17.1131 -0.753454 1.79313 0
M  V30 180 C 17.3961 2.70587 2.37603 0
M  V30 181 C 17.2491 4.12953 1.78297 0
M  V30 182 C 18.5681 2.80212 3.39366 0
M  V30 183 H 15.6871 0.570474 0.466613 0
M  V30 184 H 18.3291 1.80617 0.589706 0
M  V30 185 H 16.4791 2.50342 2.97088 0
M  V30 186 H 18.1511 4.44639 1.22858 0
M  V30 187 H 16.3941 4.19927 1.0883 0
M  V30 188 H 17.0651 4.88448 2.57144 0
M  V30 189 H 19.5411 2.98553 2.89836 0
M  V30 190 H 18.4171 3.61611 4.12951 0
M  V30 191 H 18.6781 1.88393 3.99951 0
M  V30 192 N 17.7372 -0.778329 1.37039 0
M  V30 193 C 18.9862 -1.53189 1.3121 0
M  V30 194 C 19.2992 -1.95328 -0.103095 0
M  V30 195 O 20.5052 -2.70012 -0.283826 0
M  V30 196 C 18.9612 -2.76591 2.30272 0
M  V30 197 C 18.5692 -2.41577 3.77286 0
M  V30 198 C 20.3132 -3.5455 2.33441 0
M  V30 199 C 18.2202 -3.61441 4.68096 0
M  V30 200 H 17.1502 -0.5751 0.487622 0
M  V30 201 H 19.8012 -0.853101 1.62464 0
M  V30 202 H 18.1832 -3.46326 1.92027 0
M  V30 203 H 19.3572 -1.79668 4.2433 0
M  V30 204 H 17.6722 -1.76806 3.76999 0
M  V30 205 H 20.2692 -4.43628 2.98493 0
M  V30 206 H 20.6122 -3.93936 1.34611 0
M  V30 207 H 21.1452 -2.91805 2.7036 0
M  V30 208 H 17.8842 -3.27142 5.6803 0
M  V30 209 H 17.4042 -4.22478 4.25761 0
M  V30 210 H 19.0832 -4.28335 4.8491 0
M  V30 211 N 19.2153 -1.21501 -1.00376 0
M  V30 212 C 20.4433 -1.059 -1.77744 0
M  V30 213 C 20.8583 0.391125 -1.84704 0
M  V30 214 O 20.2153 1.27133 -1.30933 0
M  V30 215 C 20.2663 -1.65111 -3.21591 0
M  V30 216 O 19.9873 -3.0445 -3.15027 0
M  V30 217 C 21.4883 -1.54637 -4.15454 0
M  V30 218 H 18.7083 -0.371825 -0.558558 0
M  V30 219 H 21.2523 -1.60865 -1.26264 0
M  V30 220 H 19.4073 -1.14235 -3.70175 0
M  V30 221 H 19.8213 -3.3278 -4.0541 0
M  V30 222 H 21.2953 -2.00808 -5.14179 0
M  V30 223 H 21.7723 -0.501022 -4.36333 0
M  V30 224 H 22.3783 -2.04767 -3.72761 0
M  V30 225 N 20.6934 1.19889 -1.02296 0
M  V30 226 C 21.9704 1.85148 -0.630832 0
M  V30 227 C 22.3504 1.91385 0.890782 0
M  V30 228 O 21.6984 1.42642 1.78509 0
M  V30 229 C 21.9084 3.24442 -1.28602 0
M  V30 230 C 23.2564 4.00663 -1.4055 0
M  V30 231 O 24.2804 3.33818 -1.24273 0
M  V30 232 O 23.1394 5.20387 -1.66913 0
M  V30 233 H 20.2334 0.797613 -0.218499 0
M  V30 234 H 22.7794 1.27427 -1.12074 0
M  V30 235 H 21.5514 3.14704 -2.32545 0
M  V30 236 H 21.1744 3.89802 -0.7836 0
M  V30 237 N 22.1715 0.800033 1.35784 0
M  V30 238 C 23.3995 0.389606 2.03199 0
M  V30 239 C 23.8145 -0.997375 1.60306 0
M  V30 240 O 23.1715 -1.64154 0.797481 0
M  V30 241 C 23.2225 0.455855 3.58614 0
M  V30 242 O 22.9435 1.78815 3.99946 0
M  V30 243 C 24.4445 0.0374032 4.43284 0
M  V30 244 H 21.6645 0.159132 0.651857 0
M  V30 245 H 24.2085 1.08183 1.73541 0
M  V30 246 H 22.3635 -0.188057 3.86943 0
M  V30 247 H 22.7775 1.74636 4.94573 0
M  V30 248 H 24.2515 0.134882 5.51835 0
M  V30 249 H 24.7285 -1.01651 4.27275 0
M  V30 250 H 25.3345 0.654215 4.20238 0
M  V30 251 N 23.6496 -1.47581 0.552962 0
M  V30 252 C 24.6126 -2.28439 -0.186605 0
M  V30 253 C 25.6126 -1.36706 -0.84665 0
M  V30 254 O 26.8026 -1.59378 -0.703164 0
M  V30 255 C 23.9346 -3.16264 -1.2724 0
M  V30 256 H 25.1276 -2.95294 0.523609 0
M  V30 257 H 22.6806 -1.532 0.309745 0
M  V30 258 H 23.4156 -2.54091 -2.01514 0
M  V30 259 H 23.2006 -3.83769 -0.803968 0
M  V30 260 H 24.6906 -3.77198 -1.79196 0
M  V30 261 N 25.1277 -0.289203 -1.54924 0
M  V30 262 C 26.0377 0.601863 -2.26748 0
M  V30 263 C 27.0537 1.15834 -1.2984 0
M  V30 264 O 28.2297 1.18564 -1.62802 0
M  V30 265 C 25.2947 1.76299 -2.98529 0
M  V30 266 C 24.3557 1.24178 -4.10948 0
M  V30 267 C 23.5887 2.34757 -4.79296 0
M  V30 268 O 23.8117 3.54411 -4.46933 0
M  V30 269 O 22.7457 2.02115 -5.66951 0
M  V30 270 H 26.5717 0.0195879 -3.03694 0
M  V30 271 H 24.1567 -0.0560868 -1.49295 0
M  V30 272 H 26.0387 2.43973 -3.43592 0
M  V30 273 H 24.7137 2.33209 -2.24488 0
M  V30 274 H 23.6207 0.531104 -3.70311 0
M  V30 275 H 24.9537 0.718252 -4.86931 0
M  V30 276 N 26.6058 1.57591 -0.0167156 0
M  V30 277 C 27.8358 1.95292 0.674149 0
M  V30 278 C 28.2438 0.891097 1.66901 0
M  V30 279 O 27.5868 -0.136908 1.83189 0
M  V30 280 C 27.6488 3.29072 1.44747 0
M  V30 281 C 27.3128 4.52879 0.612331 0
M  V30 282 C 28.3098 5.1979 -0.107126 0
M  V30 283 C 25.9948 4.99242 0.553381 0
M  V30 284 C 27.9888 6.31375 -0.874339 0
M  V30 285 C 25.6758 6.10713 -0.217546 0
M  V30 286 C 26.6738 6.76637 -0.930123 0
M  V30 287 O 26.3618 7.85969 -1.68844 0
M  V30 288 H 26.0938 0.648275 0.191615 0
M  V30 289 H 28.6478 2.05284 -0.0690148 0
M  V30 290 H 26.8778 3.15535 2.2355 0
M  V30 291 H 28.5668 3.51764 2.02526 0
M  V30 292 H 29.3328 4.84948 -0.0708392 0
M  V30 293 H 25.2118 4.47744 1.09757 0
M  V30 294 H 28.7558 6.82764 -1.43106 0
M  V30 295 H 24.6528 6.44994 -0.255593 0
M  V30 296 H 25.4208 8.02571 -1.6069 0
M  V30 297 N 28.0839 -0.256276 1.55502 0
M  V30 298 C 29.0339 -1.31981 1.85916 0
M  V30 299 C 30.0179 -1.43927 0.719296 0
M  V30 300 O 31.2099 -1.47326 0.981019 0
M  V30 301 C 28.3389 -2.67703 2.14918 0
M  V30 302 C 27.4249 -2.59801 3.35208 0
M  V30 303 N 27.8159 -2.21524 4.54709 0
M  V30 304 C 26.1139 -2.90832 3.38131 0
M  V30 305 C 26.8149 -2.24024 5.36832 0
M  V30 306 N 25.7909 -2.63158 4.75656 0
M  V30 307 H 29.5929 -1.01423 2.75845 0
M  V30 308 H 27.1069 -0.464911 1.55603 0
M  V30 309 H 29.1039 -3.44445 2.34869 0
M  V30 310 H 27.7639 -2.99137 1.26282 0
M  V30 311 H 28.7749 -1.93223 4.80505 0
M  V30 312 H 25.4519 -3.26867 2.59739 0
M  V30 313 H 26.8419 -1.9685 6.42417 0
M  V30 314 N 29.562 -1.4872 -0.521534 0
M  V30 315 C 30.809 -1.57168 -1.27689 0
M  V30 316 C 31.137 -0.249275 -1.92896 0
M  V30 317 O 30.392 0.761162 -1.80291 0
M  V30 318 C 30.691 -2.66497 -2.38148 0
M  V30 319 C 30.357 -4.08664 -1.90538 0
M  V30 320 C 29.019 -4.47357 -1.77271 0
M  V30 321 C 31.371 -4.97724 -1.54663 0
M  V30 322 C 28.699 -5.72905 -1.26478 0
M  V30 323 C 31.051 -6.2377 -1.05329 0
M  V30 324 C 29.715 -6.61311 -0.906861 0
M  V30 325 H 28.985 -0.575117 -0.467249 0
M  V30 326 H 31.632 -1.82472 -0.581051 0
M  V30 327 H 29.937 -2.35085 -3.13437 0
M  V30 328 H 31.634 -2.70246 -2.96257 0
M  V30 329 H 28.224 -3.78111 -2.01816 0
M  V30 330 H 32.408 -4.68501 -1.63768 0
M  V30 331 H 27.664 -6.00709 -1.13835 0
M  V30 332 H 31.838 -6.9217 -0.76644 0
M  V30 333 H 29.465 -7.5848 -0.511083 0
M  V30 334 N 31.0401 0.771051 -1.3745 0
M  V30 335 C 32.4561 1.07171 -1.18265 0
M  V30 336 C 32.6561 2.01491 -0.019287 0
M  V30 337 O 31.7121 2.44244 0.640408 0
M  V30 338 C 33.0251 1.66854 -2.50161 0
M  V30 339 C 34.5731 1.79109 -2.56689 0
M  V30 340 C 35.0481 2.42205 -3.88717 0
M  V30 341 N 36.5391 2.49655 -3.90162 0
M  V30 342 C 37.2741 2.9933 -4.8907 0
M  V30 343 N 36.7701 3.49172 -5.98374 0
M  V30 344 N 38.5631 2.9821 -4.76474 0
M  V30 345 H 30.7141 0.144796 -2.11906 0
M  V30 346 H 32.9771 0.126863 -0.939473 0
M  V30 347 H 32.6831 1.05017 -3.35655 0
M  V30 348 H 32.5571 2.6614 -2.673 0
M  V30 349 H 34.9441 2.40077 -1.71601 0
M  V30 350 H 35.0251 0.785757 -2.43433 0
M  V30 351 H 34.6691 1.81875 -4.74219 0
M  V30 352 H 34.5991 3.43345 -3.99276 0
M  V30 353 H 37.0901 2.14383 -3.11205 0
M  V30 354 H 37.4031 3.8548 -6.69795 0
M  V30 355 H 35.7481 3.47275 -6.02018 0
M  V30 356 H 38.9391 2.58572 -3.90203 0
M  V30 357 H 39.1121 3.36613 -5.53711 0
M  V30 358 N 32.5182 1.22032 0.997298 0
M  V30 359 C 33.4812 0.987909 2.06816 0
M  V30 360 C 34.4812 -0.0440084 1.6074 0
M  V30 361 O 35.6712 0.194053 1.73116 0
M  V30 362 C 32.8032 0.49132 3.37341 0
M  V30 363 H 33.9962 1.93803 2.28868 0
M  V30 364 H 31.5492 1.03838 1.16822 0
M  V30 365 H 32.2842 -0.463364 3.20973 0
M  V30 366 H 32.0692 1.23575 3.72118 0
M  V30 367 H 33.5592 0.348824 4.16141 0
M  V30 368 N 33.9963 -1.19345 1.0293 0
M  V30 369 C 35.2423 -1.89585 0.736824 0
M  V30 370 C 35.5973 -1.78148 -0.726703 0
M  V30 371 O 34.8903 -1.16332 -1.52242 0
M  V30 372 C 35.0843 -3.39292 1.12319 0
M  V30 373 C 34.9133 -3.65298 2.62273 0
M  V30 374 C 33.6833 -3.83304 3.29251 0
M  V30 375 C 35.8813 -3.6682 3.60482 0
M  V30 376 N 33.8633 -3.96944 4.68304 0
M  V30 377 C 35.2343 -3.86037 4.85155 0
M  V30 378 C 37.2893 -3.49848 3.54275 0
M  V30 379 C 35.9923 -3.9004 6.04369 0
M  V30 380 C 38.0183 -3.55129 4.72903 0
M  V30 381 C 37.3803 -3.74831 5.9639 0
M  V30 382 H 33.4793 -0.712856 0.321497 0
M  V30 383 H 36.0633 -1.43427 1.31669 0
M  V30 384 H 34.2343 -3.84172 0.571524 0
M  V30 385 H 35.9663 -3.97055 0.78292 0
M  V30 386 H 32.7213 -3.82211 2.79663 0
M  V30 387 H 33.1453 -4.07613 5.40538 0
M  V30 388 H 37.7873 -3.33572 2.59788 0
M  V30 389 H 35.5053 -4.05108 6.99223 0
M  V30 390 H 39.0913 -3.43287 4.69729 0
M  V30 391 H 37.9713 -3.78792 6.86649 0
M  V30 392 N 35.4744 -0.807222 -1.35358 0
M  V30 393 C 36.4214 -0.216037 -2.29787 0
M  V30 394 C 37.3914 0.650278 -1.52842 0
M  V30 395 O 38.5764 0.595227 -1.81278 0
M  V30 396 C 35.7164 0.628893 -3.39321 0
M  V30 397 C 34.8294 -0.257927 -4.31229 0
M  V30 398 C 33.9644 0.595069 -5.27856 0
M  V30 399 C 33.0034 -0.292111 -6.11403 0
M  V30 400 N 32.1404 0.520895 -7.00165 0
M  V30 401 H 36.9804 -1.02671 -2.79755 0
M  V30 402 H 34.5174 -0.517839 -1.37684 0
M  V30 403 H 36.4754 1.13393 -4.01494 0
M  V30 404 H 35.1054 1.40482 -2.90628 0
M  V30 405 H 34.1574 -0.881076 -3.70056 0
M  V30 406 H 35.4694 -0.940759 -4.89848 0
M  V30 407 H 34.6234 1.16522 -5.95405 0
M  V30 408 H 33.3624 1.31146 -4.69736 0
M  V30 409 H 32.3674 -0.874525 -5.428 0
M  V30 410 H 33.5924 -1.00638 -6.71602 0
M  V30 411 H 31.5384 1.22125 -6.44532 0
M  V30 412 H 31.4554 -0.103877 -7.55929 0
M  V30 413 H 32.7234 1.0743 -7.72062 0
M  V30 414 N 36.9525 1.47285 -0.560781 0
M  V30 415 C 37.9155 2.28535 0.174488 0
M  V30 416 C 38.9155 1.37153 0.839388 0
M  V30 417 O 40.1055 1.59748 0.694702 0
M  V30 418 C 37.2375 3.16934 1.25561 0
M  V30 419 H 38.4305 2.95012 -0.539262 0
M  V30 420 H 35.9835 1.53034 -0.317865 0
M  V30 421 H 36.7185 2.55157 2.00164 0
M  V30 422 H 36.5035 3.8419 0.783604 0
M  V30 423 H 37.9935 3.78143 1.77193 0
M  V30 424 N 38.4306 0.297415 1.54768 0
M  V30 425 C 39.3606 -0.573494 2.26348 0
M  V30 426 C 40.3416 -1.14085 1.26169 0
M  V30 427 O 41.5266 -1.17086 1.54934 0
M  V30 428 C 38.6566 -1.74716 3.00153 0
M  V30 429 C 37.6106 -1.31032 4.07449 0
M  V30 430 C 36.9366 -2.56887 4.68949 0
M  V30 431 C 38.2366 -0.444183 5.20408 0
M  V30 432 H 39.9306 0.0235131 2.99391 0
M  V30 433 H 37.4766 0.0127488 1.43994 0
M  V30 434 H 39.4296 -2.3625 3.48947 0
M  V30 435 H 38.1536 -2.37035 2.24682 0
M  V30 436 H 36.8126 -0.718066 3.59499 0
M  V30 437 H 36.4606 -3.17512 3.90122 0
M  V30 438 H 36.1606 -2.2836 5.41411 0
M  V30 439 H 37.6846 -3.19229 5.20505 0
M  V30 440 H 39.0986 -0.9651 5.65118 0
M  V30 441 H 37.4956 -0.252846 5.99567 0
M  V30 442 H 38.5656 0.531609 4.81977 0
M  V30 443 N 39.9087 -1.5758 0.0250728 0
M  V30 444 C 40.8717 -2.08896 -0.943139 0
M  V30 445 C 41.8717 -1.00321 -1.25668 0
M  V30 446 O 43.0617 -1.26495 -1.19769 0
M  V30 447 C 40.1937 -2.55143 -2.26086 0
M  V30 448 H 41.3867 -2.95723 -0.498775 0
M  V30 449 H 38.9397 -1.54703 -0.222888 0
M  V30 450 H 39.6747 -1.71633 -2.75159 0
M  V30 451 H 39.4597 -3.34461 -2.04641 0
M  V30 452 H 40.9497 -2.95083 -2.95492 0
M  V30 453 N 41.3868 0.248026 -1.55636 0
M  V30 454 C 42.2968 1.32859 -1.93354 0
M  V30 455 C 43.3128 1.52719 -0.833838 0
M  V30 456 O 44.4888 1.66363 -1.13513 0
M  V30 457 C 41.5538 2.66337 -2.21958 0
M  V30 458 C 40.6148 2.55008 -3.45354 0
M  V30 459 C 39.8478 3.82121 -3.72584 0
M  V30 460 O 40.0708 4.83951 -3.01907 0
M  V30 461 O 39.0048 3.80822 -4.6611 0
M  V30 462 H 42.8308 1.03862 -2.85388 0
M  V30 463 H 40.4158 0.448686 -1.42503 0
M  V30 464 H 42.2978 3.45216 -2.4167 0
M  V30 465 H 40.9728 2.95068 -1.33103 0
M  V30 466 H 39.8798 1.7442 -3.30951 0
M  V30 467 H 41.2128 2.31222 -4.34508 0
M  V30 468 N 42.8649 1.48995 0.513639 0
M  V30 469 C 43.7749 1.67443 1.64317 0
M  V30 470 C 44.7909 0.556947 1.64846 0
M  V30 471 O 45.9669 0.830082 1.83498 0
M  V30 472 C 43.0319 1.72515 3.00732 0
M  V30 473 C 42.0929 2.96009 3.1093 0
M  V30 474 C 41.3259 3.00829 4.40837 0
M  V30 475 O 41.5489 2.13594 5.28898 0
M  V30 476 O 40.4829 3.93168 4.55744 0
M  V30 477 H 44.3089 2.63106 1.51687 0
M  V30 478 H 41.8939 1.32588 0.688543 0
M  V30 479 H 43.7759 1.78277 3.81831 0
M  V30 480 H 42.4509 0.800278 3.13651 0
M  V30 481 H 41.3579 2.9577 2.29065 0
M  V30 482 H 42.6909 3.87934 3.02933 0
M  V30 483 N 44.343 -0.763751 1.37857 0
M  V30 484 C 45.592 -1.51789 1.32827 0
M  V30 485 C 45.905 -1.95426 -0.0823719 0
M  V30 486 O 47.111 -2.70298 -0.255172 0
M  V30 487 C 45.567 -2.74133 2.33193 0
M  V30 488 C 45.175 -2.37562 3.79827 0
M  V30 489 C 46.919 -3.52054 2.37188 0
M  V30 490 C 44.826 -3.56456 4.71904 0
M  V30 491 H 43.756 -0.569896 0.493695 0
M  V30 492 H 46.407 -0.835822 1.63359 0
M  V30 493 H 44.789 -3.4427 1.9569 0
M  V30 494 H 45.963 -1.75157 4.26212 0
M  V30 495 H 44.278 -1.72798 3.78853 0
M  V30 496 H 46.875 -4.40437 3.03182 0
M  V30 497 H 47.218 -3.92486 1.38782 0
M  V30 498 H 47.751 -2.88921 2.7344 0
M  V30 499 H 44.49 -3.21099 5.71468 0
M  V30 500 H 44.01 -4.17938 4.30218 0
M  V30 501 H 45.689 -4.23168 4.89426 0
M  V30 502 N 45.8211 -1.22559 -0.990812 0
M  V30 503 C 47.0691 -1.04933 -1.72724 0
M  V30 504 C 47.3901 0.416158 -1.90508 0
M  V30 505 O 46.6601 1.29918 -1.46622 0
M  V30 506 H 45.2401 -0.385296 -0.639965 0
M  V30 507 H 47.9021 -1.54105 -1.19322 0
M  V30 508 H 46.9981 -1.52886 -2.72089 0
M  V30 509 N 47.2992 1.18797 -1.03562 0
M  V30 510 C 48.5482 1.87978 -0.731235 0
M  V30 511 C 48.8612 1.80911 0.743671 0
M  V30 512 O 50.0672 2.45407 1.16137 0
M  V30 513 C 48.5232 3.3721 -1.25768 0
M  V30 514 C 48.1312 3.52818 -2.76085 0
M  V30 515 C 49.8752 4.11825 -1.0296 0
M  V30 516 C 47.7822 4.9598 -3.22114 0
M  V30 517 H 46.7122 0.704063 -0.269835 0
M  V30 518 H 49.3632 1.34266 -1.25079 0
M  V30 519 H 47.7452 3.90359 -0.666011 0
M  V30 520 H 48.9192 3.09965 -3.40966 0
M  V30 521 H 47.2342 2.91602 -2.97249 0
M  V30 522 H 49.8312 5.17411 -1.34869 0
M  V30 523 H 50.1742 4.16287 0.0333546 0
M  V30 524 H 50.7072 3.64833 -1.58562 0
M  V30 525 H 47.4462 4.96684 -4.27768 0
M  V30 526 H 46.9662 5.39569 -2.61965 0
M  V30 527 H 48.6452 5.6467 -3.15844 0
M  V30 528 N 48.7773 0.814389 1.34928 0
M  V30 529 C 49.7253 0.218424 2.31572 0
M  V30 530 C 50.7193 -0.636128 1.57002 0
M  V30 531 O 51.9253 -0.52842 1.72069 0
M  V30 532 H 48.3003 0.0518799 0.750208 0
M  V30 533 H 50.2713 1.04852 2.79372 0
M  V30 534 C 49.0203 -0.61207 3.4227 0
M  V30 535 H 48.3433 0.0361578 3.99784 0
M  V30 536 H 49.7833 -0.995317 4.12152 0
M  V30 537 C 48.2423 -1.78087 2.85984 0
M  V30 538 O 48.7723 -2.8787 2.80168 0
M  V30 539 N 46.9783 -1.59488 2.42924 0
M  V30 540 H 46.5253 -0.701874 2.47854 0
M  V30 541 H 46.4833 -2.37846 2.05613 0
M  V30 542 N 50.2554 -1.46986 0.568584 0
M  V30 543 C 51.5034 -2.02041 0.0487022 0
M  V30 544 C 51.8244 -1.44408 -1.31039 0
M  V30 545 O 51.0944 -0.623477 -1.85714 0
M  V30 546 H 49.6744 -0.746849 0.015014 0
M  V30 547 H 52.3364 -1.80257 0.741168 0
M  V30 548 H 51.4324 -3.12085 -0.0308961 0
M  V30 549 N 51.7335 -0.305618 -1.54608 0
M  V30 550 C 52.9795 0.302746 -2.00528 0
M  V30 551 C 53.3125 1.53184 -1.19367 0
M  V30 552 O 52.5875 1.92598 -0.271321 0
M  V30 553 C 52.8705 0.654756 -3.54097 0
M  V30 554 C 52.7235 -0.583793 -4.45995 0
M  V30 555 C 54.0425 1.47947 -4.14487 0
M  V30 556 H 51.1615 0.108564 -0.72896 0
M  V30 557 H 53.8035 -0.418634 -1.85331 0
M  V30 558 H 51.9535 1.26935 -3.67178 0
M  V30 559 H 53.6255 -1.22224 -4.44814 0
M  V30 560 H 51.8685 -1.21615 -4.16404 0
M  V30 561 H 52.5395 -0.293287 -5.5122 0
M  V30 562 H 55.0155 0.96013 -4.04871 0
M  V30 563 H 53.8915 1.69454 -5.22088 0
M  V30 564 H 54.1525 2.47011 -3.66658 0
M  V30 565 N 53.2116 1.57565 -0.0334293 0
M  V30 566 C 54.4886 1.83282 0.683163 0
M  V30 567 C 54.8686 0.91823 1.90084 0
M  V30 568 O 54.2166 -0.025113 2.28486 0
M  V30 569 C 54.4266 3.32599 1.0573 0
M  V30 570 C 55.7746 3.99179 1.44711 0
M  V30 571 O 56.7986 3.3712 1.15015 0
M  V30 572 O 55.6576 5.08565 2.0006 0
M  V30 573 H 52.7516 0.755869 0.335546 0
M  V30 574 H 55.2976 1.69589 -0.0614402 0
M  V30 575 H 54.0696 3.90834 0.190828 0
M  V30 576 H 53.6926 3.51415 1.85993 0
M  V30 577 N 54.6897 -0.239769 1.55765 0
M  V30 578 C 56.1057 -0.588624 1.48349 0
M  V30 579 C 56.3057 -1.88005 0.72502 0
M  V30 580 O 55.3617 -2.51186 0.257269 0
M  V30 581 C 56.6747 -0.68474 2.928 0
M  V30 582 C 58.2227 -0.77659 3.03213 0
M  V30 583 C 58.6977 -0.904207 4.48986 0
M  V30 584 N 60.1887 -0.968896 4.52953 0
M  V30 585 C 60.9237 -1.08703 5.63002 0
M  V30 586 N 60.4197 -1.17026 6.82845 0
M  V30 587 N 62.2127 -1.12074 5.50814 0
M  V30 588 H 54.3637 0.607911 2.03515 0
M  V30 589 H 56.6267 0.21083 0.924259 0
M  V30 590 H 56.3327 0.194284 3.51163 0
M  V30 591 H 56.2067 -1.55435 3.43686 0
M  V30 592 H 58.5937 -1.64606 2.44926 0
M  V30 593 H 58.6747 0.118315 2.55526 0
M  V30 594 H 58.3187 -0.0392633 5.07885 0
M  V30 595 H 58.2487 -1.81426 4.9436 0
M  V30 596 H 60.7397 -0.915633 3.6664 0
M  V30 597 H 61.0527 -1.25966 7.62465 0
M  V30 598 H 59.3977 -1.13971 6.85591 0
M  V30 599 H 62.5887 -1.05226 4.5612 0
M  V30 600 H 62.7617 -1.20936 6.36615 0
M  V30 601 N 56.1678 -1.49265 -0.50573 0
M  V30 602 C 57.0998 -1.617 -1.62437 0
M  V30 603 C 58.1128 -0.499924 -1.54934 0
M  V30 604 O 59.3018 -0.771785 -1.60953 0
M  V30 605 C 56.4018 -1.5533 -3.01207 0
M  V30 606 C 55.5748 -2.8249 -3.33943 0
M  V30 607 C 54.6338 -2.69238 -4.52103 0
M  V30 608 O 53.6598 -3.43167 -4.5412 0
M  V30 609 N 54.8618 -1.80468 -5.51735 0
M  V30 610 H 57.6268 -2.58177 -1.52199 0
M  V30 611 H 55.1878 -1.46294 -0.693511 0
M  V30 612 H 57.1798 -1.44125 -3.78167 0
M  V30 613 H 55.7498 -0.667297 -3.05395 0
M  V30 614 H 54.9698 -3.08081 -2.45926 0
M  V30 615 H 56.2578 -3.66802 -3.5261 0
M  V30 616 H 55.6558 -1.19653 -5.52901 0
M  V30 617 H 54.2128 -1.75188 -6.27816 0
M  V30 618 N 57.6459 0.756429 -1.3826 0
M  V30 619 C 58.8929 1.51547 -1.34312 0
M  V30 620 C 59.2209 1.94382 0.0677144 0
M  V30 621 O 58.4759 1.65514 1.04421 0
M  V30 622 C 58.7749 2.78313 -2.24224 0
M  V30 623 C 58.4409 2.54455 -3.72241 0
M  V30 624 C 57.1029 2.47657 -4.12576 0
M  V30 625 C 59.4549 2.3354 -4.65949 0
M  V30 626 C 56.7829 2.17956 -5.44713 0
M  V30 627 C 59.1349 2.05359 -5.9834 0
M  V30 628 C 57.7989 1.97016 -6.37762 0
M  V30 629 H 57.0689 0.55455 -0.491482 0
M  V30 630 H 59.7159 0.870039 -1.70595 0
M  V30 631 H 58.0209 3.47492 -1.80987 0
M  V30 632 H 59.7179 3.36259 -2.18474 0
M  V30 633 H 56.3079 2.60616 -3.40261 0
M  V30 634 H 60.4919 2.37772 -4.35635 0
M  V30 635 H 55.7479 2.10003 -5.74203 0
M  V30 636 H 59.9219 1.88179 -6.70494 0
M  V30 637 H 57.5489 1.73766 -7.40074 0
M  V30 638 N 59.124 1.23083 0.984299 0
M  V30 639 C 60.072 1.00593 2.09723 0
M  V30 640 C 61.066 -0.0538014 1.69315 0
M  V30 641 O 62.272 0.0993719 1.79725 0
M  V30 642 H 58.647 0.30817 0.685956 0
M  V30 643 H 60.618 1.95012 2.2586 0
M  V30 644 C 59.367 0.609601 3.42314 0
M  V30 645 H 58.69 1.41675 3.73856 0
M  V30 646 H 60.13 0.491726 4.21139 0
M  V30 647 C 58.589 -0.681745 3.2993 0
M  V30 648 O 59.119 -1.73192 3.62446 0
M  V30 649 N 57.325 -0.656178 2.83095 0
M  V30 650 H 56.872 0.198759 2.56832 0
M  V30 651 H 56.83 -1.52044 2.75191 0
M  V30 652 N 60.6021 -1.18246 1.0419 0
M  V30 653 C 61.5121 -2.25574 0.644476 0
M  V30 654 C 62.5281 -1.70845 -0.329826 0
M  V30 655 O 63.7041 -2.00554 -0.184443 0
M  V30 656 C 60.7691 -3.46697 0.014877 0
M  V30 657 C 59.8301 -4.16554 1.03834 0
M  V30 658 C 59.0631 -5.31894 0.438692 0
M  V30 659 O 59.2861 -5.65385 -0.754752 0
M  V30 660 O 58.2201 -5.90459 1.168 0
M  V30 661 H 62.0461 -2.61836 1.53869 0
M  V30 662 H 59.6311 -1.25352 0.812854 0
M  V30 663 H 61.5131 -4.20062 -0.335538 0
M  V30 664 H 60.1881 -3.12255 -0.853138 0
M  V30 665 H 59.0951 -3.45251 1.44057 0
M  V30 666 H 60.4281 -4.54998 1.87716 0
M  V30 667 N 62.0802 -0.821533 -1.34494 0
M  V30 668 C 63.0122 -0.199946 -2.28326 0
M  V30 669 C 64.0252 0.609377 -1.50965 0
M  V30 670 O 65.2142 0.439285 -1.7301 0
M  V30 671 C 62.3142 0.738431 -3.30757 0
M  V30 672 C 61.4872 -0.0277632 -4.37391 0
M  V30 673 C 60.5462 0.831332 -5.19591 0
M  V30 674 O 59.5722 0.276822 -5.68526 0
M  V30 675 N 60.7742 2.15132 -5.39165 0
M  V30 676 H 63.5392 -1.00609 -2.82308 0
M  V30 677 H 61.1002 -0.678366 -1.47003 0
M  V30 678 H 63.0922 1.31773 -3.82646 0
M  V30 679 H 61.6622 1.44533 -2.7718 0
M  V30 680 H 60.8822 -0.788359 -3.86236 0
M  V30 681 H 62.1702 -0.555251 -5.05761 0
M  V30 682 H 61.5682 2.62559 -5.01078 0
M  V30 683 H 60.1252 2.6795 -5.94177 0
M  V30 684 N 63.5583 1.46682 -0.576371 0
M  V30 685 C 64.4883 2.33028 0.148397 0
M  V30 686 C 65.4693 1.44961 0.889956 0
M  V30 687 O 66.6543 1.73789 0.866662 0
M  V30 688 C 63.7843 3.27117 1.1667 0
M  V30 689 C 62.7383 4.24575 0.540386 0
M  V30 690 C 62.0643 5.08126 1.6647 0
M  V30 691 C 63.3643 5.19722 -0.518331 0
M  V30 692 H 65.0583 2.93875 -0.572509 0
M  V30 693 H 62.6043 1.41315 -0.276768 0
M  V30 694 H 64.5573 3.86374 1.68204 0
M  V30 695 H 63.2813 2.64364 1.9178 0
M  V30 696 H 61.9403 3.66571 0.0461769 0
M  V30 697 H 61.5883 4.41762 2.40531 0
M  V30 698 H 61.2883 5.74122 1.25131 0
M  V30 699 H 62.8123 5.70246 2.18293 0
M  V30 700 H 64.2263 5.73232 -0.0883058 0
M  V30 701 H 62.6233 5.94026 -0.851679 0
M  V30 702 H 63.6933 4.64037 -1.40703 0
M  V30 703 N 65.0364 0.313813 1.54444 0
M  V30 704 C 65.9834 -0.55655 2.23989 0
M  V30 705 C 66.9534 -1.11943 1.22711 0
M  V30 706 O 68.1384 -1.16158 1.51367 0
M  V30 707 C 65.2784 -1.71635 2.99392 0
M  V30 708 C 64.3914 -1.18364 4.15468 0
M  V30 709 C 63.5264 -2.30834 4.78424 0
M  V30 710 C 62.5654 -1.74762 5.86622 0
M  V30 711 N 61.7024 -2.80855 6.43479 0
M  V30 712 H 66.5424 0.0430893 2.97969 0
M  V30 713 H 64.0794 0.0330359 1.47063 0
M  V30 714 H 66.0374 -2.39868 3.41349 0
M  V30 715 H 64.6674 -2.28742 2.27765 0
M  V30 716 H 63.7194 -0.393163 3.78363 0
M  V30 717 H 65.0314 -0.733262 4.93381 0
M  V30 718 H 64.1854 -3.0699 5.23299 0
M  V30 719 H 62.9244 -2.79204 3.99871 0
M  V30 720 H 61.9294 -0.970995 5.41158 0
M  V30 721 H 63.1544 -1.2728 6.67066 0
M  V30 722 H 61.1004 -3.28535 5.67804 0
M  V30 723 H 61.0174 -2.40351 7.16776 0
M  V30 724 H 62.2854 -3.5687 6.93011 0
M  V30 725 N 66.5145 -1.57545 0.0417849 0
M  V30 726 C 67.7625 -1.91937 -0.632829 0
M  V30 727 C 68.0835 -0.919978 -1.71934 0
M  V30 728 O 67.3535 0.0366064 -1.95866 0
M  V30 729 H 65.9335 -0.708493 -0.236742 0
M  V30 730 H 68.5955 -1.9468 0.0925745 0
M  V30 731 H 67.6915 -2.92912 -1.07746 0
M  V30 732 N 67.9926 0.231505 -1.5589 0
M  V30 733 C 69.2386 0.95877 -1.78705 0
M  V30 734 C 69.5716 1.8438 -0.609725 0
M  V30 735 O 68.8466 1.90521 0.391426 0
M  V30 736 C 69.1296 1.8062 -3.11526 0
M  V30 737 C 68.9826 0.948328 -4.39689 0
M  V30 738 C 70.3016 2.78585 -3.40703 0
M  V30 739 H 67.4206 0.347129 -0.650131 0
M  V30 740 H 70.0626 0.228259 -1.88624 0
M  V30 741 H 68.2126 2.42902 -3.03201 0
M  V30 742 H 69.8846 0.343016 -4.60023 0
M  V30 743 H 68.1276 0.253314 -4.3306 0
M  V30 744 H 68.7986 1.57543 -5.29041 0
M  V30 745 H 71.2746 2.26439 -3.49091 0
M  V30 746 H 70.1506 3.34988 -4.34826 0
M  V30 747 H 70.4116 3.55825 -2.62375 0
M  V30 748 N 69.4707 1.49531 0.497807 0
M  V30 749 C 70.6957 1.63159 1.28039 0
M  V30 750 C 71.1207 0.30418 1.85624 0
M  V30 751 O 70.4787 -0.728618 1.66015 0
M  V30 752 C 70.5267 2.70537 2.38416 0
M  V30 753 O 69.6307 2.29931 3.42353 0
M  V30 754 H 68.9717 0.546001 0.377861 0
M  V30 755 H 71.5017 1.9574 0.59558 0
M  V30 756 H 71.5117 2.92802 2.84132 0
M  V30 757 H 70.1867 3.6689 1.95869 0
M  V30 758 H 68.7637 2.18009 3.02533 0
M  V30 759 N 70.9488 -0.749086 1.3866 0
M  V30 760 C 72.3648 -1.05276 1.19955 0
M  V30 761 C 72.5648 -2.01435 0.05134 0
M  V30 762 O 71.6208 -2.45232 -0.60147 0
M  V30 763 C 72.9338 -1.62853 2.52783 0
M  V30 764 C 74.4818 -1.75002 2.59506 0
M  V30 765 C 74.9568 -2.35991 3.92521 0
M  V30 766 N 76.4478 -2.43416 3.94085 0
M  V30 767 C 77.1828 -2.91511 4.9377 0
M  V30 768 N 76.6788 -3.39608 6.03853 0
M  V30 769 N 78.4718 -2.90592 4.81157 0
M  V30 770 H 70.6228 -0.111066 2.12109 0
M  V30 771 H 72.8858 -0.111901 0.941373 0
M  V30 772 H 72.5918 -0.99664 3.37283 0
M  V30 773 H 72.4658 -2.61854 2.715 0
M  V30 774 H 74.8528 -2.37317 1.75398 0
M  V30 775 H 74.9338 -0.74693 2.44652 0
M  V30 776 H 74.5778 -1.74308 4.77053 0
M  V30 777 H 74.5078 -3.3695 4.04688 0
M  V30 778 H 76.9988 -2.09405 3.14576 0
M  V30 779 H 77.3118 -3.74775 6.75843 0
M  V30 780 H 75.6568 -3.37653 6.07466 0
M  V30 781 H 78.8478 -2.52332 3.94267 0
M  V30 782 H 79.0208 -3.27762 5.58996 0
M  V30 783 N 72.4269 -1.23603 -0.977757 0
M  V30 784 C 73.3369 -1.03632 -2.1047 0
M  V30 785 C 74.3529 0.0199435 -1.73989 0
M  V30 786 O 75.5289 -0.176076 -2.00629 0
M  V30 787 C 72.5939 -0.63276 -3.40877 0
M  V30 788 C 71.6549 -1.76437 -3.91367 0
M  V30 789 C 70.8879 -1.37997 -5.15551 0
M  V30 790 O 71.1109 -0.265357 -5.69782 0
M  V30 791 O 70.0449 -2.20201 -5.60174 0
M  V30 792 H 73.8709 -1.98086 -2.30208 0
M  V30 793 H 71.4559 -1.02332 -1.08851 0
M  V30 794 H 73.3379 -0.418761 -4.19314 0
M  V30 795 H 72.0129 0.282754 -3.22463 0
M  V30 796 H 70.9199 -2.03304 -3.14036 0
M  V30 797 H 72.2529 -2.6583 -4.14241 0
M  V30 798 N 73.905 1.17692 -1.04816 0
M  V30 799 C 75.182 1.83768 -0.669963 0
M  V30 800 C 75.562 1.93232 0.849986 0
M  V30 801 O 74.91 1.46397 1.75443 0
M  V30 802 C 75.12 3.21641 -1.35455 0
M  V30 803 C 76.468 3.97592 -1.49017 0
M  V30 804 O 77.492 3.31107 -1.31326 0
M  V30 805 O 76.351 5.16729 -1.77914 0
M  V30 806 H 73.445 0.792799 -0.235368 0
M  V30 807 H 75.991 1.25021 -1.14751 0
M  V30 808 H 74.763 3.097 -2.39168 0
M  V30 809 H 74.386 3.88052 -0.866107 0
M  V30 810 N 75.3831 0.828654 1.34056 0
M  V30 811 C 76.6081 0.431637 2.02859 0
M  V30 812 C 77.0331 -0.956339 1.61975 0
M  V30 813 O 76.3911 -1.62338 0.807228 0
M  V30 814 C 76.4391 0.548323 3.56407 0
M  V30 815 O 75.5431 -0.429556 4.10157 0
M  V30 816 H 74.8841 0.176886 0.640006 0
M  V30 817 H 77.4141 1.12066 1.71179 0
M  V30 818 H 77.4241 0.426196 4.05768 0
M  V30 819 H 76.0991 1.5606 3.8551 0
M  V30 820 H 74.6761 -0.265836 3.71951 0
M  V30 821 N 76.8612 -1.46375 0.584142 0
M  V30 822 C 77.7912 -2.33103 -0.136037 0
M  V30 823 C 78.7722 -1.45431 -0.882255 0
M  V30 824 O 79.9572 -1.74246 -0.857434 0
M  V30 825 C 77.0872 -3.27731 -1.14933 0
M  V30 826 C 76.0412 -4.24855 -0.517862 0
M  V30 827 C 75.3672 -5.09001 -1.63773 0
M  V30 828 C 76.6672 -5.19439 0.545886 0
M  V30 829 H 78.3612 -2.93568 0.588086 0
M  V30 830 H 75.9072 -1.41166 0.284259 0
M  V30 831 H 77.8602 -3.87261 -1.66153 0
M  V30 832 H 76.5842 -2.65377 -1.90375 0
M  V30 833 H 75.2432 -3.6659 -0.0267361 0
M  V30 834 H 74.8912 -4.43031 -2.38185 0
M  V30 835 H 74.5912 -5.74777 -1.22085 0
M  V30 836 H 76.1152 -5.71396 -2.15266 0
M  V30 837 H 77.5292 -5.73177 0.118704 0
M  V30 838 H 75.9262 -5.93566 0.88317 0
M  V30 839 H 76.9962 -4.63285 1.43162 0
M  V30 840 N 78.3393 -0.321999 -1.54275 0
M  V30 841 C 79.2713 0.578671 -2.21775 0
M  V30 842 C 80.2843 1.08109 -1.21722 0
M  V30 843 O 81.4733 0.994938 -1.482 0
M  V30 844 C 78.5733 1.80661 -2.86731 0
M  V30 845 C 77.7463 1.44314 -4.12907 0
M  V30 846 C 76.8053 2.52845 -4.61472 0
M  V30 847 O 75.8313 2.17054 -5.2619 0
M  V30 848 N 77.0333 3.83748 -4.35566 0
M  V30 849 H 79.7983 0.000709447 -2.997 0
M  V30 850 H 77.3593 -0.145132 -1.61248 0
M  V30 851 H 79.3513 2.52655 -3.16145 0
M  V30 852 H 77.9213 2.29245 -2.12521 0
M  V30 853 H 77.1413 0.554906 -3.90275 0
M  V30 854 H 78.4293 1.17598 -4.95023 0
M  V30 855 H 77.8273 4.15625 -3.83761 0
M  V30 856 H 76.3843 4.51977 -4.69638 0
M  V30 857 N 79.8174 1.5752 -0.0501392 0
M  V30 858 C 80.7644 2.1147 0.924603 0
M  V30 859 C 81.7344 1.02182 1.30951 0
M  V30 860 O 82.9194 1.29723 1.39916 0
M  V30 861 C 80.0594 2.66337 2.19451 0
M  V30 862 C 79.1724 3.89708 1.86418 0
M  V30 863 C 78.3074 4.32893 3.07859 0
M  V30 864 C 77.3464 5.48967 2.70742 0
M  V30 865 N 76.4834 5.87211 3.84874 0
M  V30 866 H 81.3234 2.94465 0.457639 0
M  V30 867 H 78.8604 1.45531 0.214266 0
M  V30 868 H 80.8184 2.96247 2.93758 0
M  V30 869 H 79.4484 1.86141 2.63726 0
M  V30 870 H 78.5004 3.66396 1.02264 0
M  V30 871 H 79.8124 4.74074 1.55096 0
M  V30 872 H 78.9664 4.6435 3.90466 0
M  V30 873 H 77.7054 3.47336 3.42358 0
M  V30 874 H 76.7104 5.17183 1.86551 0
M  V30 875 H 77.9354 6.3624 2.37436 0
M  V30 876 H 75.8814 5.04607 4.19175 0
M  V30 877 H 75.7984 6.66266 3.57247 0
M  V30 878 H 77.0664 6.23282 4.68123 0
M  V30 879 N 81.2955 -0.223234 1.56011 0
M  V30 880 C 82.5445 -0.945912 1.78144 0
M  V30 881 C 82.8575 -1.85567 0.618396 0
M  V30 882 O 84.0635 -2.61688 0.723318 0
M  V30 883 C 82.5195 -1.73216 3.15475 0
M  V30 884 C 82.1275 -0.868619 4.39499 0
M  V30 885 C 83.8715 -2.44615 3.46935 0
M  V30 886 C 81.7785 -1.65212 5.67855 0
M  V30 887 H 80.7085 -0.356929 0.664167 0
M  V30 888 H 83.3595 -0.199845 1.82409 0
M  V30 889 H 81.7415 -2.52107 3.05382 0
M  V30 890 H 82.9155 -0.120366 4.60643 0
M  V30 891 H 81.2305 -0.26683 4.15544 0
M  V30 892 H 83.8275 -3.03732 4.40058 0
M  V30 893 H 84.1705 -3.17417 2.69355 0
M  V30 894 H 84.7035 -1.72715 3.58349 0
M  V30 895 H 81.4425 -0.967407 6.48322 0
M  V30 896 H 80.9625 -2.37503 5.50774 0
M  V30 897 H 82.6415 -2.21322 6.07968 0
M  V30 898 N 82.7736 -1.49793 -0.48987 0
M  V30 899 C 83.7036 -1.70201 -1.59856 0
M  V30 900 C 84.6846 -0.55076 -1.60937 0
M  V30 901 O 85.8696 -0.787841 -1.77501 0
M  V30 902 C 82.9996 -1.77882 -2.98287 0
M  V30 903 C 81.9536 -2.92907 -3.12073 0
M  V30 904 C 81.2796 -2.85712 -4.51965 0
M  V30 905 C 82.5796 -4.3369 -2.91051 0
M  V30 906 H 84.2736 -2.63025 -1.43032 0
M  V30 907 H 81.8196 -1.26574 -0.686664 0
M  V30 908 H 83.7726 -1.90744 -3.75759 0
M  V30 909 H 82.4966 -0.816653 -3.16225 0
M  V30 910 H 81.1556 -2.79665 -2.37029 0
M  V30 911 H 80.8036 -1.8738 -4.66795 0
M  V30 912 H 80.5036 -3.62921 -4.62128 0
M  V30 913 H 82.0276 -3.00598 -5.31482 0
M  V30 914 H 83.4416 -4.47555 -3.58284 0
M  V30 915 H 81.8386 -5.12205 -3.12675 0
M  V30 916 H 82.9086 -4.47362 -1.87071 0
M  V30 917 N 84.2517 0.741722 -1.39055 0
M  V30 918 C 85.5287 1.49252 -1.26425 0
M  V30 919 C 85.9087 2.10705 0.129144 0
M  V30 920 O 85.2567 1.98045 1.13976 0
M  V30 921 C 85.4667 2.54934 -2.38347 0
M  V30 922 C 86.8147 3.21506 -2.77343 0
M  V30 923 O 87.8387 2.65245 -2.37747 0
M  V30 924 O 86.6977 4.23294 -3.45665 0
M  V30 925 H 83.7917 0.662451 -0.495064 0
M  V30 926 H 86.3377 0.776121 -1.50912 0
M  V30 927 H 85.1097 2.07857 -3.31529 0
M  V30 928 H 84.7327 3.34141 -2.15489 0
M  V30 929 N 85.7298 1.2412 0.971189 0
M  V30 930 C 86.6598 1.05508 2.08304 0
M  V30 931 C 87.6408 -0.0308864 1.70072 0
M  V30 932 O 88.8258 0.135521 1.93727 0
M  V30 933 C 85.9558 0.655365 3.4106 0
M  V30 934 C 84.9098 1.68971 3.93234 0
M  V30 935 C 84.2358 1.14516 5.22293 0
M  V30 936 C 85.5358 3.08487 4.21465 0
M  V30 937 H 87.2298 1.98507 2.24132 0
M  V30 938 H 84.7758 0.955821 1.07704 0
M  V30 939 H 86.7288 0.51217 4.18276 0
M  V30 940 H 85.4528 -0.31032 3.25122 0
M  V30 941 H 84.1118 1.82106 3.18171 0
M  V30 942 H 83.7598 0.170189 5.02712 0
M  V30 943 H 83.4598 1.83635 5.58168 0
M  V30 944 H 84.9838 1.01401 6.02121 0
M  V30 945 H 86.3978 2.98601 4.89398 0
M  V30 946 H 84.7948 3.74926 4.68562 0
M  V30 947 H 85.8648 3.56787 3.28376 0
M  V30 948 N 87.2079 -1.17134 1.05439 0
M  V30 949 C 88.1709 -2.19439 0.661764 0
M  V30 950 C 89.1709 -1.58199 -0.288042 0
M  V30 951 O 90.3609 -1.74053 -0.0715803 0
M  V30 952 C 87.4929 -3.40889 -0.0276209 0
M  V30 953 H 88.6859 -2.55688 1.56728 0
M  V30 954 H 86.2389 -1.31259 0.848567 0
M  V30 955 H 86.9739 -3.10187 -0.94629 0
M  V30 956 H 86.7589 -3.86586 0.655238 0
M  V30 957 H 88.2489 -4.16603 -0.288342 0
M  V30 958 N 88.686 -0.835752 -1.33615 0
M  V30 959 C 89.963 -0.352017 -1.92406 0
M  V30 960 C 90.343 1.16225 -1.76224 0
M  V30 961 O 89.691 1.97526 -1.14873 0
M  V30 962 C 89.901 -0.795485 -3.39813 0
M  V30 963 C 91.249 -0.801703 -4.16963 0
M  V30 964 O 92.273 -0.738889 -3.48452 0
M  V30 965 O 91.132 -0.886607 -5.3926 0
M  V30 966 H 88.226 -0.0989641 -0.821057 0
M  V30 967 H 90.772 -0.921397 -1.42507 0
M  V30 968 H 89.544 -1.83795 -3.45449 0
M  V30 969 H 89.167 -0.202505 -3.97084 0
M  V30 970 N 90.1641 1.46063 -0.591896 0
M  V30 971 C 91.1111 2.30399 0.136069 0
M  V30 972 C 92.0811 1.41169 0.875238 0
M  V30 973 O 93.2661 1.70112 0.86409 0
M  V30 974 C 90.4061 3.25804 1.13781 0
M  V30 975 C 89.5191 4.30134 0.401137 0
M  V30 976 C 88.6541 5.12659 1.39121 0
M  V30 977 C 87.6931 6.0873 0.641462 0
M  V30 978 N 86.8301 6.8409 1.58004 0
M  V30 979 H 91.6701 2.92118 -0.589144 0
M  V30 980 H 89.2071 1.43959 -0.302342 0
M  V30 981 H 91.1651 3.79569 1.73156 0
M  V30 982 H 89.7951 2.65872 1.83062 0
M  V30 983 H 88.8471 3.79152 -0.307826 0
M  V30 984 H 90.1591 4.98458 -0.184565 0
M  V30 985 H 89.3131 5.70747 2.05749 0
M  V30 986 H 88.0521 4.44316 2.01084 0
M  V30 987 H 87.0571 5.49786 -0.0385419 0
M  V30 988 H 88.2821 6.79095 0.0270945 0
M  V30 989 H 86.2281 6.18449 2.18761 0
M  V30 990 H 86.1451 7.48709 1.04738 0
M  V30 991 H 87.4131 7.4673 2.23639 0
M  V30 992 N 91.6422 0.330177 1.54103 0
M  V30 993 C 92.5892 -0.532762 2.24567 0
M  V30 994 C 93.5592 -1.10635 1.23892 0
M  V30 995 O 94.7442 -1.14546 1.5259 0
M  V30 996 C 91.8842 -1.6845 3.01195 0
M  V30 997 C 90.9972 -1.13951 4.167 0
M  V30 998 C 90.1322 -2.25746 4.80845 0
M  V30 999 C 89.1712 -1.6853 5.88442 0
M  V30 1000 N 88.3082 -2.74014 6.46421 0
M  V30 1001 H 93.1482 0.0746905 2.97906 0
M  V30 1002 H 90.6852 0.048632 1.4702 0
M  V30 1003 H 92.6432 -2.36234 3.43874 0
M  V30 1004 H 91.2732 -2.26314 2.30178 0
M  V30 1005 H 90.3252 -0.35301 3.78758 0
M  V30 1006 H 91.6372 -0.680892 4.94131 0
M  V30 1007 H 90.7912 -3.01422 5.26526 0
M  V30 1008 H 89.5302 -2.74947 4.0281 0
M  V30 1009 H 88.5352 -0.913543 5.42157 0
M  V30 1010 H 89.7602 -1.20198 6.68378 0
M  V30 1011 H 87.7062 -3.22494 5.71256 0
M  V30 1012 H 87.6232 -2.32735 7.19285 0
M  V30 1013 H 88.8912 -3.49499 6.96757 0
M  V30 1014 N 93.1203 -1.57491 0.0584922 0
M  V30 1015 C 94.3663 -1.93264 -0.614558 0
M  V30 1016 C 94.6993 -0.937717 -1.7006 0
M  V30 1017 O 93.9743 0.0351652 -1.94468 0
M  V30 1018 C 94.2573 -3.3938 -1.20386 0
M  V30 1019 C 94.1103 -4.49625 -0.125375 0
M  V30 1020 C 95.4293 -3.86039 -2.11334 0
M  V30 1021 H 92.5483 -0.702791 -0.221933 0
M  V30 1022 H 95.1903 -1.8961 0.12175 0
M  V30 1023 H 93.3403 -3.42626 -1.83139 0
M  V30 1024 H 95.0123 -4.58506 0.506971 0
M  V30 1025 H 93.2553 -4.30354 0.545672 0
M  V30 1026 H 93.9263 -5.48967 -0.577861 0
M  V30 1027 H 96.4023 -3.84716 -1.58534 0
M  V30 1028 H 95.2783 -4.88914 -2.49507 0
M  V30 1029 H 95.5393 -3.23215 -3.01636 0
M  V30 1030 N 94.5984 0.214957 -1.56127 0
M  V30 1031 C 95.8234 0.95924 -1.83884 0
M  V30 1032 C 96.2484 1.7689 -0.639644 0
M  V30 1033 O 95.6064 1.76566 0.411601 0
M  V30 1034 C 95.6544 1.84723 -3.09693 0
M  V30 1035 O 94.7584 2.94346 -2.8885 0
M  V30 1036 H 94.0994 0.27125 -0.606069 0
M  V30 1037 H 96.6294 0.226276 -2.03345 0
M  V30 1038 H 96.6394 2.25576 -3.39969 0
M  V30 1039 H 95.3144 1.25218 -3.96602 0
M  V30 1040 H 93.8914 2.57391 -2.69823 0
M  V30 1041 N 96.0765 1.50051 0.48192 0
M  V30 1042 C 97.0395 1.67584 1.5636 0
M  V30 1043 C 98.0395 0.546894 1.51214 0
M  V30 1044 O 99.2295 0.813725 1.54026 0
M  V30 1045 C 96.3615 1.691 2.96003 0
M  V30 1046 H 97.5545 2.64078 1.42136 0
M  V30 1047 H 95.1075 1.39369 0.707533 0
M  V30 1048 H 95.8425 0.742589 3.15684 0
M  V30 1049 H 95.6275 2.51105 3.01146 0
M  V30 1050 H 97.1175 1.84656 3.74556 0
M  V30 1051 N 97.5546 -0.734337 1.39446 0
M  V30 1052 C 98.4646 -1.87879 1.40495 0
M  V30 1053 C 99.4806 -1.714 0.299672 0
M  V30 1054 O 100.657 -1.93991 0.541249 0
M  V30 1055 C 97.7216 -3.23477 1.24754 0
M  V30 1056 C 96.7826 -3.52344 2.45259 0
M  V30 1057 C 96.0156 -4.81473 2.30259 0
M  V30 1058 O 96.2386 -5.55237 1.30643 0
M  V30 1059 O 95.1726 -5.10254 3.19256 0
M  V30 1060 H 98.9986 -1.89949 2.36966 0
M  V30 1061 H 96.5836 -0.882243 1.20569 0
M  V30 1062 H 98.4656 -4.04509 1.18111 0
M  V30 1063 H 97.1406 -3.22176 0.313781 0
M  V30 1064 H 96.0476 -2.71396 2.57478 0
M  V30 1065 H 97.3806 -3.58426 3.37331 0
M  V30 1066 N 99.0327 -1.24633 -0.964593 0
M  V30 1067 C 99.9427 -1.05859 -2.09359 0
M  V30 1068 C 100.959 0.00148855 -1.74 0
M  V30 1069 O 102.135 -0.197346 -2.00431 0
M  V30 1070 C 99.1997 -0.668879 -3.40187 0
M  V30 1071 C 98.2607 -1.80578 -3.89474 0
M  V30 1072 C 97.4937 -1.43457 -5.14058 0
M  V30 1073 O 97.7167 -0.325775 -5.69469 0
M  V30 1074 O 96.6507 -2.2613 -5.57807 0
M  V30 1075 H 100.477 -2.00516 -2.28094 0
M  V30 1076 H 98.0617 -1.03481 -1.0776 0
M  V30 1077 H 99.9437 -0.463211 -4.18846 0
M  V30 1078 H 98.6187 0.248536 -3.22744 0
M  V30 1079 H 97.5257 -2.06623 -3.11862 0
M  V30 1080 H 98.8587 -2.70208 -4.11398 0
M  V30 1081 N 100.511 1.16574 -1.06058 0
M  V30 1082 C 101.758 1.87047 -0.775873 0
M  V30 1083 C 102.086 1.81562 0.697534 0
M  V30 1084 O 101.341 1.22445 1.52662 0
M  V30 1085 C 101.64 3.36195 -1.21275 0
M  V30 1086 C 101.306 3.6188 -2.68986 0
M  V30 1087 C 99.9678 3.68599 -3.09335 0
M  V30 1088 C 102.32 3.72648 -3.64394 0
M  V30 1089 C 99.6478 3.83584 -4.43937 0
M  V30 1090 C 102 3.89154 -4.98741 0
M  V30 1091 C 100.664 3.94114 -5.3873 0
M  V30 1092 H 99.9338 0.684452 -0.283912 0
M  V30 1093 H 102.581 1.37853 -1.32925 0
M  V30 1094 H 100.886 3.87505 -0.578528 0
M  V30 1095 H 102.583 3.89103 -0.969542 0
M  V30 1096 H 99.1728 3.57281 -2.36744 0
M  V30 1097 H 103.357 3.66769 -3.34356 0
M  V30 1098 H 98.6128 3.85677 -4.74409 0
M  V30 1099 H 102.787 3.96427 -5.72554 0
M  V30 1100 H 100.414 4.05478 -6.43033 0
M  V30 1101 N 101.989 0.842826 1.3317 0
M  V30 1102 C 102.936 0.276885 2.29133 0
M  V30 1103 C 103.906 -0.609527 1.54512 0
M  V30 1104 O 105.091 -0.546955 1.82792 0
M  V30 1105 C 102.231 -0.538707 3.40869 0
M  V30 1106 C 101.344 0.372169 4.30394 0
M  V30 1107 C 100.479 -0.454908 5.29249 0
M  V30 1108 C 99.5179 0.45411 6.10413 0
M  V30 1109 N 98.6549 -0.335075 7.013 0
M  V30 1110 H 103.495 1.10052 2.76934 0
M  V30 1111 H 101.032 0.554161 1.36262 0
M  V30 1112 H 102.99 -1.02709 4.0436 0
M  V30 1113 H 101.62 -1.32727 2.9425 0
M  V30 1114 H 100.672 0.97888 3.6759 0
M  V30 1115 H 101.984 1.0703 4.87182 0
M  V30 1116 H 101.138 -1.00695 5.98285 0
M  V30 1117 H 99.8769 -1.18646 4.73048 0
M  V30 1118 H 98.8819 1.01813 5.40291 0
M  V30 1119 H 100.107 1.18409 6.68697 0
M  V30 1120 H 98.0529 -1.04994 6.47543 0
M  V30 1121 H 97.9699 0.304262 7.55387 0
M  V30 1122 H 99.2379 -0.869224 7.74638 0
M  V30 1123 N 103.467 -1.45747 0.599634 0
M  V30 1124 C 104.377 -2.34262 -0.125888 0
M  V30 1125 C 105.393 -1.50768 -0.868625 0
M  V30 1126 O 106.569 -1.83592 -0.828003 0
M  V30 1127 C 103.634 -3.28252 -1.11587 0
M  V30 1128 C 102.695 -4.27651 -0.375956 0
M  V30 1129 C 101.928 -5.1715 -1.31877 0
M  V30 1130 O 102.151 -5.09916 -2.55621 0
M  V30 1131 O 101.085 -5.96286 -0.820157 0
M  V30 1132 H 104.911 -2.97688 0.601315 0
M  V30 1133 H 102.496 -1.44999 0.359934 0
M  V30 1134 H 104.378 -3.86191 -1.68626 0
M  V30 1135 H 103.053 -2.67401 -1.82424 0
M  V30 1136 H 101.96 -3.7335 0.236698 0
M  V30 1137 H 103.293 -4.91334 0.29177 0
M  V30 1138 N 104.945 -0.338344 -1.53925 0
M  V30 1139 C 105.875 0.51328 -2.27789 0
M  V30 1140 C 106.856 1.107 -1.29149 0
M  V30 1141 O 108.041 1.12937 -1.57984 0
M  V30 1142 C 105.171 1.66697 -3.04679 0
M  V30 1143 C 104.125 1.20183 -4.1078 0
M  V30 1144 C 103.451 2.44363 -4.75595 0
M  V30 1145 C 104.751 0.30605 -5.21403 0
M  V30 1146 H 106.445 -0.102883 -2.99223 0
M  V30 1147 H 103.991 -0.0509219 -1.4391 0
M  V30 1148 H 105.944 2.26915 -3.55088 0
M  V30 1149 H 104.668 2.30995 -2.30887 0
M  V30 1150 H 103.327 0.622499 -3.61276 0
M  V30 1151 H 102.975 3.07057 -3.98403 0
M  V30 1152 H 102.675 2.13925 -5.47275 0
M  V30 1153 H 104.199 3.05317 -5.28786 0
M  V30 1154 H 105.613 0.814929 -5.67478 0
M  V30 1155 H 104.01 0.0937929 -6.00027 0
M  V30 1156 H 105.08 -0.65921 -4.80398 0
M  V30 1157 N 106.423 1.57458 -0.0668435 0
M  V30 1158 C 107.386 2.11323 0.887422 0
M  V30 1159 C 108.386 1.03618 1.22964 0
M  V30 1160 O 109.576 1.29626 1.16373 0
M  V30 1161 C 106.708 2.61048 2.19242 0
M  V30 1162 H 107.901 2.96942 0.420194 0
M  V30 1163 H 105.454 1.55239 0.181793 0
M  V30 1164 H 106.189 1.78868 2.70512 0
M  V30 1165 H 105.974 3.39769 1.95702 0
M  V30 1166 H 107.464 3.02814 2.87565 0
M  V30 1167 N 107.901 -0.206675 1.56239 0
M  V30 1168 C 108.848 -1.25617 1.93621 0
M  V30 1169 C 109.818 -1.45824 0.795274 0
M  V30 1170 O 111.003 -1.59148 1.05245 0
M  V30 1171 C 108.143 -2.59839 2.27107 0
M  V30 1172 C 107.256 -2.47308 3.54207 0
M  V30 1173 C 106.391 -3.74155 3.7707 0
M  V30 1174 C 105.43 -3.56407 4.97635 0
M  V30 1175 N 104.567 -4.75238 5.1681 0
M  V30 1176 H 109.407 -0.930383 2.83104 0
M  V30 1177 H 106.944 -0.448065 1.4011 0
M  V30 1178 H 108.902 -3.38021 2.44535 0
M  V30 1179 H 107.532 -2.90485 1.40778 0
M  V30 1180 H 106.584 -1.60483 3.4489 0
M  V30 1181 H 107.896 -2.30122 4.42544 0
M  V30 1182 H 107.05 -4.60778 3.94675 0
M  V30 1183 H 105.789 -3.94282 2.87042 0
M  V30 1184 H 104.794 -2.68168 4.79964 0
M  V30 1185 H 106.019 -3.37736 5.89161 0
M  V30 1186 H 103.965 -4.95651 4.29728 0
M  V30 1187 H 103.882 -4.60835 5.99306 0
M  V30 1188 H 105.15 -5.63246 5.38864 0
M  V30 1189 N 109.379 -1.50304 -0.473955 0
M  V30 1190 C 110.795 -1.37667 -0.807466 0
M  V30 1191 C 110.995 -0.430555 -1.96846 0
M  V30 1192 O 110.051 0.127874 -2.52176 0
M  V30 1193 C 111.364 -2.78974 -1.12223 0
M  V30 1194 C 112.912 -2.87868 -1.22885 0
M  V30 1195 C 113.387 -4.30003 -1.57676 0
M  V30 1196 N 114.878 -4.3294 -1.64673 0
M  V30 1197 C 115.613 -5.3991 -1.93091 0
M  V30 1198 N 115.109 -6.57092 -2.1955 0
M  V30 1199 N 116.902 -5.27351 -1.94569 0
M  V30 1200 H 109.053 -2.10394 0.291212 0
M  V30 1201 H 111.316 -0.945575 0.0677609 0
M  V30 1202 H 111.022 -3.50031 -0.342229 0
M  V30 1203 H 110.896 -3.16038 -2.05913 0
M  V30 1204 H 113.283 -2.17032 -1.99953 0
M  V30 1205 H 113.364 -2.54352 -0.271814 0
M  V30 1206 H 113.008 -5.01375 -0.81149 0
M  V30 1207 H 112.938 -4.61004 -2.54525 0
M  V30 1208 H 115.429 -3.48441 -1.46277 0
M  V30 1209 H 115.742 -7.34425 -2.405 0
M  V30 1210 H 114.087 -6.60272 -2.16948 0
M  V30 1211 H 117.278 -4.34801 -1.73394 0
M  V30 1212 H 117.451 -6.10805 -2.16381 0
M  V30 1213 N 110.857 0.726932 -1.39834 0
M  V30 1214 C 111.804 1.841 -1.39197 0
M  V30 1215 C 112.774 1.642 -0.250502 0
M  V30 1216 O 113.959 1.85494 -0.446846 0
M  V30 1217 C 111.099 3.21697 -1.24919 0
M  V30 1218 C 110.212 3.53247 -2.48678 0
M  V30 1219 C 109.347 4.80289 -2.26928 0
M  V30 1220 C 108.386 5.04707 -3.4632 0
M  V30 1221 N 107.523 6.22956 -3.23836 0
M  V30 1222 H 112.363 1.83979 -2.34427 0
M  V30 1223 H 109.9 0.898876 -1.16442 0
M  V30 1224 H 111.858 4.01137 -1.1465 0
M  V30 1225 H 110.488 3.21076 -0.333153 0
M  V30 1226 H 109.54 2.68447 -2.69519 0
M  V30 1227 H 110.852 3.67205 -3.37582 0
M  V30 1228 H 110.006 5.67725 -2.13947 0
M  V30 1229 H 108.745 4.68519 -1.35431 0
M  V30 1230 H 107.75 4.1573 -3.5979 0
M  V30 1231 H 108.975 5.18357 -4.38729 0
M  V30 1232 H 106.921 6.12459 -2.35011 0
M  V30 1233 H 106.838 6.37539 -4.063 0
M  V30 1234 H 108.106 7.1321 -3.14566 0
M  V30 1235 N 112.336 1.25143 0.95797 0
M  V30 1236 C 113.284 1.05019 2.07542 0
M  V30 1237 C 114.278 -0.0178751 1.69391 0
M  V30 1238 O 115.484 0.137472 1.79474 0
M  V30 1239 H 111.859 0.32265 0.679265 0
M  V30 1240 H 113.83 1.99759 2.21673 0
M  V30 1241 C 112.579 0.682074 3.40944 0
M  V30 1242 H 111.902 1.49573 3.70767 0
M  V30 1243 H 113.342 0.580945 4.20001 0
M  V30 1244 C 111.801 -0.611608 3.31302 0
M  V30 1245 O 112.331 -1.65465 3.66038 0
M  V30 1246 N 110.537 -0.595982 2.84423 0
M  V30 1247 H 110.084 0.253192 2.56353 0
M  V30 1248 H 110.042 -1.46173 2.78354 0
M  V30 1249 N 113.814 -1.1601 1.06675 0
M  V30 1250 C 115.091 -1.82679 0.699114 0
M  V30 1251 C 115.471 -1.94559 -0.819137 0
M  V30 1252 O 114.819 -1.49169 -1.73092 0
M  V30 1253 C 115.029 -3.19445 1.40555 0
M  V30 1254 C 116.377 -3.95171 1.55323 0
M  V30 1255 O 117.401 -3.28976 1.36577 0
M  V30 1256 O 116.26 -5.13833 1.86112 0
M  V30 1257 H 113.354 -0.788954 0.247951 0
M  V30 1258 H 115.9 -1.23179 1.16726 0
M  V30 1259 H 114.672 -3.05856 2.44065 0
M  V30 1260 H 114.295 -3.86625 0.927733 0
M  V30 1261 N 115.292 -0.849877 -1.32721 0
M  V30 1262 C 116.24 -0.279745 -2.30912 0
M  V30 1263 C 117.234 0.594278 -1.58634 0
M  V30 1264 O 118.44 0.482613 -1.73409 0
M  V30 1265 H 114.815 -0.0717521 -0.748569 0
M  V30 1266 H 116.786 -1.12222 -2.76494 0
M  V30 1267 C 115.535 0.521108 -3.43773 0
M  V30 1268 H 114.858 -0.142141 -3.99547 0
M  V30 1269 H 116.298 0.885693 -4.14646 0
M  V30 1270 C 114.757 1.70442 -2.90605 0
M  V30 1271 O 115.287 2.8034 -2.87702 0
M  V30 1272 N 113.493 1.52991 -2.47067 0
M  V30 1273 H 113.04 0.635914 -2.49628 0
M  V30 1274 H 112.998 2.32311 -2.11847 0
M  V30 1275 N 116.77 1.45427 -0.607355 0
M  V30 1276 C 118 2.06314 -0.108656 0
M  V30 1277 C 118.408 1.45269 1.21217 0
M  V30 1278 O 117.751 0.561115 1.74921 0
M  V30 1279 C 117.813 3.59345 0.105618 0
M  V30 1280 C 117.477 4.42723 -1.13337 0
M  V30 1281 C 118.474 4.77715 -2.05145 0
M  V30 1282 C 116.159 4.83478 -1.36213 0
M  V30 1283 C 118.153 5.52317 -3.18158 0
M  V30 1284 C 115.84 5.57835 -2.49527 0
M  V30 1285 C 116.838 5.92171 -3.40327 0
M  V30 1286 O 116.526 6.65019 -4.51669 0
M  V30 1287 H 116.258 0.672782 -0.0658842 0
M  V30 1288 H 118.812 1.87664 -0.834945 0
M  V30 1289 H 117.042 3.76394 0.886796 0
M  V30 1290 H 118.731 4.02076 0.555886 0
M  V30 1291 H 119.497 4.46787 -1.88697 0
M  V30 1292 H 115.376 4.56188 -0.664362 0
M  V30 1293 H 118.92 5.79036 -3.89054 0
M  V30 1294 H 114.817 5.88177 -2.65928 0
M  V30 1295 H 115.585 6.83469 -4.50348 0
M  V30 1296 N 118.248 0.346503 1.53744 0
M  V30 1297 C 119.494 -0.249473 2.0126 0
M  V30 1298 C 119.827 -1.49965 1.23386 0
M  V30 1299 O 119.102 -1.91811 0.32229 0
M  V30 1300 C 119.385 -0.560643 3.55709 0
M  V30 1301 C 119.238 0.701836 4.44291 0
M  V30 1302 C 120.557 -1.36905 4.18264 0
M  V30 1303 H 117.676 -0.0891987 0.731582 0
M  V30 1304 H 120.318 0.467624 1.84156 0
M  V30 1305 H 118.468 -1.17156 3.70414 0
M  V30 1306 H 120.14 1.33974 4.41417 0
M  V30 1307 H 118.383 1.32612 4.13033 0
M  V30 1308 H 119.054 0.43933 5.50249 0
M  V30 1309 H 121.53 -0.852448 4.07275 0
M  V30 1310 H 120.406 -1.55553 5.26398 0
M  V30 1311 H 120.667 -2.37203 3.73078 0
M  V30 1312 N 119.726 -1.57421 0.075193 0
M  V30 1313 C 120.673 -2.12915 -0.890843 0
M  V30 1314 C 121.643 -1.04252 -1.29309 0
M  V30 1315 O 122.828 -1.31933 -1.37834 0
M  V30 1316 C 119.968 -2.69795 -2.15186 0
M  V30 1317 C 119.081 -3.92624 -1.80194 0
M  V30 1318 C 118.216 -4.37736 -3.00933 0
M  V30 1319 C 117.255 -5.53205 -2.61974 0
M  V30 1320 N 116.392 -5.9326 -3.75483 0
M  V30 1321 H 121.232 -2.95156 -0.410735 0
M  V30 1322 H 118.769 -1.45854 -0.191086 0
M  V30 1323 H 120.727 -3.00883 -2.89008 0
M  V30 1324 H 119.357 -1.90313 -2.60731 0
M  V30 1325 H 118.409 -3.67977 -0.964218 0
M  V30 1326 H 119.721 -4.76482 -1.47534 0
M  V30 1327 H 118.875 -4.70503 -3.8303 0
M  V30 1328 H 117.614 -3.52739 -3.36789 0
M  V30 1329 H 116.619 -5.20086 -1.783 0
M  V30 1330 H 117.844 -6.39936 -2.27284 0
M  V30 1331 H 115.79 -5.11212 -4.11094 0
M  V30 1332 H 115.707 -6.71865 -3.46602 0
M  V30 1333 H 116.975 -6.30651 -4.58148 0
M  V30 1334 N 121.204 0.198386 -1.56346 0
M  V30 1335 C 122.137 1.27381 -1.89339 0
M  V30 1336 C 123.115 1.44106 -0.753134 0
M  V30 1337 O 124.299 1.59549 -1.00381 0
M  V30 1338 C 121.426 2.6409 -2.12071 0
M  V30 1339 C 120.472 2.64253 -3.34772 0
M  V30 1340 S 121.305 2.16013 -4.89999 0
M  V30 1341 C 122.461 3.54553 -5.15794 0
M  V30 1342 H 122.694 0.992058 -2.8026 0
M  V30 1343 H 120.227 0.401726 -1.49082 0
M  V30 1344 H 122.185 3.42786 -2.2585 0
M  V30 1345 H 120.846 2.89478 -1.21906 0
M  V30 1346 H 120.039 3.64768 -3.47794 0
M  V30 1347 H 119.641 1.93637 -3.1997 0
M  V30 1348 H 121.933 4.50396 -5.06112 0
M  V30 1349 H 122.876 3.46428 -6.1757 0
M  V30 1350 H 123.284 3.49313 -4.43442 0
M  V30 1351 N 122.682 1.50554 0.465978 0
M  V30 1352 C 123.931 1.61038 1.21448 0
M  V30 1353 C 124.244 0.31865 1.92987 0
M  V30 1354 O 125.45 0.302469 2.6981 0
M  V30 1355 C 123.906 2.84283 2.20706 0
M  V30 1356 C 123.514 4.20352 1.54946 0
M  V30 1357 C 125.258 3.04115 2.96166 0
M  V30 1358 C 123.165 5.34778 2.5252 0
M  V30 1359 H 122.095 0.599718 0.457005 0
M  V30 1360 H 124.746 1.7699 0.484424 0
M  V30 1361 H 123.128 2.61901 2.97025 0
M  V30 1362 H 124.302 4.53008 0.843811 0
M  V30 1363 H 122.617 4.06167 0.917475 0
M  V30 1364 H 125.214 3.86774 3.69202 0
M  V30 1365 H 125.557 2.16045 3.55852 0
M  V30 1366 H 126.09 3.26702 2.26959 0
M  V30 1367 H 122.829 6.25018 1.97566 0
M  V30 1368 H 122.349 5.06534 3.21222 0
M  V30 1369 H 124.028 5.65561 3.14245 0
M  V30 1370 N 124.16 -0.719506 1.40217 0
M  V30 1371 C 125.092 -1.84428 1.36084 0
M  V30 1372 C 126.105 -1.60597 0.266913 0
M  V30 1373 O 127.294 -1.70544 0.526983 0
M  V30 1374 C 124.394 -3.20757 1.094 0
M  V30 1375 C 123.567 -3.71817 2.30372 0
M  V30 1376 C 122.626 -4.86748 1.99907 0
M  V30 1377 O 121.652 -4.99603 2.72737 0
M  V30 1378 N 122.854 -5.7226 0.974635 0
M  V30 1379 H 125.619 -1.88473 2.33019 0
M  V30 1380 H 123.18 -0.900885 1.3452 0
M  V30 1381 H 125.172 -3.95235 0.870116 0
M  V30 1382 H 123.742 -3.11884 0.211452 0
M  V30 1383 H 122.962 -2.88514 2.68614 0
M  V30 1384 H 124.25 -4.02666 3.11026 0
M  V30 1385 H 123.648 -5.6448 0.371368 0
M  V30 1386 H 122.205 -6.46739 0.810656 0
M  V30 1387 N 125.638 -1.25649 -0.95132 0
M  V30 1388 C 126.915 -1.01361 -1.67288 0
M  V30 1389 C 127.295 0.459135 -2.06046 0
M  V30 1390 O 126.643 1.43723 -1.7764 0
M  V30 1391 C 126.853 -1.95256 -2.89268 0
M  V30 1392 C 128.201 -2.23289 -3.61147 0
M  V30 1393 O 129.225 -1.93041 -2.99355 0
M  V30 1394 O 128.084 -2.74741 -4.72419 0
M  V30 1395 H 125.178 -0.38464 -0.732107 0
M  V30 1396 H 127.724 -1.36817 -1.00395 0
M  V30 1397 H 126.496 -2.94685 -2.57442 0
M  V30 1398 H 126.119 -1.60218 -3.6389 0
M  V30 1399 N 127.117 1.15442 -1.07289 0
M  V30 1400 C 128.363 1.86489 -0.796846 0
M  V30 1401 C 128.696 1.82078 0.675371 0
M  V30 1402 O 127.971 1.24346 1.4956 0
M  V30 1403 C 128.254 3.35626 -1.30489 0
M  V30 1404 C 128.107 3.48673 -2.84161 0
M  V30 1405 C 129.426 4.30357 -0.920907 0
M  V30 1406 H 126.545 0.677144 -0.290939 0
M  V30 1407 H 129.187 1.35633 -1.33056 0
M  V30 1408 H 127.337 3.79068 -0.850883 0
M  V30 1409 H 129.009 3.14099 -3.37846 0
M  V30 1410 H 127.252 2.90253 -3.22391 0
M  V30 1411 H 127.923 4.53453 -3.14777 0
M  V30 1412 H 130.399 3.94871 -1.3121 0
M  V30 1413 H 129.275 5.33193 -1.30372 0
M  V30 1414 H 129.536 4.4176 0.173226 0
M  V30 1415 N 128.595 0.856903 1.32268 0
M  V30 1416 C 129.82 0.474569 2.01897 0
M  V30 1417 C 130.245 -0.921766 1.63967 0
M  V30 1418 O 129.603 -1.60589 0.84148 0
M  V30 1419 C 129.651 0.623799 3.55164 0
M  V30 1420 O 128.755 -0.342459 4.10976 0
M  V30 1421 H 128.096 0.190422 0.63611 0
M  V30 1422 H 130.626 1.15672 1.68764 0
M  V30 1423 H 130.636 0.512169 4.04773 0
M  V30 1424 H 129.311 1.64202 3.82113 0
M  V30 1425 H 127.888 -0.18688 3.72431 0
M  V30 1426 N 130.073 -1.45103 0.615059 0
M  V30 1427 C 131.484 -1.85654 0.197383 0
M  V30 1428 C 131.835 -1.51433 -1.24749 0
M  V30 1429 O 130.96 -0.944608 -1.94695 0
M  V30 1430 C 131.555 -3.36972 0.351448 0
M  V30 1431 C 130.114 -3.76398 -0.011593 0
M  V30 1432 C 129.261 -2.69024 0.672394 0
M  V30 1433 H 132.212 -1.35797 0.821263 0
M  V30 1434 H 132.233 -3.78239 -0.414227 0
M  V30 1435 H 131.745 -3.61847 1.40314 0
M  V30 1436 H 129.846 -3.5714 -1.06217 0
M  V30 1437 H 129.959 -4.77532 0.387265 0
M  V30 1438 H 128.323 -2.54465 0.109284 0
M  V30 1439 H 129.106 -2.96735 1.72636 0
M  V30 1440 N 131.551 -0.354651 -1.53558 0
M  V30 1441 C 132.514 0.484566 -2.24019 0
M  V30 1442 C 133.514 1.01861 -1.24422 0
M  V30 1443 O 134.704 0.906097 -1.4878 0
M  V30 1444 C 131.836 1.67615 -2.96847 0
M  V30 1445 H 133.029 -0.131843 -2.9961 0
M  V30 1446 H 130.582 -0.106165 -1.55939 0
M  V30 1447 H 131.317 2.33095 -2.25471 0
M  V30 1448 H 131.102 1.30029 -3.69912 0
M  V30 1449 H 132.592 2.27114 -3.50441 0
M  V30 1450 N 133.029 1.57378 -0.0835403 0
M  V30 1451 C 134.306 1.85363 0.624507 0
M  V30 1452 C 134.686 0.978239 1.87066 0
M  V30 1453 O 134.034 0.0475908 2.2845 0
M  V30 1454 C 134.244 3.35795 0.950947 0
M  V30 1455 C 135.592 4.03581 1.31939 0
M  V30 1456 O 136.616 3.40609 1.04232 0
M  V30 1457 O 135.475 5.14672 1.83779 0
M  V30 1458 H 132.569 0.766162 0.311329 0
M  V30 1459 H 135.115 1.69307 -0.115362 0
M  V30 1460 H 133.887 3.91244 0.0663899 0
M  V30 1461 H 133.51 3.57154 1.74719 0
M  V30 1462 N 134.507 -0.190092 1.56449 0
M  V30 1463 C 135.753 -0.911052 1.81184 0
M  V30 1464 C 136.086 -1.82699 0.658396 0
M  V30 1465 O 135.361 -1.91491 -0.340775 0
M  V30 1466 C 135.644 -1.72297 3.16205 0
M  V30 1467 C 135.497 -0.831419 4.42049 0
M  V30 1468 C 136.816 -2.69454 3.47969 0
M  V30 1469 H 133.935 -0.32977 0.659106 0
M  V30 1470 H 136.577 -0.178169 1.89163 0
M  V30 1471 H 134.727 -2.34778 3.09534 0
M  V30 1472 H 136.399 -0.220929 4.60771 0
M  V30 1473 H 134.642 -0.138406 4.33579 0
M  V30 1474 H 135.313 -1.43461 5.33032 0
M  V30 1475 H 137.789 -2.17104 3.54972 0
M  V30 1476 H 136.665 -3.23342 4.43555 0
M  V30 1477 H 136.926 -3.48744 2.71717 0
M  V30 1478 N 135.985 -1.50799 -0.457987 0
M  V30 1479 C 137.215 -1.65977 -1.23025 0
M  V30 1480 C 137.623 -0.347918 -1.85974 0
M  V30 1481 O 136.966 0.68148 -1.70592 0
M  V30 1482 C 137.028 -2.70309 -2.3701 0
M  V30 1483 C 136.692 -4.135 -1.94594 0
M  V30 1484 C 137.689 -4.98949 -1.46101 0
M  V30 1485 C 135.374 -4.5949 -2.02915 0
M  V30 1486 C 137.368 -6.28442 -1.06489 0
M  V30 1487 C 135.055 -5.88984 -1.62914 0
M  V30 1488 C 136.053 -6.73286 -1.1478 0
M  V30 1489 O 135.741 -8.00362 -0.75339 0
M  V30 1490 H 135.473 -0.56064 -0.377702 0
M  V30 1491 H 138.027 -1.97857 -0.551537 0
M  V30 1492 H 136.257 -2.337 -3.08093 0
M  V30 1493 H 137.946 -2.74574 -2.98938 0
M  V30 1494 H 138.712 -4.6463 -1.39084 0
M  V30 1495 H 134.591 -3.94009 -2.39328 0
M  V30 1496 H 138.135 -6.94194 -0.688488 0
M  V30 1497 H 134.032 -6.22822 -1.69595 0
M  V30 1498 H 134.8 -8.13744 -0.88108 0
M  V30 1499 N 137.463 0.71206 -1.40597 0
M  V30 1500 C 138.874 1.29135 -1.34837 0
M  V30 1501 C 139.225 1.96186 -0.0235395 0
M  V30 1502 O 138.35 1.97768 0.878444 0
M  V30 1503 C 138.945 2.34827 -2.44217 0
M  V30 1504 C 137.504 2.88371 -2.41907 0
M  V30 1505 C 136.651 1.62202 -2.24913 0
M  V30 1506 H 139.602 0.507944 -1.50352 0
M  V30 1507 H 139.623 3.15749 -2.12327 0
M  V30 1508 H 139.135 1.85996 -3.40627 0
M  V30 1509 H 137.236 3.41422 -1.49204 0
M  V30 1510 H 137.349 3.39925 -3.37621 0
M  V30 1511 H 135.713 1.874 -1.72492 0
M  V30 1512 H 136.496 1.15391 -3.23326 0
M  V30 1513 N 138.941 1.26152 0.944643 0
M  V30 1514 C 140.189 1.11271 1.6871 0
M  V30 1515 C 140.51 -0.345166 1.91921 0
M  V30 1516 O 139.78 -1.24387 1.51343 0
M  V30 1517 H 138.36 0.408783 0.625224 0
M  V30 1518 H 141.022 1.58427 1.1352 0
M  V30 1519 H 140.118 1.62879 2.66227 0
M  V30 1520 N 140.419 -1.14872 1.07899 0
M  V30 1521 C 141.668 -1.85135 0.800499 0
M  V30 1522 C 141.981 -1.83547 -0.676014 0
M  V30 1523 O 143.187 -2.49548 -1.06948 0
M  V30 1524 C 141.643 -3.3231 1.38197 0
M  V30 1525 C 141.251 -3.42329 2.8899 0
M  V30 1526 C 142.995 -4.0772 1.18174 0
M  V30 1527 C 140.902 -4.83684 3.403 0
M  V30 1528 H 139.832 -0.693563 0.29578 0
M  V30 1529 H 142.483 -1.29532 1.29976 0
M  V30 1530 H 140.865 -3.87618 0.810431 0
M  V30 1531 H 142.039 -2.97097 3.52236 0
M  V30 1532 H 140.354 -2.80369 3.07867 0
M  V30 1533 H 142.951 -5.12049 1.5398 0
M  V30 1534 H 143.294 -4.16124 0.12117 0
M  V30 1535 H 143.827 -3.58696 1.71994 0
M  V30 1536 H 140.566 -4.80465 4.45907 0
M  V30 1537 H 140.086 -5.29474 2.81811 0
M  V30 1538 H 141.765 -5.52558 3.36584 0
M  V30 1539 N 141.898 -0.863906 -1.31812 0
M  V30 1540 C 142.828 -0.330843 -2.31144 0
M  V30 1541 C 143.809 0.575005 -1.60087 0
M  V30 1542 O 144.994 0.493304 -1.8783 0
M  V30 1543 C 142.124 0.47374 -3.44054 0
M  V30 1544 C 141.078 -0.338481 -4.26659 0
M  V30 1545 C 140.404 0.591412 -5.31419 0
M  V30 1546 C 141.704 -1.56926 -4.98168 0
M  V30 1547 H 143.398 -1.16086 -2.75979 0
M  V30 1548 H 140.944 -0.559657 -1.32679 0
M  V30 1549 H 142.897 0.857143 -4.12591 0
M  V30 1550 H 141.621 1.33721 -2.9797 0
M  V30 1551 H 140.28 -0.703754 -3.59782 0
M  V30 1552 H 139.928 1.45199 -4.81587 0
M  V30 1553 H 139.628 0.0519022 -5.87577 0
M  V30 1554 H 141.152 0.97179 -6.02817 0
M  V30 1555 H 142.566 -1.25764 -5.59336 0
M  V30 1556 H 140.963 -2.04739 -5.64094 0
M  V30 1557 H 142.033 -2.32544 -4.25501 0
M  V30 1558 N 143.376 1.44774 -0.622745 0
M  V30 1559 C 144.308 2.28856 0.125485 0
M  V30 1560 C 145.321 1.40811 0.817069 0
M  V30 1561 O 146.51 1.65044 0.679918 0
M  V30 1562 C 143.61 3.16963 1.19949 0
M  V30 1563 C 142.783 4.33374 0.592064 0
M  V30 1564 C 141.842 5.02577 1.55893 0
M  V30 1565 O 140.868 5.58873 1.07933 0
M  V30 1566 N 142.07 5.03256 2.89334 0
M  V30 1567 H 144.835 2.93713 -0.596068 0
M  V30 1568 H 142.396 1.55129 -0.463303 0
M  V30 1569 H 144.388 3.60123 1.84644 0
M  V30 1570 H 142.958 2.53913 1.82337 0
M  V30 1571 H 142.178 3.93509 -0.233322 0
M  V30 1572 H 143.466 5.08527 0.166738 0
M  V30 1573 H 142.864 4.58836 3.30887 0
M  V30 1574 H 141.421 5.50232 3.49412 0
M  V30 1575 N 144.854 0.36279 1.53368 0
M  V30 1576 C 145.784 -0.476976 2.28576 0
M  V30 1577 C 146.765 -1.08631 1.30894 0
M  V30 1578 O 147.95 -1.10409 1.59761 0
M  V30 1579 C 145.08 -1.61828 3.07293 0
M  V30 1580 C 144.034 -1.13633 4.1264 0
M  V30 1581 C 143.36 -2.36766 4.79423 0
M  V30 1582 C 144.66 -0.223061 5.21823 0
M  V30 1583 H 146.354 0.150474 2.99022 0
M  V30 1584 H 143.9 0.0738103 1.43811 0
M  V30 1585 H 145.853 -2.21237 3.58653 0
M  V30 1586 H 144.577 -2.27292 2.34533 0
M  V30 1587 H 143.236 -0.564945 3.62221 0
M  V30 1588 H 142.884 -3.0068 4.03238 0
M  V30 1589 H 142.584 -2.05192 5.50609 0
M  V30 1590 H 144.108 -2.96865 5.33576 0
M  V30 1591 H 145.522 -0.724545 5.68703 0
M  V30 1592 H 143.919 0.001678 6.001 0
M  V30 1593 H 144.989 0.735553 4.79289 0
M  V30 1594 N 146.332 -1.57332 0.0918853 0
M  V30 1595 C 147.262 -2.16872 -0.865371 0
M  V30 1596 C 148.243 -1.10118 -1.29646 0
M  V30 1597 O 149.428 -1.38242 -1.36392 0
M  V30 1598 C 146.558 -2.74649 -2.12569 0
M  V30 1599 C 145.512 -3.86747 -1.83333 0
M  V30 1600 C 144.838 -4.31212 -3.16166 0
M  V30 1601 C 146.138 -5.10089 -1.1228 0
M  V30 1602 H 147.832 -2.97114 -0.369307 0
M  V30 1603 H 145.378 -1.42918 -0.176194 0
M  V30 1604 H 147.331 -3.14952 -2.7997 0
M  V30 1605 H 146.055 -1.91657 -2.64452 0
M  V30 1606 H 144.714 -3.46978 -1.18331 0
M  V30 1607 H 144.362 -3.45115 -3.6593 0
M  V30 1608 H 144.062 -5.06788 -2.97388 0
M  V30 1609 H 145.586 -4.74146 -3.84731 0
M  V30 1610 H 147 -5.47582 -1.69785 0
M  V30 1611 H 145.397 -5.91073 -1.03693 0
M  V30 1612 H 146.467 -4.84786 -0.105041 0
M  V30 1613 N 147.81 0.181792 -1.56548 0
M  V30 1614 C 148.757 1.22521 -1.95595 0
M  V30 1615 C 149.727 1.4454 -0.818373 0
M  V30 1616 O 150.912 1.57454 -1.07763 0
M  V30 1617 C 148.052 2.56193 -2.31212 0
M  V30 1618 C 147.165 2.41641 -3.58097 0
M  V30 1619 C 146.3 3.68108 -3.82975 0
M  V30 1620 C 145.339 3.48445 -5.03242 0
M  V30 1621 N 144.476 4.66956 -5.24306 0
M  V30 1622 H 149.316 0.885226 -2.84548 0
M  V30 1623 H 146.853 0.425718 -1.40805 0
M  V30 1624 H 148.811 3.34088 -2.49882 0
M  V30 1625 H 147.441 2.88208 -1.45382 0
M  V30 1626 H 146.493 1.54976 -3.474 0
M  V30 1627 H 147.805 2.23052 -4.46149 0
M  V30 1628 H 146.959 4.54441 -4.01956 0
M  V30 1629 H 145.698 3.89666 -2.93278 0
M  V30 1630 H 144.703 2.60499 -4.8417 0
M  V30 1631 H 145.928 3.2832 -5.9446 0
M  V30 1632 H 143.874 4.88752 -4.37559 0
M  V30 1633 H 143.791 4.51242 -6.06561 0
M  V30 1634 H 145.059 5.54602 -5.47756 0
M  V30 1635 N 149.288 1.51039 0.449983 0
M  V30 1636 C 150.565 1.53612 1.21089 0
M  V30 1637 C 150.945 0.292997 2.09057 0
M  V30 1638 O 150.293 -0.72259 2.16774 0
M  V30 1639 C 150.503 2.84337 2.0237 0
M  V30 1640 C 151.851 3.35807 2.59843 0
M  V30 1641 O 152.875 2.85802 2.12593 0
M  V30 1642 O 151.734 4.23029 3.45989 0
M  V30 1643 H 148.828 0.617057 0.550608 0
M  V30 1644 H 151.374 1.63344 0.460082 0
M  V30 1645 H 150.146 3.66278 1.37681 0
M  V30 1646 H 149.769 2.77708 2.84542 0
M  V30 1647 N 150.766 -0.704594 1.40972 0
M  V30 1648 C 151.696 -1.83124 1.44872 0
M  V30 1649 C 152.677 -1.67281 0.30838 0
M  V30 1650 O 153.862 -1.87149 0.518556 0
M  V30 1651 C 150.992 -3.21181 1.32136 0
M  V30 1652 C 149.946 -3.51714 2.43888 0
M  V30 1653 C 149.272 -4.89032 2.16222 0
M  V30 1654 C 150.572 -3.516 3.86232 0
M  V30 1655 H 152.266 -1.80117 2.39161 0
M  V30 1656 H 149.812 -0.865145 1.15114 0
M  V30 1657 H 151.765 -3.99702 1.33479 0
M  V30 1658 H 150.489 -3.24791 0.343279 0
M  V30 1659 H 149.148 -2.75539 2.41813 0
M  V30 1660 H 148.796 -4.89256 1.16778 0
M  V30 1661 H 148.496 -5.10426 2.911 0
M  V30 1662 H 150.02 -5.69873 2.19265 0
M  V30 1663 H 151.434 -4.2014 3.9007 0
M  V30 1664 H 149.831 -3.84523 4.60719 0
M  V30 1665 H 150.901 -2.50757 4.15029 0
M  V30 1666 N 152.244 -1.26651 -0.937939 0
M  V30 1667 C 153.66 -1.03834 -1.21205 0
M  V30 1668 C 153.86 0.234502 -2.00131 0
M  V30 1669 O 152.916 0.942767 -2.3424 0
M  V30 1670 C 154.229 -2.27167 -1.97017 0
M  V30 1671 C 155.777 -2.32101 -2.09996 0
M  V30 1672 C 156.252 -3.55136 -2.8921 0
M  V30 1673 N 157.743 -3.55632 -2.96783 0
M  V30 1674 C 158.478 -4.475 -3.58512 0
M  V30 1675 N 157.974 -5.4966 -4.21717 0
M  V30 1676 N 159.767 -4.35145 -3.55816 0
M  V30 1677 H 151.918 -2.08398 -0.410391 0
M  V30 1678 H 154.181 -0.916031 -0.244114 0
M  V30 1679 H 153.887 -3.19765 -1.46434 0
M  V30 1680 H 153.761 -2.31672 -2.97671 0
M  V30 1681 H 156.148 -1.40015 -2.59769 0
M  V30 1682 H 156.229 -2.31605 -1.08594 0
M  V30 1683 H 155.873 -4.47553 -2.40123 0
M  V30 1684 H 155.803 -3.5288 -3.90875 0
M  V30 1685 H 158.294 -2.81743 -2.51852 0
M  V30 1686 H 158.607 -6.15943 -4.66727 0
M  V30 1687 H 156.952 -5.53514 -4.20294 0
M  V30 1688 H 160.143 -3.5455 -3.05634 0
M  V30 1689 H 160.316 -5.06934 -4.03636 0
M  V30 1690 N 153.722 1.14298 -1.08507 0
M  V30 1691 C 154.947 1.8976 -0.837001 0
M  V30 1692 C 155.372 1.78097 0.605228 0
M  V30 1693 O 154.73 1.12188 1.4242 0
M  V30 1694 C 154.778 3.37685 -1.26495 0
M  V30 1695 O 153.882 4.10281 -0.417514 0
M  V30 1696 H 153.223 0.590365 -0.303917 0
M  V30 1697 H 155.753 1.44672 -1.44676 0
M  V30 1698 H 155.763 3.88501 -1.24625 0
M  V30 1699 H 154.438 3.45492 -2.31534 0
M  V30 1700 H 153.015 3.69536 -0.499722 0
M  V30 1701 N 155.201 0.870884 1.31352 0
M  V30 1702 C 156.149 0.316445 2.30437 0
M  V30 1703 C 157.143 -0.568965 1.59559 0
M  V30 1704 O 158.349 -0.454964 1.74155 0
M  V30 1705 H 154.724 0.0836521 0.747333 0
M  V30 1706 H 156.695 1.16606 2.74673 0
M  V30 1707 C 155.444 -0.46635 3.44558 0
M  V30 1708 H 154.767 0.205687 3.99271 0
M  V30 1709 H 156.207 -0.819614 4.16003 0
M  V30 1710 C 154.666 -1.65797 2.9328 0
M  V30 1711 O 155.196 -2.75728 2.92125 0
M  V30 1712 N 153.402 -1.49041 2.4947 0
M  V30 1713 H 152.949 -0.59612 2.50608 0
M  V30 1714 H 152.907 -2.28911 2.15516 0
M  V30 1715 N 156.679 -1.44442 0.630414 0
M  V30 1716 C 157.626 -2.30678 -0.0749355 0
M  V30 1717 C 158.596 -1.4344 -0.837502 0
M  V30 1718 O 159.781 -1.72343 -0.818684 0
M  V30 1719 C 156.921 -3.28706 -1.05103 0
M  V30 1720 C 156.034 -4.31046 -0.286954 0
M  V30 1721 C 155.169 -5.16167 -1.2548 0
M  V30 1722 C 154.208 -6.10216 -0.479843 0
M  V30 1723 N 153.345 -6.88039 -1.39811 0
M  V30 1724 H 158.185 -2.90454 0.666386 0
M  V30 1725 H 155.722 -1.43107 0.340404 0
M  V30 1726 H 157.68 -3.84027 -1.63031 0
M  V30 1727 H 156.31 -2.70632 -1.75949 0
M  V30 1728 H 155.362 -3.78203 0.408243 0
M  V30 1729 H 156.674 -4.97794 0.316657 0
M  V30 1730 H 155.828 -5.76002 -1.90544 0
M  V30 1731 H 154.567 -4.49491 -1.89233 0
M  V30 1732 H 153.572 -5.49491 0.184295 0
M  V30 1733 H 154.797 -6.78928 0.152965 0
M  V30 1734 H 152.743 -6.24032 -2.02287 0
M  V30 1735 H 152.66 -7.51223 -0.848508 0
M  V30 1736 H 153.928 -7.52397 -2.03762 0
M  V30 1737 N 158.157 -0.370918 -1.53173 0
M  V30 1738 C 159.406 0.218249 -2.00516 0
M  V30 1739 C 159.719 1.49429 -1.26215 0
M  V30 1740 O 160.925 2.16239 -1.64174 0
M  V30 1741 C 159.381 0.43948 -3.57207 0
M  V30 1742 C 158.989 -0.822244 -4.4039 0
M  V30 1743 C 160.733 0.986012 -4.1289 0
M  V30 1744 C 158.64 -0.570304 -5.88644 0
M  V30 1745 H 157.57 0.0853333 -0.749156 0
M  V30 1746 H 160.221 -0.490483 -1.76823 0
M  V30 1747 H 158.603 1.20961 -3.77074 0
M  V30 1748 H 159.777 -1.59557 -4.32294 0
M  V30 1749 H 158.092 -1.29238 -3.95836 0
M  V30 1750 H 160.689 1.18991 -5.21292 0
M  V30 1751 H 161.032 1.94972 -3.6782 0
M  V30 1752 H 161.565 0.27592 -3.96842 0
M  V30 1753 H 158.304 -1.50449 -6.38001 0
M  V30 1754 H 157.824 0.164427 -5.99575 0
M  V30 1755 H 159.503 -0.19784 -6.46697 0
M  V30 1756 N 159.635 1.57281 -0.100228 0
M  V30 1757 C 160.582 2.14305 0.856858 0
M  V30 1758 C 161.552 1.06296 1.27634 0
M  V30 1759 O 162.737 1.34109 1.35718 0
M  V30 1760 C 159.877 2.73184 2.10866 0
M  V30 1761 C 158.99 3.95442 1.73925 0
M  V30 1762 C 158.125 4.42468 2.93931 0
M  V30 1763 C 157.164 5.57303 2.5314 0
M  V30 1764 N 156.301 5.99158 3.65997 0
M  V30 1765 H 161.141 2.95772 0.363726 0
M  V30 1766 H 158.678 1.46139 0.167858 0
M  V30 1767 H 160.636 3.05442 2.84185 0
M  V30 1768 H 159.266 1.94437 2.57671 0
M  V30 1769 H 158.318 3.69464 0.905554 0
M  V30 1770 H 159.63 4.78769 1.39935 0
M  V30 1771 H 158.784 4.76537 3.75496 0
M  V30 1772 H 157.523 3.58052 3.31134 0
M  V30 1773 H 156.528 5.22857 1.70003 0
M  V30 1774 H 157.753 6.43471 2.17075 0
M  V30 1775 H 155.699 5.17687 4.02909 0
M  V30 1776 H 155.616 6.77295 3.35869 0
M  V30 1777 H 156.884 6.3786 4.48057 0
M  V30 1778 N 161.113 -0.173488 1.56642 0
M  V30 1779 C 162.362 -0.888758 1.81063 0
M  V30 1780 C 162.675 -1.83506 0.67712 0
M  V30 1781 O 163.881 -2.59254 0.806206 0
M  V30 1782 C 162.337 -1.63091 3.20826 0
M  V30 1783 C 161.945 -0.728357 4.4204 0
M  V30 1784 C 163.689 -2.33454 3.54541 0
M  V30 1785 C 161.596 -1.47062 5.72823 0
M  V30 1786 H 160.526 -0.335618 0.675186 0
M  V30 1787 H 163.177 -0.141712 1.82952 0
M  V30 1788 H 161.559 -2.42263 3.13248 0
M  V30 1789 H 162.733 0.0262449 4.60793 0
M  V30 1790 H 161.048 -0.134492 4.16183 0
M  V30 1791 H 163.645 -2.89578 4.49498 0
M  V30 1792 H 163.988 -3.08687 2.79317 0
M  V30 1793 H 164.521 -1.61227 3.63663 0
M  V30 1794 H 161.26 -0.760658 6.51072 0
M  V30 1795 H 160.78 -2.1986 5.58052 0
M  V30 1796 H 162.459 -2.01868 6.14702 0
M  V30 1797 N 162.591 -1.51276 -0.441967 0
M  V30 1798 C 163.554 -1.7167 -1.51862 0
M  V30 1799 C 164.554 -0.586793 -1.49711 0
M  V30 1800 O 165.744 -0.854276 -1.51815 0
M  V30 1801 C 162.876 -1.76889 -2.91416 0
M  V30 1802 H 164.069 -2.67754 -1.35084 0
M  V30 1803 H 161.622 -1.41196 -0.670333 0
M  V30 1804 H 162.357 -0.826026 -3.13604 0
M  V30 1805 H 162.142 -2.59001 -2.94382 0
M  V30 1806 H 163.632 -1.94522 -3.69528 0
M  V30 1807 N 164.069 0.697108 -1.41344 0
M  V30 1808 C 164.999 1.82353 -1.45841 0
M  V30 1809 C 165.98 1.67115 -0.317247 0
M  V30 1810 O 167.165 1.86871 -0.528474 0
M  V30 1811 C 164.295 3.20476 -1.33838 0
M  V30 1812 C 163.249 3.50415 -2.4575 0
M  V30 1813 C 162.575 4.87878 -2.18813 0
M  V30 1814 C 163.875 3.49546 -3.88091 0
M  V30 1815 H 165.569 1.78846 -2.40113 0
M  V30 1816 H 163.115 0.859028 -1.15571 0
M  V30 1817 H 165.068 3.98988 -1.35596 0
M  V30 1818 H 163.792 3.24604 -0.360498 0
M  V30 1819 H 162.451 2.74253 -2.43271 0
M  V30 1820 H 162.099 4.8863 -1.19371 0
M  V30 1821 H 161.799 5.08875 -2.93803 0
M  V30 1822 H 163.323 5.68702 -2.22284 0
M  V30 1823 H 164.737 4.18066 -3.92293 0
M  V30 1824 H 163.134 3.82075 -4.62751 0
M  V30 1825 H 164.204 2.48552 -4.16353 0
M  V30 1826 N 165.547 1.27147 0.931209 0
M  V30 1827 C 166.51 1.09615 2.01289 0
M  V30 1828 C 167.51 0.0412581 1.60747 0
M  V30 1829 O 168.7 0.285545 1.71844 0
M  V30 1830 C 165.832 0.669447 3.34262 0
M  V30 1831 H 167.025 2.05662 2.18273 0
M  V30 1832 H 164.578 1.09885 1.11153 0
M  V30 1833 H 165.313 -0.292572 3.22978 0
M  V30 1834 H 165.098 1.43127 3.65044 0
M  V30 1835 H 166.588 0.568921 4.13706 0
M  V30 1836 N 167.025 -1.13721 1.09112 0
M  V30 1837 C 168.25 -1.89314 0.847053 0
M  V30 1838 C 168.675 -1.78416 -0.595774 0
M  V30 1839 O 168.033 -1.12942 -1.41823 0
M  V30 1840 C 168.081 -3.3701 1.28284 0
M  V30 1841 O 167.185 -4.10054 0.439267 0
M  V30 1842 H 166.526 -0.588745 0.307044 0
M  V30 1843 H 169.056 -1.43902 1.45442 0
M  V30 1844 H 169.066 -3.87834 1.26683 0
M  V30 1845 H 167.741 -3.4426 2.33363 0
M  V30 1846 H 166.318 -3.69266 0.519312 0
M  V30 1847 N 168.503 -0.877838 -1.30888 0
M  V30 1848 C 169.466 -0.344265 -2.266 0
M  V30 1849 C 170.466 0.50922 -1.52524 0
M  V30 1850 O 171.656 0.317398 -1.71284 0
M  V30 1851 C 168.788 0.510198 -3.37061 0
M  V30 1852 H 169.981 -1.1893 -2.7531 0
M  V30 1853 H 167.534 -0.654088 -1.41956 0
M  V30 1854 H 168.269 1.37612 -2.93655 0
M  V30 1855 H 168.054 -0.101047 -3.9197 0
M  V30 1856 H 169.544 0.875537 -4.08319 0
M  V30 1857 N 169.982 1.44106 -0.638065 0
M  V30 1858 C 171.207 2.0685 -0.150916 0
M  V30 1859 C 171.632 1.47417 1.16833 0
M  V30 1860 O 170.99 0.578264 1.71831 0
M  V30 1861 C 171.038 3.60555 -0.05708 0
M  V30 1862 O 170.142 4.00465 0.984972 0
M  V30 1863 H 169.483 0.658151 -0.0879399 0
M  V30 1864 H 172.013 1.84865 -0.876707 0
M  V30 1865 H 172.023 4.07789 0.131232 0
M  V30 1866 H 170.698 4.03193 -1.02021 0
M  V30 1867 H 169.275 3.64849 0.770672 0
M  V30 1868 N 171.46 0.379036 1.52974 0
M  V30 1869 C 172.407 -0.461048 2.26148 0
M  V30 1870 C 173.377 -1.06637 1.27349 0
M  V30 1871 O 174.562 -1.09633 1.56157 0
M  V30 1872 C 171.702 -1.58782 3.06402 0
M  V30 1873 C 170.815 -1.00636 4.20115 0
M  V30 1874 C 169.95 -2.10334 4.87784 0
M  V30 1875 C 168.989 -1.49724 5.93506 0
M  V30 1876 N 168.126 -2.5331 6.54812 0
M  V30 1877 H 172.966 0.169429 2.97518 0
M  V30 1878 H 170.503 0.0953806 1.4679 0
M  V30 1879 H 172.461 -2.25174 3.51215 0
M  V30 1880 H 171.091 -2.18876 2.37261 0
M  V30 1881 H 170.143 -0.232332 3.7969 0
M  V30 1882 H 171.455 -0.523343 4.96047 0
M  V30 1883 H 170.609 -2.84519 5.35849 0
M  V30 1884 H 169.348 -2.61992 4.11353 0
M  V30 1885 H 168.353 -0.740598 5.44789 0
M  V30 1886 H 169.578 -0.988732 6.71864 0
M  V30 1887 H 167.524 -3.04156 5.81227 0
M  V30 1888 H 167.441 -2.09734 7.26325 0
M  V30 1889 H 168.709 -3.27155 7.07524 0
M  V30 1890 N 172.938 -1.57226 0.108567 0
M  V30 1891 C 173.886 -2.16002 -0.862885 0
M  V30 1892 C 174.88 -1.10644 -1.28274 0
M  V30 1893 O 176.086 -1.28966 -1.2557 0
M  V30 1894 H 172.461 -0.691148 -0.296342 0
M  V30 1895 H 174.432 -2.96427 -0.342575 0
M  V30 1896 C 173.181 -2.76576 -2.10716 0
M  V30 1897 H 172.504 -3.5734 -1.793 0
M  V30 1898 H 173.944 -3.21253 -2.76717 0
M  V30 1899 C 172.403 -1.73137 -2.89007 0
M  V30 1900 O 172.933 -1.17842 -3.84026 0
M  V30 1901 N 171.139 -1.43317 -2.52801 0
M  V30 1902 H 170.686 -1.88473 -1.75601 0
M  V30 1903 H 170.644 -0.743485 -3.05483 0
M  V30 1904 N 174.416 0.165178 -1.56732 0
M  V30 1905 C 175.664 0.879068 -1.8198 0
M  V30 1906 C 175.985 1.82514 -0.686561 0
M  V30 1907 O 175.255 1.93694 0.293146 0
M  V30 1908 H 173.835 0.327608 -0.671329 0
M  V30 1909 H 176.497 0.163526 -1.94213 0
M  V30 1910 H 175.593 1.45228 -2.76252 0
M  V30 1911 N 175.894 1.51508 0.433938 0
M  V30 1912 C 177.305 1.56784 1.01369 0
M  V30 1913 C 177.656 0.393349 1.92217 0
M  V30 1914 O 176.781 -0.489441 2.10792 0
M  V30 1915 C 177.376 2.84144 1.8452 0
M  V30 1916 C 175.935 2.9198 2.37539 0
M  V30 1917 C 175.082 2.51482 1.16843 0
M  V30 1918 H 178.033 1.57236 0.215081 0
M  V30 1919 H 178.054 2.68098 2.70007 0
M  V30 1920 H 177.566 3.69607 1.18373 0
M  V30 1921 H 175.667 2.10955 3.0713 0
M  V30 1922 H 175.78 3.95704 2.70103 0
M  V30 1923 H 174.144 2.04758 1.51481 0
M  V30 1924 H 174.927 3.39293 0.523015 0
M  V30 1925 N 177.372 -0.689602 1.41712 0
M  V30 1926 C 178.619 -1.44966 1.4139 0
M  V30 1927 C 178.947 -1.94484 0.025105 0
M  V30 1928 O 178.202 -1.70307 -0.964048 0
M  V30 1929 C 178.501 -2.67298 2.37247 0
M  V30 1930 C 178.167 -2.36405 3.83958 0
M  V30 1931 C 176.829 -2.27691 4.23923 0
M  V30 1932 C 179.181 -2.11043 4.76561 0
M  V30 1933 C 176.509 -1.91719 5.54492 0
M  V30 1934 C 178.861 -1.76578 6.07456 0
M  V30 1935 C 177.525 -1.66363 6.46436 0
M  V30 1936 H 176.795 -0.53047 0.517381 0
M  V30 1937 H 179.442 -0.787655 1.74552 0
M  V30 1938 H 177.747 -3.38461 1.9736 0
M  V30 1939 H 179.444 -3.25452 2.34269 0
M  V30 1940 H 176.034 -2.44085 3.52308 0
M  V30 1941 H 180.218 -2.16717 4.46483 0
M  V30 1942 H 175.474 -1.82367 5.83568 0
M  V30 1943 H 179.648 -1.55974 6.78708 0
M  V30 1944 H 177.275 -1.38258 7.47522 0
M  V30 1945 N 178.85 -1.27639 -0.924453 0
M  V30 1946 C 179.78 -1.13166 -2.04244 0
M  V30 1947 C 180.761 -0.032256 -1.70069 0
M  V30 1948 O 181.946 -0.207328 -1.9309 0
M  V30 1949 C 179.076 -0.781496 -3.38393 0
M  V30 1950 C 178.03 -1.83449 -3.86692 0
M  V30 1951 C 177.356 -1.33822 -5.17683 0
M  V30 1952 C 178.656 -3.23917 -4.09726 0
M  V30 1953 H 180.35 -2.06689 -2.1661 0
M  V30 1954 H 177.896 -0.995136 -1.04082 0
M  V30 1955 H 179.849 -0.667057 -4.16087 0
M  V30 1956 H 178.573 0.189439 -3.2605 0
M  V30 1957 H 177.232 -1.93789 -3.11193 0
M  V30 1958 H 176.88 -0.35665 -5.01734 0
M  V30 1959 H 176.58 -2.04224 -5.50968 0
M  V30 1960 H 178.104 -1.23679 -5.97943 0
M  V30 1961 H 179.518 -3.16559 -4.77978 0
M  V30 1962 H 177.915 -3.92059 -4.54324 0
M  V30 1963 H 178.985 -3.68729 -3.14908 0
M  V30 1964 N 180.328 1.1314 -1.09713 0
M  V30 1965 C 181.258 2.20748 -0.761102 0
M  V30 1966 C 182.239 1.68061 0.262566 0
M  V30 1967 O 183.424 1.93765 0.129977 0
M  V30 1968 C 180.554 3.46812 -0.184054 0
M  V30 1969 C 179.508 4.12606 -1.13757 0
M  V30 1970 C 178.834 5.33031 -0.422083 0
M  V30 1971 C 180.134 4.59603 -2.48118 0
M  V30 1972 H 181.828 2.49113 -1.66082 0
M  V30 1973 H 179.374 1.19734 -0.799987 0
M  V30 1974 H 181.327 4.21353 0.0631215 0
M  V30 1975 H 180.051 3.17851 0.750868 0
M  V30 1976 H 178.71 3.40036 -1.37007 0
M  V30 1977 H 178.358 5.00335 0.517072 0
M  V30 1978 H 178.058 5.77999 -1.05788 0
M  V30 1979 H 179.582 6.10325 -0.183277 0
M  V30 1980 H 180.996 5.25552 -2.29059 0
M  V30 1981 H 179.393 5.15321 -3.07514 0
M  V30 1982 H 180.463 3.73971 -3.08665 0
M  V30 1983 N 181.806 0.884767 1.30421 0
M  V30 1984 C 182.716 0.355398 2.31892 0
M  V30 1985 C 183.732 -0.542261 1.65335 0
M  V30 1986 O 184.908 -0.435432 1.96637 0
M  V30 1987 C 181.973 -0.421661 3.44126 0
M  V30 1988 C 181.034 0.505727 4.26311 0
M  V30 1989 C 180.267 -0.234343 5.33185 0
M  V30 1990 O 180.49 -1.46045 5.51386 0
M  V30 1991 O 179.424 0.415443 6.00465 0
M  V30 1992 H 183.25 1.19685 2.79122 0
M  V30 1993 H 180.835 0.648596 1.34587 0
M  V30 1994 H 182.717 -0.861641 4.12497 0
M  V30 1995 H 181.392 -1.23942 2.99032 0
M  V30 1996 H 180.299 0.994513 3.60639 0
M  V30 1997 H 181.632 1.28948 4.75009 0
M  V30 1998 N 183.284 -1.43765 0.645699 0
M  V30 1999 C 184.231 -2.30745 -0.0504648 0
M  V30 2000 C 185.201 -1.4432 -0.822241 0
M  V30 2001 O 186.386 -1.73202 -0.800358 0
M  V30 2002 C 183.526 -3.29802 -1.0161 0
M  V30 2003 C 182.639 -4.31326 -0.241219 0
M  V30 2004 C 181.774 -5.17469 -1.19998 0
M  V30 2005 C 180.813 -6.10691 -0.415094 0
M  V30 2006 N 179.95 -6.89483 -1.32506 0
M  V30 2007 H 184.79 -2.8973 0.697155 0
M  V30 2008 H 182.327 -1.42738 0.355563 0
M  V30 2009 H 184.285 -3.85734 -1.58949 0
M  V30 2010 H 182.915 -2.72483 -1.73069 0
M  V30 2011 H 181.967 -3.77749 0.448334 0
M  V30 2012 H 183.279 -4.9743 0.369437 0
M  V30 2013 H 182.433 -5.7799 -1.84424 0
M  V30 2014 H 181.172 -4.51473 -1.84455 0
M  V30 2015 H 180.177 -5.49265 0.242565 0
M  V30 2016 H 181.402 -6.78727 0.224966 0
M  V30 2017 H 179.348 -6.26142 -1.95657 0
M  V30 2018 H 179.265 -7.52081 -0.768783 0
M  V30 2019 H 180.533 -7.54516 -1.9577 0
M  V30 2020 N 184.763 -0.387143 -1.52771 0
M  V30 2021 C 185.696 0.493123 -2.22808 0
M  V30 2022 C 186.674 1.0658 -1.22798 0
M  V30 2023 O 187.858 1.11785 -1.51777 0
M  V30 2024 C 184.985 1.68238 -2.93962 0
M  V30 2025 C 184.031 1.23515 -4.08223 0
M  V30 2026 S 184.864 0.21848 -5.35054 0
M  V30 2027 C 186.02 1.41357 -6.09729 0
M  V30 2028 H 186.253 -0.101625 -2.97126 0
M  V30 2029 H 183.786 -0.171323 -1.53447 0
M  V30 2030 H 185.744 2.36443 -3.35567 0
M  V30 2031 H 184.405 2.24842 -2.19328 0
M  V30 2032 H 183.598 2.12304 -4.57103 0
M  V30 2033 H 183.2 0.632044 -3.68621 0
M  V30 2034 H 185.492 2.34101 -6.3577 0
M  V30 2035 H 186.435 0.965736 -7.01484 0
M  V30 2036 H 186.843 1.6294 -5.40473 0
M  V30 2037 N 186.241 1.57166 -0.116904 0
M  V30 2038 C 187.189 2.16457 0.851418 0
M  V30 2039 C 188.183 1.11323 1.27686 0
M  V30 2040 O 189.389 1.2963 1.24884 0
M  V30 2041 H 185.764 0.69271 0.292672 0
M  V30 2042 H 187.735 2.96605 0.32685 0
M  V30 2043 C 186.484 2.77689 2.09246 0
M  V30 2044 H 185.807 3.58285 1.77402 0
M  V30 2045 H 187.247 3.22716 2.7501 0
M  V30 2046 C 185.706 1.74667 2.88085 0
M  V30 2047 O 186.236 1.19877 3.83396 0
M  V30 2048 N 184.442 1.44656 2.52038 0
M  V30 2049 H 183.989 1.89402 1.74599 0
M  V30 2050 H 183.947 0.759675 3.05084 0
M  V30 2051 N 187.719 -0.156864 1.56817 0
M  V30 2052 C 188.649 -1.19589 2.00551 0
M  V30 2053 C 189.63 -1.4536 0.883426 0
M  V30 2054 O 190.815 -1.56449 1.15054 0
M  V30 2055 C 187.945 -2.53143 2.37773 0
M  V30 2056 C 186.899 -2.41913 3.53075 0
M  V30 2057 C 186.225 -3.80088 3.76081 0
M  V30 2058 C 187.525 -1.91157 4.86062 0
M  V30 2059 H 189.219 -0.832293 2.87599 0
M  V30 2060 H 186.765 -0.398918 1.38364 0
M  V30 2061 H 188.718 -3.26047 2.66967 0
M  V30 2062 H 187.442 -2.91319 1.4765 0
M  V30 2063 H 186.101 -1.71462 3.24031 0
M  V30 2064 H 185.749 -4.15683 2.83225 0
M  V30 2065 H 185.449 -3.73439 4.53671 0
M  V30 2066 H 186.973 -4.54556 4.0769 0
M  V30 2067 H 188.387 -2.53846 5.14038 0
M  V30 2068 H 186.784 -1.95422 5.67389 0
M  V30 2069 H 187.854 -0.866673 4.77092 0
M  V30 2070 N 189.197 -1.51736 -0.425897 0
M  V30 2071 C 190.425 -1.68794 -1.1965 0
M  V30 2072 C 190.84 -0.390164 -1.84725 0
M  V30 2073 O 190.197 0.632376 -1.71194 0
M  V30 2074 C 190.248 -2.81174 -2.27208 0
M  V30 2075 O 189.969 -4.05925 -1.64793 0
M  V30 2076 C 191.47 -3.09599 -3.17275 0
M  V30 2077 H 188.69 -0.566128 -0.360194 0
M  V30 2078 H 191.234 -1.98211 -0.503249 0
M  V30 2079 H 189.389 -2.54324 -2.9223 0
M  V30 2080 H 189.803 -4.68423 -2.35967 0
M  V30 2081 H 191.277 -3.91786 -3.88854 0
M  V30 2082 H 191.754 -2.22468 -3.78688 0
M  V30 2083 H 192.36 -3.38151 -2.57941 0
M  V30 2084 N 190.675 0.682077 -1.42076 0
M  V30 2085 C 191.923 1.4393 -1.41876 0
M  V30 2086 C 192.244 1.94971 -0.0335599 0
M  V30 2087 O 191.514 1.72591 0.926773 0
M  V30 2088 H 190.094 0.534085 -0.522267 0
M  V30 2089 H 192.756 0.806427 -1.77434 0
M  V30 2090 H 191.852 2.29588 -2.11414 0
M  V30 2091 N 192.153 1.28127 0.917671 0
M  V30 2092 C 193.383 1.17722 1.6978 0
M  V30 2093 C 193.791 -0.267261 1.87303 0
M  V30 2094 O 193.134 -1.19286 1.39702 0
M  V30 2095 C 193.196 1.79958 3.11216 0
M  V30 2096 C 192.86 3.29187 3.16993 0
M  V30 2097 C 193.857 4.25679 2.98485 0
M  V30 2098 C 191.542 3.70075 3.39632 0
M  V30 2099 C 193.536 5.61035 3.02521 0
M  V30 2100 C 191.223 5.05557 3.433 0
M  V30 2101 C 192.221 6.00847 3.24764 0
M  V30 2102 O 191.909 7.33859 3.28187 0
M  V30 2103 H 191.641 0.409788 0.537634 0
M  V30 2104 H 194.195 1.69694 1.15728 0
M  V30 2105 H 192.425 1.22475 3.66793 0
M  V30 2106 H 194.114 1.64125 3.71238 0
M  V30 2107 H 194.88 3.95426 2.80826 0
M  V30 2108 H 190.759 2.96373 3.53106 0
M  V30 2109 H 194.303 6.35388 2.87971 0
M  V30 2110 H 190.2 5.35462 3.60486 0
M  V30 2111 H 190.968 7.42436 3.44575 0
M  V30 2112 N 193.631 -1.12557 1.10312 0
M  V30 2113 C 194.878 -1.84038 0.844759 0
M  V30 2114 C 195.206 -1.84026 -0.629668 0
M  V30 2115 O 194.461 -1.28026 -1.48013 0
M  V30 2116 C 194.76 -3.31462 1.33669 0
M  V30 2117 C 194.426 -3.51647 2.82232 0
M  V30 2118 C 193.088 -3.56864 3.22802 0
M  V30 2119 C 195.44 -3.58867 3.77974 0
M  V30 2120 C 192.768 -3.66844 4.57867 0
M  V30 2121 C 195.12 -3.70375 5.1284 0
M  V30 2122 C 193.784 -3.73848 5.52986 0
M  V30 2123 H 193.054 -0.673444 0.309119 0
M  V30 2124 H 195.701 -1.32824 1.37949 0
M  V30 2125 H 194.006 -3.85091 0.721949 0
M  V30 2126 H 195.703 -3.85236 1.11329 0
M  V30 2127 H 192.293 -3.48249 2.49842 0
M  V30 2128 H 196.477 -3.54107 3.47738 0
M  V30 2129 H 191.733 -3.67804 4.88396 0
M  V30 2130 H 195.907 -3.74904 5.86873 0
M  V30 2131 H 193.534 -3.81333 6.57639 0
M  V30 2132 N 195.109 -0.891671 -1.2995 0
M  V30 2133 C 196.386 -0.433307 -1.9074 0
M  V30 2134 C 196.766 1.08646 -1.80995 0
M  V30 2135 O 196.114 1.92476 -1.23147 0
M  V30 2136 C 196.324 -0.938895 -3.36134 0
M  V30 2137 C 197.672 -0.977829 -4.13187 0
M  V30 2138 O 198.696 -0.886015 -3.45005 0
M  V30 2139 O 197.555 -1.11453 -5.35015 0
M  V30 2140 H 194.649 -0.133699 -0.816121 0
M  V30 2141 H 197.195 -0.981011 -1.38471 0
M  V30 2142 H 195.967 -1.98281 -3.37343 0
M  V30 2143 H 195.59 -0.37074 -3.95868 0
M  V30 2144 N 196.587 1.43421 -0.653314 0
M  V30 2145 C 197.55 2.29182 0.0287951 0
M  V30 2146 C 198.55 1.42213 0.750465 0
M  V30 2147 O 199.74 1.63843 0.591701 0
M  V30 2148 C 196.872 3.24278 1.05151 0
M  V30 2149 H 198.065 2.90985 -0.725786 0
M  V30 2150 H 195.618 1.50702 -0.414545 0
M  V30 2151 H 196.353 2.6737 1.83532 0
M  V30 2152 H 196.138 3.88396 0.537687 0
M  V30 2153 H 197.628 3.88647 1.52786 0
M  V30 2154 N 198.065 0.39524 1.52563 0
M  V30 2155 C 199.314 -0.186321 2.00838 0
M  V30 2156 C 199.627 -1.47402 1.28577 0
M  V30 2157 O 200.833 -2.13599 1.67593 0
M  V30 2158 C 199.289 -0.382595 3.57861 0
M  V30 2159 C 198.897 0.892202 4.39026 0
M  V30 2160 C 200.641 -0.9202 4.14406 0
M  V30 2161 C 198.548 0.66388 5.87662 0
M  V30 2162 H 197.478 -0.0734041 0.750418 0
M  V30 2163 H 200.129 0.518552 1.76021 0
M  V30 2164 H 198.511 -1.14946 3.7895 0
M  V30 2165 H 199.685 1.66414 4.29701 0
M  V30 2166 H 198 1.35519 3.9373 0
M  V30 2167 H 200.597 -1.10683 5.23119 0
M  V30 2168 H 200.94 -1.89096 3.70875 0
M  V30 2169 H 201.473 -0.212751 3.97231 0
M  V30 2170 H 198.212 1.6058 6.35527 0
M  V30 2171 H 197.732 -0.0690193 5.9976 0
M  V30 2172 H 199.411 0.300699 6.46301 0
M  V30 2173 N 199.544 -1.57102 0.125237 0
M  V30 2174 C 200.507 -2.14471 -0.80838 0
M  V30 2175 C 201.507 -1.0811 -1.19033 0
M  V30 2176 O 202.697 -1.33856 -1.11482 0
M  V30 2177 C 199.829 -2.69005 -2.09402 0
M  V30 2178 H 201.022 -2.98297 -0.309696 0
M  V30 2179 H 198.575 -1.55807 -0.124051 0
M  V30 2180 H 199.31 -1.88785 -2.63687 0
M  V30 2181 H 199.095 -3.46799 -1.82957 0
M  V30 2182 H 200.585 -3.13278 -2.76128 0
M  V30 2183 N 201.022 0.148545 -1.56898 0
M  V30 2184 C 202.299 0.890019 -1.74178 0
M  V30 2185 C 202.679 1.99407 -0.692839 0
M  V30 2186 O 202.027 2.26671 0.288505 0
M  V30 2187 C 202.237 1.43389 -3.18183 0
M  V30 2188 C 203.585 1.89791 -3.79822 0
M  V30 2189 O 204.609 1.53134 -3.21603 0
M  V30 2190 O 203.468 2.57387 -4.82093 0
M  V30 2191 H 200.562 0.420496 -0.712118 0
M  V30 2192 H 203.108 0.134591 -1.69165 0
M  V30 2193 H 201.88 0.640383 -3.86024 0
M  V30 2194 H 201.503 2.25287 -3.27615 0
M  V30 2195 N 202.5 1.5196 0.417844 0
M  V30 2196 C 203.911 1.57851 0.997 0
M  V30 2197 C 204.262 0.413714 1.91789 0
M  V30 2198 O 203.387 -0.467057 2.113 0
M  V30 2199 C 203.982 2.86085 1.81496 0
M  V30 2200 C 202.541 2.94483 2.34428 0
M  V30 2201 C 201.688 2.52707 1.14169 0
M  V30 2202 H 204.639 1.57455 0.198392 0
M  V30 2203 H 204.66 2.70947 2.67148 0
M  V30 2204 H 204.172 3.70842 1.14446 0
M  V30 2205 H 202.273 2.142 3.04875 0
M  V30 2206 H 202.386 3.98546 2.65891 0
M  V30 2207 H 200.75 2.06353 1.49301 0
M  V30 2208 H 201.533 3.39828 0.486999 0
M  V30 2209 N 203.978 -0.674533 1.42435 0
M  V30 2210 C 204.941 -1.76986 1.45632 0
M  V30 2211 C 205.941 -1.5708 0.343871 0
M  V30 2212 O 207.131 -1.63367 0.604709 0
M  V30 2213 C 204.263 -3.15623 1.28822 0
M  V30 2214 H 205.456 -1.75539 2.43158 0
M  V30 2215 H 203.009 -0.884189 1.28887 0
M  V30 2216 H 203.744 -3.22696 0.322193 0
M  V30 2217 H 203.529 -3.31475 2.09444 0
M  V30 2218 H 205.019 -3.95537 1.33942 0
M  V30 2219 N 205.456 -1.28612 -0.910864 0
M  V30 2220 C 206.366 -1.14643 -2.0468 0
M  V30 2221 C 207.382 -0.0723121 -1.7385 0
M  V30 2222 O 208.558 -0.282178 -1.99413 0
M  V30 2223 C 205.623 -0.812561 -3.37044 0
M  V30 2224 C 204.684 -1.96935 -3.81465 0
M  V30 2225 C 203.917 -1.65131 -5.07511 0
M  V30 2226 O 204.14 -0.567013 -5.67575 0
M  V30 2227 O 203.074 -2.49585 -5.47714 0
M  V30 2228 H 206.9 -2.1001 -2.19384 0
M  V30 2229 H 204.485 -1.07958 -1.03274 0
M  V30 2230 H 206.367 -0.640441 -4.16505 0
M  V30 2231 H 205.042 0.111426 -3.23508 0
M  V30 2232 H 203.949 -2.19664 -3.02818 0
M  V30 2233 H 205.282 -2.87414 -3.99567 0
M  V30 2234 N 206.934 1.1197 -1.10907 0
M  V30 2235 C 208.18 1.8386 -0.855773 0
M  V30 2236 C 208.513 1.84134 0.617103 0
M  V30 2237 O 207.788 1.29041 1.45529 0
M  V30 2238 C 208.071 3.31305 -1.411 0
M  V30 2239 C 207.924 3.39456 -2.9511 0
M  V30 2240 C 209.243 4.2721 -1.05736 0
M  V30 2241 H 206.362 0.667545 -0.312334 0
M  V30 2242 H 209.004 1.31331 -1.37303 0
M  V30 2243 H 207.154 3.76169 -0.97105 0
M  V30 2244 H 208.826 3.03191 -3.47668 0
M  V30 2245 H 207.069 2.79849 -3.31462 0
M  V30 2246 H 207.74 4.43209 -3.29044 0
M  V30 2247 H 210.216 3.90497 -1.43706 0
M  V30 2248 H 209.092 5.28775 -1.47269 0
M  V30 2249 H 209.353 4.42088 0.0325958 0
M  V30 2250 N 208.412 0.89855 1.29475 0
M  V30 2251 C 209.375 0.380272 2.26023 0
M  V30 2252 C 210.375 -0.484891 1.53315 0
M  V30 2253 O 211.565 -0.290108 1.71767 0
M  V30 2254 C 208.697 -0.45651 3.3783 0
M  V30 2255 H 209.89 1.23295 2.73383 0
M  V30 2256 H 207.443 0.676589 1.40897 0
M  V30 2257 H 208.178 -1.32922 2.95808 0
M  V30 2258 H 207.963 0.163393 3.91759 0
M  V30 2259 H 209.453 -0.810466 4.0966 0
M  V30 2260 N 209.89 -1.43072 0.660911 0
M  V30 2261 C 210.853 -2.29194 -0.0166406 0
M  V30 2262 C 211.853 -1.42609 -0.742912 0
M  V30 2263 O 213.043 -1.64155 -0.583004 0
M  V30 2264 C 210.175 -3.24831 -1.0343 0
M  V30 2265 H 211.368 -2.90596 0.741208 0
M  V30 2266 H 208.921 -1.5048 0.422532 0
M  V30 2267 H 209.656 -2.68339 -1.82111 0
M  V30 2268 H 209.441 -3.88676 -0.517082 0
M  V30 2269 H 210.931 -3.89451 -1.50723 0
M  V30 2270 N 211.368 -0.403325 -1.52352 0
M  V30 2271 C 212.593 0.176499 -2.06648 0
M  V30 2272 C 213.018 1.38577 -1.27193 0
M  V30 2273 O 212.376 1.7879 -0.300637 0
M  V30 2274 C 212.424 0.511061 -3.5696 0
M  V30 2275 O 211.528 1.60294 -3.79973 0
M  V30 2276 H 210.869 0.0167337 -0.663789 0
M  V30 2277 H 213.399 -0.574848 -1.96359 0
M  V30 2278 H 213.409 0.771362 -4.00642 0
M  V30 2279 H 212.084 -0.37296 -4.14224 0
M  V30 2280 H 210.661 1.33526 -3.48174 0
M  V30 2281 N 212.846 1.57033 -0.133567 0
M  V30 2282 C 213.793 2.16074 0.811208 0
M  V30 2283 C 214.763 1.08979 1.2535 0
M  V30 2284 O 215.948 1.36958 1.32843 0
M  V30 2285 C 213.088 2.77595 2.05024 0
M  V30 2286 C 212.201 3.99042 1.65498 0
M  V30 2287 C 211.336 4.48603 2.84479 0
M  V30 2288 C 210.375 5.62547 2.41262 0
M  V30 2289 N 209.512 6.06787 3.53206 0
M  V30 2290 H 214.352 2.96477 0.300906 0
M  V30 2291 H 211.889 1.46462 0.136822 0
M  V30 2292 H 213.847 3.11402 2.77642 0
M  V30 2293 H 212.477 1.99859 2.53488 0
M  V30 2294 H 211.529 3.71302 0.826981 0
M  V30 2295 H 212.841 4.81629 1.29748 0
M  V30 2296 H 211.995 4.84395 3.65303 0
M  V30 2297 H 210.734 3.64995 3.23465 0
M  V30 2298 H 209.739 5.26345 1.58874 0
M  V30 2299 H 210.964 6.47931 2.03377 0
M  V30 2300 H 208.91 5.26117 3.91838 0
M  V30 2301 H 208.827 6.84266 3.21427 0
M  V30 2302 H 210.095 6.4722 4.34427 0
M  V30 2303 N 214.325 -0.140222 1.56975 0
M  V30 2304 C 215.736 -0.699596 1.73097 0
M  V30 2305 C 216.087 -1.8134 0.749022 0
M  V30 2306 O 215.212 -2.16241 -0.0828503 0
M  V30 2307 C 215.807 -1.27582 3.1386 0
M  V30 2308 C 214.366 -1.78169 3.31561 0
M  V30 2309 C 213.513 -0.672855 2.69013 0
M  V30 2310 H 216.464 0.0855115 1.58469 0
M  V30 2311 H 216.485 -2.14561 3.14235 0
M  V30 2312 H 215.997 -0.464955 3.85305 0
M  V30 2313 H 214.098 -2.61801 2.65124 0
M  V30 2314 H 214.211 -1.90574 4.39566 0
M  V30 2315 H 212.575 -1.10118 2.29665 0
M  V30 2316 H 213.358 0.126679 3.43066 0
M  V30 2317 N 215.803 -1.52179 -0.40978 0
M  V30 2318 C 216.766 -1.74853 -1.48186 0
M  V30 2319 C 217.766 -0.618417 -1.48433 0
M  V30 2320 O 218.956 -0.886286 -1.49969 0
M  V30 2321 C 216.088 -1.8303 -2.87598 0
M  V30 2322 H 217.281 -2.70559 -1.29374 0
M  V30 2323 H 214.834 -1.42586 -0.640233 0
M  V30 2324 H 215.569 -0.89236 -3.11781 0
M  V30 2325 H 215.354 -2.65187 -2.88822 0
M  V30 2326 H 216.844 -2.02316 -3.65319 0
M  V30 2327 N 217.281 0.66697 -1.42791 0
M  V30 2328 C 218.692 1.2478 -1.38877 0
M  V30 2329 C 219.043 1.96012 -0.0859426 0
M  V30 2330 O 218.168 2.00463 0.815081 0
M  V30 2331 C 218.763 2.26938 -2.51564 0
M  V30 2332 C 217.322 2.80529 -2.50959 0
M  V30 2333 C 216.469 1.54965 -2.29959 0
M  V30 2334 H 219.42 0.459853 -1.51892 0
M  V30 2335 H 219.441 3.08834 -2.22265 0
M  V30 2336 H 218.953 1.75065 -3.46372 0
M  V30 2337 H 217.054 3.36502 -1.59991 0
M  V30 2338 H 217.167 3.29012 -3.48265 0
M  V30 2339 H 215.531 1.81817 -1.78366 0
M  V30 2340 H 216.314 1.05047 -3.26833 0
M  V30 2341 N 218.759 1.29093 0.90403 0
M  V30 2342 C 220.036 1.075 1.63411 0
M  V30 2343 C 220.416 -0.382346 2.07609 0
M  V30 2344 O 219.764 -1.37031 1.82851 0
M  V30 2345 C 219.974 2.05858 2.81822 0
M  V30 2346 C 221.322 2.36539 3.52611 0
M  V30 2347 O 222.346 2.04019 2.91984 0
M  V30 2348 O 221.205 2.92085 4.61897 0
M  V30 2349 H 218.299 0.411547 0.717327 0
M  V30 2350 H 220.845 1.40449 0.952479 0
M  V30 2351 H 219.617 3.04037 2.46327 0
M  V30 2352 H 219.24 1.73613 3.57693 0
M  V30 2353 N 220.237 -1.11381 1.11499 0
M  V30 2354 C 221.486 -1.82494 0.858993 0
M  V30 2355 C 221.799 -1.85605 -0.617278 0
M  V30 2356 O 223.005 -2.52824 -0.989552 0
M  V30 2357 C 221.461 -3.27745 1.48699 0
M  V30 2358 C 221.069 -3.32961 2.99735 0
M  V30 2359 C 222.813 -4.03754 1.31085 0
M  V30 2360 C 220.72 -4.72612 3.55516 0
M  V30 2361 H 219.65 -0.683802 0.317696 0
M  V30 2362 H 222.301 -1.25331 1.34031 0
M  V30 2363 H 220.683 -3.84844 0.933339 0
M  V30 2364 H 221.857 -2.85741 3.61509 0
M  V30 2365 H 220.172 -2.70433 3.16631 0
M  V30 2366 H 222.769 -5.06891 1.70192 0
M  V30 2367 H 223.112 -4.15527 0.253496 0
M  V30 2368 H 223.645 -3.53043 1.83318 0
M  V30 2369 H 220.384 -4.66036 4.60967 0
M  V30 2370 H 219.904 -5.2024 2.98513 0
M  V30 2371 H 221.583 -5.4157 3.53992 0
M  V30 2372 N 221.715 -0.905404 -1.28997 0
M  V30 2373 C 222.962 -0.534248 -1.95325 0
M  V30 2374 C 223.29 0.920535 -1.71337 0
M  V30 2375 O 222.545 1.66861 -1.02254 0
M  V30 2376 C 222.844 -0.779906 -3.48787 0
M  V30 2377 C 222.51 -2.21293 -3.92861 0
M  V30 2378 C 221.172 -2.60475 -4.04606 0
M  V30 2379 C 223.524 -3.14587 -4.15553 0
M  V30 2380 C 220.852 -3.9212 -4.36416 0
M  V30 2381 C 223.204 -4.45787 -4.48839 0
M  V30 2382 C 221.868 -4.84834 -4.58794 0
M  V30 2383 H 221.138 -0.195495 -0.714747 0
M  V30 2384 H 223.785 -1.14514 -1.53488 0
M  V30 2385 H 222.09 -0.0861365 -3.91705 0
M  V30 2386 H 223.787 -0.472029 -3.98212 0
M  V30 2387 H 220.377 -1.89887 -3.84241 0
M  V30 2388 H 224.561 -2.85528 -4.0594 0
M  V30 2389 H 219.817 -4.22086 -4.42327 0
M  V30 2390 H 223.991 -5.18098 -4.65346 0
M  V30 2391 H 221.618 -5.86877 -4.83197 0
M  V30 2392 N 223.193 1.4272 -0.668489 0
M  V30 2393 C 224.442 2.00846 -0.185389 0
M  V30 2394 C 224.755 1.53442 1.21305 0
M  V30 2395 O 225.961 2.03944 1.79218 0
M  V30 2396 C 224.417 3.58805 -0.280591 0
M  V30 2397 C 224.025 4.15198 -1.68268 0
M  V30 2398 C 225.769 4.24255 0.14412 0
M  V30 2399 C 223.676 5.655 -1.73099 0
M  V30 2400 H 222.606 0.751145 -0.0655475 0
M  V30 2401 H 225.257 1.63516 -0.832752 0
M  V30 2402 H 223.639 3.93608 0.434553 0
M  V30 2403 H 224.813 3.91866 -2.42441 0
M  V30 2404 H 223.128 3.62176 -2.05469 0
M  V30 2405 H 225.725 5.34547 0.128086 0
M  V30 2406 H 226.068 3.99277 1.17827 0
M  V30 2407 H 226.601 3.94389 -0.519798 0
M  V30 2408 H 223.34 5.95268 -2.74475 0
M  V30 2409 H 222.86 5.90842 -1.03274 0
M  V30 2410 H 224.539 6.29808 -1.48158 0
M  V30 2411 N 224.671 0.411399 1.52136 0
M  V30 2412 C 225.634 -0.401089 2.25663 0
M  V30 2413 C 226.634 -0.971732 1.28117 0
M  V30 2414 O 227.824 -0.850254 1.52041 0
M  V30 2415 C 224.956 -1.56483 3.02863 0
M  V30 2416 H 226.149 0.24295 2.98914 0
M  V30 2417 H 223.702 0.163968 1.55438 0
M  V30 2418 H 224.437 -2.24567 2.33967 0
M  V30 2419 H 224.222 -1.16211 3.74483 0
M  V30 2420 H 225.712 -2.13951 3.58629 0
M  V30 2421 N 226.149 -1.5696 0.141893 0
M  V30 2422 C 227.112 -2.15316 -0.785587 0
M  V30 2423 C 228.112 -1.09366 -1.1788 0
M  V30 2424 O 229.302 -1.35031 -1.10056 0
M  V30 2425 C 226.434 -2.71211 -2.06537 0
M  V30 2426 H 227.627 -2.98608 -0.278041 0
M  V30 2427 H 225.18 -1.5593 -0.107519 0
M  V30 2428 H 225.915 -1.91571 -2.6167 0
M  V30 2429 H 225.7 -3.4872 -1.79268 0
M  V30 2430 H 227.19 -3.16189 -2.72789 0
M  V30 2431 N 227.627 0.131896 -1.57047 0
M  V30 2432 C 228.59 1.14638 -1.98471 0
M  V30 2433 C 229.59 1.35029 -0.873148 0
M  V30 2434 O 230.78 1.31764 -1.13946 0
M  V30 2435 C 227.912 2.50358 -2.31373 0
M  V30 2436 H 229.105 0.79064 -2.8929 0
M  V30 2437 H 226.658 0.375761 -1.51716 0
M  V30 2438 H 227.393 2.90876 -1.43393 0
M  V30 2439 H 227.178 2.36915 -3.12432 0
M  V30 2440 H 228.668 3.23395 -2.64207 0
M  V30 2441 N 229.106 1.52395 0.401703 0
M  V30 2442 C 230.056 1.72649 1.48917 0
M  V30 2443 C 231.04 0.580436 1.50066 0
M  V30 2444 O 232.232 0.83779 1.55917 0
M  V30 2445 C 229.361 1.88729 2.86769 0
M  V30 2446 C 228.447 3.09228 2.90239 0
M  V30 2447 N 228.838 4.31805 2.63396 0
M  V30 2448 C 227.136 3.09214 3.21408 0
M  V30 2449 C 227.837 5.13326 2.73625 0
M  V30 2450 N 226.813 4.48735 3.06819 0
M  V30 2451 H 230.615 2.65058 1.26971 0
M  V30 2452 H 228.129 1.50528 0.609504 0
M  V30 2453 H 230.126 2.01358 3.65049 0
M  V30 2454 H 228.786 0.975252 3.09708 0
M  V30 2455 H 229.797 4.60154 2.37653 0
M  V30 2456 H 226.474 2.27774 3.49893 0
M  V30 2457 H 227.864 6.21003 2.56524 0
M  V30 2458 N 230.584 -0.659388 1.43143 0
M  V30 2459 C 231.547 -1.75432 1.47501 0
M  V30 2460 C 232.547 -1.56707 0.360512 0
M  V30 2461 O 233.737 -1.62717 0.622002 0
M  V30 2462 C 230.869 -3.14239 1.32162 0
M  V30 2463 H 232.062 -1.7295 2.45006 0
M  V30 2464 H 229.615 -0.870469 1.29817 0
M  V30 2465 H 230.35 -3.22336 0.356401 0
M  V30 2466 H 230.135 -3.29235 2.12948 0
M  V30 2467 H 231.625 -3.94094 1.3813 0
M  V30 2468 N 232.062 -1.29571 -0.897171 0
M  V30 2469 C 233.308 -1.17863 -1.65034 0
M  V30 2470 C 233.641 0.268729 -1.92332 0
M  V30 2471 O 232.916 1.19378 -1.53555 0
M  V30 2472 C 233.199 -1.995 -2.99786 0
M  V30 2473 C 233.052 -3.5239 -2.79538 0
M  V30 2474 C 234.371 -1.82335 -4.00552 0
M  V30 2475 H 231.49 -0.429528 -0.598895 0
M  V30 2476 H 234.132 -1.59072 -1.03905 0
M  V30 2477 H 232.282 -1.64485 -3.51962 0
M  V30 2478 H 233.954 -3.97401 -2.34244 0
M  V30 2479 H 232.197 -3.77187 -2.14273 0
M  V30 2480 H 232.868 -4.04787 -3.75302 0
M  V30 2481 H 235.344 -2.12924 -3.57495 0
M  V30 2482 H 234.22 -2.41801 -4.92771 0
M  V30 2483 H 234.481 -0.779209 -4.35179 0
M  V30 2484 N 233.54 1.10788 -1.12088 0
M  V30 2485 C 234.788 1.8231 -0.872205 0
M  V30 2486 C 235.109 1.85419 0.603709 0
M  V30 2487 O 234.379 1.32963 1.43867 0
M  V30 2488 H 232.959 0.675137 -0.319686 0
M  V30 2489 H 235.621 1.34068 -1.41463 0
M  V30 2490 H 234.717 2.85955 -1.25045 0
M  V30 2491 N 235.018 0.912232 1.28515 0
M  V30 2492 C 236.264 0.545405 1.95328 0
M  V30 2493 C 236.597 -0.908313 1.71649 0
M  V30 2494 O 235.872 -1.64575 1.03659 0
M  V30 2495 C 236.155 0.853483 3.4984 0
M  V30 2496 C 236.008 2.35982 3.82926 0
M  V30 2497 C 237.327 0.348589 4.38717 0
M  V30 2498 H 234.446 0.199626 0.709449 0
M  V30 2499 H 237.088 1.1412 1.5191 0
M  V30 2500 H 235.238 0.34643 3.86952 0
M  V30 2501 H 236.91 2.93738 3.55691 0
M  V30 2502 H 235.153 2.81543 3.30024 0
M  V30 2503 H 235.824 2.52593 4.90816 0
M  V30 2504 H 238.3 0.78294 4.08668 0
M  V30 2505 H 237.176 0.593242 5.45685 0
M  V30 2506 H 237.437 -0.751049 4.35674 0
M  V30 2507 N 236.496 -1.42363 0.676048 0
M  V30 2508 C 237.459 -2.29199 0.00766941 0
M  V30 2509 C 238.459 -1.43389 -0.727745 0
M  V30 2510 O 239.649 -1.64764 -0.56556 0
M  V30 2511 C 236.781 -3.2591 -0.999785 0
M  V30 2512 H 237.974 -2.89794 0.771988 0
M  V30 2513 H 235.527 -1.50024 0.438468 0
M  V30 2514 H 236.262 -2.70256 -1.79255 0
M  V30 2515 H 236.047 -3.89202 -0.475829 0
M  V30 2516 H 237.537 -3.91028 -1.46583 0
M  V30 2517 N 237.974 -0.419461 -1.51915 0
M  V30 2518 C 239.385 0.0477853 -1.86639 0
M  V30 2519 C 239.736 1.43531 -1.33766 0
M  V30 2520 O 238.861 2.05401 -0.68113 0
M  V30 2521 C 239.456 0.0934885 -3.38671 0
M  V30 2522 C 238.015 0.505097 -3.72996 0
M  V30 2523 C 237.162 -0.313792 -2.75519 0
M  V30 2524 H 240.113 -0.636088 -1.45395 0
M  V30 2525 H 240.134 0.906667 -3.6954 0
M  V30 2526 H 239.646 -0.916501 -3.77123 0
M  V30 2527 H 237.747 1.52135 -3.40126 0
M  V30 2528 H 237.86 0.242309 -4.78487 0
M  V30 2529 H 236.224 0.225363 -2.53701 0
M  V30 2530 H 237.007 -1.32232 -3.16812 0
M  V30 2531 N 239.452 1.56882 -0.150215 0
M  V30 2532 C 240.677 2.01027 0.510184 0
M  V30 2533 C 241.102 1.02966 1.57415 0
M  V30 2534 O 240.46 0.00590158 1.81299 0
M  V30 2535 C 240.508 3.43899 1.08472 0
M  V30 2536 O 239.612 3.4885 2.19948 0
M  V30 2537 H 238.953 0.652233 0.124451 0
M  V30 2538 H 241.483 2.03093 -0.247894 0
M  V30 2539 H 241.493 3.82766 1.41259 0
M  V30 2540 H 240.168 4.14776 0.305582 0
M  V30 2541 H 238.745 3.21827 1.88366 0
M  V30 2542 N 240.93 -0.123565 1.57115 0
M  V30 2543 C 241.84 -1.17074 2.033 0
M  V30 2544 C 242.856 -1.4561 0.952559 0
M  V30 2545 O 244.032 -1.56817 1.26374 0
M  V30 2546 C 241.097 -2.47857 2.42421 0
M  V30 2547 C 240.158 -2.26758 3.64526 0
M  V30 2548 C 239.391 -3.51305 4.01771 0
M  V30 2549 O 239.614 -4.5843 3.39409 0
M  V30 2550 O 238.548 -3.42578 4.94898 0
M  V30 2551 H 242.374 -0.808555 2.92739 0
M  V30 2552 H 239.959 -0.334027 1.45618 0
M  V30 2553 H 241.841 -3.2492 2.68338 0
M  V30 2554 H 240.516 -2.83558 1.5613 0
M  V30 2555 H 239.423 -1.47569 3.43765 0
M  V30 2556 H 240.756 -1.95963 4.51508 0
M  V30 2557 N 242.408 -1.52605 -0.393616 0
M  V30 2558 C 243.633 -1.71592 -1.16495 0
M  V30 2559 C 244.058 -0.43133 -1.83088 0
M  V30 2560 O 243.416 0.612523 -1.7064 0
M  V30 2561 C 243.464 -2.86318 -2.19213 0
M  V30 2562 O 242.568 -2.52969 -3.257 0
M  V30 2563 H 241.909 -0.570734 -0.33935 0
M  V30 2564 H 244.439 -1.99377 -0.459324 0
M  V30 2565 H 244.449 -3.1168 -2.63286 0
M  V30 2566 H 243.124 -3.79511 -1.7013 0
M  V30 2567 H 241.701 -2.38332 -2.86797 0
M  V30 2568 N 243.887 0.651787 -1.4349 0
M  V30 2569 C 245.136 1.40754 -1.44469 0
M  V30 2570 C 245.449 1.95463 -0.0731845 0
M  V30 2571 O 246.655 2.71471 0.0395721 0
M  V30 2572 C 245.111 2.54735 -2.5424 0
M  V30 2573 C 244.719 2.06628 -3.97504 0
M  V30 2574 C 246.463 3.32092 -2.64414 0
M  V30 2575 C 244.37 3.17829 -4.98737 0
M  V30 2576 H 243.3 0.528862 -0.53742 0
M  V30 2577 H 245.951 0.703365 -1.69485 0
M  V30 2578 H 244.333 3.2763 -2.22428 0
M  V30 2579 H 245.507 1.40734 -4.38783 0
M  V30 2580 H 243.822 1.42146 -3.91387 0
M  V30 2581 H 246.419 4.14952 -3.37223 0
M  V30 2582 H 246.762 3.80217 -1.69532 0
M  V30 2583 H 247.295 2.66279 -2.95534 0
M  V30 2584 H 244.034 2.74671 -5.95177 0
M  V30 2585 H 243.554 3.82429 -4.62069 0
M  V30 2586 H 245.233 3.82937 -5.21505 0
M  V30 2587 N 245.365 1.30045 0.890287 0
M  V30 2588 C 246.613 1.18327 1.63839 0
M  V30 2589 C 246.934 -0.263455 1.93212 0
M  V30 2590 O 246.204 -1.17856 1.56482 0
M  V30 2591 H 244.784 0.434933 0.607324 0
M  V30 2592 H 247.446 1.631 1.06698 0
M  V30 2593 H 246.542 1.74024 2.59079 0
M  V30 2594 N 246.843 -1.10192 1.12674 0
M  V30 2595 C 247.773 -2.18652 0.819362 0
M  V30 2596 C 248.754 -1.68698 -0.217915 0
M  V30 2597 O 249.939 -1.94041 -0.0785581 0
M  V30 2598 C 247.069 -3.46202 0.27594 0
M  V30 2599 C 246.023 -4.09444 1.24656 0
M  V30 2600 C 245.349 -5.31725 0.563258 0
M  V30 2601 C 246.649 -4.52863 2.60217 0
M  V30 2602 H 248.343 -2.44622 1.72628 0
M  V30 2603 H 245.889 -1.17571 0.831451 0
M  V30 2604 H 247.842 -4.21372 0.0486149 0
M  V30 2605 H 246.566 -3.1973 -0.666331 0
M  V30 2606 H 245.225 -3.36284 1.45974 0
M  V30 2607 H 244.873 -5.0153 -0.384235 0
M  V30 2608 H 244.573 -5.74991 1.21075 0
M  V30 2609 H 246.097 -6.09624 0.34503 0
M  V30 2610 H 247.511 -5.19294 2.42913 0
M  V30 2611 H 245.908 -5.06986 3.21068 0
M  V30 2612 H 246.978 -3.65656 3.18471 0
M  V30 2613 N 248.321 -0.919034 -1.28029 0
M  V30 2614 C 249.231 -0.416756 -2.30869 0
M  V30 2615 C 250.247 0.498235 -1.66714 0
M  V30 2616 O 251.423 0.383144 -1.97722 0
M  V30 2617 C 248.488 0.330274 -3.45123 0
M  V30 2618 C 247.549 -0.618578 -4.2482 0
M  V30 2619 C 246.782 0.0928959 -5.33619 0
M  V30 2620 O 247.005 1.31375 -5.55065 0
M  V30 2621 O 245.939 -0.574499 -5.99152 0
M  V30 2622 H 249.765 -1.27043 -2.75851 0
M  V30 2623 H 247.35 -0.684052 -1.3282 0
M  V30 2624 H 249.232 0.751972 -4.14636 0
M  V30 2625 H 247.907 1.1597 -3.02213 0
M  V30 2626 H 246.814 -1.08978 -3.57875 0
M  V30 2627 H 248.147 -1.41497 -4.71423 0
M  V30 2628 N 249.799 1.42003 -0.683588 0
M  V30 2629 C 251.076 1.95112 -0.138075 0
M  V30 2630 C 251.456 1.62359 1.34918 0
M  V30 2631 O 250.804 0.924311 2.08971 0
M  V30 2632 C 251.014 3.46505 -0.416581 0
M  V30 2633 C 252.362 4.23254 -0.337834 0
M  V30 2634 O 253.386 3.54468 -0.35082 0
M  V30 2635 O 252.245 5.45743 -0.287596 0
M  V30 2636 H 249.339 0.826961 -0.00797996 0
M  V30 2637 H 251.885 1.51784 -0.758924 0
M  V30 2638 H 250.657 3.63582 -1.4465 0
M  V30 2639 H 250.28 3.969 0.235839 0
M  V30 2640 N 251.277 0.427512 1.51691 0
M  V30 2641 C 252.502 -0.143601 2.06902 0
M  V30 2642 C 252.927 -1.36536 1.29382 0
M  V30 2643 O 252.285 -1.78289 0.329043 0
M  V30 2644 C 252.333 -0.454207 3.57728 0
M  V30 2645 O 251.437 -1.54228 3.82475 0
M  V30 2646 H 250.778 -0.00617128 0.663971 0
M  V30 2647 H 253.308 0.606014 1.95419 0
M  V30 2648 H 253.318 -0.707525 4.01818 0
M  V30 2649 H 251.993 0.438812 4.13579 0
M  V30 2650 H 250.57 -1.2797 3.50254 0
M  V30 2651 N 252.755 -1.56801 0.158532 0
M  V30 2652 C 253.687 -2.14488 -0.807923 0
M  V30 2653 C 254.7 -1.09721 -1.20271 0
M  V30 2654 O 255.889 -1.36956 -1.14478 0
M  V30 2655 C 252.989 -2.66217 -2.09718 0
M  V30 2656 C 252.162 -3.95507 -1.86796 0
M  V30 2657 C 251.221 -4.3243 -2.99818 0
M  V30 2658 O 250.247 -5.00543 -2.71008 0
M  V30 2659 N 251.449 -3.92947 -4.27285 0
M  V30 2660 H 254.214 -2.98042 -0.314816 0
M  V30 2661 H 251.775 -1.61881 -0.0246692 0
M  V30 2662 H 253.767 -2.87924 -2.84398 0
M  V30 2663 H 252.337 -1.87324 -2.50257 0
M  V30 2664 H 251.557 -3.82309 -0.96089 0
M  V30 2665 H 252.845 -4.79972 -1.68833 0
M  V30 2666 H 252.243 -3.38087 -4.53557 0
M  V30 2667 H 250.8 -4.19681 -4.9871 0
M  V30 2668 N 254.233 0.115231 -1.57178 0
M  V30 2669 C 255.196 1.12526 -1.99676 0
M  V30 2670 C 256.196 1.34095 -0.88742 0
M  V30 2671 O 257.386 1.30548 -1.15337 0
M  V30 2672 C 254.518 2.4789 -2.34015 0
M  V30 2673 H 255.711 0.759912 -2.90113 0
M  V30 2674 H 253.264 0.359648 -1.52106 0
M  V30 2675 H 253.999 2.89339 -1.4647 0
M  V30 2676 H 253.784 2.33588 -3.14927 0
M  V30 2677 H 255.274 3.20575 -2.67622 0
M  V30 2678 N 255.711 1.52812 0.385517 0
M  V30 2679 C 256.959 1.67694 1.12797 0
M  V30 2680 C 257.28 0.421115 1.90399 0
M  V30 2681 O 256.55 -0.564551 1.87589 0
M  V30 2682 H 255.13 0.618155 0.419396 0
M  V30 2683 H 257.792 1.89938 0.436972 0
M  V30 2684 H 256.888 2.52896 1.82894 0
M  V30 2685 N 257.189 -0.644168 1.43834 0
M  V30 2686 C 258.438 -1.39985 1.45214 0
M  V30 2687 C 258.751 -1.95421 0.0835494 0
M  V30 2688 O 259.957 -2.71488 -0.0251748 0
M  V30 2689 C 258.413 -2.53384 2.55587 0
M  V30 2690 C 258.021 -2.04517 3.98594 0
M  V30 2691 C 259.765 -3.30685 2.66172 0
M  V30 2692 C 257.672 -3.1518 5.00416 0
M  V30 2693 H 256.602 -0.526005 0.540218 0
M  V30 2694 H 259.253 -0.694367 1.69855 0
M  V30 2695 H 257.635 -3.26446 2.24163 0
M  V30 2696 H 258.809 -1.38405 4.39523 0
M  V30 2697 H 257.124 -1.40068 3.92135 0
M  V30 2698 H 259.721 -4.13158 3.39418 0
M  V30 2699 H 260.064 -3.79312 1.71546 0
M  V30 2700 H 260.597 -2.64708 2.96942 0
M  V30 2701 H 257.336 -2.71511 5.96625 0
M  V30 2702 H 256.856 -3.79974 4.64091 0
M  V30 2703 H 258.535 -3.80166 5.23529 0
M  V30 2704 N 258.668 -1.30515 -0.883378 0
M  V30 2705 C 259.6 -1.12846 -1.99496 0
M  V30 2706 C 260.613 -0.0712571 -1.62644 0
M  V30 2707 O 261.802 -0.317432 -1.75655 0
M  V30 2708 C 258.902 -0.699123 -3.3161 0
M  V30 2709 C 258.075 -1.83842 -3.96889 0
M  V30 2710 C 257.134 -1.39737 -5.07307 0
M  V30 2711 O 256.16 -2.10485 -5.28852 0
M  V30 2712 N 257.362 -0.277279 -5.79837 0
M  V30 2713 H 260.127 -2.08585 -2.15203 0
M  V30 2714 H 257.688 -1.22672 -1.05656 0
M  V30 2715 H 259.68 -0.387044 -4.02845 0
M  V30 2716 H 258.25 0.166276 -3.12157 0
M  V30 2717 H 257.47 -2.31853 -3.18807 0
M  V30 2718 H 258.758 -2.60187 -4.37241 0
M  V30 2719 H 258.156 0.3122 -5.64838 0
M  V30 2720 H 256.713 -0.0246623 -6.51795 0
M  V30 2721 N 260.146 1.09593 -1.13257 0
M  V30 2722 C 261.109 2.14359 -0.811358 0
M  V30 2723 C 262.109 1.59808 0.178377 0
M  V30 2724 O 263.299 1.74132 -0.0484911 0
M  V30 2725 C 260.431 3.40269 -0.207276 0
M  V30 2726 H 261.624 2.44284 -1.73969 0
M  V30 2727 H 259.177 1.25102 -0.936973 0
M  V30 2728 H 259.912 3.15969 0.73036 0
M  V30 2729 H 259.697 3.81154 -0.919992 0
M  V30 2730 H 261.187 4.176 0.000667944 0
M  V30 2731 N 261.624 0.925811 1.2754 0
M  V30 2732 C 262.873 0.561084 1.93739 0
M  V30 2733 C 263.186 -0.901685 1.73577 0
M  V30 2734 O 264.392 -1.37511 2.34101 0
M  V30 2735 C 262.848 0.952668 3.47062 0
M  V30 2736 C 262.456 2.43599 3.75983 0
M  V30 2737 C 264.2 0.659103 4.19352 0
M  V30 2738 C 262.107 2.76707 5.22673 0
M  V30 2739 H 261.037 0.206122 0.725279 0
M  V30 2740 H 263.688 1.12637 1.44863 0
M  V30 2741 H 262.07 0.316053 3.94737 0
M  V30 2742 H 263.244 3.12035 3.39073 0
M  V30 2743 H 261.559 2.70125 3.16893 0
M  V30 2744 H 264.156 0.882985 5.27359 0
M  V30 2745 H 264.499 -0.403607 4.14339 0
M  V30 2746 H 265.032 1.25473 3.77494 0
M  V30 2747 H 261.771 3.8188 5.32774 0
M  V30 2748 H 261.291 2.12919 5.60737 0
M  V30 2749 H 262.97 2.6435 5.90532 0
M  V30 2750 N 263.102 -1.41638 0.69111 0
M  V30 2751 C 264.049 -2.30789 0.0229705 0
M  V30 2752 C 265.019 -1.46863 -0.775911 0
M  V30 2753 O 266.204 -1.75661 -0.74485 0
M  V30 2754 C 263.344 -3.32868 -0.910666 0
M  V30 2755 C 262.457 -4.31875 -0.103874 0
M  V30 2756 C 261.592 -5.21024 -1.03475 0
M  V30 2757 C 260.631 -6.11702 -0.220598 0
M  V30 2758 N 259.768 -6.93349 -1.10504 0
M  V30 2759 H 264.608 -2.87366 0.788978 0
M  V30 2760 H 262.145 -1.41535 0.400794 0
M  V30 2761 H 264.103 -3.90596 -1.46597 0
M  V30 2762 H 262.733 -2.77851 -1.64312 0
M  V30 2763 H 261.785 -3.76131 0.568285 0
M  V30 2764 H 263.097 -4.96003 0.527504 0
M  V30 2765 H 262.251 -5.83565 -1.65943 0
M  V30 2766 H 260.99 -4.57112 -1.69999 0
M  V30 2767 H 259.995 -5.48215 0.417187 0
M  V30 2768 H 261.22 -6.77668 0.440784 0
M  V30 2769 H 259.166 -6.3205 -1.75638 0
M  V30 2770 H 259.083 -7.54146 -0.529125 0
M  V30 2771 H 260.351 -7.60362 -1.71667 0
M  V30 2772 N 264.58 -0.43555 -1.51462 0
M  V30 2773 C 265.857 0.191364 -1.94662 0
M  V30 2774 C 266.237 1.60254 -1.37411 0
M  V30 2775 O 265.585 2.2152 -0.560458 0
M  V30 2776 C 265.795 0.17091 -3.48581 0
M  V30 2777 C 267.143 0.377357 -4.2292 0
M  V30 2778 O 268.167 0.249104 -3.55328 0
M  V30 2779 O 267.026 0.63247 -5.42828 0
M  V30 2780 H 264.12 0.130932 -0.816569 0
M  V30 2781 H 266.666 -0.4934 -1.62369 0
M  V30 2782 H 265.438 -0.815738 -3.82703 0
M  V30 2783 H 265.061 0.898659 -3.87311 0
M  V30 2784 N 266.058 1.56714 -0.166846 0
M  V30 2785 C 267.283 2.01557 0.488833 0
M  V30 2786 C 267.708 1.0463 1.56314 0
M  V30 2787 O 267.066 0.0251304 1.81283 0
M  V30 2788 C 267.114 3.4503 1.04818 0
M  V30 2789 O 266.218 3.51163 2.16236 0
M  V30 2790 H 265.559 0.653516 0.117526 0
M  V30 2791 H 268.089 2.02818 -0.269421 0
M  V30 2792 H 268.099 3.84243 1.37191 0
M  V30 2793 H 266.774 4.15077 0.261572 0
M  V30 2794 H 265.351 3.23807 1.84942 0
M  V30 2795 N 267.536 -0.106894 1.57237 0
M  V30 2796 C 268.784 -0.810921 1.85117 0
M  V30 2797 C 269.105 -1.7984 0.753827 0
M  V30 2798 O 268.375 -1.94649 -0.221056 0
M  V30 2799 H 266.955 -0.302466 0.683025 0
M  V30 2800 H 269.617 -0.0913324 1.94686 0
M  V30 2801 H 268.713 -1.34875 2.81452 0
M  V30 2802 N 269.014 -1.53014 -0.377408 0
M  V30 2803 C 269.977 -1.77957 -1.44444 0
M  V30 2804 C 270.977 -0.649763 -1.47087 0
M  V30 2805 O 272.167 -0.917897 -1.48055 0
M  V30 2806 C 269.299 -1.89089 -2.83651 0
M  V30 2807 H 270.492 -2.73243 -1.23606 0
M  V30 2808 H 268.045 -1.43912 -0.609844 0
M  V30 2809 H 268.78 -0.958293 -3.09818 0
M  V30 2810 H 268.565 -2.71254 -2.83132 0
M  V30 2811 H 270.055 -2.1002 -3.60945 0
M  V30 2812 N 270.492 0.636531 -1.44174 0
M  V30 2813 C 271.422 1.76003 -1.53444 0
M  V30 2814 C 272.403 1.65619 -0.387841 0
M  V30 2815 O 273.588 1.84461 -0.607257 0
M  V30 2816 C 270.718 3.14511 -1.4731 0
M  V30 2817 C 269.672 3.39677 -2.60391 0
M  V30 2818 C 268.998 4.78159 -2.39308 0
M  V30 2819 C 270.298 3.32772 -4.02567 0
M  V30 2820 H 271.992 1.68501 -2.47483 0
M  V30 2821 H 269.538 0.809237 -1.19111 0
M  V30 2822 H 271.491 3.92878 -1.52397 0
M  V30 2823 H 270.215 3.22783 -0.49785 0
M  V30 2824 H 268.874 2.63688 -2.54684 0
M  V30 2825 H 268.522 4.83128 -1.39988 0
M  V30 2826 H 268.222 4.95956 -3.15122 0
M  V30 2827 H 269.746 5.58762 -2.46205 0
M  V30 2828 H 271.16 4.01051 -4.09672 0
M  V30 2829 H 269.557 3.62104 -4.7854 0
M  V30 2830 H 270.627 2.30669 -4.2652 0
M  V30 2831 N 271.97 1.30982 0.876444 0
M  V30 2832 C 273.381 1.18277 1.44456 0
M  V30 2833 C 273.732 -0.213265 1.95037 0
M  V30 2834 O 272.857 -1.11057 1.85729 0
M  V30 2835 C 273.452 2.1411 2.62569 0
M  V30 2836 C 272.011 2.05358 3.15444 0
M  V30 2837 C 271.158 2.03706 1.88146 0
M  V30 2838 H 274.109 1.43127 0.685584 0
M  V30 2839 H 274.13 1.72692 3.39054 0
M  V30 2840 H 273.642 3.15706 2.25724 0
M  V30 2841 H 271.743 1.06934 3.56926 0
M  V30 2842 H 271.856 2.94156 3.78166 0
M  V30 2843 H 270.22 1.48629 2.06837 0
M  V30 2844 H 271.003 3.07047 1.53547 0
M  V30 2845 N 273.449 -1.08991 1.13837 0
M  V30 2846 C 274.698 -1.80631 0.897509 0
M  V30 2847 C 275.011 -1.86872 -0.57777 0
M  V30 2848 O 276.217 -2.54866 -0.935701 0
M  V30 2849 C 274.673 -3.24517 1.55618 0
M  V30 2850 C 274.281 -3.26529 3.0673 0
M  V30 2851 C 276.025 -4.00882 1.3962 0
M  V30 2852 C 273.932 -4.64965 3.65461 0
M  V30 2853 H 272.862 -0.67691 0.332129 0
M  V30 2854 H 275.513 -1.2246 1.3666 0
M  V30 2855 H 273.895 -3.82778 1.01476 0
M  V30 2856 H 275.069 -2.78008 3.67489 0
M  V30 2857 H 273.384 -2.63656 3.22296 0
M  V30 2858 H 275.981 -5.03167 1.80906 0
M  V30 2859 H 276.324 -4.14896 0.341578 0
M  V30 2860 H 276.857 -3.49075 1.90766 0
M  V30 2861 H 273.596 -4.56153 4.70749 0
M  V30 2862 H 273.116 -5.13792 3.09481 0
M  V30 2863 H 274.795 -5.3394 3.654 0
M  V30 2864 N 274.927 -0.932562 -1.27047 0
M  V30 2865 C 276.175 -0.574422 -1.93765 0
M  V30 2866 C 276.496 0.887993 -1.73608 0
M  V30 2867 O 275.766 1.62999 -1.08665 0
M  V30 2868 H 274.346 -0.209451 -0.717035 0
M  V30 2869 H 277.008 -1.18601 -1.5466 0
M  V30 2870 H 276.104 -0.784841 -3.02071 0
M  V30 2871 N 276.405 1.4127 -0.698611 0
M  V30 2872 C 277.651 2.01478 -0.231207 0
M  V30 2873 C 277.984 1.55215 1.16713 0
M  V30 2874 O 277.259 0.764672 1.78838 0
M  V30 2875 C 277.542 3.58912 -0.292281 0
M  V30 2876 C 277.395 4.15293 -1.72778 0
M  V30 2877 C 278.714 4.38736 0.346194 0
M  V30 2878 H 275.833 0.732025 -0.0854878 0
M  V30 2879 H 278.475 1.67977 -0.887906 0
M  V30 2880 H 276.625 3.87582 0.26686 0
M  V30 2881 H 278.297 3.97486 -2.341 0
M  V30 2882 H 276.54 3.7022 -2.26096 0
M  V30 2883 H 277.211 5.24452 -1.72202 0
M  V30 2884 H 279.687 4.15897 -0.130035 0
M  V30 2885 H 278.563 5.48221 0.272932 0
M  V30 2886 H 278.824 4.18425 1.42734 0
M  V30 2887 N 277.883 0.443576 1.51229 0
M  V30 2888 C 279.131 -0.120557 2.0174 0
M  V30 2889 C 279.452 -1.42665 1.32935 0
M  V30 2890 O 278.722 -1.9028 0.465866 0
M  V30 2891 H 277.302 -0.0475426 0.745486 0
M  V30 2892 H 279.964 0.587711 1.85828 0
M  V30 2893 H 279.06 -0.291972 3.10731 0
M  V30 2894 N 279.361 -1.56624 0.175154 0
M  V30 2895 C 280.777 -1.58571 -0.180966 0
M  V30 2896 C 280.977 -1.19065 -1.6256 0
M  V30 2897 O 280.033 -0.904044 -2.35761 0
M  V30 2898 C 281.346 -3.00522 0.103326 0
M  V30 2899 C 282.894 -3.12972 0.0418426 0
M  V30 2900 C 283.369 -4.57022 0.299175 0
M  V30 2901 N 284.86 -4.62541 0.247086 0
M  V30 2902 C 285.595 -5.71857 0.420318 0
M  V30 2903 N 285.091 -6.89717 0.652816 0
M  V30 2904 N 286.884 -5.60972 0.355957 0
M  V30 2905 H 279.035 -1.80589 1.11809 0
M  V30 2906 H 281.298 -0.837178 0.444788 0
M  V30 2907 H 281.004 -3.33916 1.10422 0
M  V30 2908 H 280.878 -3.72344 -0.603299 0
M  V30 2909 H 283.265 -2.79403 -0.949636 0
M  V30 2910 H 283.346 -2.43578 0.781238 0
M  V30 2911 H 282.99 -4.913 1.28788 0
M  V30 2912 H 282.92 -5.24579 -0.460876 0
M  V30 2913 H 285.411 -3.77829 0.0731895 0
M  V30 2914 H 285.724 -7.68911 0.774347 0
M  V30 2915 H 284.069 -6.91572 0.689476 0
M  V30 2916 H 287.26 -4.67773 0.174882 0
M  V30 2917 H 287.433 -6.46111 0.494388 0
M  V30 2918 N 280.839 0.0985539 -1.57292 0
M  V30 2919 C 282.25 0.653457 -1.74891 0
M  V30 2920 C 282.601 1.7929 -0.796838 0
M  V30 2921 O 281.726 2.16385 0.0254886 0
M  V30 2922 C 282.321 1.19216 -3.17133 0
M  V30 2923 C 280.88 1.69316 -3.36168 0
M  V30 2924 C 280.027 0.601294 -2.70702 0
M  V30 2925 H 282.978 -0.127497 -1.58187 0
M  V30 2926 H 282.999 2.06154 -3.19814 0
M  V30 2927 H 282.511 0.362635 -3.86402 0
M  V30 2928 H 280.612 2.5468 -2.71972 0
M  V30 2929 H 280.725 1.78853 -4.44464 0
M  V30 2930 H 279.089 1.0399 -2.32504 0
M  V30 2931 H 279.872 -0.217592 -3.4261 0
M  V30 2932 N 282.317 1.53212 0.369288 0
M  V30 2933 C 283.227 1.82342 1.47609 0
M  V30 2934 C 284.243 0.711532 1.58787 0
M  V30 2935 O 285.419 1.0012 1.74751 0
M  V30 2936 C 282.484 2.00393 2.8292 0
M  V30 2937 C 281.545 3.24297 2.81301 0
M  V30 2938 C 280.778 3.41478 4.10157 0
M  V30 2939 O 281.001 2.63033 5.06132 0
M  V30 2940 O 279.935 4.34817 4.16194 0
M  V30 2941 H 283.761 2.76366 1.25918 0
M  V30 2942 H 281.346 1.38547 0.559034 0
M  V30 2943 H 283.228 2.13859 3.63101 0
M  V30 2944 H 281.903 1.09559 3.04596 0
M  V30 2945 H 280.81 3.16257 1.99831 0
M  V30 2946 H 282.143 4.15041 2.64578 0
M  V30 2947 N 283.795 -0.628877 1.44509 0
M  V30 2948 C 285.072 -1.38733 1.37886 0
M  V30 2949 C 285.452 -2.11065 0.0387008 0
M  V30 2950 O 284.8 -2.06476 -0.97878 0
M  V30 2951 C 285.01 -2.35188 2.57852 0
M  V30 2952 C 286.358 -2.9845 3.02014 0
M  V30 2953 O 287.382 -2.45513 2.58073 0
M  V30 2954 O 286.241 -3.94487 3.78209 0
M  V30 2955 H 283.335 -0.621015 0.54614 0
M  V30 2956 H 285.881 -0.653744 1.56602 0
M  V30 2957 H 284.653 -1.80855 3.46998 0
M  V30 2958 H 284.276 -3.1596 2.4136 0
M  V30 2959 N 285.273 -1.31445 -0.869486 0
M  V30 2960 C 286.203 -1.21727 -1.99261 0
M  V30 2961 C 287.184 -0.104359 -1.6978 0
M  V30 2962 O 288.369 -0.289038 -1.92037 0
M  V30 2963 C 285.499 -0.924317 -3.34774 0
M  V30 2964 C 284.453 -1.99685 -3.78563 0
M  V30 2965 C 283.779 -1.55658 -5.11541 0
M  V30 2966 C 285.079 -3.41003 -3.95619 0
M  V30 2967 H 286.773 -2.1569 -2.07649 0
M  V30 2968 H 284.319 -1.03839 -0.997675 0
M  V30 2969 H 286.272 -0.842934 -4.12883 0
M  V30 2970 H 284.996 0.0509793 -3.2656 0
M  V30 2971 H 283.655 -2.06813 -3.02694 0
M  V30 2972 H 283.303 -0.569132 -4.9977 0
M  V30 2973 H 283.003 -2.27409 -5.41811 0
M  V30 2974 H 284.527 -1.48928 -5.92159 0
M  V30 2975 H 285.941 -3.36547 -4.64122 0
M  V30 2976 H 284.338 -4.10975 -4.37286 0
M  V30 2977 H 285.408 -3.81754 -2.98985 0
M  V30 2978 N 286.751 1.08385 -1.14413 0
M  V30 2979 C 287.999 1.80419 -0.910679 0
M  V30 2980 C 288.32 1.86658 0.564243 0
M  V30 2981 O 287.59 1.35985 1.41014 0
M  V30 2982 H 286.17 0.668204 -0.333934 0
M  V30 2983 H 288.832 1.31037 -1.44275 0
M  V30 2984 H 287.928 2.83238 -1.31082 0
M  V30 2985 N 288.23 0.939286 1.26551 0
M  V30 2986 C 289.507 0.5038 1.89001 0
M  V30 2987 C 289.887 -1.01854 1.84903 0
M  V30 2988 O 289.235 -1.87773 1.30206 0
M  V30 2989 C 289.445 1.063 3.32417 0
M  V30 2990 C 290.793 1.13051 4.09273 0
M  V30 2991 O 291.817 1.01345 3.41479 0
M  V30 2992 O 290.676 1.31233 5.30509 0
M  V30 2993 H 287.77 0.163897 0.810597 0
M  V30 2994 H 290.316 1.03173 1.34735 0
M  V30 2995 H 289.088 2.10665 3.29752 0
M  V30 2996 H 288.711 0.517408 3.94219 0
M  V30 2997 N 289.708 -1.40897 0.706093 0
M  V30 2998 C 290.985 -1.94868 0.169099 0
M  V30 2999 C 291.365 -1.64485 -1.32318 0
M  V30 3000 O 290.713 -0.95744 -2.07474 0
M  V30 3001 C 290.923 -3.45798 0.471654 0
M  V30 3002 C 292.271 -4.22663 0.405127 0
M  V30 3003 O 293.295 -3.53865 0.407168 0
M  V30 3004 O 292.154 -5.45216 0.374383 0
M  V30 3005 H 289.248 -0.82673 0.0211352 0
M  V30 3006 H 291.794 -1.50558 0.782976 0
M  V30 3007 H 290.566 -3.61235 1.50416 0
M  V30 3008 H 290.189 -3.97225 -0.172666 0
M  V30 3009 N 291.186 -0.45159 -1.50991 0
M  V30 3010 C 292.435 0.111653 -2.01391 0
M  V30 3011 C 292.748 1.42529 -1.33959 0
M  V30 3012 O 293.954 2.07232 -1.75405 0
M  V30 3013 C 292.41 0.249514 -3.59034 0
M  V30 3014 C 292.018 -1.05453 -4.35412 0
M  V30 3015 C 293.762 0.765762 -4.17536 0
M  V30 3016 C 291.669 -0.881529 -5.84793 0
M  V30 3017 H 290.599 0.0455022 -0.752626 0
M  V30 3018 H 293.25 -0.583524 -1.73975 0
M  V30 3019 H 291.632 1.00803 -3.82955 0
M  V30 3020 H 292.806 -1.82248 -4.23229 0
M  V30 3021 H 291.121 -1.50039 -3.88429 0
M  V30 3022 H 293.718 0.911913 -5.26866 0
M  V30 3023 H 294.061 1.75201 -3.77638 0
M  V30 3024 H 294.594 0.0651744 -3.97747 0
M  V30 3025 H 291.333 -1.84057 -6.29129 0
M  V30 3026 H 290.853 -0.153625 -5.99603 0
M  V30 3027 H 292.532 -0.540363 -6.4474 0
M  V30 3028 N 292.664 1.56529 -0.183458 0
M  V30 3029 C 293.91 1.97537 0.459036 0
M  V30 3030 C 294.243 1.06989 1.62071 0
M  V30 3031 O 293.518 0.11948 1.94133 0
M  V30 3032 C 293.801 3.47874 0.930368 0
M  V30 3033 C 293.654 4.492 -0.232317 0
M  V30 3034 C 294.973 4.01612 1.79989 0
M  V30 3035 H 292.092 0.718204 0.165383 0
M  V30 3036 H 294.734 1.88042 -0.272038 0
M  V30 3037 H 292.884 3.56095 1.55333 0
M  V30 3038 H 294.556 4.53027 -0.86972 0
M  V30 3039 H 292.799 4.24657 -0.885928 0
M  V30 3040 H 293.47 5.51823 0.139796 0
M  V30 3041 H 295.946 3.96097 1.27461 0
M  V30 3042 H 294.822 5.07195 2.09867 0
M  V30 3043 H 295.083 3.46163 2.74998 0
M  V30 3044 N 294.142 -0.090211 1.57342 0
M  V30 3045 C 295.391 -0.791531 1.8552 0
M  V30 3046 C 295.704 -1.79659 0.773441 0
M  V30 3047 O 296.91 -2.54616 0.942497 0
M  V30 3048 C 295.366 -1.45856 3.2902 0
M  V30 3049 C 294.974 -0.493017 4.45279 0
M  V30 3050 C 296.718 -2.14332 3.66418 0
M  V30 3051 C 294.625 -1.16491 5.79814 0
M  V30 3052 H 293.555 -0.299356 0.692027 0
M  V30 3053 H 296.206 -0.0445343 1.83446 0
M  V30 3054 H 294.588 -2.25318 3.2565 0
M  V30 3055 H 295.762 0.270464 4.60006 0
M  V30 3056 H 294.077 0.0863061 4.16311 0
M  V30 3057 H 296.674 -2.65344 4.64216 0
M  V30 3058 H 297.017 -2.93447 2.95287 0
M  V30 3059 H 297.55 -1.41724 3.71698 0
M  V30 3060 H 294.289 -0.41447 6.54188 0
M  V30 3061 H 293.809 -1.8997 5.68921 0
M  V30 3062 H 295.488 -1.69001 6.24538 0
M  V30 3063 N 295.62 -1.53406 -0.361157 0
M  V30 3064 C 296.866 -1.70054 -1.10496 0
M  V30 3065 C 297.199 -0.453278 -1.88836 0
M  V30 3066 O 296.474 0.5495 -1.86576 0
M  V30 3067 C 296.757 -2.95317 -2.06058 0
M  V30 3068 C 296.61 -4.3021 -1.31298 0
M  V30 3069 C 297.929 -3.16193 -3.06121 0
M  V30 3070 H 295.048 -0.618799 -0.400321 0
M  V30 3071 H 297.69 -1.86052 -0.385318 0
M  V30 3072 H 295.84 -2.81809 -2.67425 0
M  V30 3073 H 297.512 -4.55538 -0.726807 0
M  V30 3074 H 295.755 -4.29421 -0.614853 0
M  V30 3075 H 296.426 -5.14 -2.01265 0
M  V30 3076 H 298.902 -3.28916 -2.5486 0
M  V30 3077 H 297.778 -4.05266 -3.70204 0
M  V30 3078 H 298.039 -2.31676 -3.76535 0
M  V30 3079 N 297.098 0.621204 -1.44841 0
M  V30 3080 C 298.509 1.20298 -1.42777 0
M  V30 3081 C 298.86 1.95639 -0.148259 0
M  V30 3082 O 297.985 2.02955 0.750892 0
M  V30 3083 C 298.58 2.1882 -2.58657 0
M  V30 3084 C 297.139 2.72403 -2.59756 0
M  V30 3085 C 296.286 1.4757 -2.34773 0
M  V30 3086 H 299.237 0.411297 -1.53278 0
M  V30 3087 H 299.258 3.01607 -2.31977 0
M  V30 3088 H 298.77 1.63957 -3.51766 0
M  V30 3089 H 296.871 3.31242 -1.70615 0
M  V30 3090 H 296.984 3.17765 -3.58556 0
M  V30 3091 H 295.348 1.76051 -1.8406 0
M  V30 3092 H 296.131 0.945954 -3.3001 0
M  V30 3093 N 298.576 1.31904 0.862503 0
M  V30 3094 C 299.853 1.12644 1.59908 0
M  V30 3095 C 300.233 -0.316104 2.0872 0
M  V30 3096 O 299.581 -1.31145 1.87118 0
M  V30 3097 C 299.791 2.1472 2.7513 0
M  V30 3098 C 301.139 2.47637 3.44907 0
M  V30 3099 O 302.163 2.13205 2.85346 0
M  V30 3100 O 301.022 3.06632 4.52371 0
M  V30 3101 H 298.116 0.43416 0.703871 0
M  V30 3102 H 300.662 1.43408 0.907314 0
M  V30 3103 H 299.434 3.1172 2.3653 0
M  V30 3104 H 299.057 1.84905 3.51989 0
M  V30 3105 N 300.054 -1.07777 1.14986 0
M  V30 3106 C 301.282 -1.84018 0.945773 0
M  V30 3107 C 301.697 -1.81897 -0.505863 0
M  V30 3108 O 301.054 -1.22726 -1.35072 0
M  V30 3109 C 301.105 -3.31287 1.44677 0
M  V30 3110 O 300.826 -3.33449 2.84154 0
M  V30 3111 C 302.327 -4.24311 1.28355 0
M  V30 3112 H 299.547 -0.580716 0.336169 0
M  V30 3113 H 302.091 -1.36077 1.52654 0
M  V30 3114 H 300.246 -3.76594 0.908625 0
M  V30 3115 H 300.66 -4.25427 3.06777 0
M  V30 3116 H 302.134 -5.2573 1.68261 0
M  V30 3117 H 302.611 -4.38612 0.227184 0
M  V30 3118 H 303.217 -3.84836 1.81056 0
M  V30 3119 N 301.532 -0.945985 -1.26051 0
M  V30 3120 C 302.757 -0.612525 -1.98149 0
M  V30 3121 C 303.182 0.806623 -1.69927 0
M  V30 3122 O 302.54 1.54411 -0.950108 0
M  V30 3123 C 302.588 -0.866981 -3.50023 0
M  V30 3124 O 301.692 0.0585333 -4.12358 0
M  V30 3125 H 301.033 -0.23379 -0.621481 0
M  V30 3126 H 303.563 -1.27023 -1.60395 0
M  V30 3127 H 303.573 -0.789792 -4.00283 0
M  V30 3128 H 302.248 -1.90135 -3.69894 0
M  V30 3129 H 300.825 -0.0701241 -3.72834 0
M  V30 3130 N 303.011 1.40521 -0.713556 0
M  V30 3131 C 304.241 2.0494 -0.261395 0
M  V30 3132 C 304.649 1.53861 1.10107 0
M  V30 3133 O 303.992 0.689321 1.70276 0
M  V30 3134 C 304.054 3.59138 -0.161227 0
M  V30 3135 C 303.718 4.33096 -1.45865 0
M  V30 3136 C 304.715 4.61182 -2.40016 0
M  V30 3137 C 302.4 4.72043 -1.71701 0
M  V30 3138 C 304.394 5.27196 -3.58251 0
M  V30 3139 C 302.081 5.37789 -2.90218 0
M  V30 3140 C 303.079 5.65295 -3.83315 0
M  V30 3141 O 302.767 6.29683 -4.99754 0
M  V30 3142 H 302.499 0.666041 -0.115608 0
M  V30 3143 H 305.053 1.80954 -0.971849 0
M  V30 3144 H 303.283 3.81936 0.605153 0
M  V30 3145 H 304.972 4.05091 0.256105 0
M  V30 3146 H 305.738 4.31559 -2.21318 0
M  V30 3147 H 301.617 4.50003 -1.00092 0
M  V30 3148 H 305.161 5.48582 -4.30934 0
M  V30 3149 H 301.058 5.66831 -3.08825 0
M  V30 3150 H 301.826 6.4818 -4.99805 0
M  V30 3151 N 304.489 0.459591 1.5075 0
M  V30 3152 C 305.719 -0.0972338 2.06371 0
M  V30 3153 C 306.127 -1.35074 1.32483 0
M  V30 3154 O 305.47 -1.79637 0.384226 0
M  V30 3155 C 305.532 -0.462759 3.56509 0
M  V30 3156 C 305.196 0.687084 4.51805 0
M  V30 3157 C 306.193 1.56578 4.95761 0
M  V30 3158 C 303.878 0.874144 4.94635 0
M  V30 3159 C 305.872 2.61604 5.81242 0
M  V30 3160 C 303.559 1.92765 5.79901 0
M  V30 3161 C 304.557 2.79697 6.23104 0
M  V30 3162 O 304.245 3.83235 7.06673 0
M  V30 3163 H 303.977 -0.00140687 0.675999 0
M  V30 3164 H 306.531 0.644011 1.95043 0
M  V30 3165 H 304.761 -1.25703 3.65699 0
M  V30 3166 H 306.45 -0.953323 3.94546 0
M  V30 3167 H 307.216 1.4329 4.6335 0
M  V30 3168 H 303.095 0.207006 4.60535 0
M  V30 3169 H 306.639 3.29489 6.14884 0
M  V30 3170 H 302.536 2.06064 6.11725 0
M  V30 3171 H 303.304 3.80084 7.24899 0
M  V30 3172 N 305.967 -1.56429 0.191757 0
M  V30 3173 C 307.195 -2.01867 -0.453586 0
M  V30 3174 C 307.61 -1.07191 -1.5542 0
M  V30 3175 O 306.967 -0.0762108 -1.82341 0
M  V30 3176 C 307.018 -3.47017 -1.013 0
M  V30 3177 O 306.739 -4.38078 0.0437005 0
M  V30 3178 C 308.24 -4.07956 -1.73456 0
M  V30 3179 H 305.46 -0.661211 -0.114199 0
M  V30 3180 H 308.004 -2.02295 0.299483 0
M  V30 3181 H 306.159 -3.47298 -1.71647 0
M  V30 3182 H 306.573 -5.23178 -0.372212 0
M  V30 3183 H 308.047 -5.1138 -2.07833 0
M  V30 3184 H 308.524 -3.51222 -2.63704 0
M  V30 3185 H 309.13 -4.11437 -1.07702 0
M  V30 3186 N 307.445 0.0818655 -1.57387 0
M  V30 3187 C 308.375 1.09885 -2.06028 0
M  V30 3188 C 309.356 1.4098 -0.951774 0
M  V30 3189 O 310.541 1.50781 -1.22387 0
M  V30 3190 C 307.671 2.4151 -2.4958 0
M  V30 3191 C 306.625 2.24792 -3.64215 0
M  V30 3192 C 305.951 3.61712 -3.93787 0
M  V30 3193 C 307.251 1.67749 -4.94629 0
M  V30 3194 H 308.945 0.694128 -2.91243 0
M  V30 3195 H 306.491 0.332448 -1.4011 0
M  V30 3196 H 308.444 3.12939 -2.82219 0
M  V30 3197 H 307.168 2.83943 -1.61381 0
M  V30 3198 H 305.827 1.55807 -3.31843 0
M  V30 3199 H 305.475 4.01697 -3.02735 0
M  V30 3200 H 305.175 3.51368 -4.70971 0
M  V30 3201 H 306.699 4.34587 -4.28913 0
M  V30 3202 H 308.113 2.29032 -5.25564 0
M  V30 3203 H 306.51 1.68128 -5.76067 0
M  V30 3204 H 307.58 0.638059 -4.80684 0
M  V30 3205 N 308.923 1.53595 0.353017 0
M  V30 3206 C 309.833 1.83897 1.45667 0
M  V30 3207 C 310.849 0.728334 1.58023 0
M  V30 3208 O 312.025 1.01968 1.73679 0
M  V30 3209 C 309.09 2.03383 2.80778 0
M  V30 3210 C 308.151 3.27262 2.77845 0
M  V30 3211 C 307.384 3.45809 4.06512 0
M  V30 3212 O 307.607 2.68387 5.03314 0
M  V30 3213 O 306.541 4.39207 4.11559 0
M  V30 3214 H 310.367 2.77686 1.2298 0
M  V30 3215 H 307.952 1.39132 0.544308 0
M  V30 3216 H 309.834 2.17698 3.60812 0
M  V30 3217 H 308.509 1.12783 3.03417 0
M  V30 3218 H 307.416 3.18359 1.96465 0
M  V30 3219 H 308.749 4.17824 2.60161 0
M  V30 3220 N 310.401 -0.613514 1.45168 0
M  V30 3221 C 311.648 -1.37268 1.48875 0
M  V30 3222 C 311.976 -1.94077 0.128161 0
M  V30 3223 O 311.231 -1.75178 -0.872416 0
M  V30 3224 C 311.53 -2.54347 2.51083 0
M  V30 3225 C 311.196 -2.1572 3.95949 0
M  V30 3226 C 309.858 -2.04899 4.35396 0
M  V30 3227 C 312.21 -1.85485 4.87078 0
M  V30 3228 C 309.538 -1.62057 5.63875 0
M  V30 3229 C 311.89 -1.4413 6.15962 0
M  V30 3230 C 310.554 -1.31863 6.54346 0
M  V30 3231 H 309.824 -0.502299 0.544773 0
M  V30 3232 H 312.471 -0.694021 1.78481 0
M  V30 3233 H 310.776 -3.27524 2.15024 0
M  V30 3234 H 312.473 -3.12577 2.51191 0
M  V30 3235 H 309.063 -2.25066 3.64751 0
M  V30 3236 H 313.247 -1.92745 4.57343 0
M  V30 3237 H 308.503 -1.51177 5.92415 0
M  V30 3238 H 312.677 -1.19778 6.86022 0
M  V30 3239 H 310.304 -0.984392 7.538 0
M  V30 3240 N 311.879 -1.3236 -0.855495 0
M  V30 3241 C 312.809 -1.23833 -1.97958 0
M  V30 3242 C 313.79 -0.122361 -1.69659 0
M  V30 3243 O 314.975 -0.30939 -1.9172 0
M  V30 3244 C 312.105 -0.959772 -3.33775 0
M  V30 3245 C 311.059 -2.03689 -3.76424 0
M  V30 3246 C 310.385 -1.61075 -5.09862 0
M  V30 3247 C 311.685 -3.4518 -3.9198 0
M  V30 3248 H 313.379 -2.1788 -2.0535 0
M  V30 3249 H 310.925 -1.04891 -0.986605 0
M  V30 3250 H 312.878 -0.886678 -4.11966 0
M  V30 3251 H 311.602 0.0163404 -3.26596 0
M  V30 3252 H 310.261 -2.10012 -3.00484 0
M  V30 3253 H 309.909 -0.622107 -4.99138 0
M  V30 3254 H 309.609 -2.33143 -5.39368 0
M  V30 3255 H 311.133 -1.55201 -5.90546 0
M  V30 3256 H 312.547 -3.4145 -4.60526 0
M  V30 3257 H 310.944 -4.1559 -4.32903 0
M  V30 3258 H 312.014 -3.84903 -2.94919 0
M  V30 3259 N 313.357 1.07166 -1.15556 0
M  V30 3260 C 314.304 2.14417 -0.854055 0
M  V30 3261 C 315.274 1.64965 0.193806 0
M  V30 3262 O 316.459 1.90703 0.0609443 0
M  V30 3263 C 313.599 3.43304 -0.351574 0
M  V30 3264 C 312.712 4.06537 -1.46123 0
M  V30 3265 C 311.847 5.23266 -0.914677 0
M  V30 3266 C 310.886 5.78464 -2.00114 0
M  V30 3267 N 310.023 6.86521 -1.47083 0
M  V30 3268 H 314.863 2.39548 -1.77259 0
M  V30 3269 H 312.4 1.17543 -0.884425 0
M  V30 3270 H 314.358 4.17179 -0.0419409 0
M  V30 3271 H 312.988 3.18419 0.530037 0
M  V30 3272 H 312.04 3.30297 -1.88701 0
M  V30 3273 H 313.352 4.43567 -2.28144 0
M  V30 3274 H 312.506 6.04131 -0.557698 0
M  V30 3275 H 311.245 4.87658 -0.0636583 0
M  V30 3276 H 310.25 4.96243 -2.36692 0
M  V30 3277 H 311.475 6.16126 -2.85597 0
M  V30 3278 H 309.421 6.52849 -0.642198 0
M  V30 3279 H 309.338 7.22446 -2.22729 0
M  V30 3280 H 310.606 7.71087 -1.14215 0
M  V30 3281 N 314.835 0.952656 1.25548 0
M  V30 3282 C 315.745 0.47782 2.29682 0
M  V30 3283 C 316.761 -0.453859 1.67977 0
M  V30 3284 O 317.937 -0.330587 1.98668 0
M  V30 3285 C 315.002 -0.238655 3.45878 0
M  V30 3286 C 314.063 0.730994 4.23031 0
M  V30 3287 C 313.296 0.0486165 5.33678 0
M  V30 3288 O 313.519 -1.16612 5.58353 0
M  V30 3289 O 312.453 0.733152 5.97418 0
M  V30 3290 H 316.279 1.34312 2.72386 0
M  V30 3291 H 313.864 0.719026 1.30959 0
M  V30 3292 H 315.746 -0.641774 4.16484 0
M  V30 3293 H 314.421 -1.07916 3.05181 0
M  V30 3294 H 313.328 1.18428 3.5486 0
M  V30 3295 H 314.661 1.53946 4.67506 0
M  V30 3296 N 316.313 -1.40141 0.720998 0
M  V30 3297 C 317.559 -2.01084 0.263231 0
M  V30 3298 C 317.892 -1.57052 -1.14229 0
M  V30 3299 O 317.167 -0.793027 -1.77599 0
M  V30 3300 C 317.45 -3.58401 0.349344 0
M  V30 3301 C 317.303 -4.12491 1.79363 0
M  V30 3302 C 318.622 -4.39231 -0.276351 0
M  V30 3303 H 315.741 -0.730572 0.0971228 0
M  V30 3304 H 318.383 -1.66543 0.914518 0
M  V30 3305 H 316.533 -3.87958 -0.205165 0
M  V30 3306 H 318.205 -3.93711 2.40394 0
M  V30 3307 H 316.448 -3.66576 2.31958 0
M  V30 3308 H 317.119 -5.21646 1.80524 0
M  V30 3309 H 319.595 -4.15637 0.196184 0
M  V30 3310 H 318.471 -5.48586 -0.185681 0
M  V30 3311 H 318.732 -4.20643 -1.36059 0
M  V30 3312 N 317.792 -0.46758 -1.50504 0
M  V30 3313 C 319.038 0.0808869 -2.03239 0
M  V30 3314 C 319.393 1.37721 -1.34353 0
M  V30 3315 O 318.686 1.86016 -0.459194 0
M  V30 3316 C 318.88 0.323995 -3.55928 0
M  V30 3317 C 318.709 -0.947215 -4.39611 0
M  V30 3318 C 317.479 -1.48951 -4.82848 0
M  V30 3319 C 319.677 -1.84166 -4.80195 0
M  V30 3320 N 317.659 -2.71011 -5.50842 0
M  V30 3321 C 319.03 -2.90815 -5.47564 0
M  V30 3322 C 321.085 -1.85246 -4.62156 0
M  V30 3323 C 319.788 -3.98529 -5.98805 0
M  V30 3324 C 321.814 -2.91914 -5.14335 0
M  V30 3325 C 321.176 -3.97282 -5.81676 0
M  V30 3326 H 317.275 -0.0103394 -0.781932 0
M  V30 3327 H 319.859 -0.635003 -1.84054 0
M  V30 3328 H 318.03 1.00892 -3.75067 0
M  V30 3329 H 319.762 0.866492 -3.95315 0
M  V30 3330 H 316.517 -1.03918 -4.62058 0
M  V30 3331 H 316.941 -3.32988 -5.89447 0
M  V30 3332 H 321.583 -1.05103 -4.09528 0
M  V30 3333 H 319.301 -4.79491 -6.50472 0
M  V30 3334 H 322.887 -2.93729 -5.0221 0
M  V30 3335 H 321.767 -4.78462 -6.21324 0
M  V30 3336 N 319.27 1.56325 -0.20005 0
M  V30 3337 C 320.2 2.22318 0.713916 0
M  V30 3338 C 321.181 1.18788 1.21752 0
M  V30 3339 O 322.366 1.47309 1.26545 0
M  V30 3340 C 319.496 2.88639 1.93144 0
M  V30 3341 C 318.45 3.98457 1.56255 0
M  V30 3342 C 317.776 4.51967 2.85709 0
M  V30 3343 C 319.076 5.16612 0.768747 0
M  V30 3344 H 320.77 2.98952 0.163755 0
M  V30 3345 H 318.316 1.43792 0.0773219 0
M  V30 3346 H 320.269 3.33491 2.57608 0
M  V30 3347 H 318.993 2.09419 2.50621 0
M  V30 3348 H 317.652 3.54305 0.941471 0
M  V30 3349 H 317.3 3.69503 3.41287 0
M  V30 3350 H 317 5.26071 2.6177 0
M  V30 3351 H 318.524 4.99523 3.51154 0
M  V30 3352 H 319.938 5.57977 1.3166 0
M  V30 3353 H 318.335 5.96812 0.627286 0
M  V30 3354 H 319.405 4.84358 -0.229168 0
M  V30 3355 N 320.748 -0.0735177 1.57428 0
M  V30 3356 C 321.68 -1.11423 2.00294 0
M  V30 3357 C 322.693 -1.35084 0.908637 0
M  V30 3358 O 323.882 -1.33355 1.18654 0
M  V30 3359 C 320.982 -2.46548 2.32523 0
M  V30 3360 C 320.155 -2.42867 3.63778 0
M  V30 3361 C 319.214 -3.60087 3.83697 0
M  V30 3362 O 318.24 -3.41595 4.55304 0
M  V30 3363 N 319.442 -4.80372 3.25919 0
M  V30 3364 H 322.207 -0.749206 2.90184 0
M  V30 3365 H 319.768 -0.262195 1.59763 0
M  V30 3366 H 321.76 -3.23607 2.43024 0
M  V30 3367 H 320.33 -2.75059 1.48531 0
M  V30 3368 H 319.55 -1.51206 3.64047 0
M  V30 3369 H 320.838 -2.37506 4.49965 0
M  V30 3370 H 320.236 -4.983 2.67795 0
M  V30 3371 H 318.793 -5.54948 3.41871 0
M  V30 3372 N 322.226 -1.5378 -0.344866 0
M  V30 3373 C 323.173 -1.81676 -1.42346 0
M  V30 3374 C 324.143 -0.662376 -1.52321 0
M  V30 3375 O 325.328 -0.906675 -1.67881 0
M  V30 3376 C 322.468 -2.03087 -2.79015 0
M  V30 3377 C 321.581 -3.30799 -2.77842 0
M  V30 3378 C 320.716 -3.42285 -4.0622 0
M  V30 3379 C 319.755 -4.6395 -3.9927 0
M  V30 3380 N 318.892 -4.72477 -5.19336 0
M  V30 3381 H 323.732 -2.73703 -1.17858 0
M  V30 3382 H 321.269 -1.35568 -0.570949 0
M  V30 3383 H 323.227 -2.1349 -3.58438 0
M  V30 3384 H 321.857 -1.14375 -3.01858 0
M  V30 3385 H 320.909 -3.29244 -1.90533 0
M  V30 3386 H 322.221 -4.20314 -2.68584 0
M  V30 3387 H 321.375 -3.52113 -4.94066 0
M  V30 3388 H 320.114 -2.50823 -4.18258 0
M  V30 3389 H 319.119 -4.54201 -3.09809 0
M  V30 3390 H 320.344 -5.56775 -3.88817 0
M  V30 3391 H 318.29 -3.83924 -5.3192 0
M  V30 3392 H 318.207 -5.55927 -5.12329 0
M  V30 3393 H 319.475 -4.86613 -6.08957 0
M  V30 3394 N 323.704 0.605807 -1.45491 0
M  V30 3395 C 324.636 1.73031 -1.5031 0
M  V30 3396 C 325.649 1.57968 -0.393687 0
M  V30 3397 O 326.838 1.65817 -0.660839 0
M  V30 3398 C 323.938 3.11049 -1.34543 0
M  V30 3399 C 323.111 3.52334 -2.59189 0
M  V30 3400 C 322.17 4.69323 -2.37954 0
M  V30 3401 O 321.196 4.7635 -3.11575 0
M  V30 3402 N 322.398 5.62705 -1.4263 0
M  V30 3403 H 325.163 1.6936 -2.4726 0
M  V30 3404 H 322.724 0.79114 -1.41254 0
M  V30 3405 H 324.716 3.87071 -1.18144 0
M  V30 3406 H 323.286 3.09217 -0.458623 0
M  V30 3407 H 322.506 2.66256 -2.90691 0
M  V30 3408 H 323.794 3.76677 -3.42041 0
M  V30 3409 H 323.192 5.59744 -0.818758 0
M  V30 3410 H 321.749 6.38252 -1.32202 0
M  V30 3411 N 325.182 1.32811 0.848464 0
M  V30 3412 C 326.129 1.22265 1.95755 0
M  V30 3413 C 327.099 0.103413 1.65778 0
M  V30 3414 O 328.284 0.280033 1.88734 0
M  V30 3415 C 325.424 0.958014 3.31536 0
M  V30 3416 C 324.537 2.16262 3.73971 0
M  V30 3417 C 323.672 1.83295 4.98575 0
M  V30 3418 C 322.711 3.00041 5.33518 0
M  V30 3419 N 321.848 2.67125 6.49299 0
M  V30 3420 H 326.688 2.17128 2.04107 0
M  V30 3421 H 324.225 1.07982 0.998913 0
M  V30 3422 H 326.183 0.785052 4.09747 0
M  V30 3423 H 324.813 0.046159 3.22767 0
M  V30 3424 H 323.865 2.44565 2.91362 0
M  V30 3425 H 325.177 3.03572 3.95785 0
M  V30 3426 H 324.331 1.62586 5.84509 0
M  V30 3427 H 323.07 0.932078 4.7871 0
M  V30 3428 H 322.075 3.21374 4.46093 0
M  V30 3429 H 323.3 3.90869 5.55336 0
M  V30 3430 H 321.246 1.79586 6.3094 0
M  V30 3431 H 321.163 3.47965 6.71161 0
M  V30 3432 H 322.431 2.49861 7.3837 0
M  V30 3433 O 326.699 -0.985968 1.2791 0
M  V30 3434 H 327.39 -1.60943 1.07783 0
M  V30 END ATOM
M  V30 BEGIN BOND
M  V30 END BOND
M  V30 END CTAB
M  END
$$$$
