drugbank_target|P13639 Elongation factor 2 (DB02059; DB03223; DB04315; DB08348; DB11823; DB12688)
 OpenBabel12092120503D

  0  0  0     0  0            999 V3000
M  V30 BEGIN CTAB
M  V30 COUNTS 13459 13590 0 0 0
M  V30 BEGIN ATOM
M  V30 1 H -0.908 1.98254 -0.117106 0
M  V30 2 N 0 1.576 0 0
M  V30 3 C 0.933 2.03868 1.02534 0
M  V30 4 C 1.911 0.928543 1.3348 0
M  V30 5 O 3.095 1.19667 1.45644 0
M  V30 6 C 0.222 2.43627 2.35294 0
M  V30 7 C -0.732 3.65373 2.2001 0
M  V30 8 S 0.101 5.13292 1.52614 0
M  V30 9 C 1.257 5.56322 2.86805 0
M  V30 10 H 1.49 2.90518 0.631377 0
M  V30 11 H -0.977 1.52953 0.210867 0
M  V30 12 H 0.981 2.67203 3.11629 0
M  V30 13 H -0.358 1.57376 2.7183 0
M  V30 14 H -1.165 3.90944 3.18086 0
M  V30 15 H -1.563 3.418 1.51819 0
M  V30 16 H 0.729 5.58782 3.83104 0
M  V30 17 H 1.672 6.56266 2.65933 0
M  V30 18 H 2.08 4.83886 2.90714 0
M  V30 19 N 1.4781 -0.272755 1.55222 0
M  V30 20 C 2.7241 -1.00581 1.761 0
M  V30 21 C 3.0571 -1.85932 0.560625 0
M  V30 22 O 2.3321 -1.89416 -0.441801 0
M  V30 23 C 2.6151 -1.88816 3.06628 0
M  V30 24 C 2.4681 -1.06457 4.37021 0
M  V30 25 C 3.7871 -2.8752 3.33197 0
M  V30 26 H 0.9061 -0.364244 0.640699 0
M  V30 27 H 3.5481 -0.278189 1.87952 0
M  V30 28 H 1.6981 -2.50856 2.96654 0
M  V30 29 H 3.3701 -0.464863 4.58952 0
M  V30 30 H 1.6131 -0.368043 4.32236 0
M  V30 31 H 2.2841 -1.71514 5.24678 0
M  V30 32 H 4.7601 -2.35615 3.42965 0
M  V30 33 H 3.6361 -3.46399 4.25792 0
M  V30 34 H 3.8971 -3.62657 2.52849 0
M  V30 35 N 2.9562 -1.48159 -0.537278 0
M  V30 36 C 3.9042 -1.62573 -1.66352 0
M  V30 37 C 4.8982 -0.492366 -1.62087 0
M  V30 38 O 6.1042 -0.670847 -1.67032 0
M  V30 39 H 2.4792 -0.511992 -0.550789 0
M  V30 40 H 4.4502 -2.57176 -1.51337 0
M  V30 41 C 3.1992 -1.67583 -3.04649 0
M  V30 42 H 2.5222 -2.54151 -3.08622 0
M  V30 43 H 3.9622 -1.81713 -3.83088 0
M  V30 44 C 2.4212 -0.413039 -3.34358 0
M  V30 45 O 2.9512 0.477259 -3.98855 0
M  V30 46 N 1.1572 -0.286961 -2.8918 0
M  V30 47 H 0.7042 -1.01241 -2.36871 0
M  V30 48 H 0.6622 0.556963 -3.09427 0
M  V30 49 N 4.4343 0.785586 -1.36625 0
M  V30 50 C 5.6813 1.54362 -1.31067 0
M  V30 51 C 6.0093 1.94195 0.10893 0
M  V30 52 O 5.2643 1.63262 1.07908 0
M  V30 53 C 5.5633 2.83007 -2.1827 0
M  V30 54 C 5.2293 2.62294 -3.6676 0
M  V30 55 C 3.8913 2.56353 -4.0723 0
M  V30 56 C 6.2433 2.43371 -4.6089 0
M  V30 57 C 3.5713 2.29461 -5.39967 0
M  V30 58 C 5.9233 2.18005 -5.93849 0
M  V30 59 C 4.5873 2.105 -6.3344 0
M  V30 60 H 3.8573 0.564851 -0.479609 0
M  V30 61 H 6.5043 0.906028 -1.68711 0
M  V30 62 H 4.8093 3.51253 -1.73576 0
M  V30 63 H 6.5063 3.40817 -2.11292 0
M  V30 64 H 3.0963 2.67774 -3.34656 0
M  V30 65 H 7.2803 2.46959 -4.30494 0
M  V30 66 H 2.5363 2.22135 -5.69619 0
M  V30 67 H 6.7103 2.02359 -6.66351 0
M  V30 68 H 4.3373 1.89425 -7.36222 0
M  V30 69 N 5.9124 1.20967 1.01018 0
M  V30 70 C 7.1404 1.04956 1.78303 0
M  V30 71 C 7.5554 -0.400915 1.84494 0
M  V30 72 O 6.9124 -1.27826 1.30257 0
M  V30 73 C 6.9634 1.63403 3.22462 0
M  V30 74 O 6.6844 3.02775 3.16637 0
M  V30 75 C 8.1854 1.52432 4.16268 0
M  V30 76 H 5.4054 0.368858 0.560522 0
M  V30 77 H 7.9494 1.60193 1.27116 0
M  V30 78 H 6.1044 1.1227 3.70775 0
M  V30 79 H 6.5184 3.30626 4.07169 0
M  V30 80 H 7.9924 1.98078 5.15237 0
M  V30 81 H 8.4694 0.477875 4.36592 0
M  V30 82 H 9.0754 2.02787 3.73841 0
M  V30 83 N 7.3905 -1.2043 1.01659 0
M  V30 84 C 8.6365 -1.90079 0.706963 0
M  V30 85 C 8.9695 -1.78648 -0.761474 0
M  V30 86 O 8.2445 -1.17069 -1.55323 0
M  V30 87 C 8.5275 -3.41469 1.14327 0
M  V30 88 C 8.3805 -3.61833 2.67201 0
M  V30 89 C 9.6995 -4.34261 0.714529 0
M  V30 90 H 6.8185 -0.690254 0.2583 0
M  V30 91 H 9.4605 -1.41826 1.26433 0
M  V30 92 H 7.6105 -3.82696 0.669056 0
M  V30 93 H 9.2825 -3.2986 3.22475 0
M  V30 94 H 7.5255 -3.05304 3.08175 0
M  V30 95 H 8.1965 -4.67955 2.92783 0
M  V30 96 H 10.6725 -4.00682 1.12221 0
M  V30 97 H 9.5485 -5.38806 1.04784 0
M  V30 98 H 9.8095 -4.40431 -0.383799 0
M  V30 99 N 8.8686 -0.792821 -1.36206 0
M  V30 100 C 10.1456 -0.290627 -1.93429 0
M  V30 101 C 10.5256 1.21773 -1.72437 0
M  V30 102 O 9.8736 2.0108 -1.08531 0
M  V30 103 C 10.0836 -0.686973 -3.42172 0
M  V30 104 C 11.4316 -0.668643 -4.19302 0
M  V30 105 O 12.4556 -0.627658 -3.50626 0
M  V30 106 O 11.3146 -0.714597 -5.41808 0
M  V30 107 H 8.4086 -0.0727927 -0.82379 0
M  V30 108 H 10.9546 -0.875593 -1.45367 0
M  V30 109 H 9.7266 -1.72711 -3.51122 0
M  V30 110 H 9.3496 -0.0760733 -3.97527 0
M  V30 111 N 10.3467 1.47872 -0.545128 0
M  V30 112 C 11.2787 2.27869 0.246621 0
M  V30 113 C 12.2917 1.36282 0.890561 0
M  V30 114 O 13.4807 1.61207 0.766449 0
M  V30 115 C 10.5807 3.10159 1.36582 0
M  V30 116 C 9.7537 4.29627 0.820954 0
M  V30 117 C 8.8127 4.93607 1.82314 0
M  V30 118 O 7.8387 5.52366 1.37406 0
M  V30 119 N 9.0407 4.87211 3.15603 0
M  V30 120 H 11.8057 2.96459 -0.439539 0
M  V30 121 H 9.3667 1.57367 -0.380421 0
M  V30 122 H 11.3587 3.49829 2.03474 0
M  V30 123 H 9.9287 2.43891 1.9554 0
M  V30 124 H 9.1487 3.94192 -0.0244032 0
M  V30 125 H 10.4367 5.06928 0.436063 0
M  V30 126 H 9.8347 4.40651 3.54744 0
M  V30 127 H 8.3917 5.30937 3.78087 0
M  V30 128 N 11.8248 0.280983 1.55075 0
M  V30 129 C 13.0738 -0.334784 1.98902 0
M  V30 130 C 13.3868 -1.56534 1.17288 0
M  V30 131 O 14.5928 -2.25443 1.51287 0
M  V30 132 C 13.0488 -0.646994 3.54037 0
M  V30 133 C 12.6568 0.564085 4.44435 0
M  V30 134 C 14.4008 -1.22506 4.06439 0
M  V30 135 C 12.3078 0.226137 5.90967 0
M  V30 136 H 11.2378 -0.128866 0.742906 0
M  V30 137 H 13.8888 0.386556 1.79382 0
M  V30 138 H 12.2708 -1.42739 3.6938 0
M  V30 139 H 13.4448 1.34082 4.40861 0
M  V30 140 H 11.7598 1.0594 4.02698 0
M  V30 141 H 14.3568 -1.49182 5.13468 0
M  V30 142 H 14.6998 -2.16085 3.55827 0
M  V30 143 H 15.2328 -0.50682 3.94558 0
M  V30 144 H 11.9718 1.12996 6.45687 0
M  V30 145 H 11.4918 -0.513717 5.97596 0
M  V30 146 H 13.1708 -0.179539 6.46751 0
M  V30 147 N 13.3029 -1.57598 0.00835791 0
M  V30 148 C 14.7189 -1.55764 -0.347822 0
M  V30 149 C 14.9189 -1.01186 -1.74252 0
M  V30 150 O 13.9749 -0.649371 -2.44007 0
M  V30 151 C 15.2879 -2.99927 -0.215407 0
M  V30 152 C 16.8359 -3.11656 -0.289725 0
M  V30 153 C 17.3109 -4.57621 -0.18634 0
M  V30 154 N 18.8019 -4.62557 -0.243978 0
M  V30 155 C 19.5369 -5.73094 -0.18745 0
M  V30 156 N 19.0329 -6.92753 -0.0810331 0
M  V30 157 N 20.8259 -5.61588 -0.239925 0
M  V30 158 H 12.9769 -1.91411 0.92062 0
M  V30 159 H 15.2399 -0.879562 0.353659 0
M  V30 160 H 14.9459 -3.43729 0.744512 0
M  V30 161 H 14.8199 -3.63865 -0.994097 0
M  V30 162 H 17.2069 -2.67779 -1.24009 0
M  V30 163 H 17.2879 -2.5048 0.51898 0
M  V30 164 H 16.9319 -5.02174 0.760519 0
M  V30 165 H 16.8619 -5.16752 -1.01364 0
M  V30 166 H 19.3529 -3.76481 -0.327217 0
M  V30 167 H 19.6659 -7.72787 -0.0440241 0
M  V30 168 H 18.0109 -6.94984 -0.0465419 0
M  V30 169 H 21.2019 -4.66996 -0.321317 0
M  V30 170 H 21.3749 -6.47714 -0.192407 0
M  V30 171 N 14.781 0.264519 -1.55364 0
M  V30 172 C 15.744 1.31046 -1.88042 0
M  V30 173 C 16.744 1.41943 -0.755569 0
M  V30 174 O 17.934 1.40947 -1.02369 0
M  V30 175 C 15.066 2.69067 -2.09323 0
M  V30 176 H 16.259 1.03297 -2.81549 0
M  V30 177 H 13.812 0.502989 -1.47986 0
M  V30 178 H 14.547 3.01982 -1.18226 0
M  V30 179 H 14.332 2.62542 -2.91229 0
M  V30 180 H 15.822 3.44623 -2.35848 0
M  V30 181 N 16.2591 1.48442 0.529413 0
M  V30 182 C 17.5081 1.55742 1.28169 0
M  V30 183 C 17.8211 0.236511 1.94165 0
M  V30 184 O 19.0271 0.187761 2.7085 0
M  V30 185 C 17.4831 2.74667 2.32564 0
M  V30 186 C 17.0911 4.13402 1.72636 0
M  V30 187 C 18.8351 2.9128 3.08798 0
M  V30 188 C 16.7421 5.23587 2.74975 0
M  V30 189 H 15.6721 0.579796 0.48203 0
M  V30 190 H 18.3231 1.74776 0.559056 0
M  V30 191 H 16.7051 2.49067 3.07866 0
M  V30 192 H 17.8791 4.49022 1.03519 0
M  V30 193 H 16.1941 4.0191 1.08892 0
M  V30 194 H 18.7911 3.70767 3.85274 0
M  V30 195 H 19.1341 2.00757 3.64695 0
M  V30 196 H 19.6671 3.16782 2.40611 0
M  V30 197 H 16.4061 6.16076 2.23897 0
M  V30 198 H 15.9261 4.92454 3.42417 0
M  V30 199 H 17.6051 5.51724 3.37949 0
M  V30 200 N 17.7372 -0.778329 1.37039 0
M  V30 201 C 18.6702 -1.8984 1.26633 0
M  V30 202 C 19.6482 -1.61923 0.148197 0
M  V30 203 O 20.8322 -1.85742 0.321265 0
M  V30 204 C 17.9592 -3.24916 0.956403 0
M  V30 205 C 17.0052 -3.71752 2.09051 0
M  V30 206 S 17.8382 -3.86201 3.70957 0
M  V30 207 C 18.9942 -5.24135 3.42101 0
M  V30 208 H 19.2272 -1.98377 2.21436 0
M  V30 209 H 16.7602 -0.938738 1.22585 0
M  V30 210 H 18.7182 -4.02936 0.784409 0
M  V30 211 H 17.3792 -3.14089 0.0259713 0
M  V30 212 H 16.5722 -4.69661 1.8285 0
M  V30 213 H 16.1742 -3.00815 2.2223 0
M  V30 214 H 18.4662 -6.09086 2.96682 0
M  V30 215 H 19.4092 -5.55346 4.39314 0
M  V30 216 H 19.8172 -4.91761 2.77185 0
M  V30 217 N 19.2153 -1.21501 -1.00376 0
M  V30 218 C 20.4923 -0.941745 -1.71437 0
M  V30 219 C 20.8723 0.546114 -2.03914 0
M  V30 220 O 20.2203 1.51128 -1.71384 0
M  V30 221 C 20.4303 -1.82812 -2.97289 0
M  V30 222 C 21.7783 -2.07771 -3.70292 0
M  V30 223 O 22.8023 -1.80171 -3.07273 0
M  V30 224 O 21.6613 -2.54456 -4.83647 0
M  V30 225 H 18.7553 -0.353243 -0.747762 0
M  V30 226 H 21.3013 -1.32436 -1.06108 0
M  V30 227 H 20.0733 -2.83501 -2.69709 0
M  V30 228 H 19.6963 -1.4464 -3.70358 0
M  V30 229 N 20.6934 1.19889 -1.02296 0
M  V30 230 C 21.6404 2.22901 -0.598651 0
M  V30 231 C 22.6104 1.61588 0.384521 0
M  V30 232 O 23.7954 1.88697 0.282522 0
M  V30 233 C 20.9354 3.45063 0.0504476 0
M  V30 234 C 20.0484 4.20783 -0.978053 0
M  V30 235 C 19.1834 5.30356 -0.299338 0
M  V30 236 C 18.2224 5.97826 -1.31416 0
M  V30 237 N 17.3594 6.98975 -0.661667 0
M  V30 238 H 22.1994 2.58554 -1.48169 0
M  V30 239 H 19.7364 1.27039 -0.741584 0
M  V30 240 H 21.6944 4.14831 0.443971 0
M  V30 241 H 20.3244 3.10084 0.897097 0
M  V30 242 H 19.3764 3.50018 -1.48969 0
M  V30 243 H 20.6884 4.67109 -1.74958 0
M  V30 244 H 19.8424 6.06516 0.149347 0
M  V30 245 H 18.5814 4.85084 0.504445 0
M  V30 246 H 17.5864 5.20422 -1.77317 0
M  V30 247 H 18.8114 6.45183 -2.11933 0
M  V30 248 H 16.7574 6.55886 0.122132 0
M  V30 249 H 16.6744 7.43461 -1.37117 0
M  V30 250 H 17.9424 7.7914 -0.236785 0
M  V30 251 N 22.1715 0.800033 1.35784 0
M  V30 252 C 23.1185 0.203848 2.29898 0
M  V30 253 C 24.0885 -0.658375 1.52495 0
M  V30 254 O 25.2735 -0.604832 1.8096 0
M  V30 255 C 22.4135 -0.64688 3.38983 0
M  V30 256 C 21.5265 0.235054 4.3136 0
M  V30 257 C 20.6615 -0.623054 5.27533 0
M  V30 258 C 19.7005 0.259682 6.11549 0
M  V30 259 N 18.8375 -0.558019 6.99879 0
M  V30 260 H 23.6775 1.01186 2.80295 0
M  V30 261 H 21.2145 0.51053 1.37957 0
M  V30 262 H 23.1725 -1.15521 4.00887 0
M  V30 263 H 21.8025 -1.42021 2.89879 0
M  V30 264 H 20.8545 0.861438 3.70518 0
M  V30 265 H 22.1665 0.914768 4.9034 0
M  V30 266 H 21.3205 -1.19678 5.94779 0
M  V30 267 H 20.0595 -1.33636 4.69034 0
M  V30 268 H 19.0645 0.845726 5.43256 0
M  V30 269 H 20.2895 0.970748 6.72126 0
M  V30 270 H 18.2355 -1.25542 6.43875 0
M  V30 271 H 18.1525 0.0637872 7.55973 0
M  V30 272 H 19.4205 -1.11523 7.71481 0
M  V30 273 N 23.6496 -1.47581 0.552962 0
M  V30 274 C 24.6126 -2.28439 -0.186605 0
M  V30 275 C 25.6126 -1.36706 -0.84665 0
M  V30 276 O 26.8026 -1.59378 -0.703164 0
M  V30 277 C 23.9346 -3.16264 -1.2724 0
M  V30 278 H 25.1276 -2.95294 0.523609 0
M  V30 279 H 22.6806 -1.532 0.309745 0
M  V30 280 H 23.4156 -2.54091 -2.01514 0
M  V30 281 H 23.2006 -3.83769 -0.803968 0
M  V30 282 H 24.6906 -3.77198 -1.79196 0
M  V30 283 N 25.1277 -0.289203 -1.54924 0
M  V30 284 C 26.0757 0.607966 -2.24514 0
M  V30 285 C 27.0697 1.14655 -1.24702 0
M  V30 286 O 28.2757 1.09856 -1.4259 0
M  V30 287 H 24.6507 0.21464 -0.720718 0
M  V30 288 H 26.6217 -0.00164182 -2.984 0
M  V30 289 C 25.3707 1.77406 -2.99036 0
M  V30 290 H 24.6937 1.36884 -3.75637 0
M  V30 291 H 26.1337 2.37814 -3.51028 0
M  V30 292 C 24.5927 2.67107 -2.05318 0
M  V30 293 O 25.1227 3.6787 -1.61353 0
M  V30 294 N 23.3287 2.34582 -1.71521 0
M  V30 295 H 22.8757 1.52688 -2.07471 0
M  V30 296 H 22.8337 2.94867 -1.0909 0
M  V30 297 N 26.6058 1.57591 -0.0167156 0
M  V30 298 C 27.8548 1.90461 0.663877 0
M  V30 299 C 28.1678 0.893515 1.73999 0
M  V30 300 O 29.3738 1.11302 2.47637 0
M  V30 301 C 27.8298 3.38155 1.23204 0
M  V30 302 C 27.4378 4.47597 0.189866 0
M  V30 303 C 29.1818 3.80111 1.88986 0
M  V30 304 C 27.0888 5.86379 0.768964 0
M  V30 305 H 26.0188 0.710738 0.251729 0
M  V30 306 H 28.6698 1.83326 -0.0799926 0
M  V30 307 H 27.0518 3.40182 2.02712 0
M  V30 308 H 28.2258 4.57112 -0.581846 0
M  V30 309 H 26.5408 4.14766 -0.368475 0
M  V30 310 H 29.1378 4.81145 2.33247 0
M  V30 311 H 29.4808 3.14511 2.72743 0
M  V30 312 H 30.0138 3.80454 1.16187 0
M  V30 313 H 26.7528 6.55493 -0.0301957 0
M  V30 314 H 26.2728 5.80496 1.50945 0
M  V30 315 H 27.9518 6.34563 1.26251 0
M  V30 316 N 28.0839 -0.256276 1.55502 0
M  V30 317 C 29.4999 -0.604325 1.47716 0
M  V30 318 C 29.6999 -1.88763 0.705039 0
M  V30 319 O 28.7559 -2.51445 0.230613 0
M  V30 320 C 30.0689 -0.715756 2.92057 0
M  V30 321 C 31.6169 -0.808706 3.02372 0
M  V30 322 C 32.0919 -0.951777 4.48001 0
M  V30 323 N 33.5829 -1.01688 4.519 0
M  V30 324 C 34.3179 -1.14668 5.61817 0
M  V30 325 N 33.8139 -1.24261 6.81565 0
M  V30 326 N 35.6069 -1.1791 5.49594 0
M  V30 327 H 27.7579 0.586291 2.04148 0
M  V30 328 H 30.0209 0.201015 0.926443 0
M  V30 329 H 29.7269 0.157027 3.51349 0
M  V30 330 H 29.6009 -1.59071 3.42018 0
M  V30 331 H 31.9879 -1.67195 2.43166 0
M  V30 332 H 32.0689 0.0912063 2.55637 0
M  V30 333 H 31.7129 -0.0931291 5.07815 0
M  V30 334 H 31.6429 -1.86659 4.92408 0
M  V30 335 H 34.1339 -0.954468 3.65648 0
M  V30 336 H 34.4469 -1.34046 7.61086 0
M  V30 337 H 32.7919 -1.21236 6.84344 0
M  V30 338 H 35.9829 -1.10057 4.54978 0
M  V30 339 H 36.1559 -1.27681 6.35296 0
M  V30 340 N 29.562 -1.4872 -0.521534 0
M  V30 341 C 30.51 -1.64328 -1.64618 0
M  V30 342 C 31.504 -0.50953 -1.61555 0
M  V30 343 O 32.71 -0.688525 -1.66311 0
M  V30 344 H 29.085 -0.517805 -0.545328 0
M  V30 345 H 31.056 -2.58767 -1.48601 0
M  V30 346 C 29.805 -1.70805 -3.02855 0
M  V30 347 H 29.128 -2.5741 -3.05909 0
M  V30 348 H 30.568 -1.85766 -3.81139 0
M  V30 349 C 29.027 -0.448479 -3.33902 0
M  V30 350 O 29.557 0.434928 -3.99339 0
M  V30 351 N 27.763 -0.317616 -2.88859 0
M  V30 352 H 27.31 -1.03748 -2.35784 0
M  V30 353 H 27.268 0.524113 -3.10001 0
M  V30 354 N 31.0401 0.771051 -1.3745 0
M  V30 355 C 31.9731 1.89166 -1.27638 0
M  V30 356 C 32.9511 1.61842 -0.156782 0
M  V30 357 O 34.1351 1.85569 -0.331111 0
M  V30 358 C 31.2621 3.24405 -0.973621 0
M  V30 359 C 30.3081 3.70638 -2.1102 0
M  V30 360 S 31.1411 3.84228 -3.73 0
M  V30 361 C 32.2971 5.22313 -3.44876 0
M  V30 362 H 32.5301 1.972 -2.22485 0
M  V30 363 H 30.0631 0.932224 -1.23081 0
M  V30 364 H 32.0211 4.02514 -0.805766 0
M  V30 365 H 30.6821 3.14071 -0.0426279 0
M  V30 366 H 29.8751 4.68685 -1.85338 0
M  V30 367 H 29.4771 2.99632 -2.23822 0
M  V30 368 H 31.7691 6.07505 -2.99908 0
M  V30 369 H 32.7121 5.53008 -4.42253 0
M  V30 370 H 33.1201 4.90284 -2.79789 0
M  V30 371 N 32.5182 1.22032 0.997298 0
M  V30 372 C 33.7432 1.06921 1.77715 0
M  V30 373 C 34.1682 -0.376226 1.84299 0
M  V30 374 O 33.5262 -1.27165 1.29223 0
M  V30 375 C 33.5742 1.67996 3.19076 0
M  V30 376 O 32.6782 0.930653 4.01762 0
M  V30 377 H 32.0192 0.375814 0.547412 0
M  V30 378 H 34.5492 1.61737 1.25309 0
M  V30 379 H 34.5592 1.72538 3.69723 0
M  V30 380 H 33.2342 2.73182 3.13599 0
M  V30 381 H 31.8112 0.960917 3.60307 0
M  V30 382 N 33.9963 -1.19345 1.0293 0
M  V30 383 C 35.2423 -1.89318 0.727083 0
M  V30 384 C 35.5753 -1.79446 -0.742483 0
M  V30 385 O 34.8503 -1.1871 -1.54072 0
M  V30 386 C 35.1333 -3.40238 1.17942 0
M  V30 387 C 34.9863 -3.58979 2.71024 0
M  V30 388 C 36.3053 -4.33479 0.760548 0
M  V30 389 H 33.4243 -0.687475 0.265606 0
M  V30 390 H 36.0663 -1.40477 1.2793 0
M  V30 391 H 34.2163 -3.81964 0.709608 0
M  V30 392 H 35.8883 -3.26421 3.25955 0
M  V30 393 H 34.1313 -3.02018 3.11396 0
M  V30 394 H 34.8023 -4.64823 2.9773 0
M  V30 395 H 37.2783 -3.99469 1.16464 0
M  V30 396 H 36.1543 -5.37664 1.10493 0
M  V30 397 H 36.4153 -4.40813 -0.337063 0
M  V30 398 N 35.4744 -0.807222 -1.35358 0
M  V30 399 C 36.7234 -0.384376 -1.98004 0
M  V30 400 C 37.0364 1.0543 -1.64754 0
M  V30 401 O 38.2424 1.58029 -2.20769 0
M  V30 402 C 36.6984 -0.636326 -3.5423 0
M  V30 403 C 36.3064 -2.08759 -3.96388 0
M  V30 404 C 38.0504 -0.278869 -4.23583 0
M  V30 405 C 35.9574 -2.28525 -5.45463 0
M  V30 406 H 34.8874 -0.139986 -0.740891 0
M  V30 407 H 37.5384 -0.991369 -1.54415 0
M  V30 408 H 35.9204 0.0406256 -3.95979 0
M  V30 409 H 37.0944 -2.8024 -3.6579 0
M  V30 410 H 35.4094 -2.40497 -3.39926 0
M  V30 411 H 38.0064 -0.404599 -5.33167 0
M  V30 412 H 38.3494 0.775012 -4.09022 0
M  V30 413 H 38.8824 -0.909764 -3.87257 0
M  V30 414 H 35.6214 -3.32361 -5.64992 0
M  V30 415 H 35.1414 -1.61569 -5.77629 0
M  V30 416 H 36.8204 -2.10109 -6.11934 0
M  V30 417 N 36.9525 1.47285 -0.560781 0
M  V30 418 C 37.9155 2.28535 0.174488 0
M  V30 419 C 38.9155 1.37153 0.839388 0
M  V30 420 O 40.1055 1.59748 0.694702 0
M  V30 421 C 37.2375 3.16934 1.25561 0
M  V30 422 H 38.4305 2.95012 -0.539262 0
M  V30 423 H 35.9835 1.53034 -0.317865 0
M  V30 424 H 36.7185 2.55157 2.00164 0
M  V30 425 H 36.5035 3.8419 0.783604 0
M  V30 426 H 37.9935 3.78143 1.77193 0
M  V30 427 N 38.4306 0.297415 1.54768 0
M  V30 428 C 39.3806 -0.595275 2.20092 0
M  V30 429 C 40.3646 -1.10163 1.17273 0
M  V30 430 O 41.5566 -1.043 1.43006 0
M  V30 431 C 38.6856 -1.7684 2.94249 0
M  V30 432 C 37.7716 -1.27818 4.0438 0
M  V30 433 N 38.1626 -0.505695 5.03266 0
M  V30 434 C 36.4606 -1.55923 4.17857 0
M  V30 435 C 37.1616 -0.245094 5.81183 0
M  V30 436 N 36.1376 -0.823881 5.3732 0
M  V30 437 H 39.9396 0.00250837 2.939 0
M  V30 438 H 37.4536 0.102007 1.62079 0
M  V30 439 H 39.4506 -2.41944 3.39513 0
M  V30 440 H 38.1106 -2.36992 2.21957 0
M  V30 441 H 39.1216 -0.150928 5.1768 0
M  V30 442 H 35.7986 -2.16849 3.56767 0
M  V30 443 H 37.1886 0.375084 6.70852 0
M  V30 444 N 39.9087 -1.5758 0.0250728 0
M  V30 445 C 41.1547 -1.91917 -0.655413 0
M  V30 446 C 41.4877 -0.901433 -1.72011 0
M  V30 447 O 40.7627 0.0764069 -1.9435 0
M  V30 448 C 41.0457 -3.36751 -1.27558 0
M  V30 449 C 40.8987 -4.49258 -0.220719 0
M  V30 450 C 42.2177 -3.81469 -2.19475 0
M  V30 451 H 39.3367 -0.697925 -0.23679 0
M  V30 452 H 41.9787 -1.89825 0.0815036 0
M  V30 453 H 40.1287 -3.38664 -1.90365 0
M  V30 454 H 41.8007 -4.59478 0.409601 0
M  V30 455 H 40.0437 -4.31415 0.454264 0
M  V30 456 H 40.7147 -5.47618 -0.694175 0
M  V30 457 H 43.1907 -3.81266 -1.66659 0
M  V30 458 H 42.0667 -4.83512 -2.59822 0
M  V30 459 H 42.3277 -3.16744 -3.08424 0
M  V30 460 N 41.3868 0.248026 -1.55636 0
M  V30 461 C 42.6638 0.998988 -1.68165 0
M  V30 462 C 43.0438 2.03409 -0.564621 0
M  V30 463 O 42.3918 2.24378 0.432076 0
M  V30 464 C 42.6018 1.63334 -3.0842 0
M  V30 465 C 43.9498 2.13562 -3.66983 0
M  V30 466 O 44.9738 1.73277 -3.11213 0
M  V30 467 O 43.8328 2.87526 -4.64749 0
M  V30 468 H 40.9268 0.464933 -0.683935 0
M  V30 469 H 43.4728 0.241902 -1.67967 0
M  V30 470 H 42.2448 0.884583 -3.8117 0
M  V30 471 H 41.8678 2.45666 -3.12624 0
M  V30 472 N 42.8649 1.48995 0.513639 0
M  V30 473 C 43.8149 1.61127 1.61314 0
M  V30 474 C 44.7989 0.467521 1.53958 0
M  V30 475 O 45.9909 0.719826 1.61702 0
M  V30 476 C 43.1199 1.66937 2.99978 0
M  V30 477 C 42.2059 2.86847 3.12377 0
M  V30 478 N 42.5969 4.11078 2.94701 0
M  V30 479 C 40.8949 2.84521 3.43459 0
M  V30 480 C 41.5959 4.91615 3.10949 0
M  V30 481 N 40.5719 4.24739 3.3926 0
M  V30 482 H 44.3739 2.54909 1.46282 0
M  V30 483 H 41.8879 1.45593 0.719483 0
M  V30 484 H 43.8849 1.73725 3.78979 0
M  V30 485 H 42.5449 0.742831 3.16089 0
M  V30 486 H 43.5559 4.41258 2.71131 0
M  V30 487 H 40.2329 2.01192 3.65825 0
M  V30 488 H 41.6229 6.00264 3.01882 0
M  V30 489 N 44.343 -0.763751 1.37857 0
M  V30 490 C 45.591 -1.51957 1.33243 0
M  V30 491 C 45.912 -1.94835 -0.0801709 0
M  V30 492 O 45.182 -1.66894 -1.02582 0
M  V30 493 H 43.762 -0.563626 0.49024 0
M  V30 494 H 46.424 -0.908504 1.7243 0
M  V30 495 H 45.52 -2.41523 1.97669 0
M  V30 496 N 45.8211 -1.22559 -0.990812 0
M  V30 497 C 46.7681 -0.997519 -2.0813 0
M  V30 498 C 47.7381 0.0814702 -1.659 0
M  V30 499 O 48.9231 -0.0685424 -1.90677 0
M  V30 500 C 46.0631 -0.583615 -3.40129 0
M  V30 501 C 45.1761 -1.7336 -3.9569 0
M  V30 502 C 44.3111 -1.26748 -5.15857 0
M  V30 503 C 43.3501 -2.38888 -5.63559 0
M  V30 504 N 42.4871 -1.93308 -6.74964 0
M  V30 505 H 47.3271 -1.93099 -2.26973 0
M  V30 506 H 44.8641 -0.962114 -1.11273 0
M  V30 507 H 46.8221 -0.324801 -4.15934 0
M  V30 508 H 45.4521 0.312845 -3.2128 0
M  V30 509 H 44.5041 -2.10669 -3.16738 0
M  V30 510 H 45.8161 -2.57704 -4.27071 0
M  V30 511 H 44.9701 -0.966173 -5.98957 0
M  V30 512 H 43.7091 -0.394272 -4.86104 0
M  V30 513 H 42.7141 -2.69805 -4.79046 0
M  V30 514 H 43.9391 -3.26728 -5.95336 0
M  V30 515 H 41.8851 -1.08352 -6.4699 0
M  V30 516 H 41.8021 -2.71217 -7.05675 0
M  V30 517 H 43.0701 -1.66252 -7.61564 0
M  V30 518 N 47.2992 1.18797 -1.03562 0
M  V30 519 C 48.5242 1.9314 -0.755764 0
M  V30 520 C 48.9492 1.7537 0.68022 0
M  V30 521 O 48.3072 1.06046 1.47051 0
M  V30 522 C 48.3552 3.42747 -1.12058 0
M  V30 523 O 47.4592 4.11683 -0.243124 0
M  V30 524 H 46.8002 0.602724 -0.278604 0
M  V30 525 H 49.3302 1.50678 -1.3841 0
M  V30 526 H 49.3402 3.93437 -1.08035 0
M  V30 527 H 48.0152 3.55002 -2.16672 0
M  V30 528 H 46.5922 3.71323 -0.342539 0
M  V30 529 N 48.7773 0.814389 1.34928 0
M  V30 530 C 50.0053 0.411136 2.02774 0
M  V30 531 C 50.4203 -0.980316 1.61354 0
M  V30 532 O 49.7773 -1.63299 0.814847 0
M  V30 533 C 49.8283 0.493865 3.58111 0
M  V30 534 O 49.5493 1.83047 3.98027 0
M  V30 535 C 51.0503 0.0844174 4.4322 0
M  V30 536 H 48.2703 0.166037 0.650133 0
M  V30 537 H 50.8143 1.10018 1.72384 0
M  V30 538 H 48.9693 -0.147006 3.87121 0
M  V30 539 H 49.3833 1.79872 4.92693 0
M  V30 540 H 50.8573 0.193404 5.51661 0
M  V30 541 H 51.3343 -0.97113 4.28329 0
M  V30 542 H 51.9403 0.69875 4.19521 0
M  V30 543 N 50.2554 -1.46986 0.568584 0
M  V30 544 C 51.1854 -2.32946 -0.160753 0
M  V30 545 C 52.1664 -1.44487 -0.897631 0
M  V30 546 O 53.3514 -1.73327 -0.875867 0
M  V30 547 C 50.4814 -3.26494 -1.18403 0
M  V30 548 C 49.4354 -4.24282 -0.562895 0
M  V30 549 C 48.7614 -5.07236 -1.69163 0
M  V30 550 C 50.0614 -5.19989 0.490761 0
M  V30 551 H 51.7554 -2.94175 0.556916 0
M  V30 552 H 49.3014 -1.4146 0.26927 0
M  V30 553 H 51.2544 -3.85477 -1.70251 0
M  V30 554 H 49.9784 -2.63343 -1.93179 0
M  V30 555 H 48.6374 -3.66541 -0.0656164 0
M  V30 556 H 48.2854 -4.4048 -2.42871 0
M  V30 557 H 47.9854 -5.7345 -1.28174 0
M  V30 558 H 49.5094 -5.6908 -2.21314 0
M  V30 559 H 50.9234 -5.73271 0.0579047 0
M  V30 560 H 49.3204 -5.94469 0.820165 0
M  V30 561 H 50.3904 -4.64777 1.3824 0
M  V30 562 N 51.7335 -0.305618 -1.54608 0
M  V30 563 C 52.9615 0.304775 -2.04643 0
M  V30 564 C 53.3765 1.47167 -1.18268 0
M  V30 565 O 52.7335 1.81296 -0.209328 0
M  V30 566 C 52.7845 0.756564 -3.53495 0
M  V30 567 O 52.5055 -0.36389 -4.36586 0
M  V30 568 C 54.0065 1.43163 -4.19546 0
M  V30 569 H 51.2265 0.0655481 -0.667791 0
M  V30 570 H 53.7705 -0.446592 -1.99564 0
M  V30 571 H 51.9255 1.45794 -3.58919 0
M  V30 572 H 52.3395 -0.0113121 -5.24499 0
M  V30 573 H 53.8135 1.69886 -5.25207 0
M  V30 574 H 54.2905 2.37318 -3.69563 0
M  V30 575 H 54.8965 0.773307 -4.18211 0
M  V30 576 N 53.2116 1.57565 -0.0334293 0
M  V30 577 C 54.4886 1.83282 0.683163 0
M  V30 578 C 54.8686 0.91823 1.90084 0
M  V30 579 O 54.2166 -0.025113 2.28486 0
M  V30 580 C 54.4266 3.32599 1.0573 0
M  V30 581 C 55.7746 3.99179 1.44711 0
M  V30 582 O 56.7986 3.3712 1.15015 0
M  V30 583 O 55.6576 5.08565 2.0006 0
M  V30 584 H 52.7516 0.755869 0.335546 0
M  V30 585 H 55.2976 1.69589 -0.0614402 0
M  V30 586 H 54.0696 3.90834 0.190828 0
M  V30 587 H 53.6926 3.51415 1.85993 0
M  V30 588 N 54.6897 -0.239769 1.55765 0
M  V30 589 C 55.9147 -0.988373 1.82335 0
M  V30 590 C 56.3397 -1.77886 0.611421 0
M  V30 591 O 55.6977 -1.75889 -0.439639 0
M  V30 592 C 55.7457 -1.89627 3.06715 0
M  V30 593 O 54.8497 -2.98904 2.84131 0
M  V30 594 H 54.1907 -0.280858 0.601677 0
M  V30 595 H 56.7207 -0.258597 2.02959 0
M  V30 596 H 56.7307 -2.30957 3.36338 0
M  V30 597 H 55.4057 -1.31511 3.9456 0
M  V30 598 H 53.9827 -2.61651 2.65694 0
M  V30 599 N 56.1678 -1.49265 -0.50573 0
M  V30 600 C 57.0978 -1.68495 -1.61653 0
M  V30 601 C 58.0788 -0.53366 -1.61512 0
M  V30 602 O 59.2638 -0.76897 -1.78327 0
M  V30 603 C 56.3938 -1.74709 -3.00157 0
M  V30 604 C 55.3478 -2.89581 -3.15162 0
M  V30 605 C 54.6738 -2.80903 -4.5497 0
M  V30 606 C 55.9738 -4.30578 -2.95634 0
M  V30 607 H 57.6678 -2.61493 -1.45814 0
M  V30 608 H 55.2138 -1.25838 -0.70005 0
M  V30 609 H 57.1668 -1.86748 -3.77761 0
M  V30 610 H 55.8908 -0.783067 -3.17074 0
M  V30 611 H 54.5498 -2.77136 -2.39982 0
M  V30 612 H 54.1978 -1.82419 -4.68756 0
M  V30 613 H 53.8978 -3.57999 -4.65951 0
M  V30 614 H 55.4218 -2.94944 -5.34641 0
M  V30 615 H 56.8358 -4.4373 -3.63011 0
M  V30 616 H 55.2328 -5.0886 -3.18091 0
M  V30 617 H 56.3028 -4.45352 -1.91806 0
M  V30 618 N 57.6459 0.756429 -1.3826 0
M  V30 619 C 58.8919 1.51772 -1.34511 0
M  V30 620 C 59.2249 1.94089 0.0656691 0
M  V30 621 O 58.4999 1.65221 1.02626 0
M  V30 622 C 58.7829 2.77226 -2.29821 0
M  V30 623 C 58.6359 2.41065 -3.79747 0
M  V30 624 C 59.9549 3.79236 -2.23312 0
M  V30 625 H 57.0739 0.550578 -0.489931 0
M  V30 626 H 59.7159 0.866607 -1.69086 0
M  V30 627 H 57.8659 3.32784 -2.00467 0
M  V30 628 H 59.5379 1.91303 -4.19763 0
M  V30 629 H 57.7809 1.7356 -3.97567 0
M  V30 630 H 58.4519 3.3081 -4.41892 0
M  V30 631 H 60.9279 3.3321 -2.49219 0
M  V30 632 H 59.8039 4.64714 -2.92116 0
M  V30 633 H 60.0649 4.24615 -1.23102 0
M  V30 634 N 59.124 1.23083 0.984299 0
M  V30 635 C 60.364 1.07226 1.74017 0
M  V30 636 C 60.728 -0.384766 1.88105 0
M  V30 637 O 61.929 -0.664411 2.60459 0
M  V30 638 C 60.2 1.77348 3.10294 0
M  V30 639 S 61.759 1.77014 4.01512 0
M  V30 640 H 58.577 0.383819 0.598502 0
M  V30 641 H 61.179 1.56158 1.17622 0
M  V30 642 H 59.883 2.82506 2.97689 0
M  V30 643 H 59.414 1.28682 3.71759 0
M  V30 644 H 61.429 0.825956 4.89277 0
M  V30 645 N 60.6021 -1.18246 1.0419 0
M  V30 646 C 61.5491 -2.2192 0.634037 0
M  V30 647 C 62.5191 -1.62179 -0.358765 0
M  V30 648 O 63.7041 -1.89122 -0.252466 0
M  V30 649 C 60.8441 -3.451 0.00445535 0
M  V30 650 C 59.9571 -4.19174 1.04487 0
M  V30 651 C 59.0921 -5.29813 0.383676 0
M  V30 652 C 58.1311 -5.9566 1.4091 0
M  V30 653 N 57.2681 -6.97834 0.772784 0
M  V30 654 H 62.1081 -2.56164 1.52263 0
M  V30 655 H 59.6451 -1.25843 0.761701 0
M  V30 656 H 61.6031 -4.15485 -0.377919 0
M  V30 657 H 60.2331 -3.11472 -0.847652 0
M  V30 658 H 59.2851 -3.47604 1.54518 0
M  V30 659 H 60.5971 -4.64267 1.82368 0
M  V30 660 H 59.7511 -6.06677 -0.0528366 0
M  V30 661 H 58.4901 -4.85825 -0.427208 0
M  V30 662 H 57.4951 -5.17535 1.85574 0
M  V30 663 H 58.7201 -6.4173 2.22171 0
M  V30 664 H 56.6661 -6.55998 -0.0177708 0
M  V30 665 H 56.5831 -7.41186 1.48928 0
M  V30 666 H 57.8511 -7.78665 0.36071 0
M  V30 667 N 62.0802 -0.821533 -1.34494 0
M  V30 668 C 63.0432 -0.247847 -2.27856 0
M  V30 669 C 64.0432 0.573453 -1.50227 0
M  V30 670 O 65.2332 0.389759 -1.69784 0
M  V30 671 C 62.3652 0.652698 -3.34593 0
M  V30 672 H 63.5582 -1.07146 -2.80107 0
M  V30 673 H 61.1112 -0.593291 -1.44602 0
M  V30 674 H 61.8462 1.49943 -2.87555 0
M  V30 675 H 61.6312 0.065292 -3.92046 0
M  V30 676 H 63.1212 1.04793 -4.04238 0
M  V30 677 N 63.5583 1.46682 -0.576371 0
M  V30 678 C 64.8063 2.02013 -0.0594163 0
M  V30 679 C 65.1273 1.45101 1.30271 0
M  V30 680 O 64.3973 0.633317 1.8538 0
M  V30 681 H 62.9773 0.746759 -0.0189745 0
M  V30 682 H 65.6393 1.79862 -0.750717 0
M  V30 683 H 64.7353 3.12097 0.014345 0
M  V30 684 N 65.0364 0.313813 1.54444 0
M  V30 685 C 66.2854 -0.292519 1.99568 0
M  V30 686 C 66.5984 -1.54011 1.20582 0
M  V30 687 O 67.8044 -2.22183 1.56035 0
M  V30 688 C 66.2604 -0.571752 3.55329 0
M  V30 689 C 65.8684 0.658229 4.43138 0
M  V30 690 C 67.6124 -1.13857 4.08946 0
M  V30 691 C 65.5194 0.351439 5.90355 0
M  V30 692 H 64.4494 -0.113079 0.745472 0
M  V30 693 H 67.1004 0.424518 1.78522 0
M  V30 694 H 65.4824 -1.34872 3.72325 0
M  V30 695 H 66.6564 1.43403 4.37918 0
M  V30 696 H 64.9714 1.14458 4.0036 0
M  V30 697 H 67.5684 -1.38257 5.16516 0
M  V30 698 H 67.9114 -2.08489 3.6033 0
M  V30 699 H 68.4444 -0.423015 3.95544 0
M  V30 700 H 65.1834 1.26667 6.43145 0
M  V30 701 H 64.7034 -0.386842 5.98551 0
M  V30 702 H 66.3824 -0.0423134 6.46986 0
M  V30 703 N 66.5145 -1.57545 0.0417849 0
M  V30 704 C 67.7635 -1.91494 -0.633492 0
M  V30 705 C 68.0765 -0.921084 -1.72556 0
M  V30 706 O 69.2825 -1.15228 -2.45835 0
M  V30 707 C 67.7385 -3.40072 -1.17808 0
M  V30 708 C 67.3465 -4.47843 -0.118633 0
M  V30 709 C 69.0905 -3.8307 -1.82915 0
M  V30 710 C 66.9975 -5.87529 -0.675578 0
M  V30 711 H 65.9275 -0.714653 -0.24039 0
M  V30 712 H 68.5785 -1.83175 0.109148 0
M  V30 713 H 66.9605 -3.43364 -1.97274 0
M  V30 714 H 68.1345 -4.56128 0.654494 0
M  V30 715 H 66.4495 -4.14128 0.434414 0
M  V30 716 H 69.0465 -4.84794 -2.25563 0
M  V30 717 H 69.3895 -3.1881 -2.67705 0
M  V30 718 H 69.9225 -3.82255 -1.10119 0
M  V30 719 H 66.6615 -6.55362 0.134475 0
M  V30 720 H 66.1815 -5.82824 -1.4169 0
M  V30 721 H 67.8605 -6.36491 -1.1614 0
M  V30 722 N 67.9926 0.231505 -1.5589 0
M  V30 723 C 68.9556 1.27028 -1.90779 0
M  V30 724 C 69.9556 1.40308 -0.785507 0
M  V30 725 O 71.1456 1.38744 -1.05336 0
M  V30 726 C 68.2776 2.64566 -2.14983 0
M  V30 727 H 69.4706 0.973017 -2.83677 0
M  V30 728 H 67.0236 0.471486 -1.49019 0
M  V30 729 H 67.7586 2.99406 -1.24604 0
M  V30 730 H 67.5436 2.56305 -2.96732 0
M  V30 731 H 69.0336 3.39543 -2.43105 0
M  V30 732 N 69.4707 1.49531 0.497807 0
M  V30 733 C 70.6957 1.63159 1.28039 0
M  V30 734 C 71.1207 0.30418 1.85624 0
M  V30 735 O 70.4787 -0.728618 1.66015 0
M  V30 736 C 70.5267 2.70537 2.38416 0
M  V30 737 O 69.6307 2.29931 3.42353 0
M  V30 738 H 68.9717 0.546001 0.377861 0
M  V30 739 H 71.5017 1.9574 0.59558 0
M  V30 740 H 71.5117 2.92802 2.84132 0
M  V30 741 H 70.1867 3.6689 1.95869 0
M  V30 742 H 68.7637 2.18009 3.02533 0
M  V30 743 N 70.9488 -0.749086 1.3866 0
M  V30 744 C 71.9118 -1.84457 1.36045 0
M  V30 745 C 72.9118 -1.58682 0.260122 0
M  V30 746 O 74.1018 -1.66343 0.517261 0
M  V30 747 C 71.2338 -3.22008 1.11911 0
M  V30 748 H 72.4268 -1.88182 2.33512 0
M  V30 749 H 69.9798 -0.951266 1.24019 0
M  V30 750 H 70.7148 -3.2395 0.150686 0
M  V30 751 H 70.4998 -3.42111 1.91579 0
M  V30 752 H 71.9898 -4.0208 1.12788 0
M  V30 753 N 72.4269 -1.23603 -0.977757 0
M  V30 754 C 73.8429 -0.999251 -1.24447 0
M  V30 755 C 74.0429 0.298053 -1.99283 0
M  V30 756 O 73.0989 1.01681 -2.31122 0
M  V30 757 C 74.4119 -2.20784 -2.04144 0
M  V30 758 C 75.9599 -2.25303 -2.17273 0
M  V30 759 C 76.4349 -3.45755 -3.00362 0
M  V30 760 N 77.9259 -3.4601 -3.07947 0
M  V30 761 C 78.6609 -4.35868 -3.72568 0
M  V30 762 N 78.1569 -5.35966 -4.38991 0
M  V30 763 N 79.9499 -4.23605 -3.6948 0
M  V30 764 H 72.1009 -2.06986 -0.476483 0
M  V30 765 H 74.3639 -0.907801 -0.273134 0
M  V30 766 H 74.0699 -3.14945 -1.56533 0
M  V30 767 H 73.9439 -2.22085 -3.04891 0
M  V30 768 H 76.3309 -1.3168 -2.64092 0
M  V30 769 H 76.4119 -2.28033 -1.15907 0
M  V30 770 H 76.0559 -4.39687 -2.5424 0
M  V30 771 H 75.9859 -3.40266 -4.01904 0
M  V30 772 H 78.4769 -2.73588 -2.60688 0
M  V30 773 H 78.7899 -6.00783 -4.86086 0
M  V30 774 H 77.1349 -5.39863 -4.37691 0
M  V30 775 H 80.3259 -3.44647 -3.16759 0
M  V30 776 H 80.4989 -4.93836 -4.1956 0
M  V30 777 N 73.905 1.17692 -1.04816 0
M  V30 778 C 74.868 2.19787 -0.650117 0
M  V30 779 C 75.868 1.58044 0.296427 0
M  V30 780 O 77.058 1.74012 0.0808097 0
M  V30 781 C 74.19 3.40869 0.0456987 0
M  V30 782 H 75.383 2.56516 -1.5537 0
M  V30 783 H 72.936 1.31708 -0.841594 0
M  V30 784 H 73.671 3.09681 0.962726 0
M  V30 785 H 73.456 3.86928 -0.634727 0
M  V30 786 H 74.946 4.16445 0.310432 0
M  V30 787 N 75.3831 0.828654 1.34056 0
M  V30 788 C 76.6311 0.41863 1.97717 0
M  V30 789 C 76.9521 -1.02314 1.66002 0
M  V30 790 O 76.2221 -1.71119 0.953683 0
M  V30 791 H 74.8021 0.151809 0.731412 0
M  V30 792 H 77.4641 1.05936 1.63596 0
M  V30 793 H 76.5601 0.542318 3.07352 0
M  V30 794 N 76.8612 -1.46375 0.584142 0
M  V30 795 C 77.7712 -2.34115 -0.150728 0
M  V30 796 C 78.7872 -1.49838 -0.884567 0
M  V30 797 O 79.9632 -1.82704 -0.847429 0
M  V30 798 C 77.0282 -3.2705 -1.15062 0
M  V30 799 C 76.0892 -4.27228 -0.421293 0
M  V30 800 C 75.3222 -5.15722 -1.37355 0
M  V30 801 O 75.5452 -5.07176 -2.61014 0
M  V30 802 O 74.4792 -5.95383 -0.883355 0
M  V30 803 H 78.3052 -2.98309 0.569708 0
M  V30 804 H 75.8902 -1.45373 0.344535 0
M  V30 805 H 77.7722 -3.84381 -1.72712 0
M  V30 806 H 76.4472 -2.65451 -1.8525 0
M  V30 807 H 75.3542 -3.7358 0.197085 0
M  V30 808 H 76.6872 -4.91616 0.239641 0
M  V30 809 N 78.3393 -0.321999 -1.54275 0
M  V30 810 C 79.5673 0.283052 -2.04955 0
M  V30 811 C 79.9823 1.45904 -1.19823 0
M  V30 812 O 79.3393 1.81063 -0.228545 0
M  V30 813 C 79.3903 0.719028 -3.54277 0
M  V30 814 O 79.1113 -0.410175 -4.36176 0
M  V30 815 C 80.6123 1.38705 -4.21041 0
M  V30 816 H 77.8323 0.0584616 -0.668448 0
M  V30 817 H 80.3763 -0.467734 -1.99079 0
M  V30 818 H 78.5313 1.41979 -3.60445 0
M  V30 819 H 78.9453 -0.0669416 -5.24457 0
M  V30 820 H 80.4193 1.64306 -5.2698 0
M  V30 821 H 80.8963 2.33385 -3.72059 0
M  V30 822 H 81.5023 0.728906 -4.19007 0
M  V30 823 N 79.8174 1.5752 -0.0501392 0
M  V30 824 C 81.2334 1.56631 0.306402 0
M  V30 825 C 81.4334 1.0577 1.71508 0
M  V30 826 O 80.4894 0.713837 2.422 0
M  V30 827 C 81.8024 3.00393 0.135811 0
M  V30 828 C 83.3504 3.12315 0.206993 0
M  V30 829 C 83.8254 4.57954 0.064944 0
M  V30 830 N 85.3164 4.63041 0.121254 0
M  V30 831 C 86.0514 5.73389 0.0354381 0
M  V30 832 N 85.5474 6.92724 -0.102666 0
M  V30 833 N 87.3404 5.62026 0.090946 0
M  V30 834 H 79.4914 1.88903 -0.971046 0
M  V30 835 H 81.7544 0.869876 -0.376855 0
M  V30 836 H 81.4604 3.41635 -0.835384 0
M  V30 837 H 81.3344 3.66373 0.897275 0
M  V30 838 H 83.7214 2.70973 1.16866 0
M  V30 839 H 83.8024 2.49016 -0.585208 0
M  V30 840 H 83.4464 4.99981 -0.893394 0
M  V30 841 H 83.3764 5.19258 0.876277 0
M  V30 842 H 85.8674 3.77216 0.227284 0
M  V30 843 H 86.1804 7.72633 -0.160882 0
M  V30 844 H 84.5254 6.94864 -0.137737 0
M  V30 845 H 87.7164 4.67684 0.197388 0
M  V30 846 H 87.8894 6.47997 0.0206089 0
M  V30 847 N 81.2955 -0.223234 1.56011 0
M  V30 848 C 82.5425 -0.947875 1.78946 0
M  V30 849 C 82.8705 -1.844 0.618608 0
M  V30 850 O 82.1255 -1.91629 -0.397093 0
M  V30 851 C 82.4245 -1.81948 3.0762 0
M  V30 852 C 82.0905 -1.07672 4.37856 0
M  V30 853 C 80.7525 -0.871544 4.73242 0
M  V30 854 C 83.1045 -0.552081 5.18268 0
M  V30 855 C 80.4325 -0.129791 5.86556 0
M  V30 856 C 82.7845 0.17632 6.32354 0
M  V30 857 C 81.4485 0.39277 6.66343 0
M  V30 858 H 80.7185 -0.346852 0.654809 0
M  V30 859 H 83.3655 -0.216171 1.90276 0
M  V30 860 H 81.6705 -2.61899 2.91404 0
M  V30 861 H 83.3675 -2.38227 3.22566 0
M  V30 862 H 79.9575 -1.24662 4.1007 0
M  V30 863 H 84.1415 -0.698076 4.91366 0
M  V30 864 H 79.3975 0.048153 6.11381 0
M  V30 865 H 83.5715 0.590367 6.93893 0
M  V30 866 H 81.1985 0.969466 7.53993 0
M  V30 867 N 82.7736 -1.49793 -0.48987 0
M  V30 868 C 84.0016 -1.63568 -1.26701 0
M  V30 869 C 84.4166 -0.311465 -1.86213 0
M  V30 870 O 83.7736 0.704416 -1.68357 0
M  V30 871 C 83.8246 -2.71284 -2.38929 0
M  V30 872 O 83.5456 -3.9857 -1.81861 0
M  V30 873 C 85.0466 -2.95864 -3.3012 0
M  V30 874 H 82.2666 -0.550342 -0.383881 0
M  V30 875 H 84.8106 -1.95898 -0.586864 0
M  V30 876 H 82.9656 -2.417 -3.02753 0
M  V30 877 H 83.3796 -4.57993 -2.55622 0
M  V30 878 H 84.8536 -3.74941 -4.05121 0
M  V30 879 H 85.3306 -2.06206 -3.87783 0
M  V30 880 H 85.9366 -3.26907 -2.72051 0
M  V30 881 N 84.2517 0.741722 -1.39055 0
M  V30 882 C 85.5287 1.49252 -1.26425 0
M  V30 883 C 85.9087 2.10705 0.129144 0
M  V30 884 O 85.2567 1.98045 1.13976 0
M  V30 885 C 85.4667 2.54934 -2.38347 0
M  V30 886 C 86.8147 3.21506 -2.77343 0
M  V30 887 O 87.8387 2.65245 -2.37747 0
M  V30 888 O 86.6977 4.23294 -3.45665 0
M  V30 889 H 83.7917 0.662451 -0.495064 0
M  V30 890 H 86.3377 0.776121 -1.50912 0
M  V30 891 H 85.1097 2.07857 -3.31529 0
M  V30 892 H 84.7327 3.34141 -2.15489 0
M  V30 893 N 85.7298 1.2412 0.971189 0
M  V30 894 C 86.9578 1.10575 1.74874 0
M  V30 895 C 87.3728 -0.342017 1.85676 0
M  V30 896 O 86.7298 -1.23617 1.34258 0
M  V30 897 C 86.7808 1.73579 3.171 0
M  V30 898 O 86.5018 3.12695 3.06844 0
M  V30 899 C 88.0028 1.65598 4.11208 0
M  V30 900 H 85.2228 0.386504 0.548503 0
M  V30 901 H 87.7668 1.64156 1.21955 0
M  V30 902 H 85.9218 1.24009 3.67016 0
M  V30 903 H 86.3358 3.43412 3.96445 0
M  V30 904 H 87.8098 2.1437 5.08674 0
M  V30 905 H 88.2868 0.616532 4.34851 0
M  V30 906 H 88.8928 2.14578 3.67201 0
M  V30 907 N 87.2079 -1.17134 1.05439 0
M  V30 908 C 88.6239 -1.39454 0.776201 0
M  V30 909 C 88.8239 -1.91454 -0.628307 0
M  V30 910 O 87.8799 -2.10777 -1.39031 0
M  V30 911 C 89.1929 -2.38305 1.83388 0
M  V30 912 C 90.7409 -2.52006 1.85639 0
M  V30 913 C 91.2159 -3.54133 2.90437 0
M  V30 914 N 92.7069 -3.61653 2.89415 0
M  V30 915 C 93.4419 -4.4044 3.67152 0
M  V30 916 N 92.9379 -5.22721 4.54681 0
M  V30 917 N 94.7309 -4.35337 3.55581 0
M  V30 918 H 86.8819 -0.817134 1.96053 0
M  V30 919 H 89.1449 -0.421626 0.849079 0
M  V30 920 H 88.8509 -2.07173 2.84204 0
M  V30 921 H 88.7249 -3.37841 1.67761 0
M  V30 922 H 91.1119 -2.82447 0.85486 0
M  V30 923 H 91.1929 -1.52537 2.05344 0
M  V30 924 H 90.8369 -3.24431 3.90777 0
M  V30 925 H 90.7669 -4.53313 2.67983 0
M  V30 926 H 93.2579 -3.02909 2.25952 0
M  V30 927 H 93.5709 -5.80027 5.10674 0
M  V30 928 H 91.9159 -5.22093 4.58741 0
M  V30 929 H 95.1069 -3.70112 2.86592 0
M  V30 930 H 95.2799 -4.96494 4.1641 0
M  V30 931 N 88.686 -0.835752 -1.33615 0
M  V30 932 C 89.633 -0.26473 -2.29277 0
M  V30 933 C 90.603 0.617712 -1.54187 0
M  V30 934 O 91.788 0.556641 -1.825 0
M  V30 935 C 88.928 0.556777 -3.40579 0
M  V30 936 C 88.041 -0.349339 -4.30585 0
M  V30 937 C 87.176 0.482969 -5.29 0
M  V30 938 C 86.215 -0.421732 -6.10645 0
M  V30 939 N 85.352 0.372262 -7.01112 0
M  V30 940 H 90.192 -1.08582 -2.77514 0
M  V30 941 H 87.729 -0.546927 -1.36554 0
M  V30 942 H 89.687 1.04852 -4.03809 0
M  V30 943 H 88.317 1.34286 -2.93542 0
M  V30 944 H 87.369 -0.959372 -3.68104 0
M  V30 945 H 88.681 -1.04445 -4.87742 0
M  V30 946 H 87.835 1.03866 -5.97743 0
M  V30 947 H 86.574 1.21153 -4.72412 0
M  V30 948 H 85.579 -0.989464 -5.40823 0
M  V30 949 H 86.804 -1.14861 -6.69316 0
M  V30 950 H 84.75 1.08426 -6.46977 0
M  V30 951 H 84.667 -0.264198 -7.55538 0
M  V30 952 H 85.935 0.910293 -7.74167 0
M  V30 953 N 90.1641 1.46063 -0.591896 0
M  V30 954 C 91.4411 1.95595 -0.0137119 0
M  V30 955 C 91.8211 1.5345 1.4497 0
M  V30 956 O 91.1691 0.789543 2.14426 0
M  V30 957 C 91.3791 3.48453 -0.195373 0
M  V30 958 C 92.7271 4.24546 -0.0679765 0
M  V30 959 O 93.7511 3.55982 -0.124681 0
M  V30 960 O 92.6101 5.46467 0.0600579 0
M  V30 961 H 89.7041 0.825795 0.0446279 0
M  V30 962 H 92.2501 1.56303 -0.660859 0
M  V30 963 H 91.0221 3.72045 -1.21235 0
M  V30 964 H 90.6451 3.94597 0.487775 0
M  V30 965 N 91.6422 0.330177 1.54103 0
M  V30 966 C 92.5522 -0.541534 2.28264 0
M  V30 967 C 93.5682 -1.12351 1.32866 0
M  V30 968 O 94.7442 -1.14206 1.65888 0
M  V30 969 C 91.8092 -1.68322 3.03098 0
M  V30 970 C 90.8702 -1.13238 4.14096 0
M  V30 971 C 90.1032 -2.21966 4.85352 0
M  V30 972 O 90.3262 -3.42437 4.56172 0
M  V30 973 O 89.2602 -1.87013 5.7211 0
M  V30 974 H 93.0862 0.060938 3.03639 0
M  V30 975 H 90.6712 0.09565 1.49093 0
M  V30 976 H 92.5532 -2.34777 3.49939 0
M  V30 977 H 91.2282 -2.27176 2.30593 0
M  V30 978 H 90.1352 -0.432736 3.71589 0
M  V30 979 H 91.4682 -0.588898 4.88664 0
M  V30 980 N 93.1203 -1.57491 0.0584922 0
M  V30 981 C 94.0523 -2.08916 -0.942694 0
M  V30 982 C 95.0653 -1.0185 -1.27006 0
M  V30 983 O 96.2543 -1.29398 -1.22957 0
M  V30 984 C 93.3543 -2.52341 -2.26224 0
M  V30 985 C 92.5273 -3.82827 -2.1157 0
M  V30 986 C 91.5863 -4.12487 -3.26712 0
M  V30 987 O 90.6123 -4.82295 -3.02292 0
M  V30 988 N 91.8143 -3.64978 -4.5141 0
M  V30 989 H 94.5793 -2.95437 -0.503722 0
M  V30 990 H 92.1403 -1.61397 -0.12757 0
M  V30 991 H 94.1323 -2.69254 -3.02133 0
M  V30 992 H 92.7023 -1.7103 -2.61663 0
M  V30 993 H 91.9223 -3.75425 -1.20208 0
M  V30 994 H 93.2103 -4.68263 -1.99015 0
M  V30 995 H 92.6083 -3.08558 -4.7414 0
M  V30 996 H 91.1653 -3.87115 -5.2439 0
M  V30 997 N 94.5984 0.214957 -1.56127 0
M  V30 998 C 95.5084 1.28727 -1.96129 0
M  V30 999 C 96.5244 1.50916 -0.866044 0
M  V30 1000 O 97.7004 1.63918 -1.17016 0
M  V30 1001 C 94.7654 2.61569 -2.27558 0
M  V30 1002 C 93.8264 2.47625 -3.50685 0
M  V30 1003 C 93.0594 3.74132 -3.80606 0
M  V30 1004 O 93.2824 4.77438 -3.12104 0
M  V30 1005 O 92.2164 3.70849 -4.74083 0
M  V30 1006 H 96.0424 0.977855 -2.87527 0
M  V30 1007 H 93.6274 0.418358 -1.43423 0
M  V30 1008 H 95.5094 3.40012 -2.48938 0
M  V30 1009 H 94.1844 2.92178 -1.39332 0
M  V30 1010 H 93.0914 1.67361 -3.34576 0
M  V30 1011 H 94.4244 2.21954 -4.39315 0
M  V30 1012 N 96.0765 1.50051 0.48192 0
M  V30 1013 C 97.4925 1.37237 0.814756 0
M  V30 1014 C 97.6925 0.420109 1.97072 0
M  V30 1015 O 96.7485 -0.141246 2.52105 0
M  V30 1016 C 98.0615 2.78375 1.13701 0
M  V30 1017 C 99.6095 2.87213 1.2441 0
M  V30 1018 C 100.084 4.29161 1.59954 0
M  V30 1019 N 101.575 4.32061 1.66967 0
M  V30 1020 C 102.31 5.38879 1.95952 0
M  V30 1021 N 101.806 6.55918 2.23031 0
M  V30 1022 N 103.599 5.26312 1.97363 0
M  V30 1023 H 95.7505 2.10546 -0.28005 0
M  V30 1024 H 98.0135 0.945921 -0.0627454 0
M  V30 1025 H 97.7195 3.49845 0.360787 0
M  V30 1026 H 97.5935 3.14941 2.07586 0
M  V30 1027 H 99.9805 2.15969 2.01101 0
M  V30 1028 H 100.061 2.54204 0.285299 0
M  V30 1029 H 99.7055 5.00938 0.838067 0
M  V30 1030 H 99.6355 4.59648 2.56966 0
M  V30 1031 H 102.126 3.47661 1.48123 0
M  V30 1032 H 102.439 7.33139 2.44391 0
M  V30 1033 H 100.784 6.59112 2.20447 0
M  V30 1034 H 103.975 4.33876 1.75697 0
M  V30 1035 H 104.148 6.09649 2.19618 0
M  V30 1036 N 97.5546 -0.734337 1.39446 0
M  V30 1037 C 98.7946 -1.50655 1.38139 0
M  V30 1038 C 99.1586 -1.91986 -0.0228701 0
M  V30 1039 O 100.36 -2.68318 -0.160947 0
M  V30 1040 C 98.6306 -2.71251 2.32718 0
M  V30 1041 S 100.19 -3.60892 2.49605 0
M  V30 1042 H 97.0076 -0.515315 0.489869 0
M  V30 1043 H 99.6096 -0.860392 1.75549 0
M  V30 1044 H 98.3136 -2.39027 3.33608 0
M  V30 1045 H 97.8446 -3.40795 1.96526 0
M  V30 1046 H 99.8596 -4.64899 1.73446 0
M  V30 1047 N 99.0327 -1.24633 -0.964593 0
M  V30 1048 C 100.282 -1.08188 -1.7023 0
M  V30 1049 C 100.595 0.37873 -1.91898 0
M  V30 1050 O 101.801 0.663427 -2.6327 0
M  V30 1051 C 100.257 -1.88773 -3.06419 0
M  V30 1052 C 99.8647 -3.39263 -2.92582 0
M  V30 1053 C 101.609 -1.80867 -3.84041 0
M  V30 1054 C 99.5157 -4.1218 -4.24101 0
M  V30 1055 H 98.4457 -0.401245 -0.638372 0
M  V30 1056 H 101.097 -1.48742 -1.07462 0
M  V30 1057 H 99.4787 -1.41035 -3.70034 0
M  V30 1058 H 100.653 -3.94603 -2.37961 0
M  V30 1059 H 98.9677 -3.48154 -2.28424 0
M  V30 1060 H 101.565 -2.32646 -4.81435 0
M  V30 1061 H 101.908 -0.774543 -4.09031 0
M  V30 1062 H 102.441 -2.26301 -3.27159 0
M  V30 1063 H 99.1797 -5.15965 -4.04303 0
M  V30 1064 H 98.6997 -3.61626 -4.78526 0
M  V30 1065 H 100.379 -4.19349 -4.92702 0
M  V30 1066 N 100.511 1.16574 -1.06058 0
M  V30 1067 C 101.739 1.90952 -0.796552 0
M  V30 1068 C 102.154 1.77302 0.648808 0
M  V30 1069 O 101.511 1.11605 1.44397 0
M  V30 1070 C 101.562 3.41736 -1.17894 0
M  V30 1071 O 101.283 3.54975 -2.56758 0
M  V30 1072 C 102.784 4.33169 -0.942308 0
M  V30 1073 H 100.004 0.605594 -0.288959 0
M  V30 1074 H 102.548 1.47777 -1.41358 0
M  V30 1075 H 100.703 3.82623 -0.606491 0
M  V30 1076 H 101.117 4.4846 -2.72 0
M  V30 1077 H 102.591 5.37439 -1.25952 0
M  V30 1078 H 103.068 4.3903 0.122078 0
M  V30 1079 H 103.674 3.98007 -1.49902 0
M  V30 1080 N 101.989 0.842826 1.3317 0
M  V30 1081 C 103.238 0.436738 1.96915 0
M  V30 1082 C 103.551 -1.01025 1.67491 0
M  V30 1083 O 104.757 -1.5212 2.24881 0
M  V30 1084 C 103.213 0.730021 3.52418 0
M  V30 1085 C 102.821 2.19195 3.90714 0
M  V30 1086 C 104.565 0.391076 4.22695 0
M  V30 1087 C 102.472 2.42907 5.39212 0
M  V30 1088 H 101.402 0.15958 0.736919 0
M  V30 1089 H 104.053 1.03196 1.51733 0
M  V30 1090 H 102.435 0.0643755 3.95948 0
M  V30 1091 H 103.609 2.8984 3.58231 0
M  V30 1092 H 101.924 2.49425 3.33431 0
M  V30 1093 H 104.521 0.545817 5.31907 0
M  V30 1094 H 104.864 -0.666294 4.10933 0
M  V30 1095 H 105.397 1.01212 3.84709 0
M  V30 1096 H 102.136 3.47224 5.55982 0
M  V30 1097 H 101.656 1.76827 5.73142 0
M  V30 1098 H 103.335 2.2626 6.06148 0
M  V30 1099 N 103.467 -1.45747 0.599634 0
M  V30 1100 C 104.414 -2.30467 -0.123849 0
M  V30 1101 C 105.384 -1.41632 -0.86774 0
M  V30 1102 O 106.569 -1.70568 -0.855056 0
M  V30 1103 C 103.709 -3.26402 -1.12051 0
M  V30 1104 C 102.822 -4.3034 -0.37832 0
M  V30 1105 C 101.957 -5.13389 -1.364 0
M  V30 1106 C 100.996 -6.09061 -0.609171 0
M  V30 1107 N 100.133 -6.84918 -1.54374 0
M  V30 1108 H 104.973 -2.91802 0.604627 0
M  V30 1109 H 102.51 -1.43797 0.309972 0
M  V30 1110 H 104.468 -3.80482 -1.7114 0
M  V30 1111 H 103.098 -2.66839 -1.8165 0
M  V30 1112 H 102.15 -3.78984 0.327929 0
M  V30 1113 H 103.462 -4.98354 0.210997 0
M  V30 1114 H 102.616 -5.7183 -2.02719 0
M  V30 1115 H 101.355 -4.45376 -1.98725 0
M  V30 1116 H 100.36 -5.49758 0.0676979 0
M  V30 1117 H 101.585 -6.79099 0.00891991 0
M  V30 1118 H 99.531 -6.19601 -2.15478 0
M  V30 1119 H 99.448 -7.49254 -1.00766 0
M  V30 1120 H 100.716 -7.47906 -2.19676 0
M  V30 1121 N 104.945 -0.338344 -1.53925 0
M  V30 1122 C 106.17 0.263987 -2.05713 0
M  V30 1123 C 106.595 1.43847 -1.21201 0
M  V30 1124 O 105.953 1.79904 -0.224535 0
M  V30 1125 C 106.001 0.662 -3.54471 0
M  V30 1126 O 105.105 1.76265 -3.72833 0
M  V30 1127 H 104.446 0.0448722 -0.662482 0
M  V30 1128 H 106.976 -0.491048 -1.9862 0
M  V30 1129 H 106.986 0.940594 -3.9701 0
M  V30 1130 H 105.661 -0.196937 -4.15433 0
M  V30 1131 H 104.238 1.48173 -3.42198 0
M  V30 1132 N 106.423 1.57458 -0.0668435 0
M  V30 1133 C 107.651 1.97624 0.612565 0
M  V30 1134 C 108.066 0.94502 1.63447 0
M  V30 1135 O 107.423 -0.0689276 1.8237 0
M  V30 1136 C 107.474 3.37869 1.28555 0
M  V30 1137 O 107.195 4.3704 0.304557 0
M  V30 1138 C 108.696 3.92882 2.05325 0
M  V30 1139 H 105.916 0.650045 0.166381 0
M  V30 1140 H 108.46 2.04035 -0.137782 0
M  V30 1141 H 106.615 3.3256 1.98702 0
M  V30 1142 H 107.029 5.18565 0.786779 0
M  V30 1143 H 108.503 4.93247 2.47812 0
M  V30 1144 H 108.98 3.29156 2.9078 0
M  V30 1145 H 109.586 4.01577 1.40056 0
M  V30 1146 N 107.901 -0.206675 1.56239 0
M  V30 1147 C 108.864 -1.23976 1.92776 0
M  V30 1148 C 109.864 -1.39041 0.807729 0
M  V30 1149 O 111.054 -1.37051 1.0753 0
M  V30 1150 C 108.186 -2.61112 2.19165 0
M  V30 1151 H 109.379 -0.927764 2.85189 0
M  V30 1152 H 106.932 -0.447718 1.4975 0
M  V30 1153 H 107.667 -2.97386 1.29352 0
M  V30 1154 H 107.452 -2.51552 3.00772 0
M  V30 1155 H 108.942 -3.35633 2.48476 0
M  V30 1156 N 109.379 -1.50304 -0.473955 0
M  V30 1157 C 110.628 -1.60392 -1.22301 0
M  V30 1158 C 110.941 -0.308411 -1.93153 0
M  V30 1159 O 112.147 -0.288156 -2.69966 0
M  V30 1160 C 110.603 -2.83109 -2.2221 0
M  V30 1161 C 110.211 -4.19524 -1.57173 0
M  V30 1162 C 111.955 -3.0254 -2.97775 0
M  V30 1163 C 109.862 -5.33431 -2.55353 0
M  V30 1164 H 108.792 -0.597286 -0.460179 0
M  V30 1165 H 111.443 -1.76731 -0.493803 0
M  V30 1166 H 109.825 -2.60322 -2.9841 0
M  V30 1167 H 110.999 -4.52554 -0.867824 0
M  V30 1168 H 109.314 -4.05674 -0.939002 0
M  V30 1169 H 111.911 -3.84811 -3.71248 0
M  V30 1170 H 112.254 -2.14154 -3.56992 0
M  V30 1171 H 112.787 -3.25494 -2.28688 0
M  V30 1172 H 109.526 -6.23962 -2.00878 0
M  V30 1173 H 109.046 -5.04823 -3.23904 0
M  V30 1174 H 110.725 -5.63887 -3.17239 0
M  V30 1175 N 110.857 0.726932 -1.39834 0
M  V30 1176 C 112.082 1.52121 -1.40976 0
M  V30 1177 C 112.507 1.88098 -0.00826029 0
M  V30 1178 O 111.865 1.52479 0.980807 0
M  V30 1179 C 111.913 2.78021 -2.29644 0
M  V30 1180 O 111.017 3.74272 -1.73188 0
M  V30 1181 H 110.358 0.45908 -0.479731 0
M  V30 1182 H 112.888 0.896207 -1.83927 0
M  V30 1183 H 112.898 3.26671 -2.44438 0
M  V30 1184 H 111.573 2.51169 -3.31492 0
M  V30 1185 H 110.15 3.33073 -1.6768 0
M  V30 1186 N 112.336 1.25143 0.95797 0
M  V30 1187 C 113.266 1.07711 2.07173 0
M  V30 1188 C 114.247 -0.0128462 1.70095 0
M  V30 1189 O 115.432 0.156061 1.93572 0
M  V30 1190 C 112.562 0.691503 3.40346 0
M  V30 1191 C 111.516 1.73132 3.9142 0
M  V30 1192 C 110.842 1.20049 5.21049 0
M  V30 1193 C 112.142 3.1294 4.1817 0
M  V30 1194 H 113.836 2.00873 2.22014 0
M  V30 1195 H 111.382 0.967191 1.06684 0
M  V30 1196 H 113.335 0.556505 4.17709 0
M  V30 1197 H 112.059 -0.275819 3.25433 0
M  V30 1198 H 110.718 1.8547 3.16222 0
M  V30 1199 H 110.366 0.223499 5.02503 0
M  V30 1200 H 110.066 1.89545 5.56189 0
M  V30 1201 H 111.59 1.07782 6.01012 0
M  V30 1202 H 113.004 3.03775 4.86203 0
M  V30 1203 H 111.401 3.79875 4.64559 0
M  V30 1204 H 112.471 3.6025 3.24573 0
M  V30 1205 N 113.814 -1.1601 1.06675 0
M  V30 1206 C 115.061 -1.86633 0.785781 0
M  V30 1207 C 115.389 -1.81929 -0.687896 0
M  V30 1208 O 114.644 -1.23253 -1.52011 0
M  V30 1209 C 114.943 -3.35547 1.23057 0
M  V30 1210 C 114.609 -3.60448 2.70902 0
M  V30 1211 C 113.271 -3.66954 3.11285 0
M  V30 1212 C 115.623 -3.7071 3.66365 0
M  V30 1213 C 112.951 -3.81225 4.45965 0
M  V30 1214 C 115.303 -3.86503 5.00797 0
M  V30 1215 C 113.967 -3.91252 5.40813 0
M  V30 1216 H 113.237 -0.682937 0.287538 0
M  V30 1217 H 115.884 -1.37146 1.33654 0
M  V30 1218 H 114.189 -3.87193 0.59907 0
M  V30 1219 H 115.886 -3.88583 0.990163 0
M  V30 1220 H 112.476 -3.56021 2.38636 0
M  V30 1221 H 116.66 -3.64991 3.36296 0
M  V30 1222 H 111.916 -3.83155 4.76447 0
M  V30 1223 H 116.09 -3.93385 5.74649 0
M  V30 1224 H 113.717 -4.02062 6.45174 0
M  V30 1225 N 115.292 -0.849877 -1.32721 0
M  V30 1226 C 116.522 -0.46408 -2.0132 0
M  V30 1227 C 116.93 0.94246 -1.64056 0
M  V30 1228 O 116.273 1.6257 -0.855379 0
M  V30 1229 C 116.335 -0.517887 -3.5575 0
M  V30 1230 C 115.999 -1.88248 -4.16427 0
M  V30 1231 C 116.996 -2.84726 -4.35002 0
M  V30 1232 C 114.681 -2.17832 -4.52609 0
M  V30 1233 C 116.675 -4.08945 -4.8892 0
M  V30 1234 C 114.362 -3.42304 -5.06232 0
M  V30 1235 C 115.36 -4.37677 -5.24335 0
M  V30 1236 O 115.048 -5.59946 -5.76815 0
M  V30 1237 H 114.78 -0.181327 -0.651227 0
M  V30 1238 H 117.334 -1.14713 -1.70382 0
M  V30 1239 H 115.564 0.221997 -3.86062 0
M  V30 1240 H 117.253 -0.148366 -4.05629 0
M  V30 1241 H 118.019 -2.63174 -4.07388 0
M  V30 1242 H 113.898 -1.44385 -4.37806 0
M  V30 1243 H 117.442 -4.83396 -5.02966 0
M  V30 1244 H 113.339 -3.63709 -5.33278 0
M  V30 1245 H 114.107 -5.61838 -5.95214 0
M  V30 1246 N 116.77 1.45427 -0.607355 0
M  V30 1247 C 117.68 2.34325 0.113463 0
M  V30 1248 C 118.696 1.51226 0.860617 0
M  V30 1249 O 119.872 1.84029 0.818255 0
M  V30 1250 C 116.937 3.28839 1.09844 0
M  V30 1251 C 115.998 4.27844 0.353271 0
M  V30 1252 C 115.231 5.17842 1.29133 0
M  V30 1253 O 115.454 5.11264 2.52913 0
M  V30 1254 O 114.388 5.96713 0.788523 0
M  V30 1255 H 118.214 2.97364 -0.617094 0
M  V30 1256 H 115.799 1.44807 -0.367619 0
M  V30 1257 H 117.681 3.8708 1.66575 0
M  V30 1258 H 116.356 2.68365 1.81003 0
M  V30 1259 H 115.263 3.7322 -0.256494 0
M  V30 1260 H 116.596 4.91173 -0.317822 0
M  V30 1261 N 118.248 0.346503 1.53744 0
M  V30 1262 C 119.178 -0.501193 2.28058 0
M  V30 1263 C 120.159 -1.10014 1.29734 0
M  V30 1264 O 121.344 -1.12097 1.58581 0
M  V30 1265 C 118.474 -1.65078 3.05559 0
M  V30 1266 C 117.428 -1.18003 4.11411 0
M  V30 1267 C 116.754 -2.41837 4.76884 0
M  V30 1268 C 118.054 -0.278394 5.21558 0
M  V30 1269 H 119.748 0.11875 2.99164 0
M  V30 1270 H 117.294 0.0585531 1.43881 0
M  V30 1271 H 119.247 -2.25028 3.56287 0
M  V30 1272 H 117.971 -2.29767 2.32109 0
M  V30 1273 H 116.63 -0.603331 3.61601 0
M  V30 1274 H 116.278 -3.0494 4.00026 0
M  V30 1275 H 115.978 -2.1102 5.48402 0
M  V30 1276 H 117.502 -3.02508 5.30397 0
M  V30 1277 H 118.916 -0.784823 5.67903 0
M  V30 1278 H 117.313 -0.0619707 6.00068 0
M  V30 1279 H 118.383 0.684677 4.80042 0
M  V30 1280 N 119.726 -1.57421 0.075193 0
M  V30 1281 C 120.951 -1.98364 -0.605515 0
M  V30 1282 C 121.376 -0.953383 -1.62149 0
M  V30 1283 O 120.734 0.0806053 -1.81121 0
M  V30 1284 C 120.782 -3.38332 -1.24756 0
M  V30 1285 O 119.886 -3.37959 -2.36342 0
M  V30 1286 H 119.227 -0.645553 -0.155428 0
M  V30 1287 H 121.757 -2.04044 0.150714 0
M  V30 1288 H 121.767 -3.75591 -1.5936 0
M  V30 1289 H 120.442 -4.12846 -0.503129 0
M  V30 1290 H 119.019 -3.12474 -2.03506 0
M  V30 1291 N 121.204 0.198386 -1.56346 0
M  V30 1292 C 122.114 1.2664 -1.97483 0
M  V30 1293 C 123.13 1.49989 -0.882002 0
M  V30 1294 O 124.306 1.62668 -1.18748 0
M  V30 1295 C 121.371 2.59141 -2.30319 0
M  V30 1296 C 120.432 2.43892 -3.53292 0
M  V30 1297 C 119.665 3.70074 -3.84553 0
M  V30 1298 O 119.888 4.74101 -3.1715 0
M  V30 1299 O 118.822 3.658 -4.7799 0
M  V30 1300 H 122.648 0.947304 -2.88548 0
M  V30 1301 H 120.233 0.403123 -1.43859 0
M  V30 1302 H 122.115 3.37352 -2.5253 0
M  V30 1303 H 120.79 2.90684 -1.42423 0
M  V30 1304 H 119.697 1.63803 -3.36332 0
M  V30 1305 H 121.03 2.17282 -4.41644 0
M  V30 1306 N 122.682 1.50554 0.465978 0
M  V30 1307 C 123.63 1.70324 1.58406 0
M  V30 1308 C 124.624 0.569139 1.59553 0
M  V30 1309 O 125.83 0.749776 1.63641 0
M  V30 1310 H 122.205 0.537688 0.525734 0
M  V30 1311 H 124.176 2.64104 1.38894 0
M  V30 1312 C 122.925 1.81928 2.96307 0
M  V30 1313 H 122.248 2.68586 2.96144 0
M  V30 1314 H 123.688 1.99784 3.73982 0
M  V30 1315 C 122.147 0.572095 3.32007 0
M  V30 1316 O 122.677 -0.286416 4.00678 0
M  V30 1317 N 120.883 0.424606 2.87481 0
M  V30 1318 H 120.43 1.12427 2.31771 0
M  V30 1319 H 120.388 -0.408697 3.11732 0
M  V30 1320 N 124.16 -0.719506 1.40217 0
M  V30 1321 C 125.437 -1.47221 1.28784 0
M  V30 1322 C 125.817 -2.10883 -0.0956067 0
M  V30 1323 O 125.165 -1.99833 -1.10811 0
M  V30 1324 C 125.375 -2.5111 2.42373 0
M  V30 1325 C 126.723 -3.17053 2.82423 0
M  V30 1326 O 127.747 -2.61429 2.41937 0
M  V30 1327 O 126.606 -4.17742 3.52355 0
M  V30 1328 H 123.7 -0.654491 0.50554 0
M  V30 1329 H 126.246 -0.752014 1.52128 0
M  V30 1330 H 125.018 -2.02556 3.34793 0
M  V30 1331 H 124.641 -3.3067 2.20778 0
M  V30 1332 N 125.638 -1.25649 -0.95132 0
M  V30 1333 C 126.568 -1.08808 -2.06599 0
M  V30 1334 C 127.549 0.00382547 -1.701 0
M  V30 1335 O 128.734 -0.166325 -1.93486 0
M  V30 1336 C 125.864 -0.709542 -3.39975 0
M  V30 1337 C 124.818 -1.75206 -3.90496 0
M  V30 1338 C 124.144 -1.22811 -5.20405 0
M  V30 1339 C 125.444 -3.15153 -4.16504 0
M  V30 1340 H 127.138 -2.02048 -2.20946 0
M  V30 1341 H 124.684 -0.972835 -1.06169 0
M  V30 1342 H 126.637 -0.578649 -4.17408 0
M  V30 1343 H 125.361 0.258556 -3.25575 0
M  V30 1344 H 124.02 -1.87145 -3.15234 0
M  V30 1345 H 123.668 -0.250145 -5.02378 0
M  V30 1346 H 123.368 -1.92492 -5.55176 0
M  V30 1347 H 124.892 -1.10968 -6.00432 0
M  V30 1348 H 126.306 -3.06349 -4.84586 0
M  V30 1349 H 124.703 -3.82333 -4.62538 0
M  V30 1350 H 125.773 -3.61966 -3.22658 0
M  V30 1351 N 127.117 1.15442 -1.07289 0
M  V30 1352 C 128.065 2.22225 -0.686952 0
M  V30 1353 C 129.059 1.66688 0.30193 0
M  V30 1354 O 130.265 1.79236 0.165712 0
M  V30 1355 H 126.64 0.723783 -0.204064 0
M  V30 1356 H 128.611 2.52056 -1.5972 0
M  V30 1357 C 127.36 3.47556 -0.100149 0
M  V30 1358 H 126.683 3.90612 -0.852211 0
M  V30 1359 H 128.123 4.23794 0.132235 0
M  V30 1360 C 126.582 3.16337 1.159 0
M  V30 1361 O 127.112 3.33074 2.24555 0
M  V30 1362 N 125.318 2.70385 1.06491 0
M  V30 1363 H 124.865 2.56966 0.180668 0
M  V30 1364 H 124.823 2.49871 1.90819 0
M  V30 1365 N 128.595 0.856903 1.32268 0
M  V30 1366 C 129.842 0.461386 1.97174 0
M  V30 1367 C 130.17 -0.983491 1.67803 0
M  V30 1368 O 129.425 -1.70541 0.959903 0
M  V30 1369 C 129.724 0.649919 3.51441 0
M  V30 1370 C 129.39 2.0656 4.00804 0
M  V30 1371 C 128.052 2.45279 4.13995 0
M  V30 1372 C 130.404 2.98947 4.26943 0
M  V30 1373 C 127.732 3.75653 4.50668 0
M  V30 1374 C 130.084 4.28822 4.65075 0
M  V30 1375 C 128.748 4.67472 4.76472 0
M  V30 1376 H 128.018 0.168833 0.72151 0
M  V30 1377 H 130.665 1.08739 1.57633 0
M  V30 1378 H 128.97 -0.0593018 3.91755 0
M  V30 1379 H 130.667 0.32391 3.9969 0
M  V30 1380 H 127.257 1.75495 3.91024 0
M  V30 1381 H 131.441 2.70265 4.16258 0
M  V30 1382 H 126.697 4.05379 4.57688 0
M  V30 1383 H 130.871 5.0047 4.84255 0
M  V30 1384 H 128.498 5.68539 5.04646 0
M  V30 1385 N 130.073 -1.45103 0.615059 0
M  V30 1386 C 131.322 -2.01396 0.110718 0
M  V30 1387 C 131.635 -1.48834 -1.26916 0
M  V30 1388 O 132.841 -1.97152 -1.86664 0
M  V30 1389 C 131.297 -3.59599 0.14723 0
M  V30 1390 C 130.905 -4.21158 1.52743 0
M  V30 1391 C 132.649 -4.23428 -0.30148 0
M  V30 1392 C 130.556 -5.71535 1.51992 0
M  V30 1393 H 129.486 -0.753061 0.0376241 0
M  V30 1394 H 132.137 -1.66494 0.77149 0
M  V30 1395 H 130.519 -3.91724 -0.580339 0
M  V30 1396 H 131.693 -4.00594 2.2773 0
M  V30 1397 H 130.008 -3.69552 1.91886 0
M  V30 1398 H 132.605 -5.33703 -0.326392 0
M  V30 1399 H 132.948 -3.94629 -1.32565 0
M  V30 1400 H 133.481 -3.96047 0.373065 0
M  V30 1401 H 130.22 -6.05044 2.52193 0
M  V30 1402 H 129.74 -5.94268 0.81274 0
M  V30 1403 H 131.419 -6.34873 1.24681 0
M  V30 1404 N 131.551 -0.354651 -1.53558 0
M  V30 1405 C 132.498 0.496968 -2.25386 0
M  V30 1406 C 133.468 1.0865 -1.25636 0
M  V30 1407 O 134.653 1.12104 -1.54394 0
M  V30 1408 C 131.793 1.63637 -3.03837 0
M  V30 1409 C 130.906 1.07307 -4.18461 0
M  V30 1410 C 130.041 2.18068 -4.84376 0
M  V30 1411 C 129.08 1.59147 -5.91049 0
M  V30 1412 N 128.217 2.63695 -6.50699 0
M  V30 1413 H 133.057 -0.122075 -2.9775 0
M  V30 1414 H 130.594 -0.0720154 -1.46924 0
M  V30 1415 H 132.552 2.30734 -3.47589 0
M  V30 1416 H 131.182 2.22623 -2.33749 0
M  V30 1417 H 130.234 0.292708 -3.79272 0
M  V30 1418 H 131.546 0.602193 -4.95152 0
M  V30 1419 H 130.7 2.93007 -5.31255 0
M  V30 1420 H 129.439 2.68504 -4.07133 0
M  V30 1421 H 128.444 0.827175 -5.43542 0
M  V30 1422 H 129.669 1.09549 -6.70206 0
M  V30 1423 H 127.615 3.13365 -5.76315 0
M  V30 1424 H 127.532 2.21263 -7.22896 0
M  V30 1425 H 128.8 3.3837 -7.02229 0
M  V30 1426 N 133.029 1.57378 -0.0835403 0
M  V30 1427 C 133.961 2.10389 0.909338 0
M  V30 1428 C 134.974 1.03858 1.25369 0
M  V30 1429 O 136.163 1.31338 1.20882 0
M  V30 1430 C 133.263 2.55908 2.2218 0
M  V30 1431 C 132.436 3.86145 2.05453 0
M  V30 1432 C 131.495 4.17633 3.20108 0
M  V30 1433 O 130.521 4.87043 2.94581 0
M  V30 1434 N 131.723 3.72113 4.45547 0
M  V30 1435 H 134.488 2.962 0.456657 0
M  V30 1436 H 132.049 1.61579 0.101877 0
M  V30 1437 H 134.041 2.74027 2.97811 0
M  V30 1438 H 132.611 1.75171 2.58909 0
M  V30 1439 H 131.831 3.7729 1.1422 0
M  V30 1440 H 133.119 4.7137 1.91541 0
M  V30 1441 H 132.517 3.16062 4.69171 0
M  V30 1442 H 131.074 3.95409 5.18165 0
M  V30 1443 N 134.507 -0.190092 1.56449 0
M  V30 1444 C 135.732 -0.929864 1.85387 0
M  V30 1445 C 136.157 -1.7585 0.667704 0
M  V30 1446 O 135.515 -1.77198 -0.383459 0
M  V30 1447 C 135.563 -1.79773 3.12593 0
M  V30 1448 O 134.667 -2.89713 2.93496 0
M  V30 1449 H 134.008 -0.261574 0.610307 0
M  V30 1450 H 136.538 -0.193896 2.03679 0
M  V30 1451 H 136.548 -2.20139 3.43515 0
M  V30 1452 H 135.223 -1.18892 3.98544 0
M  V30 1453 H 133.8 -2.53065 2.73884 0
M  V30 1454 N 135.985 -1.50799 -0.457987 0
M  V30 1455 C 136.932 -1.70617 -1.5543 0
M  V30 1456 C 137.902 -0.547562 -1.56815 0
M  V30 1457 O 139.087 -0.779647 -1.74144 0
M  V30 1458 C 136.227 -1.81831 -2.93311 0
M  V30 1459 C 135.34 -3.09278 -3.01615 0
M  V30 1460 C 134.475 -3.11209 -4.30491 0
M  V30 1461 C 133.514 -4.33055 -4.32585 0
M  V30 1462 N 132.651 -4.32652 -5.52952 0
M  V30 1463 H 137.491 -2.64207 -1.37836 0
M  V30 1464 H 135.028 -1.30959 -0.669937 0
M  V30 1465 H 136.986 -1.86314 -3.73287 0
M  V30 1466 H 135.616 -0.916685 -3.0951 0
M  V30 1467 H 134.668 -3.14203 -2.1443 0
M  V30 1468 H 135.98 -3.99233 -2.99022 0
M  V30 1469 H 135.134 -3.14494 -5.18824 0
M  V30 1470 H 133.873 -2.19106 -4.35711 0
M  V30 1471 H 132.878 -4.29969 -3.42647 0
M  V30 1472 H 134.103 -5.264 -4.29046 0
M  V30 1473 H 132.049 -3.43409 -5.58933 0
M  V30 1474 H 131.966 -5.16392 -5.52155 0
M  V30 1475 H 133.234 -4.40101 -6.43375 0
M  V30 1476 N 137.463 0.71206 -1.40597 0
M  V30 1477 C 138.74 1.46536 -1.29563 0
M  V30 1478 C 139.12 2.10931 0.0844217 0
M  V30 1479 O 138.468 2.00418 1.0975 0
M  V30 1480 C 138.678 2.49821 -2.43701 0
M  V30 1481 C 140.026 3.15551 -2.841 0
M  V30 1482 O 141.05 2.60142 -2.4332 0
M  V30 1483 O 139.909 4.15867 -3.54566 0
M  V30 1484 H 137.003 0.651801 -0.509004 0
M  V30 1485 H 139.549 0.743935 -1.52524 0
M  V30 1486 H 138.321 2.00778 -3.35863 0
M  V30 1487 H 137.944 3.29495 -2.22528 0
M  V30 1488 N 138.941 1.26152 0.944643 0
M  V30 1489 C 140.189 1.11271 1.6871 0
M  V30 1490 C 140.51 -0.345166 1.91921 0
M  V30 1491 O 139.78 -1.24387 1.51343 0
M  V30 1492 H 138.36 0.408783 0.625224 0
M  V30 1493 H 141.022 1.58427 1.1352 0
M  V30 1494 H 140.118 1.62879 2.66227 0
M  V30 1495 N 140.419 -1.14872 1.07899 0
M  V30 1496 C 141.382 -2.17986 0.708161 0
M  V30 1497 C 142.382 -1.58775 -0.25442 0
M  V30 1498 O 143.572 -1.74166 -0.034645 0
M  V30 1499 C 140.704 -3.40871 0.0446929 0
M  V30 1500 H 141.897 -2.52306 1.62116 0
M  V30 1501 H 139.45 -1.2943 0.876218 0
M  V30 1502 H 140.185 -3.12124 -0.880281 0
M  V30 1503 H 139.97 -3.8511 0.737091 0
M  V30 1504 H 141.46 -4.17121 -0.19991 0
M  V30 1505 N 141.898 -0.863906 -1.31812 0
M  V30 1506 C 143.146 -0.470904 -1.96537 0
M  V30 1507 C 143.467 0.978771 -1.68657 0
M  V30 1508 O 142.737 1.6853 -0.998717 0
M  V30 1509 H 141.317 -0.171148 -0.72713 0
M  V30 1510 H 143.979 -1.10236 -1.60729 0
M  V30 1511 H 143.075 -0.623616 -3.05806 0
M  V30 1512 N 143.376 1.44774 -0.622745 0
M  V30 1513 C 144.623 2.02121 -0.1239 0
M  V30 1514 C 144.951 1.48915 1.25118 0
M  V30 1515 O 144.206 0.660045 1.84233 0
M  V30 1516 C 144.505 3.57364 -0.0508323 0
M  V30 1517 C 144.171 4.29787 -1.36358 0
M  V30 1518 C 142.833 4.4929 -1.72314 0
M  V30 1519 C 145.185 4.71062 -2.23048 0
M  V30 1520 C 142.513 5.07325 -2.94682 0
M  V30 1521 C 144.865 5.30452 -3.44679 0
M  V30 1522 C 143.529 5.48175 -3.80868 0
M  V30 1523 H 142.799 0.739612 -0.0453381 0
M  V30 1524 H 145.446 1.73648 -0.807389 0
M  V30 1525 H 143.751 3.85202 0.715991 0
M  V30 1526 H 145.448 3.99456 0.351533 0
M  V30 1527 H 142.038 4.14932 -1.07375 0
M  V30 1528 H 146.222 4.55715 -1.96565 0
M  V30 1529 H 141.478 5.19235 -3.22809 0
M  V30 1530 H 145.652 5.61385 -4.12092 0
M  V30 1531 H 143.279 5.92912 -4.75773 0
M  V30 1532 N 144.854 0.36279 1.53368 0
M  V30 1533 C 145.784 -0.476976 2.28576 0
M  V30 1534 C 146.765 -1.08631 1.30894 0
M  V30 1535 O 147.95 -1.10409 1.59761 0
M  V30 1536 C 145.08 -1.61828 3.07293 0
M  V30 1537 C 144.034 -1.13633 4.1264 0
M  V30 1538 C 143.36 -2.36766 4.79423 0
M  V30 1539 C 144.66 -0.223061 5.21823 0
M  V30 1540 H 146.354 0.150474 2.99022 0
M  V30 1541 H 143.9 0.0738103 1.43811 0
M  V30 1542 H 145.853 -2.21237 3.58653 0
M  V30 1543 H 144.577 -2.27292 2.34533 0
M  V30 1544 H 143.236 -0.564945 3.62221 0
M  V30 1545 H 142.884 -3.0068 4.03238 0
M  V30 1546 H 142.584 -2.05192 5.50609 0
M  V30 1547 H 144.108 -2.96865 5.33576 0
M  V30 1548 H 145.522 -0.724545 5.68703 0
M  V30 1549 H 143.919 0.001678 6.001 0
M  V30 1550 H 144.989 0.735553 4.79289 0
M  V30 1551 N 146.332 -1.57332 0.0918853 0
M  V30 1552 C 147.581 -1.93412 -0.572249 0
M  V30 1553 C 147.894 -0.975515 -1.69538 0
M  V30 1554 O 149.1 -1.22991 -2.42045 0
M  V30 1555 C 147.556 -3.43648 -1.0693 0
M  V30 1556 C 147.164 -4.47994 0.0239049 0
M  V30 1557 C 148.908 -3.88695 -1.70635 0
M  V30 1558 C 146.815 -5.89381 -0.488319 0
M  V30 1559 H 145.745 -0.721939 -0.217532 0
M  V30 1560 H 148.396 -1.82735 0.167369 0
M  V30 1561 H 146.778 -3.49466 -1.8625 0
M  V30 1562 H 147.952 -4.53815 0.799277 0
M  V30 1563 H 146.267 -4.12536 0.565946 0
M  V30 1564 H 148.864 -4.91725 -2.10025 0
M  V30 1565 H 149.207 -3.27166 -2.57426 0
M  V30 1566 H 149.74 -3.85564 -0.979023 0
M  V30 1567 H 146.479 -6.54602 0.342906 0
M  V30 1568 H 145.999 -5.87037 -1.23077 0
M  V30 1569 H 147.678 -6.39863 -0.958317 0
M  V30 1570 N 147.81 0.181792 -1.56548 0
M  V30 1571 C 148.758 1.24461 -1.965 0
M  V30 1572 C 149.752 1.464 -0.852261 0
M  V30 1573 O 150.958 1.47103 -1.03733 0
M  V30 1574 H 147.333 0.418138 -0.625031 0
M  V30 1575 H 149.304 0.880714 -2.85107 0
M  V30 1576 C 148.053 2.57891 -2.33212 0
M  V30 1577 H 147.376 2.41829 -3.18369 0
M  V30 1578 H 148.816 3.3097 -2.65019 0
M  V30 1579 C 147.275 3.15871 -1.17163 0
M  V30 1580 O 147.805 3.9913 -0.453708 0
M  V30 1581 N 146.011 2.74808 -0.944936 0
M  V30 1582 H 145.558 2.07205 -1.53049 0
M  V30 1583 H 145.516 3.13939 -0.170286 0
M  V30 1584 N 149.288 1.51039 0.449983 0
M  V30 1585 C 150.218 1.74379 1.55288 0
M  V30 1586 C 151.199 0.593236 1.5942 0
M  V30 1587 O 152.384 0.834625 1.7535 0
M  V30 1588 C 149.514 1.85728 2.93466 0
M  V30 1589 C 148.468 3.01078 3.04197 0
M  V30 1590 C 147.794 2.97595 4.44231 0
M  V30 1591 C 149.094 4.41254 2.7945 0
M  V30 1592 H 150.788 2.66725 1.36008 0
M  V30 1593 H 148.334 1.2835 0.652864 0
M  V30 1594 H 150.287 2.0064 3.70569 0
M  V30 1595 H 149.011 0.900207 3.13949 0
M  V30 1596 H 147.67 2.85851 2.29531 0
M  V30 1597 H 147.318 1.99691 4.61663 0
M  V30 1598 H 147.018 3.75046 4.52343 0
M  V30 1599 H 148.542 3.14583 5.23326 0
M  V30 1600 H 149.956 4.56897 3.46292 0
M  V30 1601 H 148.353 5.20315 2.98985 0
M  V30 1602 H 149.423 4.52164 1.75144 0
M  V30 1603 N 150.766 -0.704594 1.40972 0
M  V30 1604 C 152.015 -1.46018 1.39146 0
M  V30 1605 C 152.328 -1.956 0.000589254 0
M  V30 1606 O 153.534 -2.71137 -0.1403 0
M  V30 1607 C 151.99 -2.63996 2.4461 0
M  V30 1608 C 151.598 -2.21238 3.89561 0
M  V30 1609 C 153.342 -3.41677 2.51907 0
M  V30 1610 C 151.249 -3.3612 4.86598 0
M  V30 1611 H 150.179 -0.548444 0.517422 0
M  V30 1612 H 152.83 -0.765784 1.66757 0
M  V30 1613 H 151.212 -3.3566 2.10115 0
M  V30 1614 H 152.386 -1.56923 4.33257 0
M  V30 1615 H 150.701 -1.56574 3.85841 0
M  V30 1616 H 153.298 -4.27182 3.2159 0
M  V30 1617 H 153.641 -3.86247 1.55303 0
M  V30 1618 H 154.174 -2.77064 2.85448 0
M  V30 1619 H 150.913 -2.96572 5.84573 0
M  V30 1620 H 150.433 -3.99315 4.47557 0
M  V30 1621 H 152.112 -4.02029 5.06934 0
M  V30 1622 N 152.244 -1.26651 -0.937939 0
M  V30 1623 C 153.521 -1.0313 -1.66204 0
M  V30 1624 C 153.901 0.437256 -2.06522 0
M  V30 1625 O 153.249 1.41831 -1.79154 0
M  V30 1626 C 153.459 -1.98314 -2.87181 0
M  V30 1627 C 154.807 -2.27107 -3.58758 0
M  V30 1628 O 155.831 -1.96205 -2.97291 0
M  V30 1629 O 154.69 -2.79736 -4.69479 0
M  V30 1630 H 151.784 -0.392384 -0.727986 0
M  V30 1631 H 154.33 -1.37874 -0.989382 0
M  V30 1632 H 153.102 -2.97399 -2.54302 0
M  V30 1633 H 152.725 -1.64068 -3.6217 0
M  V30 1634 N 153.722 1.14298 -1.08507 0
M  V30 1635 C 154.947 1.8976 -0.837001 0
M  V30 1636 C 155.372 1.78097 0.605228 0
M  V30 1637 O 154.73 1.12188 1.4242 0
M  V30 1638 C 154.778 3.37685 -1.26495 0
M  V30 1639 O 153.882 4.10281 -0.417514 0
M  V30 1640 H 153.223 0.590365 -0.303917 0
M  V30 1641 H 155.753 1.44672 -1.44676 0
M  V30 1642 H 155.763 3.88501 -1.24625 0
M  V30 1643 H 154.438 3.45492 -2.31534 0
M  V30 1644 H 153.015 3.69536 -0.499722 0
M  V30 1645 N 155.201 0.870884 1.31352 0
M  V30 1646 C 156.612 0.534714 1.78879 0
M  V30 1647 C 156.963 -0.948423 1.71754 0
M  V30 1648 O 156.088 -1.74055 1.28584 0
M  V30 1649 C 156.683 0.963839 3.24801 0
M  V30 1650 C 155.242 0.679311 3.70219 0
M  V30 1651 C 154.389 1.15465 2.52117 0
M  V30 1652 H 157.34 1.05651 1.18421 0
M  V30 1653 H 157.361 0.286892 3.79417 0
M  V30 1654 H 156.873 2.04332 3.29955 0
M  V30 1655 H 154.974 -0.388769 3.70566 0
M  V30 1656 H 155.087 1.25698 4.62317 0
M  V30 1657 H 153.451 0.574383 2.48139 0
M  V30 1658 H 154.234 2.24157 2.60016 0
M  V30 1659 N 156.679 -1.44442 0.630414 0
M  V30 1660 C 157.927 -2.01653 0.134351 0
M  V30 1661 C 158.248 -1.49836 -1.24796 0
M  V30 1662 O 157.518 -0.701684 -1.82902 0
M  V30 1663 H 156.098 -0.74554 0.0466769 0
M  V30 1664 H 158.76 -1.76952 0.816955 0
M  V30 1665 H 157.856 -3.11935 0.101498 0
M  V30 1666 N 158.157 -0.370918 -1.53173 0
M  V30 1667 C 159.107 0.489588 -2.22681 0
M  V30 1668 C 160.091 1.04442 -1.22395 0
M  V30 1669 O 161.283 0.973578 -1.47819 0
M  V30 1670 C 158.412 1.626 -3.02351 0
M  V30 1671 C 157.498 1.08379 -4.10018 0
M  V30 1672 N 157.889 0.265004 -5.05105 0
M  V30 1673 C 156.187 1.35809 -4.2482 0
M  V30 1674 C 156.888 -0.0324755 -5.81691 0
M  V30 1675 N 155.864 0.566581 -5.40639 0
M  V30 1676 H 159.666 -0.142729 -2.93553 0
M  V30 1677 H 157.18 -0.179221 -1.61408 0
M  V30 1678 H 159.177 2.2547 -3.50669 0
M  V30 1679 H 157.837 2.26132 -2.33011 0
M  V30 1680 H 158.848 -0.0962352 -5.17811 0
M  V30 1681 H 155.525 1.9958 -3.66707 0
M  V30 1682 H 156.915 -0.69473 -6.68299 0
M  V30 1683 N 159.635 1.57281 -0.100228 0
M  V30 1684 C 160.881 1.94826 0.563101 0
M  V30 1685 C 161.214 0.982475 1.67514 0
M  V30 1686 O 160.489 0.0164069 1.94493 0
M  V30 1687 C 160.772 3.42453 1.11346 0
M  V30 1688 C 160.625 4.498 0.00612081 0
M  V30 1689 C 161.944 3.91506 2.01024 0
M  V30 1690 H 159.063 0.708428 0.203221 0
M  V30 1691 H 161.705 1.8922 -0.171979 0
M  V30 1692 H 159.855 3.47361 1.7399 0
M  V30 1693 H 161.527 4.57 -0.628357 0
M  V30 1694 H 159.77 4.28756 -0.659581 0
M  V30 1695 H 160.441 5.50306 0.432109 0
M  V30 1696 H 162.917 3.88784 1.48278 0
M  V30 1697 H 161.793 4.95358 2.36457 0
M  V30 1698 H 162.054 3.31099 2.92961 0
M  V30 1699 N 161.113 -0.173488 1.56642 0
M  V30 1700 C 162.39 -0.917617 1.7274 0
M  V30 1701 C 162.77 -2.00484 0.661027 0
M  V30 1702 O 162.118 -2.26184 -0.32453 0
M  V30 1703 C 162.328 -1.48433 3.15862 0
M  V30 1704 C 163.676 -1.95809 3.76754 0
M  V30 1705 O 164.7 -1.58231 3.19126 0
M  V30 1706 O 163.559 -2.65024 4.77938 0
M  V30 1707 H 160.653 -0.431772 0.705338 0
M  V30 1708 H 163.199 -0.161487 1.6893 0
M  V30 1709 H 161.971 -0.701715 3.84957 0
M  V30 1710 H 161.594 -2.30471 3.23989 0
M  V30 1711 N 162.591 -1.51276 -0.441967 0
M  V30 1712 C 163.838 -1.63715 -1.19179 0
M  V30 1713 C 164.166 -0.351175 -1.91303 0
M  V30 1714 O 163.421 0.664524 -1.84072 0
M  V30 1715 C 163.72 -2.78746 -2.23686 0
M  V30 1716 C 163.386 -4.18189 -1.68607 0
M  V30 1717 C 162.048 -4.56125 -1.53308 0
M  V30 1718 C 164.4 -5.05222 -1.28062 0
M  V30 1719 C 161.728 -5.78804 -0.959317 0
M  V30 1720 C 164.08 -6.28476 -0.721162 0
M  V30 1721 C 162.744 -6.65188 -0.55504 0
M  V30 1722 H 162.014 -0.599076 -0.436106 0
M  V30 1723 H 164.661 -1.85296 -0.48351 0
M  V30 1724 H 162.966 -2.51369 -3.00535 0
M  V30 1725 H 164.663 -2.8557 -2.81515 0
M  V30 1726 H 161.253 -3.88277 -1.8149 0
M  V30 1727 H 165.437 -4.76524 -1.38704 0
M  V30 1728 H 160.693 -6.05899 -0.81833 0
M  V30 1729 H 164.867 -6.95259 -0.398458 0
M  V30 1730 H 162.494 -7.60123 -0.108311 0
M  V30 1731 N 164.069 0.697108 -1.41344 0
M  V30 1732 C 165.294 1.49096 -1.44171 0
M  V30 1733 C 165.719 1.88038 -0.0481568 0
M  V30 1734 O 165.077 1.54525 0.948243 0
M  V30 1735 C 165.125 2.73088 -2.3549 0
M  V30 1736 O 164.229 3.70514 -1.81088 0
M  V30 1737 H 163.57 0.448801 -0.489361 0
M  V30 1738 H 166.1 0.856992 -1.85787 0
M  V30 1739 H 166.11 3.21413 -2.51312 0
M  V30 1740 H 164.785 2.44081 -3.36745 0
M  V30 1741 H 163.362 3.29441 -1.74708 0
M  V30 1742 N 165.547 1.27147 0.931209 0
M  V30 1743 C 166.772 1.16191 1.71797 0
M  V30 1744 C 167.197 -0.278004 1.86034 0
M  V30 1745 O 166.555 -1.20137 1.35782 0
M  V30 1746 C 166.603 1.84673 3.09723 0
M  V30 1747 O 165.707 1.14231 3.96264 0
M  V30 1748 H 165.048 0.404303 0.526721 0
M  V30 1749 H 167.578 1.68152 1.1656 0
M  V30 1750 H 167.588 1.91893 3.60057 0
M  V30 1751 H 166.263 2.89421 2.98677 0
M  V30 1752 H 164.84 1.15056 3.54706 0
M  V30 1753 N 167.025 -1.13721 1.09112 0
M  V30 1754 C 167.935 -2.22638 0.73957 0
M  V30 1755 C 168.951 -1.72091 -0.257068 0
M  V30 1756 O 170.127 -2.01155 -0.0992154 0
M  V30 1757 C 167.192 -3.46322 0.16191 0
M  V30 1758 C 166.253 -4.11775 1.21408 0
M  V30 1759 C 165.486 -5.29555 0.663891 0
M  V30 1760 O 165.709 -5.68077 -0.514274 0
M  V30 1761 O 164.643 -5.84973 1.41738 0
M  V30 1762 H 168.469 -2.55074 1.64836 0
M  V30 1763 H 166.054 -1.21791 0.865289 0
M  V30 1764 H 167.936 -4.21107 -0.157073 0
M  V30 1765 H 166.611 -3.15593 -0.719932 0
M  V30 1766 H 165.518 -3.3883 1.58571 0
M  V30 1767 H 166.851 -4.46627 2.06845 0
M  V30 1768 N 168.503 -0.877838 -1.30888 0
M  V30 1769 C 169.749 -0.493426 -1.96706 0
M  V30 1770 C 170.082 0.953504 -1.6918 0
M  V30 1771 O 169.357 1.67266 -0.992594 0
M  V30 1772 C 169.64 -0.760429 -3.51979 0
M  V30 1773 C 169.493 -2.25747 -3.89048 0
M  V30 1774 C 170.812 -0.232148 -4.39487 0
M  V30 1775 H 167.931 -0.180746 -0.714493 0
M  V30 1776 H 170.573 -1.10052 -1.54882 0
M  V30 1777 H 168.723 -0.243715 -3.87735 0
M  V30 1778 H 170.395 -2.84204 -3.63354 0
M  V30 1779 H 168.638 -2.72694 -3.37373 0
M  V30 1780 H 169.309 -2.39491 -4.97341 0
M  V30 1781 H 171.785 -0.674314 -4.106 0
M  V30 1782 H 170.661 -0.448355 -5.47066 0
M  V30 1783 H 170.922 0.866297 -4.33529 0
M  V30 1784 N 169.982 1.44106 -0.638065 0
M  V30 1785 C 171.21 2.06336 -0.152615 0
M  V30 1786 C 171.625 1.47731 1.17563 0
M  V30 1787 O 170.982 0.602806 1.72257 0
M  V30 1788 C 171.033 3.61479 -0.0391491 0
M  V30 1789 O 170.754 4.17903 -1.31487 0
M  V30 1790 C 172.255 4.40757 0.474176 0
M  V30 1791 H 169.475 0.665862 -0.0828776 0
M  V30 1792 H 172.019 1.84862 -0.87443 0
M  V30 1793 H 170.174 3.82191 0.633142 0
M  V30 1794 H 170.588 5.11416 -1.16421 0
M  V30 1795 H 172.062 5.49707 0.502562 0
M  V30 1796 H 172.539 4.12697 1.50258 0
M  V30 1797 H 173.145 4.24979 -0.165102 0
M  V30 1798 N 171.46 0.379036 1.52974 0
M  V30 1799 C 172.423 -0.448865 2.24762 0
M  V30 1800 C 173.423 -0.998689 1.26027 0
M  V30 1801 O 174.613 -0.882313 1.50203 0
M  V30 1802 C 171.745 -1.62872 2.99476 0
M  V30 1803 H 172.938 0.179491 2.99362 0
M  V30 1804 H 170.491 0.13096 1.5575 0
M  V30 1805 H 171.226 -2.29479 2.29151 0
M  V30 1806 H 171.011 -1.24128 3.71934 0
M  V30 1807 H 172.501 -2.2151 3.5401 0
M  V30 1808 N 172.938 -1.57226 0.108567 0
M  V30 1809 C 173.901 -2.13602 -0.831082 0
M  V30 1810 C 174.901 -1.06841 -1.20173 0
M  V30 1811 O 176.091 -1.32666 -1.12895 0
M  V30 1812 C 173.223 -2.66769 -2.12243 0
M  V30 1813 H 174.416 -2.97951 -0.341317 0
M  V30 1814 H 171.969 -1.55667 -0.14057 0
M  V30 1815 H 172.704 -1.85977 -2.65675 0
M  V30 1816 H 172.489 -3.44839 -1.86625 0
M  V30 1817 H 173.979 -3.10332 -2.79435 0
M  V30 1818 N 174.416 0.165178 -1.56732 0
M  V30 1819 C 175.346 1.20651 -1.99914 0
M  V30 1820 C 176.327 1.45827 -0.875705 0
M  V30 1821 O 177.512 1.57057 -1.14223 0
M  V30 1822 C 174.642 2.54401 -2.36427 0
M  V30 1823 C 173.596 2.43782 -3.51787 0
M  V30 1824 C 172.922 3.82078 -3.7406 0
M  V30 1825 C 174.222 1.93732 -4.85041 0
M  V30 1826 H 175.916 0.847534 -2.87154 0
M  V30 1827 H 173.462 0.40625 -1.38151 0
M  V30 1828 H 175.415 3.27458 -2.65234 0
M  V30 1829 H 174.139 2.92098 -1.46103 0
M  V30 1830 H 172.798 1.73178 -3.23117 0
M  V30 1831 H 172.446 4.17179 -2.81017 0
M  V30 1832 H 172.146 3.7584 -4.51684 0
M  V30 1833 H 173.67 4.56712 -4.05274 0
M  V30 1834 H 175.084 2.56569 -5.12684 0
M  V30 1835 H 173.481 1.98428 -5.66345 0
M  V30 1836 H 174.551 0.891962 -4.76626 0
M  V30 1837 N 175.894 1.51508 0.433938 0
M  V30 1838 C 177.31 1.39759 0.770682 0
M  V30 1839 C 177.51 0.482594 1.95636 0
M  V30 1840 O 176.566 -0.0609691 2.52426 0
M  V30 1841 C 177.879 2.81851 1.04787 0
M  V30 1842 C 179.427 2.91025 1.1521 0
M  V30 1843 C 179.902 4.34032 1.46219 0
M  V30 1844 N 181.393 4.37154 1.53136 0
M  V30 1845 C 182.128 5.4484 1.78709 0
M  V30 1846 N 181.624 6.62682 2.02051 0
M  V30 1847 N 183.417 5.32324 1.80519 0
M  V30 1848 H 175.568 2.09548 -0.346892 0
M  V30 1849 H 177.831 0.943446 -0.0928074 0
M  V30 1850 H 177.537 3.50815 0.249304 0
M  V30 1851 H 177.411 3.21386 1.97461 0
M  V30 1852 H 179.798 2.22257 1.94128 0
M  V30 1853 H 179.879 2.54983 0.204281 0
M  V30 1854 H 179.523 5.03351 0.678274 0
M  V30 1855 H 179.453 4.6759 2.42212 0
M  V30 1856 H 181.944 3.52197 1.36987 0
M  V30 1857 H 182.257 7.40543 2.20943 0
M  V30 1858 H 180.602 6.65791 1.99366 0
M  V30 1859 H 183.793 4.39246 1.61805 0
M  V30 1860 H 183.966 6.16328 2.00111 0
M  V30 1861 N 177.372 -0.689602 1.41712 0
M  V30 1862 C 178.618 -1.45181 1.41599 0
M  V30 1863 C 178.951 -1.94181 0.0270081 0
M  V30 1864 O 178.226 -1.6993 -0.946265 0
M  V30 1865 C 178.509 -2.65945 2.42787 0
M  V30 1866 C 178.362 -2.22672 3.90816 0
M  V30 1867 C 179.681 -3.68149 2.41151 0
M  V30 1868 H 176.8 -0.526576 0.515642 0
M  V30 1869 H 179.442 -0.784947 1.73028 0
M  V30 1870 H 177.592 -3.2284 2.16116 0
M  V30 1871 H 179.264 -1.71058 4.28412 0
M  V30 1872 H 177.507 -1.54394 4.05395 0
M  V30 1873 H 178.178 -3.0935 4.57172 0
M  V30 1874 H 180.654 -3.2094 2.64834 0
M  V30 1875 H 179.53 -4.50248 3.13955 0
M  V30 1876 H 179.791 -4.18259 1.43221 0
M  V30 1877 N 178.85 -1.27639 -0.924453 0
M  V30 1878 C 180.078 -1.16989 -1.70649 0
M  V30 1879 C 180.493 0.272869 -1.86818 0
M  V30 1880 O 179.85 1.18549 -1.38753 0
M  V30 1881 C 179.901 -1.85229 -3.10439 0
M  V30 1882 O 179.622 -3.23868 -2.95028 0
M  V30 1883 C 181.123 -1.80746 -4.04779 0
M  V30 1884 H 178.343 -0.406595 -0.53378 0
M  V30 1885 H 180.887 -1.68569 -1.15778 0
M  V30 1886 H 179.042 -1.37545 -3.6216 0
M  V30 1887 H 179.456 -3.57889 -3.83426 0
M  V30 1888 H 180.93 -2.33101 -5.00368 0
M  V30 1889 H 181.407 -0.777499 -4.32263 0
M  V30 1890 H 182.013 -2.28059 -3.58984 0
M  V30 1891 N 180.328 1.1314 -1.09713 0
M  V30 1892 C 181.605 1.80762 -0.747302 0
M  V30 1893 C 181.985 1.96663 0.767265 0
M  V30 1894 O 181.333 1.53706 1.69076 0
M  V30 1895 C 181.543 3.15606 -1.48975 0
M  V30 1896 C 182.891 3.90914 -1.65746 0
M  V30 1897 O 183.915 3.25239 -1.45251 0
M  V30 1898 O 182.774 5.08718 -1.9967 0
M  V30 1899 H 179.868 0.782103 -0.268782 0
M  V30 1900 H 182.414 1.20041 -1.19951 0
M  V30 1901 H 181.186 2.99278 -2.52088 0
M  V30 1902 H 180.809 3.84029 -1.02991 0
M  V30 1903 N 181.806 0.884767 1.30421 0
M  V30 1904 C 183.054 0.502112 1.95763 0
M  V30 1905 C 183.375 -0.951815 1.70192 0
M  V30 1906 O 182.645 -1.6692 1.0254 0
M  V30 1907 H 181.225 0.182694 0.724315 0
M  V30 1908 H 183.887 1.1278 1.58955 0
M  V30 1909 H 182.983 0.672188 3.04775 0
M  V30 1910 N 183.284 -1.43765 0.645699 0
M  V30 1911 C 184.247 -2.29163 -0.0409488 0
M  V30 1912 C 185.247 -1.41813 -0.757996 0
M  V30 1913 O 186.437 -1.63527 -0.600382 0
M  V30 1914 C 183.569 -3.23716 -1.06869 0
M  V30 1915 H 184.762 -2.91366 0.710345 0
M  V30 1916 H 182.315 -1.5092 0.406547 0
M  V30 1917 H 183.05 -2.66393 -1.84947 0
M  V30 1918 H 182.835 -3.88105 -0.558277 0
M  V30 1919 H 184.325 -3.87831 -1.54845 0
M  V30 1920 N 184.763 -0.387143 -1.52771 0
M  V30 1921 C 185.693 0.440551 -2.29306 0
M  V30 1922 C 186.674 1.06535 -1.32606 0
M  V30 1923 O 187.859 1.07853 -1.61497 0
M  V30 1924 C 184.989 1.56919 -3.09829 0
M  V30 1925 C 183.943 1.07054 -4.14395 0
M  V30 1926 C 183.269 2.29109 -4.83129 0
M  V30 1927 C 184.569 0.140015 -5.22112 0
M  V30 1928 H 186.263 -0.198026 -2.98744 0
M  V30 1929 H 183.809 -0.09668 -1.43675 0
M  V30 1930 H 185.762 2.15503 -3.62128 0
M  V30 1931 H 184.486 2.23532 -2.3812 0
M  V30 1932 H 183.145 0.507247 -3.63074 0
M  V30 1933 H 182.793 2.94227 -4.0797 0
M  V30 1934 H 182.493 1.96406 -5.53804 0
M  V30 1935 H 184.017 2.88339 -5.38231 0
M  V30 1936 H 185.431 0.633978 -5.69784 0
M  V30 1937 H 183.828 -0.0971485 -6.00021 0
M  V30 1938 H 184.898 -0.811711 -4.78058 0
M  V30 1939 N 186.241 1.57166 -0.116904 0
M  V30 1940 C 187.487 1.95412 0.542405 0
M  V30 1941 C 187.82 1.00019 1.66463 0
M  V30 1942 O 187.095 0.0370346 1.94465 0
M  V30 1943 C 187.378 3.43615 1.07708 0
M  V30 1944 C 187.231 4.49781 -0.0415868 0
M  V30 1945 C 188.55 3.93616 1.96861 0
M  V30 1946 H 185.669 0.710543 0.195696 0
M  V30 1947 H 188.311 1.89027 -0.192038 0
M  V30 1948 H 186.461 3.49187 1.70296 0
M  V30 1949 H 188.133 4.56308 -0.676793 0
M  V30 1950 H 186.376 4.28033 -0.705019 0
M  V30 1951 H 187.047 5.50733 0.373717 0
M  V30 1952 H 189.523 3.90335 1.44146 0
M  V30 1953 H 188.399 4.97838 2.3119 0
M  V30 1954 H 188.66 3.34188 2.89432 0
M  V30 1955 N 187.719 -0.156864 1.56817 0
M  V30 1956 C 188.965 -0.872416 1.83076 0
M  V30 1957 C 189.298 -1.81261 0.697001 0
M  V30 1958 O 188.573 -1.92171 -0.30008 0
M  V30 1959 C 188.856 -1.65551 3.19789 0
M  V30 1960 C 188.709 -0.737467 4.43713 0
M  V30 1961 C 190.028 -2.62012 3.53606 0
M  V30 1962 H 187.147 -0.315715 0.665953 0
M  V30 1963 H 189.789 -0.138004 1.89498 0
M  V30 1964 H 187.939 -2.28159 3.14445 0
M  V30 1965 H 189.611 -0.123143 4.61136 0
M  V30 1966 H 187.854 -0.0464067 4.33775 0
M  V30 1967 H 188.525 -1.32122 5.35955 0
M  V30 1968 H 191.001 -2.09525 3.59497 0
M  V30 1969 H 189.877 -3.13861 4.50314 0
M  V30 1970 H 190.138 -3.42902 2.79053 0
M  V30 1971 N 189.197 -1.51736 -0.425897 0
M  V30 1972 C 190.443 -1.65214 -1.1761 0
M  V30 1973 C 190.776 -0.372778 -1.90589 0
M  V30 1974 O 190.051 0.628139 -1.84078 0
M  V30 1975 C 190.334 -2.86312 -2.18398 0
M  V30 1976 C 190.187 -4.24254 -1.49426 0
M  V30 1977 C 191.506 -3.02925 -3.19256 0
M  V30 1978 H 188.625 -0.601263 -0.426206 0
M  V30 1979 H 191.267 -1.8425 -0.463882 0
M  V30 1980 H 189.417 -2.70213 -2.79137 0
M  V30 1981 H 191.089 -4.52046 -0.919362 0
M  V30 1982 H 189.332 -4.26426 -0.796432 0
M  V30 1983 H 190.003 -5.05001 -2.22885 0
M  V30 1984 H 192.479 -3.1781 -2.68581 0
M  V30 1985 H 191.355 -3.89199 -3.8706 0
M  V30 1986 H 191.616 -2.15497 -3.86023 0
M  V30 1987 N 190.675 0.682077 -1.42076 0
M  V30 1988 C 191.952 1.43755 -1.32642 0
M  V30 1989 C 192.332 2.11063 0.0396611 0
M  V30 1990 O 191.68 2.02701 1.05474 0
M  V30 1991 C 191.89 2.44596 -2.48946 0
M  V30 1992 C 193.238 3.09454 -2.9073 0
M  V30 1993 O 194.262 2.54922 -2.48783 0
M  V30 1994 O 193.121 4.08253 -3.63307 0
M  V30 1995 H 190.215 0.640857 -0.522715 0
M  V30 1996 H 192.761 0.711415 -1.54068 0
M  V30 1997 H 191.533 1.93609 -3.40046 0
M  V30 1998 H 191.156 3.24701 -2.29467 0
M  V30 1999 N 192.153 1.28127 0.917671 0
M  V30 2000 C 193.393 1.163 1.68088 0
M  V30 2001 C 193.757 -0.284515 1.8988 0
M  V30 2002 O 194.958 -0.525413 2.63615 0
M  V30 2003 C 193.229 1.93546 3.00457 0
M  V30 2004 S 194.788 1.98048 3.91564 0
M  V30 2005 H 191.606 0.415005 0.577315 0
M  V30 2006 H 194.208 1.62173 1.09179 0
M  V30 2007 H 192.912 2.97888 2.82295 0
M  V30 2008 H 192.443 1.48207 3.64415 0
M  V30 2009 H 194.458 1.08415 4.84211 0
M  V30 2010 N 193.631 -1.12557 1.10312 0
M  V30 2011 C 194.877 -1.84311 0.846011 0
M  V30 2012 C 195.21 -1.83805 -0.626859 0
M  V30 2013 O 194.485 -1.28268 -1.46211 0
M  V30 2014 C 194.768 -3.32048 1.39341 0
M  V30 2015 C 194.621 -3.41016 2.93305 0
M  V30 2016 C 195.94 -4.27764 1.03468 0
M  V30 2017 H 193.059 -0.669192 0.30879 0
M  V30 2018 H 195.701 -1.32057 1.36605 0
M  V30 2019 H 193.851 -3.76678 0.951087 0
M  V30 2020 H 195.523 -3.05031 3.46055 0
M  V30 2021 H 193.766 -2.81603 3.29973 0
M  V30 2022 H 194.437 -4.44948 3.26689 0
M  V30 2023 H 196.913 -3.91253 1.41633 0
M  V30 2024 H 195.789 -5.29549 1.44463 0
M  V30 2025 H 196.05 -4.42064 -0.0560404 0
M  V30 2026 N 195.109 -0.891671 -1.2995 0
M  V30 2027 C 196.334 -0.527932 -2.00568 0
M  V30 2028 C 196.759 0.877969 -1.66353 0
M  V30 2029 O 196.117 1.58301 -0.883762 0
M  V30 2030 C 196.165 -0.717745 -3.53385 0
M  V30 2031 O 195.269 0.233376 -4.11739 0
M  V30 2032 H 194.61 -0.20722 -0.630837 0
M  V30 2033 H 197.14 -1.20105 -1.65638 0
M  V30 2034 H 197.15 -0.619307 -4.03272 0
M  V30 2035 H 195.825 -1.74276 -3.77625 0
M  V30 2036 H 194.402 0.0880706 -3.72796 0
M  V30 2037 N 196.587 1.43421 -0.653314 0
M  V30 2038 C 197.835 2.01414 -0.166415 0
M  V30 2039 C 198.156 1.51803 1.22397 0
M  V30 2040 O 197.426 0.730693 1.81763 0
M  V30 2041 H 196.006 0.744703 -0.0585319 0
M  V30 2042 H 198.668 1.75629 -0.845003 0
M  V30 2043 H 197.764 3.11734 -0.151111 0
M  V30 2044 N 198.065 0.39524 1.52563 0
M  V30 2045 C 199.311 -0.185318 2.01952 0
M  V30 2046 C 199.644 -1.45964 1.28095 0
M  V30 2047 O 198.919 -1.90689 0.38315 0
M  V30 2048 C 199.202 -0.447193 3.57312 0
M  V30 2049 C 199.055 0.842828 4.41833 0
M  V30 2050 C 200.374 -1.23529 4.22408 0
M  V30 2051 H 197.493 -0.0658788 0.73405 0
M  V30 2052 H 200.135 0.525975 1.82575 0
M  V30 2053 H 198.285 -1.05312 3.73954 0
M  V30 2054 H 199.957 1.4795 4.36931 0
M  V30 2055 H 198.2 1.45686 4.08605 0
M  V30 2056 H 198.871 0.614165 5.48573 0
M  V30 2057 H 201.347 -0.722445 4.0978 0
M  V30 2058 H 200.223 -1.38727 5.3108 0
M  V30 2059 H 200.484 -2.25213 3.80436 0
M  V30 2060 N 199.544 -1.57102 0.125237 0
M  V30 2061 C 200.784 -1.97294 -0.534259 0
M  V30 2062 C 201.148 -1.0074 -1.63449 0
M  V30 2063 O 202.349 -1.29893 -2.35332 0
M  V30 2064 C 200.62 -3.41705 -1.04748 0
M  V30 2065 S 202.179 -4.03913 -1.71463 0
M  V30 2066 H 198.997 -0.689517 -0.173458 0
M  V30 2067 H 201.599 -1.94349 0.211797 0
M  V30 2068 H 200.303 -4.09723 -0.235649 0
M  V30 2069 H 199.834 -3.48315 -1.82867 0
M  V30 2070 H 201.849 -3.95182 -3.00077 0
M  V30 2071 N 201.022 0.148545 -1.56898 0
M  V30 2072 C 202.268 0.862694 -1.83536 0
M  V30 2073 C 202.601 1.80889 -0.706604 0
M  V30 2074 O 201.876 1.92328 0.289885 0
M  V30 2075 C 202.159 1.63853 -3.20662 0
M  V30 2076 C 202.012 0.713925 -4.44098 0
M  V30 2077 C 203.331 2.60133 -3.54991 0
M  V30 2078 H 200.45 0.312179 -0.667618 0
M  V30 2079 H 203.092 0.127953 -1.89569 0
M  V30 2080 H 201.242 2.26489 -3.1565 0
M  V30 2081 H 202.914 0.098686 -4.61194 0
M  V30 2082 H 201.157 0.0234019 -4.33794 0
M  V30 2083 H 201.828 1.29278 -5.36648 0
M  V30 2084 H 204.304 2.07616 -3.60603 0
M  V30 2085 H 203.18 3.11468 -4.51972 0
M  V30 2086 H 203.441 3.41417 -2.80868 0
M  V30 2087 N 202.5 1.5196 0.417844 0
M  V30 2088 C 203.432 1.70895 1.52733 0
M  V30 2089 C 204.445 0.589405 1.51756 0
M  V30 2090 O 205.634 0.864312 1.56179 0
M  V30 2091 C 202.734 1.72627 2.91639 0
M  V30 2092 C 201.907 3.01479 3.16905 0
M  V30 2093 C 200.966 2.95139 4.35637 0
M  V30 2094 O 199.992 3.69059 4.3334 0
M  V30 2095 N 201.194 2.12328 5.40275 0
M  V30 2096 H 203.959 2.66612 1.36888 0
M  V30 2097 H 201.52 1.50089 0.607037 0
M  V30 2098 H 203.512 1.65928 3.6912 0
M  V30 2099 H 202.082 0.844216 3.00985 0
M  V30 2100 H 201.302 3.21895 2.27546 0
M  V30 2101 H 202.59 3.86736 3.30625 0
M  V30 2102 H 201.988 1.51685 5.44985 0
M  V30 2103 H 200.545 2.11494 6.16534 0
M  V30 2104 N 203.978 -0.674533 1.42435 0
M  V30 2105 C 205.206 -1.46283 1.46317 0
M  V30 2106 C 205.621 -1.88653 0.0745836 0
M  V30 2107 O 204.978 -1.58151 -0.91074 0
M  V30 2108 C 205.029 -2.71178 2.3905 0
M  V30 2109 O 204.75 -2.30586 3.72507 0
M  V30 2110 C 206.251 -3.64738 2.51955 0
M  V30 2111 H 203.471 -0.450104 0.497642 0
M  V30 2112 H 206.015 -0.828792 1.86953 0
M  V30 2113 H 204.17 -3.3077 2.01667 0
M  V30 2114 H 204.584 -3.11241 4.22172 0
M  V30 2115 H 206.058 -4.49096 3.20962 0
M  V30 2116 H 206.535 -4.10656 1.55752 0
M  V30 2117 H 207.141 -3.11038 2.90061 0
M  V30 2118 N 205.456 -1.28612 -0.910864 0
M  V30 2119 C 206.366 -1.14643 -2.0468 0
M  V30 2120 C 207.382 -0.0723121 -1.7385 0
M  V30 2121 O 208.558 -0.282178 -1.99413 0
M  V30 2122 C 205.623 -0.812561 -3.37044 0
M  V30 2123 C 204.684 -1.96935 -3.81465 0
M  V30 2124 C 203.917 -1.65131 -5.07511 0
M  V30 2125 O 204.14 -0.567013 -5.67575 0
M  V30 2126 O 203.074 -2.49585 -5.47714 0
M  V30 2127 H 206.9 -2.1001 -2.19384 0
M  V30 2128 H 204.485 -1.07958 -1.03274 0
M  V30 2129 H 206.367 -0.640441 -4.16505 0
M  V30 2130 H 205.042 0.111426 -3.23508 0
M  V30 2131 H 203.949 -2.19664 -3.02818 0
M  V30 2132 H 205.282 -2.87414 -3.99567 0
M  V30 2133 N 206.934 1.1197 -1.10907 0
M  V30 2134 C 208.162 1.87402 -0.876824 0
M  V30 2135 C 208.577 1.79894 0.573025 0
M  V30 2136 O 207.934 1.17629 1.39534 0
M  V30 2137 C 207.985 3.36428 -1.32282 0
M  V30 2138 O 207.706 3.43765 -2.71582 0
M  V30 2139 C 209.207 4.28783 -1.12518 0
M  V30 2140 H 206.427 0.592793 -0.314384 0
M  V30 2141 H 208.971 1.41649 -1.47499 0
M  V30 2142 H 207.126 3.79706 -0.768229 0
M  V30 2143 H 207.54 4.3652 -2.90776 0
M  V30 2144 H 209.014 5.31613 -1.48633 0
M  V30 2145 H 209.491 4.39153 -0.0642394 0
M  V30 2146 H 210.097 3.91291 -1.66648 0
M  V30 2147 N 208.412 0.89855 1.29475 0
M  V30 2148 C 209.658 0.524658 1.95896 0
M  V30 2149 C 209.991 -0.926468 1.70676 0
M  V30 2150 O 209.266 -1.65665 1.01908 0
M  V30 2151 C 209.549 0.81633 3.50725 0
M  V30 2152 C 209.402 2.31907 3.85408 0
M  V30 2153 C 210.721 0.302038 4.39062 0
M  V30 2154 H 207.84 0.19209 0.711527 0
M  V30 2155 H 210.482 1.12502 1.53112 0
M  V30 2156 H 208.632 0.305369 3.87298 0
M  V30 2157 H 210.304 2.89949 3.58786 0
M  V30 2158 H 208.547 2.78027 3.32992 0
M  V30 2159 H 209.218 2.47373 4.93468 0
M  V30 2160 H 211.694 0.739551 4.09475 0
M  V30 2161 H 210.57 0.535331 5.46283 0
M  V30 2162 H 210.831 -0.797216 4.34853 0
M  V30 2163 N 209.89 -1.43072 0.660911 0
M  V30 2164 C 210.82 -2.33497 -0.0122829 0
M  V30 2165 C 211.801 -1.49903 -0.803925 0
M  V30 2166 O 212.986 -1.78546 -0.763864 0
M  V30 2167 C 210.116 -3.33363 -0.973994 0
M  V30 2168 C 209.07 -4.27003 -0.291928 0
M  V30 2169 C 208.396 -5.16967 -1.36562 0
M  V30 2170 C 209.696 -5.15816 0.820462 0
M  V30 2171 H 211.39 -2.90038 0.742873 0
M  V30 2172 H 208.936 -1.39461 0.358688 0
M  V30 2173 H 210.889 -3.95524 -1.45392 0
M  V30 2174 H 209.613 -2.75095 -1.7604 0
M  V30 2175 H 208.272 -3.66217 0.167623 0
M  V30 2176 H 207.92 -4.55034 -2.14366 0
M  V30 2177 H 207.62 -5.80441 -0.914454 0
M  V30 2178 H 209.144 -5.82003 -1.84675 0
M  V30 2179 H 210.558 -5.71742 0.422366 0
M  V30 2180 H 208.955 -5.8805 1.19656 0
M  V30 2181 H 210.025 -4.55045 1.67518 0
M  V30 2182 N 211.368 -0.403325 -1.52352 0
M  V30 2183 C 212.784 -0.0539281 -1.59509 0
M  V30 2184 C 212.984 1.43307 -1.41652 0
M  V30 2185 O 212.04 2.19924 -1.24056 0
M  V30 2186 C 213.353 -0.543654 -2.95745 0
M  V30 2187 C 214.901 -0.501125 -3.08962 0
M  V30 2188 C 215.376 -0.967267 -4.47669 0
M  V30 2189 N 216.867 -0.923849 -4.53893 0
M  V30 2190 C 217.602 -1.25578 -5.5948 0
M  V30 2191 N 217.098 -1.65889 -6.72646 0
M  V30 2192 N 218.891 -1.17613 -5.49658 0
M  V30 2193 H 211.042 -1.37123 -1.62206 0
M  V30 2194 H 213.305 -0.56294 -0.76276 0
M  V30 2195 H 213.011 -1.58275 -3.14073 0
M  V30 2196 H 212.885 0.0498042 -3.77167 0
M  V30 2197 H 215.272 0.528909 -2.90321 0
M  V30 2198 H 215.353 -1.13056 -2.2946 0
M  V30 2199 H 214.997 -1.9956 -4.67053 0
M  V30 2200 H 214.927 -0.314698 -5.25659 0
M  V30 2201 H 217.418 -0.627403 -3.72655 0
M  V30 2202 H 217.731 -1.89543 -7.49195 0
M  V30 2203 H 216.076 -1.69787 -6.73942 0
M  V30 2204 H 219.267 -0.860115 -4.6013 0
M  V30 2205 H 219.44 -1.43812 -6.3184 0
M  V30 2206 N 212.846 1.57033 -0.133567 0
M  V30 2207 C 213.778 2.13176 0.841944 0
M  V30 2208 C 214.791 1.07794 1.22001 0
M  V30 2209 O 215.98 1.35117 1.16643 0
M  V30 2210 C 213.08 2.62847 2.13926 0
M  V30 2211 C 212.253 3.92486 1.93064 0
M  V30 2212 C 211.312 4.27605 3.0666 0
M  V30 2213 O 210.338 4.96168 2.78937 0
M  V30 2214 N 211.54 3.861 4.33483 0
M  V30 2215 H 214.305 2.97503 0.362192 0
M  V30 2216 H 211.866 1.61821 0.05042 0
M  V30 2217 H 213.858 2.83363 2.88942 0
M  V30 2218 H 212.428 1.83319 2.53205 0
M  V30 2219 H 211.648 3.80732 1.02159 0
M  V30 2220 H 212.936 4.77225 1.76447 0
M  V30 2221 H 212.334 3.30828 4.58878 0
M  V30 2222 H 210.891 4.11694 5.05323 0
M  V30 2223 N 214.325 -0.140222 1.56975 0
M  V30 2224 C 215.288 -1.15689 1.97861 0
M  V30 2225 C 216.288 -1.3549 0.865974 0
M  V30 2226 O 217.478 -1.32367 1.13246 0
M  V30 2227 C 214.61 -2.51582 2.30042 0
M  V30 2228 H 215.803 -0.805971 2.88867 0
M  V30 2229 H 213.356 -0.383801 1.51515 0
M  V30 2230 H 214.091 -2.91632 1.41849 0
M  V30 2231 H 213.876 -2.38569 3.11171 0
M  V30 2232 H 215.366 -3.24792 2.62488 0
M  V30 2233 N 215.803 -1.52179 -0.40978 0
M  V30 2234 C 217.052 -1.65434 -1.15388 0
M  V30 2235 C 217.365 -0.390056 -1.91671 0
M  V30 2236 O 218.571 -0.402399 -2.68501 0
M  V30 2237 C 217.027 -2.92279 -2.10003 0
M  V30 2238 C 216.635 -4.25813 -1.39239 0
M  V30 2239 C 218.379 -3.14897 -2.84675 0
M  V30 2240 C 216.286 -5.43782 -2.32498 0
M  V30 2241 H 215.216 -0.616267 -0.434432 0
M  V30 2242 H 217.867 -1.78666 -0.418401 0
M  V30 2243 H 216.249 -2.72744 -2.871 0
M  V30 2244 H 217.423 -4.55828 -0.675099 0
M  V30 2245 H 215.738 -4.09292 -0.766097 0
M  V30 2246 H 218.335 -4.0021 -3.54593 0
M  V30 2247 H 218.678 -2.29103 -3.47588 0
M  V30 2248 H 219.211 -3.34901 -2.14677 0
M  V30 2249 H 215.95 -6.3192 -1.74233 0
M  V30 2250 H 215.47 -5.18106 -3.02201 0
M  V30 2251 H 217.149 -5.76834 -2.93038 0
M  V30 2252 N 217.281 0.66697 -1.42791 0
M  V30 2253 C 218.244 1.76211 -1.46568 0
M  V30 2254 C 219.244 1.56896 -0.352196 0
M  V30 2255 O 220.434 1.63044 -0.613364 0
M  V30 2256 C 217.566 3.14935 -1.30494 0
M  V30 2257 H 218.759 1.74247 -2.44086 0
M  V30 2258 H 216.312 0.877342 -1.29354 0
M  V30 2259 H 217.047 3.2252 -0.339301 0
M  V30 2260 H 216.832 3.30359 -2.11199 0
M  V30 2261 H 218.322 3.94821 -1.36038 0
M  V30 2262 N 218.759 1.29093 0.90403 0
M  V30 2263 C 219.669 1.15727 2.0407 0
M  V30 2264 C 220.685 0.0815308 1.73809 0
M  V30 2265 O 221.861 0.292749 1.99261 0
M  V30 2266 C 218.926 0.830424 3.36608 0
M  V30 2267 C 217.987 1.98955 3.80415 0
M  V30 2268 C 217.22 1.6782 5.06628 0
M  V30 2269 O 217.443 0.597105 5.67266 0
M  V30 2270 O 216.377 2.52486 5.46383 0
M  V30 2271 H 220.203 2.11171 2.18267 0
M  V30 2272 H 217.788 1.08504 1.027 0
M  V30 2273 H 219.67 0.662521 4.16159 0
M  V30 2274 H 218.345 -0.0942678 3.23563 0
M  V30 2275 H 217.252 2.21267 3.01648 0
M  V30 2276 H 218.585 2.89529 3.98037 0
M  V30 2277 N 220.237 -1.11381 1.11499 0
M  V30 2278 C 221.653 -1.35143 0.849031 0
M  V30 2279 C 221.853 -1.94515 -0.525938 0
M  V30 2280 O 220.909 -2.1785 -1.27662 0
M  V30 2281 C 222.222 -2.28249 1.95762 0
M  V30 2282 C 223.77 -2.41812 1.98736 0
M  V30 2283 C 224.245 -3.3824 3.088 0
M  V30 2284 N 225.736 -3.45803 3.08179 0
M  V30 2285 C 226.471 -4.20358 3.89982 0
M  V30 2286 N 225.967 -4.97884 4.8175 0
M  V30 2287 N 227.76 -4.15877 3.78157 0
M  V30 2288 H 219.911 -0.712062 2.00109 0
M  V30 2289 H 222.174 -0.376025 0.870235 0
M  V30 2290 H 221.88 -1.91817 2.94787 0
M  V30 2291 H 221.754 -3.28473 1.85433 0
M  V30 2292 H 224.141 -2.77518 1.00338 0
M  V30 2293 H 224.222 -1.41437 2.13141 0
M  V30 2294 H 223.866 -3.03261 4.07425 0
M  V30 2295 H 223.796 -4.38471 2.91635 0
M  V30 2296 H 226.287 -2.90506 2.41691 0
M  V30 2297 H 226.6 -5.52142 5.40702 0
M  V30 2298 H 224.945 -4.97043 4.85771 0
M  V30 2299 H 228.136 -3.544 3.05808 0
M  V30 2300 H 228.309 -4.73723 4.42143 0
M  V30 2301 N 221.715 -0.905404 -1.28997 0
M  V30 2302 C 222.964 -0.530191 -1.94607 0
M  V30 2303 C 223.277 0.929185 -1.72121 0
M  V30 2304 O 224.483 1.41218 -2.31883 0
M  V30 2305 C 222.939 -0.897333 -3.48534 0
M  V30 2306 C 222.547 -2.37587 -3.79811 0
M  V30 2307 C 224.291 -0.592304 -4.20347 0
M  V30 2308 C 222.198 -2.68357 -5.27009 0
M  V30 2309 H 221.128 -0.194558 -0.728466 0
M  V30 2310 H 223.779 -1.10318 -1.46636 0
M  V30 2311 H 222.161 -0.253214 -3.9519 0
M  V30 2312 H 223.335 -3.06602 -3.43994 0
M  V30 2313 H 221.65 -2.6505 -3.2115 0
M  V30 2314 H 224.247 -0.798975 -5.28697 0
M  V30 2315 H 224.59 0.469474 -4.13644 0
M  V30 2316 H 225.123 -1.19452 -3.79442 0
M  V30 2317 H 221.862 -3.73355 -5.38782 0
M  V30 2318 H 221.382 -2.03971 -5.64053 0
M  V30 2319 H 223.061 -2.54922 -5.94663 0
M  V30 2320 N 223.193 1.4272 -0.668489 0
M  V30 2321 C 224.14 2.30796 0.0137489 0
M  V30 2322 C 225.11 1.4561 0.799177 0
M  V30 2323 O 226.295 1.74453 0.772702 0
M  V30 2324 C 223.435 3.31377 0.963507 0
M  V30 2325 C 222.548 4.31655 0.172569 0
M  V30 2326 C 221.683 5.19312 1.1175 0
M  V30 2327 C 220.722 6.11274 0.317886 0
M  V30 2328 N 219.859 6.91504 1.2152 0
M  V30 2329 H 224.699 2.88585 -0.743161 0
M  V30 2330 H 222.236 1.42154 -0.378226 0
M  V30 2331 H 224.194 3.88214 1.52792 0
M  V30 2332 H 222.824 2.75202 1.68712 0
M  V30 2333 H 221.876 3.76988 -0.508374 0
M  V30 2334 H 223.188 4.96779 -0.448527 0
M  V30 2335 H 222.342 5.80851 1.75206 0
M  V30 2336 H 221.081 4.5435 1.77249 0
M  V30 2337 H 220.086 5.48809 -0.329918 0
M  V30 2338 H 221.311 6.78283 -0.332917 0
M  V30 2339 H 219.257 6.29176 1.85671 0
M  V30 2340 H 219.174 7.53209 0.649036 0
M  V30 2341 H 220.442 7.57535 1.83742 0
M  V30 2342 N 224.671 0.411399 1.52136 0
M  V30 2343 C 226.082 -0.0576826 1.86611 0
M  V30 2344 C 226.433 -1.44238 1.33003 0
M  V30 2345 O 225.558 -2.05759 0.670228 0
M  V30 2346 C 226.153 -0.111448 3.38617 0
M  V30 2347 C 224.712 -0.52487 3.72723 0
M  V30 2348 C 223.859 0.299176 2.75681 0
M  V30 2349 H 226.81 0.628368 1.4573 0
M  V30 2350 H 226.831 -0.926252 3.69054 0
M  V30 2351 H 226.343 0.896488 3.77604 0
M  V30 2352 H 224.444 -1.53936 3.39315 0
M  V30 2353 H 224.557 -0.267681 4.78352 0
M  V30 2354 H 222.921 -0.238814 2.53578 0
M  V30 2355 H 223.704 1.3055 3.17508 0
M  V30 2356 N 226.149 -1.5696 0.141893 0
M  V30 2357 C 227.395 -1.9625 -0.511248 0
M  V30 2358 C 227.728 -1.02654 -1.64851 0
M  V30 2359 O 227.003 -0.0679676 -1.94381 0
M  V30 2360 C 227.286 -3.45285 -1.02227 0
M  V30 2361 C 227.139 -4.49658 0.113138 0
M  V30 2362 C 228.458 -3.96698 -1.90574 0
M  V30 2363 H 225.577 -0.713567 -0.184367 0
M  V30 2364 H 228.219 -1.88698 0.222087 0
M  V30 2365 H 226.369 -3.51852 -1.64719 0
M  V30 2366 H 228.041 -4.55174 0.749302 0
M  V30 2367 H 226.284 -4.26857 0.773026 0
M  V30 2368 H 226.955 -5.51258 -0.286053 0
M  V30 2369 H 229.431 -3.92578 -1.37918 0
M  V30 2370 H 228.307 -5.01453 -2.2324 0
M  V30 2371 H 228.568 -3.3875 -2.84079 0
M  V30 2372 N 227.627 0.131896 -1.57047 0
M  V30 2373 C 228.557 1.16384 -2.02428 0
M  V30 2374 C 229.538 1.43936 -0.90644 0
M  V30 2375 O 230.723 1.54599 -1.17528 0
M  V30 2376 C 227.853 2.49328 -2.4177 0
M  V30 2377 C 226.807 2.36266 -3.56879 0
M  V30 2378 C 226.133 3.74057 -3.8208 0
M  V30 2379 C 227.433 1.834 -4.89042 0
M  V30 2380 H 229.127 0.786433 -2.88887 0
M  V30 2381 H 226.673 0.376855 -1.38981 0
M  V30 2382 H 228.626 3.21759 -2.7212 0
M  V30 2383 H 227.35 2.88934 -1.52266 0
M  V30 2384 H 226.009 1.66286 -3.26718 0
M  V30 2385 H 225.657 4.11125 -2.89803 0
M  V30 2386 H 225.357 3.66174 -4.59554 0
M  V30 2387 H 226.881 4.48012 -4.1487 0
M  V30 2388 H 228.295 2.45636 -5.18011 0
M  V30 2389 H 226.692 1.8637 -5.70426 0
M  V30 2390 H 227.762 0.790662 -4.7841 0
M  V30 2391 N 229.106 1.52395 0.401703 0
M  V30 2392 C 230.039 1.70999 1.51111 0
M  V30 2393 C 231.017 0.55765 1.52738 0
M  V30 2394 O 232.201 0.785912 1.71335 0
M  V30 2395 C 229.328 1.75607 2.8962 0
M  V30 2396 C 228.374 2.97227 3.05873 0
M  V30 2397 S 229.207 4.57439 2.78405 0
M  V30 2398 C 230.363 4.64844 4.19131 0
M  V30 2399 H 230.596 2.6483 1.35102 0
M  V30 2400 H 228.129 1.42527 0.593762 0
M  V30 2401 H 230.087 1.78947 3.69443 0
M  V30 2402 H 228.748 0.828914 3.02965 0
M  V30 2403 H 227.941 2.96955 4.07227 0
M  V30 2404 H 227.543 2.91813 2.33925 0
M  V30 2405 H 229.835 4.42677 5.12877 0
M  V30 2406 H 230.778 5.66807 4.24424 0
M  V30 2407 H 231.186 3.93804 4.04448 0
M  V30 2408 N 230.584 -0.659388 1.43143 0
M  V30 2409 C 231.517 -1.78425 1.42267 0
M  V30 2410 C 232.495 -1.60085 0.284894 0
M  V30 2411 O 233.679 -1.82351 0.477527 0
M  V30 2412 C 230.806 -3.15642 1.22833 0
M  V30 2413 C 229.852 -3.52698 2.39806 0
M  V30 2414 S 230.685 -3.53372 4.02353 0
M  V30 2415 C 231.841 -4.93256 3.85291 0
M  V30 2416 H 232.074 -1.78897 2.37452 0
M  V30 2417 H 229.607 -0.831469 1.301 0
M  V30 2418 H 231.565 -3.94838 1.12308 0
M  V30 2419 H 230.226 -3.12739 0.29207 0
M  V30 2420 H 229.419 -4.52475 2.21996 0
M  V30 2421 H 229.021 -2.80899 2.46925 0
M  V30 2422 H 231.313 -5.81751 3.47235 0
M  V30 2423 H 232.256 -5.16115 4.84799 0
M  V30 2424 H 232.664 -4.665 3.17865 0
M  V30 2425 N 232.062 -1.29571 -0.897171 0
M  V30 2426 C 233.01 -1.14802 -2.02295 0
M  V30 2427 C 234.004 -0.0629637 -1.69283 0
M  V30 2428 O 235.21 -0.222945 -1.78614 0
M  V30 2429 H 231.585 -0.354692 -0.663097 0
M  V30 2430 H 233.556 -2.10108 -2.11889 0
M  V30 2431 C 232.305 -0.843966 -3.37302 0
M  V30 2432 H 231.628 -1.67093 -3.63208 0
M  V30 2433 H 233.068 -0.780672 -4.16751 0
M  V30 2434 C 231.527 0.452843 -3.33843 0
M  V30 2435 O 232.057 1.47813 -3.73516 0
M  V30 2436 N 230.263 0.459601 -2.86943 0
M  V30 2437 H 229.81 -0.375213 -2.54853 0
M  V30 2438 H 229.768 1.32726 -2.85011 0
M  V30 2439 N 233.54 1.10788 -1.12088 0
M  V30 2440 C 234.487 2.17025 -0.785407 0
M  V30 2441 C 235.457 1.64265 0.246191 0
M  V30 2442 O 236.642 1.90412 0.121584 0
M  V30 2443 C 233.782 3.44249 -0.242177 0
M  V30 2444 C 232.895 4.1098 -1.33115 0
M  V30 2445 C 232.03 5.25911 -0.747741 0
M  V30 2446 C 231.069 5.84538 -1.81609 0
M  V30 2447 N 230.206 6.90853 -1.25167 0
M  V30 2448 H 235.046 2.45066 -1.69548 0
M  V30 2449 H 232.583 1.20297 -0.846582 0
M  V30 2450 H 234.541 4.17101 0.0908026 0
M  V30 2451 H 233.171 3.16571 0.631072 0
M  V30 2452 H 232.223 3.36133 -1.78097 0
M  V30 2453 H 233.535 4.50601 -2.13917 0
M  V30 2454 H 232.689 6.056 -0.365216 0
M  V30 2455 H 231.428 4.87614 0.0915188 0
M  V30 2456 H 230.433 5.03522 -2.20785 0
M  V30 2457 H 231.658 6.249 -2.6585 0
M  V30 2458 H 229.604 6.54562 -0.434174 0
M  V30 2459 H 229.521 7.29166 -1.99633 0
M  V30 2460 H 230.789 7.7433 -0.896259 0
M  V30 2461 N 235.018 0.912232 1.28515 0
M  V30 2462 C 235.951 0.343928 2.25593 0
M  V30 2463 C 236.929 -0.550994 1.5298 0
M  V30 2464 O 238.113 -0.494991 1.81885 0
M  V30 2465 C 235.24 -0.508525 3.34861 0
M  V30 2466 C 234.286 0.320808 4.25292 0
M  V30 2467 S 235.119 1.72658 5.06902 0
M  V30 2468 C 236.275 0.881394 6.19663 0
M  V30 2469 H 236.508 1.16674 2.73449 0
M  V30 2470 H 234.041 0.713384 1.36931 0
M  V30 2471 H 235.999 -0.994539 3.9827 0
M  V30 2472 H 234.66 -1.30571 2.85675 0
M  V30 2473 H 233.853 -0.330941 5.02912 0
M  V30 2474 H 233.455 0.74042 3.66598 0
M  V30 2475 H 235.747 0.110359 6.7741 0
M  V30 2476 H 236.69 1.63009 6.89082 0
M  V30 2477 H 237.098 0.430239 5.62858 0
M  V30 2478 N 236.496 -1.42363 0.676048 0
M  V30 2479 C 237.773 -1.95183 0.127726 0
M  V30 2480 C 238.153 -1.61641 -1.35777 0
M  V30 2481 O 237.501 -0.913216 -2.09458 0
M  V30 2482 C 237.711 -3.46721 0.398199 0
M  V30 2483 C 239.059 -4.23427 0.315383 0
M  V30 2484 O 240.083 -3.54649 0.332016 0
M  V30 2485 O 238.942 -5.45888 0.25865 0
M  V30 2486 H 236.036 -0.826992 0.00359427 0
M  V30 2487 H 238.582 -1.52184 0.750864 0
M  V30 2488 H 237.354 -3.64344 1.4272 0
M  V30 2489 H 236.977 -3.96769 -0.256885 0
M  V30 2490 N 237.974 -0.419461 -1.51915 0
M  V30 2491 C 239.39 -0.0708431 -1.59443 0
M  V30 2492 C 239.59 1.41796 -1.43164 0
M  V30 2493 O 238.646 2.18596 -1.26381 0
M  V30 2494 C 239.959 -0.574991 -2.95151 0
M  V30 2495 C 241.507 -0.533867 -3.08413 0
M  V30 2496 C 241.982 -1.01469 -4.46618 0
M  V30 2497 N 243.473 -0.971939 -4.52888 0
M  V30 2498 C 244.208 -1.31505 -5.58116 0
M  V30 2499 N 243.704 -1.73014 -6.70849 0
M  V30 2500 N 245.497 -1.23436 -5.48379 0
M  V30 2501 H 237.648 -1.38836 -1.60743 0
M  V30 2502 H 239.911 -0.570998 -0.756747 0
M  V30 2503 H 239.617 -1.61597 -3.12377 0
M  V30 2504 H 239.491 0.00979777 -3.77199 0
M  V30 2505 H 241.878 0.498086 -2.90866 0
M  V30 2506 H 241.959 -1.15484 -2.28248 0
M  V30 2507 H 241.603 -2.04502 -4.6491 0
M  V30 2508 H 241.533 -0.370433 -5.25295 0
M  V30 2509 H 244.024 -0.666893 -3.71969 0
M  V30 2510 H 244.337 -1.97479 -7.47143 0
M  V30 2511 H 242.682 -1.76926 -6.72103 0
M  V30 2512 H 245.873 -0.908869 -4.59192 0
M  V30 2513 H 246.046 -1.50506 -6.30279 0
M  V30 2514 N 239.452 1.56882 -0.150215 0
M  V30 2515 C 240.415 2.1573 0.774157 0
M  V30 2516 C 241.415 1.0999 1.17298 0
M  V30 2517 O 242.605 1.35613 1.09338 0
M  V30 2518 C 239.737 2.72302 2.05096 0
M  V30 2519 H 240.93 2.98752 0.262201 0
M  V30 2520 H 238.483 1.55985 0.099248 0
M  V30 2521 H 239.218 1.92956 2.6065 0
M  V30 2522 H 239.003 3.49665 1.77416 0
M  V30 2523 H 240.493 3.17632 2.71109 0
M  V30 2524 N 240.93 -0.123565 1.57115 0
M  V30 2525 C 241.86 -1.15309 2.03042 0
M  V30 2526 C 242.841 -1.43454 0.914061 0
M  V30 2527 O 244.026 -1.53973 1.18347 0
M  V30 2528 C 241.156 -2.48043 2.43089 0
M  V30 2529 C 240.11 -2.3437 3.58127 0
M  V30 2530 C 239.436 -3.72026 3.84059 0
M  V30 2531 C 240.736 -1.80804 4.90007 0
M  V30 2532 H 242.43 -0.771102 2.893 0
M  V30 2533 H 239.976 -0.369479 1.39179 0
M  V30 2534 H 241.929 -3.20311 2.73823 0
M  V30 2535 H 240.653 -2.88122 1.53796 0
M  V30 2536 H 239.312 -1.64551 3.27595 0
M  V30 2537 H 238.96 -4.09582 2.91979 0
M  V30 2538 H 238.66 -3.63732 4.6149 0
M  V30 2539 H 240.184 -4.45806 4.1724 0
M  V30 2540 H 241.598 -2.42886 5.19307 0
M  V30 2541 H 239.995 -1.83343 5.71407 0
M  V30 2542 H 241.065 -0.76528 4.78823 0
M  V30 2543 N 242.408 -1.52605 -0.393616 0
M  V30 2544 C 243.338 -1.80022 -1.48709 0
M  V30 2545 C 244.319 -0.651995 -1.57108 0
M  V30 2546 O 245.504 -0.89913 -1.72132 0
M  V30 2547 C 242.634 -1.96492 -2.86371 0
M  V30 2548 C 241.588 -3.12161 -2.92813 0
M  V30 2549 C 240.914 -3.13877 -4.3288 0
M  V30 2550 C 242.214 -4.51322 -2.6288 0
M  V30 2551 H 243.908 -2.71589 -1.26015 0
M  V30 2552 H 241.454 -1.30684 -0.604778 0
M  V30 2553 H 243.407 -2.14255 -3.62867 0
M  V30 2554 H 242.131 -1.01611 -3.10391 0
M  V30 2555 H 240.79 -2.94173 -2.18764 0
M  V30 2556 H 240.438 -2.16687 -4.53933 0
M  V30 2557 H 240.138 -3.91576 -4.38112 0
M  V30 2558 H 241.662 -3.33789 -5.1129 0
M  V30 2559 H 243.076 -4.69435 -3.29096 0
M  V30 2560 H 241.473 -5.31053 -2.79468 0
M  V30 2561 H 242.543 -4.58353 -1.58242 0
M  V30 2562 N 243.887 0.651787 -1.4349 0
M  V30 2563 C 244.797 1.79368 -1.5121 0
M  V30 2564 C 245.813 1.69361 -0.399093 0
M  V30 2565 O 246.989 1.90505 -0.653431 0
M  V30 2566 C 244.054 3.15653 -1.43401 0
M  V30 2567 C 243.115 3.37446 -2.65384 0
M  V30 2568 C 242.348 4.67229 -2.57939 0
M  V30 2569 O 242.571 5.46676 -1.62792 0
M  V30 2570 O 241.505 4.90773 -3.48462 0
M  V30 2571 H 245.331 1.7581 -2.47638 0
M  V30 2572 H 242.916 0.810447 -1.25507 0
M  V30 2573 H 244.798 3.96935 -1.41494 0
M  V30 2574 H 243.473 3.19798 -0.501085 0
M  V30 2575 H 242.38 2.55923 -2.72863 0
M  V30 2576 H 243.713 3.38148 -3.57654 0
M  V30 2577 N 245.365 1.30045 0.890287 0
M  V30 2578 C 246.295 1.18541 2.01172 0
M  V30 2579 C 247.276 0.0773356 1.69924 0
M  V30 2580 O 248.461 0.25845 1.92473 0
M  V30 2581 C 245.591 0.870941 3.36202 0
M  V30 2582 C 244.545 1.93637 3.81692 0
M  V30 2583 C 243.871 1.475 5.13953 0
M  V30 2584 C 245.171 3.34666 4.00994 0
M  V30 2585 H 246.865 2.12359 2.11054 0
M  V30 2586 H 244.411 1.02238 1.01407 0
M  V30 2587 H 246.364 0.777141 4.14172 0
M  V30 2588 H 245.088 -0.102926 3.26438 0
M  V30 2589 H 243.747 2.01972 3.05946 0
M  V30 2590 H 243.395 0.489551 5.00612 0
M  V30 2591 H 243.095 2.1876 5.4536 0
M  V30 2592 H 244.619 1.39489 5.94454 0
M  V30 2593 H 246.033 3.2912 4.69417 0
M  V30 2594 H 244.43 4.03966 4.43769 0
M  V30 2595 H 245.5 3.76949 3.05021 0
M  V30 2596 N 246.843 -1.10192 1.12674 0
M  V30 2597 C 247.775 -2.16418 0.754701 0
M  V30 2598 C 248.788 -1.61309 -0.21986 0
M  V30 2599 O 249.977 -1.785 -0.000826841 0
M  V30 2600 C 247.077 -3.38762 0.096698 0
M  V30 2601 C 246.25 -4.23307 1.10136 0
M  V30 2602 C 245.309 -5.24092 0.470513 0
M  V30 2603 O 244.335 -5.57906 1.12824 0
M  V30 2604 N 245.537 -5.75491 -0.760948 0
M  V30 2605 H 248.302 -2.48943 1.66875 0
M  V30 2606 H 245.863 -1.25834 1.01869 0
M  V30 2607 H 247.855 -4.03291 -0.337384 0
M  V30 2608 H 246.425 -3.04192 -0.720153 0
M  V30 2609 H 245.645 -3.55036 1.71299 0
M  V30 2610 H 246.933 -4.76624 1.78064 0
M  V30 2611 H 246.331 -5.50222 -1.31424 0
M  V30 2612 H 244.888 -6.41792 -1.13781 0
M  V30 2613 N 248.321 -0.919034 -1.28029 0
M  V30 2614 C 249.251 -0.428581 -2.29533 0
M  V30 2615 C 250.232 0.50659 -1.62381 0
M  V30 2616 O 251.417 0.413195 -1.89753 0
M  V30 2617 C 248.547 0.327388 -3.45753 0
M  V30 2618 C 247.501 -0.519137 -4.2484 0
M  V30 2619 C 246.827 0.365486 -5.33449 0
M  V30 2620 C 248.127 -1.77914 -4.91064 0
M  V30 2621 H 249.821 -1.27687 -2.70807 0
M  V30 2622 H 247.367 -0.615428 -1.30186 0
M  V30 2623 H 249.32 0.681378 -4.15855 0
M  V30 2624 H 248.044 1.20963 -3.03374 0
M  V30 2625 H 246.703 -0.855717 -3.56473 0
M  V30 2626 H 246.351 1.24642 -4.87312 0
M  V30 2627 H 246.051 -0.197356 -5.87268 0
M  V30 2628 H 247.575 0.715241 -6.06396 0
M  V30 2629 H 248.989 -1.49374 -5.53498 0
M  V30 2630 H 247.386 -2.2848 -5.54903 0
M  V30 2631 H 248.456 -2.50382 -4.15255 0
M  V30 2632 N 249.799 1.42003 -0.683588 0
M  V30 2633 C 250.709 2.34597 -0.0109075 0
M  V30 2634 C 251.725 1.55576 0.779245 0
M  V30 2635 O 252.901 1.88107 0.719555 0
M  V30 2636 C 249.966 3.34199 0.922588 0
M  V30 2637 C 249.027 4.29115 0.125984 0
M  V30 2638 C 248.26 5.23959 1.01502 0
M  V30 2639 O 248.483 5.23952 2.25456 0
M  V30 2640 O 247.417 6.00053 0.47111 0
M  V30 2641 H 251.243 2.93675 -0.773853 0
M  V30 2642 H 248.828 1.42654 -0.443861 0
M  V30 2643 H 250.71 3.95365 1.45823 0
M  V30 2644 H 249.385 2.77582 1.66523 0
M  V30 2645 H 248.292 3.71335 -0.453969 0
M  V30 2646 H 249.625 4.88798 -0.577736 0
M  V30 2647 N 251.277 0.427512 1.51691 0
M  V30 2648 C 252.688 -0.0378867 1.86662 0
M  V30 2649 C 253.039 -1.42819 1.34525 0
M  V30 2650 O 252.164 -2.05037 0.692014 0
M  V30 2651 C 252.759 -0.0755266 3.38716 0
M  V30 2652 C 251.318 -0.485309 3.73258 0
M  V30 2653 C 250.465 0.328399 2.75349 0
M  V30 2654 H 253.416 0.64379 1.45055 0
M  V30 2655 H 253.437 -0.887056 3.70016 0
M  V30 2656 H 252.949 0.936487 3.76632 0
M  V30 2657 H 251.05 -1.50329 3.40928 0
M  V30 2658 H 251.163 -0.21693 4.78609 0
M  V30 2659 H 249.527 -0.211905 2.53817 0
M  V30 2660 H 250.31 1.3391 3.16106 0
M  V30 2661 N 252.755 -1.56801 0.158532 0
M  V30 2662 C 253.665 -2.20916 -0.789518 0
M  V30 2663 C 254.681 -1.1969 -1.26294 0
M  V30 2664 O 255.857 -1.52308 -1.31773 0
M  V30 2665 C 252.922 -2.82727 -2.00665 0
M  V30 2666 C 251.983 -3.99114 -1.58134 0
M  V30 2667 C 251.216 -4.57968 -2.74045 0
M  V30 2668 O 251.439 -4.15704 -3.90572 0
M  V30 2669 O 250.373 -5.48047 -2.48855 0
M  V30 2670 H 254.199 -3.02464 -0.273681 0
M  V30 2671 H 251.784 -1.4924 -0.0690548 0
M  V30 2672 H 253.666 -3.21968 -2.71872 0
M  V30 2673 H 252.341 -2.04184 -2.51179 0
M  V30 2674 H 251.248 -3.64567 -0.839155 0
M  V30 2675 H 252.581 -4.79212 -1.12325 0
M  V30 2676 N 254.233 0.115231 -1.57178 0
M  V30 2677 C 255.143 1.15994 -2.03918 0
M  V30 2678 C 256.159 1.45103 -0.960268 0
M  V30 2679 O 257.335 1.56144 -1.27204 0
M  V30 2680 C 254.4 2.46568 -2.43732 0
M  V30 2681 C 253.461 2.24822 -3.65723 0
M  V30 2682 C 252.694 3.4917 -4.03629 0
M  V30 2683 O 252.917 4.56623 -3.41835 0
M  V30 2684 O 251.851 3.39949 -4.96708 0
M  V30 2685 H 255.677 0.793019 -2.93164 0
M  V30 2686 H 253.262 0.3263 -1.45793 0
M  V30 2687 H 255.144 3.23492 -2.70057 0
M  V30 2688 H 253.819 2.82726 -1.57631 0
M  V30 2689 H 252.726 1.45744 -3.44542 0
M  V30 2690 H 254.059 1.93566 -4.52541 0
M  V30 2691 N 255.711 1.52812 0.385517 0
M  V30 2692 C 256.641 1.80808 1.47752 0
M  V30 2693 C 257.622 0.660318 1.5676 0
M  V30 2694 O 258.807 0.908246 1.71652 0
M  V30 2695 C 255.937 1.98008 2.85324 0
M  V30 2696 C 254.891 3.13709 2.91154 0
M  V30 2697 C 254.217 3.16169 4.31209 0
M  V30 2698 C 255.517 4.52709 2.60483 0
M  V30 2699 H 257.211 2.72253 1.24573 0
M  V30 2700 H 254.757 1.31003 0.597839 0
M  V30 2701 H 256.71 2.16176 3.61726 0
M  V30 2702 H 255.434 1.03255 3.09848 0
M  V30 2703 H 254.093 2.95329 2.17201 0
M  V30 2704 H 253.741 2.19092 4.52778 0
M  V30 2705 H 253.441 3.93894 4.36029 0
M  V30 2706 H 254.965 3.36496 5.09512 0
M  V30 2707 H 256.379 4.71173 3.26602 0
M  V30 2708 H 254.776 5.32528 2.76648 0
M  V30 2709 H 255.846 4.59186 1.55809 0
M  V30 2710 N 257.189 -0.644168 1.43834 0
M  V30 2711 C 258.419 -1.42939 1.49171 0
M  V30 2712 C 258.827 -1.88874 0.111048 0
M  V30 2713 O 258.17 -1.60656 -0.8908 0
M  V30 2714 C 258.232 -2.69151 2.38324 0
M  V30 2715 C 257.896 -2.45097 3.85715 0
M  V30 2716 C 258.893 -2.07747 4.76589 0
M  V30 2717 C 256.578 -2.59141 4.30292 0
M  V30 2718 C 258.572 -1.8475 6.10038 0
M  V30 2719 C 256.259 -2.35759 5.63792 0
M  V30 2720 C 257.257 -1.9862 6.53482 0
M  V30 2721 O 256.945 -1.75489 7.84512 0
M  V30 2722 H 256.677 -0.445271 0.508635 0
M  V30 2723 H 259.231 -0.79621 1.8934 0
M  V30 2724 H 257.461 -3.3506 1.93058 0
M  V30 2725 H 259.15 -3.31123 2.3476 0
M  V30 2726 H 259.916 -1.96465 4.43426 0
M  V30 2727 H 255.795 -2.87022 3.60749 0
M  V30 2728 H 259.339 -1.55686 6.80006 0
M  V30 2729 H 255.236 -2.46646 5.9652 0
M  V30 2730 H 256.004 -1.89841 7.9618 0
M  V30 2731 N 258.668 -1.30515 -0.883378 0
M  V30 2732 C 259.6 -1.12846 -1.99496 0
M  V30 2733 C 260.613 -0.0712571 -1.62644 0
M  V30 2734 O 261.802 -0.317432 -1.75655 0
M  V30 2735 C 258.902 -0.699123 -3.3161 0
M  V30 2736 C 258.075 -1.83842 -3.96889 0
M  V30 2737 C 257.134 -1.39737 -5.07307 0
M  V30 2738 O 256.16 -2.10485 -5.28852 0
M  V30 2739 N 257.362 -0.277279 -5.79837 0
M  V30 2740 H 260.127 -2.08585 -2.15203 0
M  V30 2741 H 257.688 -1.22672 -1.05656 0
M  V30 2742 H 259.68 -0.387044 -4.02845 0
M  V30 2743 H 258.25 0.166276 -3.12157 0
M  V30 2744 H 257.47 -2.31853 -3.18807 0
M  V30 2745 H 258.758 -2.60187 -4.37241 0
M  V30 2746 H 258.156 0.3122 -5.64838 0
M  V30 2747 H 256.713 -0.0246623 -6.51795 0
M  V30 2748 N 260.146 1.09593 -1.13257 0
M  V30 2749 C 261.374 1.855 -0.916378 0
M  V30 2750 C 261.789 1.81069 0.534738 0
M  V30 2751 O 261.146 1.20562 1.37007 0
M  V30 2752 C 261.197 3.33546 -1.39388 0
M  V30 2753 O 260.918 3.37927 -2.78813 0
M  V30 2754 C 262.419 4.26299 -1.21588 0
M  V30 2755 H 259.639 0.585991 -0.326887 0
M  V30 2756 H 262.183 1.38488 -1.5047 0
M  V30 2757 H 260.338 3.77992 -0.848597 0
M  V30 2758 H 260.752 4.30254 -2.9997 0
M  V30 2759 H 262.226 5.28341 -1.59876 0
M  V30 2760 H 262.703 4.38918 -0.157376 0
M  V30 2761 H 263.309 3.87668 -1.7491 0
M  V30 2762 N 261.624 0.925811 1.2754 0
M  V30 2763 C 262.871 0.565255 1.94451 0
M  V30 2764 C 263.199 -0.89316 1.7278 0
M  V30 2765 O 262.454 -1.65213 1.04895 0
M  V30 2766 C 262.753 0.835296 3.47502 0
M  V30 2767 C 262.419 2.27515 3.89291 0
M  V30 2768 C 261.081 2.66879 4.00411 0
M  V30 2769 C 263.433 3.21158 4.10496 0
M  V30 2770 C 260.761 3.99014 4.30122 0
M  V30 2771 C 263.113 4.52871 4.4169 0
M  V30 2772 C 261.777 4.92072 4.51023 0
M  V30 2773 H 261.047 0.206841 0.711546 0
M  V30 2774 H 263.694 1.16942 1.51647 0
M  V30 2775 H 261.999 0.148442 3.91519 0
M  V30 2776 H 263.696 0.535322 3.97411 0
M  V30 2777 H 260.286 1.95976 3.81171 0
M  V30 2778 H 264.47 2.9195 4.01346 0
M  V30 2779 H 259.726 4.2907 4.35556 0
M  V30 2780 H 263.9 5.25436 4.57045 0
M  V30 2781 H 261.527 5.9449 4.738 0
M  V30 2782 N 263.102 -1.41638 0.69111 0
M  V30 2783 C 264.034 -2.29194 -0.0161523 0
M  V30 2784 C 265.047 -1.44549 -0.748955 0
M  V30 2785 O 266.236 -1.681 -0.6004 0
M  V30 2786 C 263.336 -3.22325 -1.0469 0
M  V30 2787 C 262.509 -4.35706 -0.384621 0
M  V30 2788 C 261.568 -5.09443 -1.31737 0
M  V30 2789 O 260.594 -5.63386 -0.811451 0
M  V30 2790 N 261.796 -5.16487 -2.64993 0
M  V30 2791 H 264.561 -2.90534 0.735523 0
M  V30 2792 H 262.122 -1.52742 0.53679 0
M  V30 2793 H 264.114 -3.68522 -1.67252 0
M  V30 2794 H 262.684 -2.62323 -1.70015 0
M  V30 2795 H 261.904 -3.91948 0.420804 0
M  V30 2796 H 263.192 -5.08743 0.0760765 0
M  V30 2797 H 262.59 -4.741 -3.08619 0
M  V30 2798 H 261.147 -5.66276 -3.22761 0
M  V30 2799 N 264.58 -0.43555 -1.51462 0
M  V30 2800 C 265.996 -0.0877501 -1.59359 0
M  V30 2801 C 266.196 1.4027 -1.4466 0
M  V30 2802 O 265.252 2.17243 -1.28693 0
M  V30 2803 C 266.565 -0.606264 -2.94525 0
M  V30 2804 C 268.113 -0.566548 -3.0783 0
M  V30 2805 C 268.588 -1.06201 -4.45517 0
M  V30 2806 N 270.079 -1.01992 -4.51832 0
M  V30 2807 C 270.814 -1.37417 -5.5669 0
M  V30 2808 N 270.31 -1.80119 -6.68976 0
M  V30 2809 N 272.103 -1.29245 -5.47039 0
M  V30 2810 H 264.254 -1.40533 -1.59261 0
M  V30 2811 H 266.517 -0.578992 -0.750648 0
M  V30 2812 H 266.223 -1.64901 -3.10645 0
M  V30 2813 H 266.097 -0.0302097 -3.77188 0
M  V30 2814 H 268.484 0.467208 -2.91378 0
M  V30 2815 H 268.565 -1.17898 -2.2701 0
M  V30 2816 H 268.209 -2.09422 -4.62715 0
M  V30 2817 H 268.139 -0.426127 -5.24873 0
M  V30 2818 H 270.63 -0.706308 -3.71241 0
M  V30 2819 H 270.943 -2.05392 -7.45006 0
M  V30 2820 H 269.288 -1.84044 -6.70189 0
M  V30 2821 H 272.479 -0.957522 -4.58202 0
M  V30 2822 H 272.652 -1.57182 -6.28648 0
M  V30 2823 N 266.058 1.56714 -0.166846 0
M  V30 2824 C 267.307 1.95922 0.479318 0
M  V30 2825 C 267.62 1.05529 1.6469 0
M  V30 2826 O 268.826 1.34399 2.35901 0
M  V30 2827 C 267.282 3.48359 0.90412 0
M  V30 2828 C 266.89 4.47369 -0.237621 0
M  V30 2829 C 268.634 3.96394 1.51896 0
M  V30 2830 C 266.541 5.91039 0.206561 0
M  V30 2831 H 265.471 0.731495 0.18284 0
M  V30 2832 H 268.122 1.81728 -0.254363 0
M  V30 2833 H 266.504 3.57955 1.69365 0
M  V30 2834 H 267.678 4.49485 -1.01489 0
M  V30 2835 H 265.993 4.09366 -0.762128 0
M  V30 2836 H 268.59 5.01186 1.86325 0
M  V30 2837 H 268.933 3.39075 2.41524 0
M  V30 2838 H 269.466 3.89796 0.79395 0
M  V30 2839 H 266.205 6.52221 -0.654834 0
M  V30 2840 H 265.725 5.9224 0.949282 0
M  V30 2841 H 267.404 6.43707 0.651939 0
M  V30 2842 N 267.536 -0.106894 1.57237 0
M  V30 2843 C 268.782 -0.81373 1.85759 0
M  V30 2844 C 269.115 -1.78952 0.754315 0
M  V30 2845 O 268.39 -1.93029 -0.23879 0
M  V30 2846 C 268.673 -1.55293 3.24894 0
M  V30 2847 C 268.526 -0.595929 4.45835 0
M  V30 2848 C 269.845 -2.5063 3.61763 0
M  V30 2849 H 266.964 -0.294369 0.67566 0
M  V30 2850 H 269.606 -0.0776472 1.89841 0
M  V30 2851 H 267.756 -2.1804 3.21544 0
M  V30 2852 H 269.428 0.0236262 4.61294 0
M  V30 2853 H 267.671 0.0916191 4.33703 0
M  V30 2854 H 268.342 -1.15004 5.39887 0
M  V30 2855 H 270.818 -1.97982 3.65981 0
M  V30 2856 H 269.694 -2.99376 4.60071 0
M  V30 2857 H 269.955 -3.3385 2.89821 0
M  V30 2858 N 269.014 -1.53014 -0.377408 0
M  V30 2859 C 269.924 -1.81557 -1.48574 0
M  V30 2860 C 270.94 -0.703102 -1.59162 0
M  V30 2861 O 272.116 -0.99192 -1.75279 0
M  V30 2862 C 269.181 -1.9889 -2.83978 0
M  V30 2863 C 268.242 -3.22801 -2.83016 0
M  V30 2864 C 267.475 -3.39298 -4.11962 0
M  V30 2865 O 267.698 -2.60345 -5.0752 0
M  V30 2866 O 266.632 -4.32604 -4.18494 0
M  V30 2867 H 270.458 -2.75695 -1.27382 0
M  V30 2868 H 268.043 -1.38248 -0.566373 0
M  V30 2869 H 269.925 -2.11931 -3.6423 0
M  V30 2870 H 268.6 -1.07942 -3.05172 0
M  V30 2871 H 267.507 -3.15193 -2.01505 0
M  V30 2872 H 268.84 -4.13632 -2.66775 0
M  V30 2873 N 270.492 0.636531 -1.44174 0
M  V30 2874 C 271.44 1.76995 -1.50915 0
M  V30 2875 C 272.434 1.65053 -0.381295 0
M  V30 2876 O 273.64 1.71197 -0.55601 0
M  V30 2877 H 270.015 0.584247 -0.473455 0
M  V30 2878 H 271.986 1.68432 -2.4632 0
M  V30 2879 C 270.735 3.15314 -1.46534 0
M  V30 2880 H 270.058 3.25149 -2.32633 0
M  V30 2881 H 271.498 3.9453 -1.55312 0
M  V30 2882 C 269.957 3.3639 -0.185305 0
M  V30 2883 O 270.487 3.94699 0.746688 0
M  V30 2884 N 268.693 2.9046 -0.0901606 0
M  V30 2885 H 268.24 2.43193 -0.849416 0
M  V30 2886 H 268.198 3.04937 0.765553 0
M  V30 2887 N 271.97 1.30982 0.876444 0
M  V30 2888 C 273.216 1.20474 1.63138 0
M  V30 2889 C 273.549 -0.238096 1.92735 0
M  V30 2890 O 272.824 -1.1692 1.55435 0
M  V30 2891 C 273.107 2.04244 2.96574 0
M  V30 2892 C 272.96 3.56793 2.73896 0
M  V30 2893 C 274.279 1.88684 3.97601 0
M  V30 2894 H 271.398 0.439001 0.591985 0
M  V30 2895 H 274.04 1.60704 1.01361 0
M  V30 2896 H 272.19 1.70063 3.493 0
M  V30 2897 H 273.862 4.01077 2.27892 0
M  V30 2898 H 272.105 3.80548 2.08245 0
M  V30 2899 H 272.776 4.10706 3.68815 0
M  V30 2900 H 275.252 2.18584 3.54062 0
M  V30 2901 H 274.128 2.4961 4.88862 0
M  V30 2902 H 274.389 0.848343 4.33884 0
M  V30 2903 N 273.449 -1.08991 1.13837 0
M  V30 2904 C 274.397 -2.17841 0.815347 0
M  V30 2905 C 275.391 -1.68164 -0.204233 0
M  V30 2906 O 276.597 -1.79897 -0.0609304 0
M  V30 2907 H 272.972 -0.710654 0.245915 0
M  V30 2908 H 274.943 -2.42315 1.74143 0
M  V30 2909 C 273.692 -3.46381 0.302614 0
M  V30 2910 H 273.015 -3.84979 1.0785 0
M  V30 2911 H 274.455 -4.23844 0.115074 0
M  V30 2912 C 272.914 -3.22556 -0.972591 0
M  V30 2913 O 273.444 -3.45599 -2.04754 0
M  V30 2914 N 271.65 -2.76134 -0.905455 0
M  V30 2915 H 271.197 -2.57582 -0.0305421 0
M  V30 2916 H 271.155 -2.60571 -1.75926 0
M  V30 2917 N 274.927 -0.932562 -1.27047 0
M  V30 2918 C 276.173 -0.576412 -1.94436 0
M  V30 2919 C 276.506 0.880891 -1.73072 0
M  V30 2920 O 275.781 1.62905 -1.06264 0
M  V30 2921 C 276.064 -0.909031 -3.48437 0
M  V30 2922 C 275.917 -2.42044 -3.79123 0
M  V30 2923 C 277.236 -0.418341 -4.38107 0
M  V30 2924 H 274.355 -0.210888 -0.706184 0
M  V30 2925 H 276.997 -1.16522 -1.50075 0
M  V30 2926 H 275.147 -0.407947 -3.86352 0
M  V30 2927 H 276.819 -2.99359 -3.50973 0
M  V30 2928 H 275.062 -2.86758 -3.25503 0
M  V30 2929 H 275.733 -2.6037 -4.86736 0
M  V30 2930 H 278.209 -0.847856 -4.0737 0
M  V30 2931 H 277.085 -0.679981 -5.44672 0
M  V30 2932 H 277.346 0.681642 -4.36814 0
M  V30 2933 N 276.405 1.4127 -0.698611 0
M  V30 2934 C 277.654 2.00408 -0.227949 0
M  V30 2935 C 277.967 1.55981 1.18023 0
M  V30 2936 O 279.173 2.07699 1.74852 0
M  V30 2937 C 277.629 3.58129 -0.356636 0
M  V30 2938 C 277.237 4.11536 -1.77037 0
M  V30 2939 C 278.981 4.24466 0.0540969 0
M  V30 2940 C 276.888 5.61701 -1.85055 0
M  V30 2941 H 275.818 0.749586 -0.0814657 0
M  V30 2942 H 278.469 1.61713 -0.867249 0
M  V30 2943 H 276.851 3.94442 0.350965 0
M  V30 2944 H 278.025 3.86636 -2.50698 0
M  V30 2945 H 276.34 3.57736 -2.13105 0
M  V30 2946 H 278.937 5.34698 0.0146723 0
M  V30 2947 H 279.28 4.01687 1.09332 0
M  V30 2948 H 279.813 3.93198 -0.603337 0
M  V30 2949 H 276.552 5.89312 -2.8704 0
M  V30 2950 H 276.072 5.88519 -1.15783 0
M  V30 2951 H 277.751 6.26524 -1.61484 0
M  V30 2952 N 277.883 0.443576 1.51229 0
M  V30 2953 C 279.132 -0.122332 2.01329 0
M  V30 2954 C 279.445 -1.43237 1.33201 0
M  V30 2955 O 280.651 -2.0816 1.74304 0
M  V30 2956 C 279.107 -0.268551 3.58897 0
M  V30 2957 C 278.715 1.03142 4.35965 0
M  V30 2958 C 280.459 -0.787894 4.17124 0
M  V30 2959 C 278.366 0.850504 5.85252 0
M  V30 2960 H 277.296 -0.0494929 0.752374 0
M  V30 2961 H 279.947 0.574289 1.74282 0
M  V30 2962 H 278.329 -1.02832 3.82415 0
M  V30 2963 H 279.503 1.80001 4.24189 0
M  V30 2964 H 277.818 1.47977 3.89219 0
M  V30 2965 H 280.415 -0.939841 5.26375 0
M  V30 2966 H 280.758 -1.77201 3.76703 0
M  V30 2967 H 281.291 -0.0862669 3.97706 0
M  V30 2968 H 278.03 1.80718 6.30096 0
M  V30 2969 H 277.55 0.121825 5.99676 0
M  V30 2970 H 279.229 0.506163 6.45017 0
M  V30 2971 N 279.361 -1.56624 0.175154 0
M  V30 2972 C 280.586 -2.01813 -0.478137 0
M  V30 2973 C 281.011 -1.05457 -1.55757 0
M  V30 2974 O 280.369 -0.0347439 -1.81267 0
M  V30 2975 C 280.417 -3.45581 -1.02987 0
M  V30 2976 O 279.521 -3.52305 -2.14371 0
M  V30 2977 H 278.862 -0.65413 -0.114059 0
M  V30 2978 H 281.392 -2.02673 0.280173 0
M  V30 2979 H 281.402 -3.84965 -1.35151 0
M  V30 2980 H 280.077 -4.1521 -0.239556 0
M  V30 2981 H 278.654 -3.24783 -1.83222 0
M  V30 2982 N 280.839 0.0985539 -1.57292 0
M  V30 2983 C 282.067 0.816318 -1.90115 0
M  V30 2984 C 282.482 1.72451 -0.768509 0
M  V30 2985 O 281.839 1.80643 0.259687 0
M  V30 2986 C 281.89 1.63259 -3.22535 0
M  V30 2987 O 281.611 0.760934 -4.31441 0
M  V30 2988 C 283.112 2.45372 -3.69199 0
M  V30 2989 H 280.332 0.233595 -0.629027 0
M  V30 2990 H 282.876 0.0768229 -2.04356 0
M  V30 2991 H 281.031 2.32463 -3.09903 0
M  V30 2992 H 281.445 1.32595 -5.07463 0
M  V30 2993 H 282.919 2.98144 -4.64558 0
M  V30 2994 H 283.396 3.23677 -2.96867 0
M  V30 2995 H 284.002 1.81373 -3.84687 0
M  V30 2996 N 282.317 1.53212 0.369288 0
M  V30 2997 C 283.547 1.72868 1.13139 0
M  V30 2998 C 283.955 0.455754 1.83629 0
M  V30 2999 O 283.298 -0.580861 1.74275 0
M  V30 3000 C 283.36 2.83667 2.20847 0
M  V30 3001 C 283.024 4.24142 1.70155 0
M  V30 3002 C 284.021 5.06619 1.16763 0
M  V30 3003 C 281.706 4.70539 1.7578 0
M  V30 3004 C 283.7 6.33581 0.696678 0
M  V30 3005 C 281.387 5.97481 1.28297 0
M  V30 3006 C 282.385 6.78833 0.753307 0
M  V30 3007 O 282.073 8.03393 0.285475 0
M  V30 3008 H 281.805 0.581707 0.344373 0
M  V30 3009 H 284.359 2.00736 0.435243 0
M  V30 3010 H 282.589 2.51265 2.93944 0
M  V30 3011 H 284.278 2.91536 2.82421 0
M  V30 3012 H 285.044 4.71948 1.11758 0
M  V30 3013 H 280.923 4.07293 2.15949 0
M  V30 3014 H 284.467 6.97027 0.282581 0
M  V30 3015 H 280.364 6.31651 1.32994 0
M  V30 3016 H 281.132 8.17497 0.405145 0
M  V30 3017 N 283.795 -0.628877 1.44509 0
M  V30 3018 C 285.043 -1.38565 1.4712 0
M  V30 3019 C 285.364 -1.94712 0.105899 0
M  V30 3020 O 284.634 -1.75912 -0.862079 0
M  V30 3021 H 283.214 -0.514333 0.541729 0
M  V30 3022 H 285.876 -0.740018 1.80305 0
M  V30 3023 H 284.972 -2.21583 2.19789 0
M  V30 3024 N 285.273 -1.31445 -0.869486 0
M  V30 3025 C 286.183 -1.21097 -2.0093 0
M  V30 3026 C 287.199 -0.127584 -1.73532 0
M  V30 3027 O 288.375 -0.345477 -1.98415 0
M  V30 3028 C 285.44 -0.919378 -3.34288 0
M  V30 3029 C 284.501 -2.08971 -3.75006 0
M  V30 3030 C 283.734 -1.81194 -5.02001 0
M  V30 3031 O 283.957 -0.747296 -5.65484 0
M  V30 3032 O 282.891 -2.66883 -5.39497 0
M  V30 3033 H 286.717 -2.16883 -2.12592 0
M  V30 3034 H 284.302 -1.11189 -0.997868 0
M  V30 3035 H 286.184 -0.772625 -4.14257 0
M  V30 3036 H 284.859 0.00844772 -3.23699 0
M  V30 3037 H 283.766 -2.29187 -2.95676 0
M  V30 3038 H 285.099 -2.9998 -3.90221 0
M  V30 3039 N 286.751 1.08385 -1.14413 0
M  V30 3040 C 287.999 1.80419 -0.910679 0
M  V30 3041 C 288.32 1.86658 0.564243 0
M  V30 3042 O 287.59 1.35985 1.41014 0
M  V30 3043 H 286.17 0.668204 -0.333934 0
M  V30 3044 H 288.832 1.31037 -1.44275 0
M  V30 3045 H 287.928 2.83238 -1.31082 0
M  V30 3046 N 288.23 0.939286 1.26551 0
M  V30 3047 C 289.14 0.453432 2.30176 0
M  V30 3048 C 290.156 -0.471649 1.67486 0
M  V30 3049 O 291.332 -0.35164 1.98306 0
M  V30 3050 C 288.397 -0.275326 3.45605 0
M  V30 3051 C 287.458 0.686084 4.23782 0
M  V30 3052 C 286.691 -0.00798994 5.33699 0
M  V30 3053 O 286.914 -1.22528 5.57085 0
M  V30 3054 O 285.848 0.669746 5.98162 0
M  V30 3055 H 289.674 1.31416 2.73795 0
M  V30 3056 H 287.259 0.705095 1.31715 0
M  V30 3057 H 289.141 -0.685911 4.1578 0
M  V30 3058 H 287.816 -1.11147 3.0402 0
M  V30 3059 H 286.723 1.14658 3.56096 0
M  V30 3060 H 288.056 1.48979 4.69112 0
M  V30 3061 N 289.708 -1.40897 0.706093 0
M  V30 3062 C 290.933 -2.05895 0.249435 0
M  V30 3063 C 291.358 -1.52823 -1.09666 0
M  V30 3064 O 290.716 -0.659589 -1.68876 0
M  V30 3065 C 290.764 -3.59872 0.22904 0
M  V30 3066 O 289.868 -4.04708 -0.792784 0
M  V30 3067 H 289.209 -0.653206 0.119241 0
M  V30 3068 H 291.739 -1.80471 0.96391 0
M  V30 3069 H 291.749 -4.07951 0.0634791 0
M  V30 3070 H 290.424 -3.97866 1.21141 0
M  V30 3071 H 289.001 -3.68111 -0.59572 0
M  V30 3072 N 291.186 -0.45159 -1.50991 0
M  V30 3073 C 292.434 0.109857 -2.01801 0
M  V30 3074 C 292.755 1.41958 -1.3369 0
M  V30 3075 O 292.025 1.9003 -0.475951 0
M  V30 3076 H 290.605 0.0435884 -0.745727 0
M  V30 3077 H 293.267 -0.597557 -1.85514 0
M  V30 3078 H 292.363 0.275489 -3.10882 0
M  V30 3079 N 292.664 1.56529 -0.183458 0
M  V30 3080 C 294.075 1.83739 0.331177 0
M  V30 3081 C 294.426 1.10373 1.62211 0
M  V30 3082 O 293.551 0.36071 2.13373 0
M  V30 3083 C 294.146 3.33306 0.607646 0
M  V30 3084 C 292.705 3.60969 1.06668 0
M  V30 3085 C 291.852 2.77086 0.109029 0
M  V30 3086 H 294.803 1.53379 -0.407484 0
M  V30 3087 H 294.824 3.51444 1.45832 0
M  V30 3088 H 294.336 3.86677 -0.332086 0
M  V30 3089 H 292.437 3.13021 2.0211 0
M  V30 3090 H 292.55 4.69231 0.967447 0
M  V30 3091 H 290.914 2.47319 0.608714 0
M  V30 3092 H 291.697 3.33241 -0.82494 0
M  V30 3093 N 294.142 -0.090211 1.57342 0
M  V30 3094 C 295.075 -1.14035 1.97664 0
M  V30 3095 C 296.053 -1.38576 0.850616 0
M  V30 3096 O 297.237 -1.52255 1.11134 0
M  V30 3097 C 294.364 -2.48854 2.2976 0
M  V30 3098 C 293.41 -2.40564 3.52181 0
M  V30 3099 S 294.243 -1.81745 5.03715 0
M  V30 3100 C 295.399 -3.18178 5.38993 0
M  V30 3101 H 295.632 -0.796636 2.86428 0
M  V30 3102 H 293.165 -0.298072 1.51496 0
M  V30 3103 H 295.123 -3.26413 2.48927 0
M  V30 3104 H 293.784 -2.80393 1.41558 0
M  V30 3105 H 292.977 -3.39942 3.72096 0
M  V30 3106 H 292.579 -1.71135 3.32549 0
M  V30 3107 H 294.871 -4.14461 5.35937 0
M  V30 3108 H 295.814 -3.03062 6.39968 0
M  V30 3109 H 296.222 -3.17935 4.66452 0
M  V30 3110 N 295.62 -1.53406 -0.361157 0
M  V30 3111 C 296.868 -1.69467 -1.10115 0
M  V30 3112 C 297.189 -0.451352 -1.89705 0
M  V30 3113 O 296.459 0.534636 -1.88463 0
M  V30 3114 H 295.039 -0.624749 -0.409508 0
M  V30 3115 H 297.701 -1.90609 -0.406699 0
M  V30 3116 H 296.797 -2.55774 -1.78847 0
M  V30 3117 N 297.098 0.621204 -1.44841 0
M  V30 3118 C 298.046 1.75385 -1.52784 0
M  V30 3119 C 299.04 1.64639 -0.398779 0
M  V30 3120 O 300.246 1.70598 -0.574137 0
M  V30 3121 H 296.621 0.579193 -0.479625 0
M  V30 3122 H 298.592 1.6581 -2.48092 0
M  V30 3123 C 297.341 3.13742 -1.4987 0
M  V30 3124 H 296.664 3.22663 -2.36069 0
M  V30 3125 H 298.104 3.92861 -1.59487 0
M  V30 3126 C 296.563 3.36175 -0.220973 0
M  V30 3127 O 297.093 3.95469 0.704782 0
M  V30 3128 N 295.299 2.90348 -0.120963 0
M  V30 3129 H 294.846 2.42278 -0.875162 0
M  V30 3130 H 294.804 3.05732 0.733168 0
M  V30 3131 N 298.576 1.31904 0.862503 0
M  V30 3132 C 299.825 1.21373 1.61094 0
M  V30 3133 C 300.138 -0.22504 1.94301 0
M  V30 3134 O 301.344 -0.452121 2.67709 0
M  V30 3135 C 299.8 2.12525 2.9045 0
M  V30 3136 C 299.408 3.61441 2.64697 0
M  V30 3137 C 301.152 2.10813 3.68454 0
M  V30 3138 C 299.059 4.44578 3.90006 0
M  V30 3139 H 297.989 0.450705 0.604468 0
M  V30 3140 H 300.64 1.56811 0.953027 0
M  V30 3141 H 299.022 1.69994 3.57656 0
M  V30 3142 H 300.196 4.12264 2.05851 0
M  V30 3143 H 298.511 3.65205 2.00036 0
M  V30 3144 H 301.108 2.70167 4.61426 0
M  V30 3145 H 301.451 1.09713 4.01583 0
M  V30 3146 H 301.984 2.51583 3.08141 0
M  V30 3147 H 298.723 5.46461 3.62023 0
M  V30 3148 H 298.243 3.98508 4.48276 0
M  V30 3149 H 299.922 4.57176 4.5782 0
M  V30 3150 N 300.054 -1.07777 1.14986 0
M  V30 3151 C 300.987 -2.14228 0.786243 0
M  V30 3152 C 301.965 -1.60888 -0.235347 0
M  V30 3153 O 303.149 -1.88099 -0.122909 0
M  V30 3154 C 300.276 -3.38281 0.168433 0
M  V30 3155 C 299.322 -4.10387 1.16123 0
M  V30 3156 S 300.155 -4.62371 2.70135 0
M  V30 3157 C 301.311 -5.89704 2.09762 0
M  V30 3158 H 301.544 -2.44741 1.68787 0
M  V30 3159 H 299.077 -1.19984 0.971756 0
M  V30 3160 H 301.035 -4.10098 -0.181588 0
M  V30 3161 H 299.696 -3.05953 -0.710725 0
M  V30 3162 H 298.889 -4.99431 0.677086 0
M  V30 3163 H 298.491 -3.44513 1.45556 0
M  V30 3164 H 300.783 -6.61648 1.45701 0
M  V30 3165 H 301.726 -6.42824 2.96955 0
M  V30 3166 H 302.134 -5.4302 1.54239 0
M  V30 3167 N 301.532 -0.945985 -1.26051 0
M  V30 3168 C 302.781 -0.591836 -1.92822 0
M  V30 3169 C 303.094 0.873956 -1.7499 0
M  V30 3170 O 304.3 1.33769 -2.36259 0
M  V30 3171 C 302.756 -1.00776 -3.45503 0
M  V30 3172 C 302.364 -2.4955 -3.7206 0
M  V30 3173 C 304.108 -0.725735 -4.1825 0
M  V30 3174 C 302.015 -2.84988 -5.18205 0
M  V30 3175 H 300.945 -0.217635 -0.721908 0
M  V30 3176 H 303.596 -1.14927 -1.43052 0
M  V30 3177 H 301.978 -0.378812 -3.94184 0
M  V30 3178 H 303.152 -3.1739 -3.34066 0
M  V30 3179 H 301.467 -2.75133 -3.12555 0
M  V30 3180 H 304.064 -0.966771 -5.25887 0
M  V30 3181 H 304.407 0.337639 -4.14929 0
M  V30 3182 H 304.94 -1.31463 -3.7545 0
M  V30 3183 H 301.679 -3.90307 -5.26631 0
M  V30 3184 H 301.199 -2.21813 -5.57278 0
M  V30 3185 H 302.878 -2.73712 -5.86252 0
M  V30 3186 N 303.011 1.40521 -0.713556 0
M  V30 3187 C 304.288 1.94775 -0.17943 0
M  V30 3188 C 304.668 1.65184 1.31444 0
M  V30 3189 O 304.016 0.968429 2.06963 0
M  V30 3190 C 304.226 3.45543 -0.489986 0
M  V30 3191 C 305.574 4.22442 -0.427536 0
M  V30 3192 O 306.598 3.53644 -0.425929 0
M  V30 3193 O 305.457 5.4501 -0.403292 0
M  V30 3194 H 302.551 0.826606 -0.0255192 0
M  V30 3195 H 305.097 1.5014 -0.790949 0
M  V30 3196 H 303.869 3.60432 -1.5233 0
M  V30 3197 H 303.492 3.97311 0.151598 0
M  V30 3198 N 304.489 0.459591 1.5075 0
M  V30 3199 C 305.9 0.00171547 1.867 0
M  V30 3200 C 306.251 -1.39934 1.37525 0
M  V30 3201 O 305.376 -2.03523 0.735349 0
M  V30 3202 C 305.971 -0.00366298 3.388 0
M  V30 3203 C 304.53 -0.406026 3.74204 0
M  V30 3204 C 303.677 0.38673 2.7459 0
M  V30 3205 H 306.628 0.674413 1.43657 0
M  V30 3206 H 306.649 -0.808371 3.71814 0
M  V30 3207 H 306.161 1.01617 3.74561 0
M  V30 3208 H 304.262 -1.43063 3.4404 0
M  V30 3209 H 304.375 -0.115362 4.78961 0
M  V30 3210 H 302.739 -0.158019 2.54209 0
M  V30 3211 H 303.522 1.40585 3.13194 0
M  V30 3212 N 305.967 -1.56429 0.191757 0
M  V30 3213 C 307.213 -1.97777 -0.448554 0
M  V30 3214 C 307.546 -1.07847 -1.61501 0
M  V30 3215 O 306.821 -0.129774 -1.94067 0
M  V30 3216 C 307.104 -3.48362 -0.911906 0
M  V30 3217 C 306.957 -4.4907 0.256136 0
M  V30 3218 C 308.276 -4.02561 -1.77857 0
M  V30 3219 H 305.395 -0.719071 -0.161572 0
M  V30 3220 H 308.037 -1.87896 0.282007 0
M  V30 3221 H 306.187 -3.56914 -1.53442 0
M  V30 3222 H 307.859 -4.5256 0.893733 0
M  V30 3223 H 306.102 -4.24181 0.908436 0
M  V30 3224 H 306.773 -5.51889 -0.11053 0
M  V30 3225 H 309.249 -3.96767 -1.25359 0
M  V30 3226 H 308.125 -5.08301 -2.07174 0
M  V30 3227 H 308.386 -3.47616 -2.73158 0
M  V30 3228 N 307.445 0.0818655 -1.57387 0
M  V30 3229 C 308.375 1.09885 -2.06028 0
M  V30 3230 C 309.356 1.4098 -0.951774 0
M  V30 3231 O 310.541 1.50781 -1.22387 0
M  V30 3232 C 307.671 2.4151 -2.4958 0
M  V30 3233 C 306.625 2.24792 -3.64215 0
M  V30 3234 C 305.951 3.61712 -3.93787 0
M  V30 3235 C 307.251 1.67749 -4.94629 0
M  V30 3236 H 308.945 0.694128 -2.91243 0
M  V30 3237 H 306.491 0.332448 -1.4011 0
M  V30 3238 H 308.444 3.12939 -2.82219 0
M  V30 3239 H 307.168 2.83943 -1.61381 0
M  V30 3240 H 305.827 1.55807 -3.31843 0
M  V30 3241 H 305.475 4.01697 -3.02735 0
M  V30 3242 H 305.175 3.51368 -4.70971 0
M  V30 3243 H 306.699 4.34587 -4.28913 0
M  V30 3244 H 308.113 2.29032 -5.25564 0
M  V30 3245 H 306.51 1.68128 -5.76067 0
M  V30 3246 H 307.58 0.638059 -4.80684 0
M  V30 3247 N 308.923 1.53595 0.353017 0
M  V30 3248 C 310.171 1.70049 1.09215 0
M  V30 3249 C 310.492 0.461406 1.89463 0
M  V30 3250 O 309.762 -0.524633 1.88744 0
M  V30 3251 H 308.342 0.626912 0.40619 0
M  V30 3252 H 311.004 1.90822 0.396585 0
M  V30 3253 H 310.1 2.56718 1.77488 0
M  V30 3254 N 310.401 -0.613514 1.45168 0
M  V30 3255 C 311.629 -1.39946 1.5239 0
M  V30 3256 C 312.044 -1.88167 0.154531 0
M  V30 3257 O 311.401 -1.61872 -0.842843 0
M  V30 3258 C 311.452 -2.60795 2.50337 0
M  V30 3259 O 311.173 -2.1458 3.81952 0
M  V30 3260 C 312.674 -3.53723 2.67198 0
M  V30 3261 H 309.894 -0.428593 0.516284 0
M  V30 3262 H 312.438 -0.748753 1.903 0
M  V30 3263 H 310.593 -3.21919 2.15515 0
M  V30 3264 H 311.007 -2.93055 4.34993 0
M  V30 3265 H 312.481 -4.35079 3.39721 0
M  V30 3266 H 312.958 -4.0368 1.73029 0
M  V30 3267 H 313.564 -2.98456 3.02992 0
M  V30 3268 N 311.879 -1.3236 -0.855495 0
M  V30 3269 C 313.125 -1.23054 -1.612 0
M  V30 3270 C 313.458 0.207404 -1.93089 0
M  V30 3271 O 312.733 1.14432 -1.57275 0
M  V30 3272 C 313.016 -2.08937 -2.93287 0
M  V30 3273 C 312.869 -3.61105 -2.68185 0
M  V30 3274 C 314.188 -1.94986 -3.94549 0
M  V30 3275 H 311.307 -0.448364 -0.584926 0
M  V30 3276 H 313.949 -1.62297 -0.987917 0
M  V30 3277 H 312.099 -1.75599 -3.46551 0
M  V30 3278 H 313.771 -4.04652 -2.21483 0
M  V30 3279 H 312.014 -3.83813 -2.02164 0
M  V30 3280 H 312.685 -4.16522 -3.62234 0
M  V30 3281 H 315.161 -2.24189 -3.5054 0
M  V30 3282 H 314.037 -2.57356 -4.84829 0
M  V30 3283 H 314.298 -0.917263 -4.3248 0
M  V30 3284 N 313.357 1.07166 -1.15556 0
M  V30 3285 C 314.605 1.79443 -0.929764 0
M  V30 3286 C 314.926 1.87246 0.544414 0
M  V30 3287 O 314.196 1.37473 1.39564 0
M  V30 3288 H 312.776 0.664625 -0.341003 0
M  V30 3289 H 315.438 1.29499 -1.45657 0
M  V30 3290 H 314.534 2.81832 -1.34079 0
M  V30 3291 N 314.835 0.952656 1.25548 0
M  V30 3292 C 316.082 0.606373 1.93208 0
M  V30 3293 C 316.41 -0.85631 1.74636 0
M  V30 3294 O 315.665 -1.62951 1.08376 0
M  V30 3295 C 315.964 0.908818 3.45652 0
M  V30 3296 C 315.63 2.35722 3.84378 0
M  V30 3297 C 314.292 2.75312 3.9466 0
M  V30 3298 C 316.644 3.29793 4.03591 0
M  V30 3299 C 313.972 4.08047 4.21562 0
M  V30 3300 C 316.324 4.62138 4.31985 0
M  V30 3301 C 314.988 5.01528 4.40484 0
M  V30 3302 H 314.258 0.221888 0.706998 0
M  V30 3303 H 316.905 1.20132 1.49133 0
M  V30 3304 H 315.21 0.231456 3.91116 0
M  V30 3305 H 316.907 0.619498 3.96186 0
M  V30 3306 H 313.497 2.04017 3.76928 0
M  V30 3307 H 317.681 3.00397 3.95064 0
M  V30 3308 H 312.937 4.38212 4.26357 0
M  V30 3309 H 317.111 5.35012 4.45797 0
M  V30 3310 H 314.738 6.04406 4.61083 0
M  V30 3311 N 316.313 -1.40141 0.720998 0
M  V30 3312 C 317.561 -2.0039 0.262323 0
M  V30 3313 C 317.882 -1.57469 -1.15015 0
M  V30 3314 O 317.152 -0.816582 -1.78069 0
M  V30 3315 H 315.732 -0.741063 0.093996 0
M  V30 3316 H 318.394 -1.71398 0.927835 0
M  V30 3317 H 317.49 -3.10658 0.299671 0
M  V30 3318 N 317.792 -0.46758 -1.50504 0
M  V30 3319 C 319.017 0.0886943 -2.0721 0
M  V30 3320 C 319.442 1.33057 -1.32956 0
M  V30 3321 O 318.8 1.77354 -0.376197 0
M  V30 3322 C 318.848 0.359202 -3.58806 0
M  V30 3323 O 317.952 1.44034 -3.8643 0
M  V30 3324 H 317.293 -0.0114349 -0.663902 0
M  V30 3325 H 319.823 -0.657613 -1.93744 0
M  V30 3326 H 319.833 0.600742 -4.03553 0
M  V30 3327 H 318.508 -0.548311 -4.1227 0
M  V30 3328 H 317.085 1.18638 -3.53524 0
M  V30 3329 N 319.27 1.56325 -0.20005 0
M  V30 3330 C 320.518 1.97329 0.436547 0
M  V30 3331 C 320.839 1.08826 1.61808 0
M  V30 3332 O 320.109 0.160604 1.95241 0
M  V30 3333 H 318.689 0.728714 0.164272 0
M  V30 3334 H 321.351 1.92761 -0.287937 0
M  V30 3335 H 320.447 3.02264 0.777353 0
M  V30 3336 N 320.748 -0.0735177 1.57428 0
M  V30 3337 C 321.678 -1.0879 2.06608 0
M  V30 3338 C 322.659 -1.40473 0.959237 0
M  V30 3339 O 323.844 -1.5013 1.23185 0
M  V30 3340 C 320.974 -2.40183 2.50857 0
M  V30 3341 C 319.928 -2.22858 3.65402 0
M  V30 3342 C 319.254 -3.59619 3.957 0
M  V30 3343 C 320.554 -1.65123 4.95511 0
M  V30 3344 H 322.248 -0.678673 2.91607 0
M  V30 3345 H 319.794 -0.325013 1.40284 0
M  V30 3346 H 321.747 -3.11437 2.83874 0
M  V30 3347 H 320.471 -2.83083 1.62885 0
M  V30 3348 H 319.13 -1.54045 3.32664 0
M  V30 3349 H 318.778 -4.00086 3.04861 0
M  V30 3350 H 318.478 -3.48866 4.72828 0
M  V30 3351 H 320.002 -4.32306 4.31212 0
M  V30 3352 H 321.416 -2.26241 5.26771 0
M  V30 3353 H 319.813 -1.65071 5.7695 0
M  V30 3354 H 320.883 -0.612559 4.81015 0
M  V30 3355 N 322.226 -1.5378 -0.344866 0
M  V30 3356 C 323.176 -1.78057 -1.42407 0
M  V30 3357 C 324.16 -0.635732 -1.47808 0
M  V30 3358 O 325.352 -0.89508 -1.527 0
M  V30 3359 C 322.481 -1.99242 -2.79566 0
M  V30 3360 C 321.567 -3.19787 -2.78562 0
M  V30 3361 N 321.958 -4.41284 -2.47189 0
M  V30 3362 C 320.256 -3.2093 -3.0971 0
M  V30 3363 C 320.957 -5.23128 -2.54385 0
M  V30 3364 N 319.933 -4.59813 -2.89953 0
M  V30 3365 H 323.735 -2.69588 -1.17046 0
M  V30 3366 H 321.249 -1.52687 -0.553217 0
M  V30 3367 H 323.246 -2.14768 -3.57324 0
M  V30 3368 H 321.906 -1.08953 -3.05875 0
M  V30 3369 H 322.917 -4.68657 -2.20411 0
M  V30 3370 H 319.594 -2.40603 -3.41199 0
M  V30 3371 H 320.984 -6.30096 -2.333 0
M  V30 3372 N 323.704 0.605807 -1.45491 0
M  V30 3373 C 324.952 1.36207 -1.49305 0
M  V30 3374 C 325.273 1.94519 -0.136863 0
M  V30 3375 O 324.543 1.77261 0.833983 0
M  V30 3376 H 323.123 0.50565 -0.549843 0
M  V30 3377 H 325.785 0.711239 -1.81459 0
M  V30 3378 H 324.881 2.18058 -2.23287 0
M  V30 3379 N 325.182 1.32811 0.848464 0
M  V30 3380 C 326.428 1.24917 1.60522 0
M  V30 3381 C 326.783 -0.185761 1.91501 0
M  V30 3382 O 326.076 -1.12524 1.55077 0
M  V30 3383 C 326.27 2.04831 2.92881 0
M  V30 3384 C 326.099 3.55949 2.74828 0
M  V30 3385 C 324.869 4.25277 2.72887 0
M  V30 3386 C 327.067 4.50476 2.48145 0
M  V30 3387 N 325.049 5.62408 2.46111 0
M  V30 3388 C 326.42 5.75427 2.30832 0
M  V30 3389 C 328.475 4.39665 2.33664 0
M  V30 3390 C 327.178 6.90789 2.00508 0
M  V30 3391 C 329.204 5.54833 2.04731 0
M  V30 3392 C 328.566 6.78787 1.88223 0
M  V30 3393 H 324.665 0.512279 0.590842 0
M  V30 3394 H 327.249 1.67246 0.996839 0
M  V30 3395 H 325.42 1.64837 3.51686 0
M  V30 3396 H 327.152 1.88782 3.57971 0
M  V30 3397 H 323.907 3.77456 2.86049 0
M  V30 3398 H 324.331 6.3467 2.35634 0
M  V30 3399 H 328.973 3.44477 2.45144 0
M  V30 3400 H 326.691 7.85984 1.87765 0
M  V30 3401 H 330.277 5.48398 1.94295 0
M  V30 3402 H 329.157 7.66396 1.66155 0
M  V30 3403 N 326.66 -1.06551 1.16123 0
M  V30 3404 C 327.623 -2.12132 0.867906 0
M  V30 3405 C 328.623 -1.60224 -0.135944 0
M  V30 3406 O 329.813 -1.73943 0.0946422 0
M  V30 3407 C 326.945 -3.396 0.297419 0
M  V30 3408 H 328.138 -2.39586 1.80385 0
M  V30 3409 H 325.691 -1.22574 0.969812 0
M  V30 3410 H 326.426 -3.17794 -0.64633 0
M  V30 3411 H 326.211 -3.78581 1.02073 0
M  V30 3412 H 327.701 -4.17455 0.110052 0
M  V30 3413 N 328.138 -0.959301 -1.25041 0
M  V30 3414 C 329.385 -0.616611 -1.92884 0
M  V30 3415 C 329.713 0.847036 -1.75087 0
M  V30 3416 O 328.968 1.62374 -1.09239 0
M  V30 3417 C 329.267 -0.927136 -3.45165 0
M  V30 3418 C 328.933 -2.37757 -3.83122 0
M  V30 3419 C 327.595 -2.77402 -3.93194 0
M  V30 3420 C 329.947 -3.31929 -4.01836 0
M  V30 3421 C 327.275 -4.10277 -4.19392 0
M  V30 3422 C 329.627 -4.64423 -4.29528 0
M  V30 3423 C 328.291 -5.03857 -4.37818 0
M  V30 3424 H 327.561 -0.225634 -0.705812 0
M  V30 3425 H 330.208 -1.20921 -1.48493 0
M  V30 3426 H 328.513 -0.252195 -3.90987 0
M  V30 3427 H 330.21 -0.6405 -3.95852 0
M  V30 3428 H 326.8 -2.06013 -3.75841 0
M  V30 3429 H 330.984 -3.02488 -3.93465 0
M  V30 3430 H 326.24 -4.40467 -4.24027 0
M  V30 3431 H 330.414 -5.37369 -4.42953 0
M  V30 3432 H 328.041 -6.06843 -4.57871 0
M  V30 3433 N 329.616 1.39756 -0.72842 0
M  V30 3434 C 330.844 2.04948 -0.283528 0
M  V30 3435 C 331.259 1.54908 1.0793 0
M  V30 3436 O 330.616 0.711135 1.68075 0
M  V30 3437 C 330.667 3.60498 -0.268957 0
M  V30 3438 O 330.388 4.08695 -1.57798 0
M  V30 3439 C 331.889 4.4288 0.192912 0
M  V30 3440 H 329.109 0.659243 -0.125056 0
M  V30 3441 H 331.653 1.78927 -0.990226 0
M  V30 3442 H 329.808 3.85444 0.388801 0
M  V30 3443 H 330.222 5.02977 -1.48709 0
M  V30 3444 H 331.696 5.51791 0.151952 0
M  V30 3445 H 332.173 4.21418 1.23708 0
M  V30 3446 H 332.779 4.23069 -0.435039 0
M  V30 3447 N 331.094 0.475555 1.50254 0
M  V30 3448 C 332.024 -0.30611 2.31485 0
M  V30 3449 C 333.005 -0.986228 1.38591 0
M  V30 3450 O 334.19 -0.982541 1.67511 0
M  V30 3451 C 331.32 -1.38588 3.1845 0
M  V30 3452 C 330.274 -0.827115 4.19932 0
M  V30 3453 C 329.6 -2.00551 4.95665 0
M  V30 3454 C 330.9 0.16463 5.2204 0
M  V30 3455 H 332.594 0.371866 2.97082 0
M  V30 3456 H 330.14 0.180282 1.42867 0
M  V30 3457 H 332.093 -1.94023 3.74076 0
M  V30 3458 H 330.817 -2.09269 2.50747 0
M  V30 3459 H 329.476 -0.294702 3.65414 0
M  V30 3460 H 329.124 -2.6994 4.2443 0
M  V30 3461 H 328.824 -1.63784 5.64313 0
M  V30 3462 H 330.348 -2.56468 5.54127 0
M  V30 3463 H 331.762 -0.300699 5.72511 0
M  V30 3464 H 330.159 0.446813 5.98434 0
M  V30 3465 H 331.229 1.08905 4.72512 0
M  V30 3466 N 332.573 -1.56217 0.208337 0
M  V30 3467 C 333.52 -2.19699 -0.707192 0
M  V30 3468 C 334.49 -1.14836 -1.20008 0
M  V30 3469 O 335.675 -1.4314 -1.26157 0
M  V30 3470 C 332.815 -2.87061 -1.91546 0
M  V30 3471 C 331.928 -4.06483 -1.46271 0
M  V30 3472 C 331.063 -4.61665 -2.62752 0
M  V30 3473 C 330.102 -5.73417 -2.14147 0
M  V30 3474 N 329.239 -6.22948 -3.23853 0
M  V30 3475 H 334.079 -2.97575 -0.159111 0
M  V30 3476 H 331.616 -1.46948 -0.0667874 0
M  V30 3477 H 333.574 -3.24294 -2.62468 0
M  V30 3478 H 332.204 -2.11725 -2.43664 0
M  V30 3479 H 331.256 -3.74825 -0.648886 0
M  V30 3480 H 332.568 -4.87271 -1.06622 0
M  V30 3481 H 331.722 -5.01272 -3.41776 0
M  V30 3482 H 330.461 -3.80013 -3.05682 0
M  V30 3483 H 329.466 -5.33326 -1.33581 0
M  V30 3484 H 330.691 -6.56897 -1.72232 0
M  V30 3485 H 328.637 -5.44213 -3.6629 0
M  V30 3486 H 328.554 -6.98823 -2.88414 0
M  V30 3487 H 329.822 -6.6721 -4.03052 0
M  V30 3488 N 334.051 0.0651679 -1.57465 0
M  V30 3489 C 334.983 1.10359 -2.00882 0
M  V30 3490 C 335.996 1.346 -0.915788 0
M  V30 3491 O 337.185 1.32723 -1.1936 0
M  V30 3492 C 334.285 2.45312 -2.33828 0
M  V30 3493 C 333.458 2.40934 -3.65061 0
M  V30 3494 C 332.517 3.58047 -3.85602 0
M  V30 3495 O 331.543 3.39175 -4.57109 0
M  V30 3496 N 332.745 4.78637 -3.28462 0
M  V30 3497 H 335.51 0.733807 -2.90578 0
M  V30 3498 H 333.071 0.253719 -1.599 0
M  V30 3499 H 335.063 3.22314 -2.44737 0
M  V30 3500 H 333.633 2.74267 -1.49988 0
M  V30 3501 H 332.853 1.49273 -3.64844 0
M  V30 3502 H 334.141 2.35117 -4.51218 0
M  V30 3503 H 333.539 4.96872 -2.70433 0
M  V30 3504 H 332.096 5.53127 -3.44809 0
M  V30 3505 N 335.529 1.53961 0.336706 0
M  V30 3506 C 336.776 1.71536 1.07618 0
M  V30 3507 C 337.104 0.482125 1.8843 0
M  V30 3508 O 336.359 -0.536142 1.88213 0
M  V30 3509 C 336.658 2.93493 2.03953 0
M  V30 3510 C 336.324 4.28811 1.39399 0
M  V30 3511 C 334.986 4.65602 1.21523 0
M  V30 3512 C 337.338 5.12844 0.929541 0
M  V30 3513 C 334.666 5.84037 0.558312 0
M  V30 3514 C 337.018 6.31951 0.286505 0
M  V30 3515 C 335.682 6.67432 0.0954869 0
M  V30 3516 H 334.952 0.627696 0.393801 0
M  V30 3517 H 337.599 1.88186 0.354715 0
M  V30 3518 H 335.904 2.71475 2.82504 0
M  V30 3519 H 337.601 3.04285 2.61174 0
M  V30 3520 H 334.191 3.99858 1.54311 0
M  V30 3521 H 338.375 4.84947 1.05548 0
M  V30 3522 H 333.631 6.10097 0.398995 0
M  V30 3523 H 337.805 6.96352 -0.0814376 0
M  V30 3524 H 335.432 7.59063 -0.415579 0
M  V30 3525 N 337.007 -0.598083 1.45811 0
M  V30 3526 C 337.97 -1.69018 1.54808 0
M  V30 3527 C 338.97 -1.55037 0.426652 0
M  V30 3528 O 340.16 -1.59932 0.690456 0
M  V30 3529 C 337.292 -3.0835 1.45371 0
M  V30 3530 H 338.485 -1.62403 2.52121 0
M  V30 3531 H 336.038 -0.814626 1.33392 0
M  V30 3532 H 336.773 -3.20534 0.492793 0
M  V30 3533 H 336.558 -3.19907 2.26721 0
M  V30 3534 H 338.048 -3.8788 1.54721 0
M  V30 3535 N 338.485 -1.33259 -0.841409 0
M  V30 3536 C 339.395 -1.25332 -1.98316 0
M  V30 3537 C 340.411 -0.164364 -1.73222 0
M  V30 3538 O 341.587 -0.387486 -1.97637 0
M  V30 3539 C 338.652 -0.990078 -3.32262 0
M  V30 3540 C 337.713 -2.16879 -3.70489 0
M  V30 3541 C 336.946 -1.91801 -4.98044 0
M  V30 3542 O 337.169 -0.867075 -5.63771 0
M  V30 3543 O 336.103 -2.78267 -5.33714 0
M  V30 3544 H 339.929 -2.21344 -2.07944 0
M  V30 3545 H 337.514 -1.1328 -0.974058 0
M  V30 3546 H 339.396 -0.860321 -4.12524 0
M  V30 3547 H 338.071 -0.0602155 -3.23644 0
M  V30 3548 H 336.978 -2.35407 -2.90748 0
M  V30 3549 H 338.311 -3.0819 -3.8377 0
M  V30 3550 N 339.963 1.05934 -1.16686 0
M  V30 3551 C 340.896 2.1295 -0.820225 0
M  V30 3552 C 341.874 1.61242 0.209722 0
M  V30 3553 O 343.058 1.88271 0.0929688 0
M  V30 3554 C 340.185 3.3797 -0.22223 0
M  V30 3555 C 339.231 4.08488 -1.22637 0
M  V30 3556 S 340.064 4.58015 -2.77457 0
M  V30 3557 C 341.22 5.86292 -2.19117 0
M  V30 3558 H 341.453 2.42025 -1.72659 0
M  V30 3559 H 338.986 1.18423 -0.990722 0
M  V30 3560 H 340.944 4.10335 0.116322 0
M  V30 3561 H 339.605 3.07045 0.66196 0
M  V30 3562 H 338.798 4.98291 -0.756455 0
M  V30 3563 H 338.4 3.42154 -1.51019 0
M  V30 3564 H 340.692 6.59246 -1.56209 0
M  V30 3565 H 341.635 6.38019 -3.07144 0
M  V30 3566 H 342.043 5.40497 -1.62858 0
M  V30 3567 N 341.441 0.965919 1.2453 0
M  V30 3568 C 342.671 0.643451 1.96324 0
M  V30 3569 C 343.079 -0.790927 1.71875 0
M  V30 3570 O 342.422 -1.54208 0.998273 0
M  V30 3571 C 342.484 0.836078 3.49643 0
M  V30 3572 C 342.148 2.24975 3.97788 0
M  V30 3573 C 343.145 3.22735 4.07601 0
M  V30 3574 C 340.83 2.57697 4.31158 0
M  V30 3575 C 342.824 4.51303 4.50116 0
M  V30 3576 C 340.511 3.86492 4.73357 0
M  V30 3577 C 341.509 4.83107 4.828 0
M  V30 3578 O 341.197 6.09605 5.24058 0
M  V30 3579 H 340.929 0.239223 0.632257 0
M  V30 3580 H 343.483 1.29587 1.59362 0
M  V30 3581 H 341.713 0.12649 3.86493 0
M  V30 3582 H 343.402 0.512965 4.02646 0
M  V30 3583 H 344.168 2.98783 3.82039 0
M  V30 3584 H 340.047 1.83216 4.23028 0
M  V30 3585 H 343.591 5.26716 4.57401 0
M  V30 3586 H 339.488 4.10245 4.98366 0
M  V30 3587 H 340.256 6.13146 5.42213 0
M  V30 3588 N 342.919 -1.39368 0.735821 0
M  V30 3589 C 344.165 -2.00794 0.284544 0
M  V30 3590 C 344.498 -1.58255 -1.12557 0
M  V30 3591 O 343.773 -0.811819 -1.76748 0
M  V30 3592 C 344.056 -3.58011 0.387337 0
M  V30 3593 C 343.909 -4.10566 1.83728 0
M  V30 3594 C 345.228 -4.395 -0.22975 0
M  V30 3595 H 342.347 -0.729501 0.104866 0
M  V30 3596 H 344.989 -1.65564 0.93213 0
M  V30 3597 H 343.139 -3.88154 -0.164006 0
M  V30 3598 H 344.811 -3.91139 2.44556 0
M  V30 3599 H 343.054 -3.64095 2.35833 0
M  V30 3600 H 343.725 -5.19702 1.86047 0
M  V30 3601 H 346.201 -4.15406 0.240257 0
M  V30 3602 H 345.077 -5.48752 -0.127485 0
M  V30 3603 H 345.338 -4.22062 -1.3159 0
M  V30 3604 N 344.397 -0.483516 -1.5 0
M  V30 3605 C 345.36 0.292965 -2.2732 0
M  V30 3606 C 346.36 0.909499 -1.32608 0
M  V30 3607 O 347.55 0.776745 -1.55924 0
M  V30 3608 C 344.682 1.41854 -3.09984 0
M  V30 3609 H 345.875 -0.385289 -2.97415 0
M  V30 3610 H 343.428 -0.237942 -1.54478 0
M  V30 3611 H 344.163 2.13148 -2.44414 0
M  V30 3612 H 343.948 0.982114 -3.79601 0
M  V30 3613 H 345.438 1.96597 -3.68429 0
M  V30 3614 N 345.875 1.56104 -0.216619 0
M  V30 3615 C 346.822 2.2007 0.695531 0
M  V30 3616 C 347.792 1.15471 1.19397 0
M  V30 3617 O 348.977 1.43807 1.25396 0
M  V30 3618 C 346.117 2.88073 1.90021 0
M  V30 3619 C 345.23 4.07253 1.44113 0
M  V30 3620 C 344.365 4.63052 2.603 0
M  V30 3621 C 343.404 5.74545 2.11103 0
M  V30 3622 N 342.541 6.24656 3.20545 0
M  V30 3623 H 347.381 2.97655 0.143327 0
M  V30 3624 H 344.918 1.46982 0.0589934 0
M  V30 3625 H 346.876 3.25681 2.60745 0
M  V30 3626 H 345.506 2.13015 2.42538 0
M  V30 3627 H 344.558 3.75164 0.628999 0
M  V30 3628 H 345.87 4.8783 1.04036 0
M  V30 3629 H 345.024 5.03078 3.39113 0
M  V30 3630 H 343.763 3.81628 3.03663 0
M  V30 3631 H 342.768 5.34027 1.3075 0
M  V30 3632 H 343.993 6.57801 1.68746 0
M  V30 3633 H 341.939 5.46148 3.63399 0
M  V30 3634 H 341.856 7.00343 2.84704 0
M  V30 3635 H 343.124 6.69338 3.99508 0
M  V30 3636 N 347.353 -0.0568162 1.57498 0
M  V30 3637 C 348.6 -0.753104 1.87975 0
M  V30 3638 C 348.928 -1.76815 0.81035 0
M  V30 3639 O 348.183 -1.94756 -0.19199 0
M  V30 3640 C 348.482 -1.48359 3.25153 0
M  V30 3641 C 348.148 -0.60713 4.46794 0
M  V30 3642 C 346.81 -0.365642 4.79809 0
M  V30 3643 C 349.162 -0.000305978 5.212 0
M  V30 3644 C 346.49 0.491905 5.84634 0
M  V30 3645 C 348.842 0.844781 6.26934 0
M  V30 3646 C 347.506 1.096 6.58441 0
M  V30 3647 H 346.776 -0.27558 0.687849 0
M  V30 3648 H 349.423 -0.0135173 1.91495 0
M  V30 3649 H 347.728 -2.29577 3.17492 0
M  V30 3650 H 349.425 -2.02739 3.45974 0
M  V30 3651 H 346.015 -0.805487 4.20963 0
M  V30 3652 H 350.199 -0.173961 4.95995 0
M  V30 3653 H 345.455 0.695131 6.07436 0
M  V30 3654 H 349.629 1.32165 6.83744 0
M  V30 3655 H 347.256 1.76224 7.39492 0
M  V30 3656 N 348.832 -1.54138 -0.328536 0
M  V30 3657 C 349.795 -1.82462 -1.38709 0
M  V30 3658 C 350.795 -0.696229 -1.44946 0
M  V30 3659 O 351.985 -0.964535 -1.4506 0
M  V30 3660 C 349.117 -1.98018 -2.77492 0
M  V30 3661 H 350.31 -2.77037 -1.14851 0
M  V30 3662 H 347.863 -1.45779 -0.563751 0
M  V30 3663 H 348.598 -1.05637 -3.06613 0
M  V30 3664 H 348.383 -2.80124 -2.74359 0
M  V30 3665 H 349.873 -2.21396 -3.54081 0
M  V30 3666 N 350.31 0.590341 -1.46126 0
M  V30 3667 C 351.273 1.68194 -1.55703 0
M  V30 3668 C 352.273 1.54808 -0.434868 0
M  V30 3669 O 353.463 1.59564 -0.698928 0
M  V30 3670 C 350.595 3.07575 -1.47005 0
M  V30 3671 H 351.788 1.61064 -2.52979 0
M  V30 3672 H 349.341 0.807541 -1.33823 0
M  V30 3673 H 350.076 3.20268 -0.509785 0
M  V30 3674 H 349.861 3.187 -2.28414 0
M  V30 3675 H 351.351 3.87055 -1.56776 0
M  V30 3676 N 351.788 1.33704 0.83433 0
M  V30 3677 C 352.735 1.24335 1.94447 0
M  V30 3678 C 353.705 0.120991 1.65659 0
M  V30 3679 O 354.89 0.300035 1.88426 0
M  V30 3680 C 352.03 0.993124 3.30501 0
M  V30 3681 C 351.143 2.20217 3.71657 0
M  V30 3682 C 350.278 1.88572 4.96602 0
M  V30 3683 C 349.317 3.05683 5.30306 0
M  V30 3684 N 348.454 2.73997 6.46429 0
M  V30 3685 H 353.294 2.1928 2.01792 0
M  V30 3686 H 350.831 1.09035 0.987404 0
M  V30 3687 H 352.789 0.828467 4.08892 0
M  V30 3688 H 351.419 0.0803902 3.227 0
M  V30 3689 H 350.471 2.47642 2.88752 0
M  V30 3690 H 351.783 3.07752 3.92543 0
M  V30 3691 H 350.937 1.68776 5.82752 0
M  V30 3692 H 349.676 0.982799 4.77695 0
M  V30 3693 H 348.681 3.26088 4.42659 0
M  V30 3694 H 349.906 3.96737 5.51159 0
M  V30 3695 H 347.852 1.86268 6.28999 0
M  V30 3696 H 347.769 3.55064 6.67432 0
M  V30 3697 H 349.037 2.57679 7.35678 0
M  V30 3698 N 353.266 -1.05314 1.17247 0
M  V30 3699 C 354.514 -1.77941 0.958194 0
M  V30 3700 C 354.835 -1.88089 -0.514556 0
M  V30 3701 O 354.105 -1.39676 -1.37359 0
M  V30 3702 H 352.685 -0.659116 0.351533 0
M  V30 3703 H 355.347 -1.27166 1.47699 0
M  V30 3704 H 354.443 -2.79663 1.38546 0
M  V30 3705 N 354.744 -0.972509 -1.24016 0
M  V30 3706 C 355.654 -0.5143 -2.28893 0
M  V30 3707 C 356.67 0.427078 -1.68677 0
M  V30 3708 O 357.846 0.298939 -1.99169 0
M  V30 3709 C 354.911 0.183598 -3.46214 0
M  V30 3710 C 353.972 -0.798202 -4.21814 0
M  V30 3711 C 353.205 -0.133514 -5.33533 0
M  V30 3712 O 353.428 1.07714 -5.60137 0
M  V30 3713 O 352.362 -0.828103 -5.96176 0
M  V30 3714 H 356.188 -1.38629 -2.70214 0
M  V30 3715 H 353.773 -0.739769 -1.29799 0
M  V30 3716 H 355.655 0.575433 -4.17453 0
M  V30 3717 H 354.33 1.03048 -3.0686 0
M  V30 3718 H 353.237 -1.24059 -3.52931 0
M  V30 3719 H 354.57 -1.61364 -4.64997 0
M  V30 3720 N 356.222 1.38976 -0.743202 0
M  V30 3721 C 357.47 1.99948 -0.29417 0
M  V30 3722 C 357.791 1.59279 1.12495 0
M  V30 3723 O 357.061 0.844808 1.76748 0
M  V30 3724 H 355.641 0.739473 -0.105774 0
M  V30 3725 H 358.303 1.699 -0.954986 0
M  V30 3726 H 357.399 3.10142 -0.349056 0
M  V30 3727 N 357.7 0.491464 1.49741 0
M  V30 3728 C 358.632 -0.328609 2.26832 0
M  V30 3729 C 359.645 -0.939113 1.32983 0
M  V30 3730 O 360.834 -0.824067 1.58339 0
M  V30 3731 C 357.934 -1.47675 3.05033 0
M  V30 3732 C 357.107 -0.975305 4.26388 0
M  V30 3733 C 356.166 -1.99991 4.86714 0
M  V30 3734 O 355.192 -1.57229 5.47054 0
M  V30 3735 N 356.394 -3.32962 4.75517 0
M  V30 3736 H 359.159 0.332377 2.97851 0
M  V30 3737 H 356.72 0.323441 1.58636 0
M  V30 3738 H 358.712 -2.15954 3.42266 0
M  V30 3739 H 357.282 -2.04206 2.36683 0
M  V30 3740 H 356.502 -0.117723 3.94024 0
M  V30 3741 H 357.79 -0.618531 5.05026 0
M  V30 3742 H 357.188 -3.70399 4.27576 0
M  V30 3743 H 355.745 -3.96982 5.16961 0
M  V30 3744 N 359.178 -1.55987 0.224894 0
M  V30 3745 C 360.108 -2.23426 -0.678457 0
M  V30 3746 C 361.089 -1.20709 -1.19847 0
M  V30 3747 O 362.274 -1.49304 -1.24186 0
M  V30 3748 C 359.404 -2.91676 -1.88527 0
M  V30 3749 C 358.358 -4.00893 -1.49896 0
M  V30 3750 C 357.684 -4.56455 -2.78483 0
M  V30 3751 C 358.984 -5.17769 -0.686461 0
M  V30 3752 H 360.678 -2.99175 -0.116173 0
M  V30 3753 H 358.224 -1.43897 -0.054436 0
M  V30 3754 H 360.177 -3.37547 -2.5227 0
M  V30 3755 H 358.901 -2.1338 -2.47258 0
M  V30 3756 H 357.56 -3.55758 -0.884985 0
M  V30 3757 H 357.208 -3.74886 -3.35365 0
M  V30 3758 H 356.908 -5.30169 -2.53368 0
M  V30 3759 H 358.432 -5.05047 -3.43162 0
M  V30 3760 H 359.846 -5.60001 -1.22767 0
M  V30 3761 H 358.243 -5.97735 -0.532259 0
M  V30 3762 H 359.313 -4.83932 0.306196 0
M  V30 3763 N 360.656 0.0484629 -1.57525 0
M  V30 3764 C 361.904 0.741657 -1.88 0
M  V30 3765 C 362.225 1.76918 -0.820054 0
M  V30 3766 O 361.495 1.95335 0.148661 0
M  V30 3767 H 360.075 0.276908 -0.69378 0
M  V30 3768 H 362.737 0.019013 -1.94891 0
M  V30 3769 H 361.833 1.24336 -2.86264 0
M  V30 3770 N 362.134 1.5431 0.320358 0
M  V30 3771 C 363.545 1.63872 0.894594 0
M  V30 3772 C 363.896 0.534847 1.88769 0
M  V30 3773 O 363.021 -0.331732 2.13842 0
M  V30 3774 C 363.616 2.97049 1.62934 0
M  V30 3775 C 362.175 3.08796 2.15226 0
M  V30 3776 C 361.322 2.59456 0.978671 0
M  V30 3777 H 364.273 1.58398 0.0978544 0
M  V30 3778 H 364.294 2.87388 2.49376 0
M  V30 3779 H 363.806 3.7737 0.906302 0
M  V30 3780 H 361.907 2.33156 2.90636 0
M  V30 3781 H 362.02 4.14649 2.40006 0
M  V30 3782 H 360.384 2.1543 1.35875 0
M  V30 3783 H 361.167 3.42237 0.269895 0
M  V30 3784 N 363.613 -0.582584 1.46437 0
M  V30 3785 C 364.576 -1.67366 1.56592 0
M  V30 3786 C 365.576 -1.54575 0.443072 0
M  V30 3787 O 366.766 -1.59191 0.707381 0
M  V30 3788 C 363.898 -3.06791 1.48634 0
M  V30 3789 H 365.091 -1.5972 2.5383 0
M  V30 3790 H 362.644 -0.800432 1.34249 0
M  V30 3791 H 363.379 -3.19993 0.526763 0
M  V30 3792 H 363.164 -3.17484 2.30101 0
M  V30 3793 H 364.654 -3.86218 1.58826 0
M  V30 3794 N 365.091 -1.34144 -0.827227 0
M  V30 3795 C 366.001 -1.27428 -1.96975 0
M  V30 3796 C 367.017 -0.182728 -1.73038 0
M  V30 3797 O 368.193 -0.408426 -1.97215 0
M  V30 3798 C 365.258 -1.02526 -3.31194 0
M  V30 3799 C 364.319 -2.20796 -3.68168 0
M  V30 3800 C 363.552 -1.97073 -4.95982 0
M  V30 3801 O 363.775 -0.926822 -5.6282 0
M  V30 3802 O 362.709 -2.83912 -5.30733 0
M  V30 3803 H 366.535 -2.23537 -2.05584 0
M  V30 3804 H 364.12 -1.14307 -0.961989 0
M  V30 3805 H 366.002 -0.904026 -4.11589 0
M  V30 3806 H 364.677 -0.0945389 -3.23562 0
M  V30 3807 H 363.584 -2.38477 -2.88235 0
M  V30 3808 H 364.917 -3.12243 -3.8048 0
M  V30 3809 N 366.569 1.04691 -1.17803 0
M  V30 3810 C 367.985 1.29963 -0.926379 0
M  V30 3811 C 368.185 1.97251 0.411635 0
M  V30 3812 O 367.241 2.24922 1.14744 0
M  V30 3813 C 368.554 2.16447 -2.08737 0
M  V30 3814 C 370.102 2.29814 -2.12496 0
M  V30 3815 C 370.577 3.19661 -3.27995 0
M  V30 3816 N 372.068 3.27247 -3.27816 0
M  V30 3817 C 372.803 3.96906 -4.13827 0
M  V30 3818 N 372.299 4.6895 -5.09959 0
M  V30 3819 N 374.092 3.93122 -4.01761 0
M  V30 3820 H 366.243 0.594182 -2.0392 0
M  V30 3821 H 368.506 0.324649 -0.890678 0
M  V30 3822 H 368.212 1.74304 -3.05469 0
M  V30 3823 H 368.086 3.17103 -2.04268 0
M  V30 3824 H 370.473 2.71196 -1.16347 0
M  V30 3825 H 370.554 1.2877 -2.21025 0
M  V30 3826 H 370.198 2.78991 -4.24413 0
M  V30 3827 H 370.128 4.20722 -3.16703 0
M  V30 3828 H 372.619 2.75921 -2.58217 0
M  V30 3829 H 372.932 5.19679 -5.71974 0
M  V30 3830 H 371.277 4.67875 -5.13924 0
M  V30 3831 H 374.468 3.35967 -3.2595 0
M  V30 3832 H 374.641 4.47139 -4.6901 0
M  V30 3833 N 368.047 0.979072 1.23499 0
M  V30 3834 C 369.01 0.523244 2.23147 0
M  V30 3835 C 370.01 -0.386406 1.56088 0
M  V30 3836 O 371.2 -0.180283 1.73265 0
M  V30 3837 C 368.332 -0.240739 3.40049 0
M  V30 3838 H 369.525 1.40432 2.64989 0
M  V30 3839 H 367.078 0.764824 1.36309 0
M  V30 3840 H 367.813 -1.13841 3.03662 0
M  V30 3841 H 367.598 0.412207 3.89927 0
M  V30 3842 H 369.088 -0.548297 4.13985 0
M  V30 3843 N 369.525 -1.3858 0.750561 0
M  V30 3844 C 370.472 -2.30483 0.120835 0
M  V30 3845 C 371.442 -1.50022 -0.712923 0
M  V30 3846 O 372.627 -1.78662 -0.669676 0
M  V30 3847 C 369.767 -3.36431 -0.768666 0
M  V30 3848 C 368.88 -4.31927 0.0793922 0
M  V30 3849 C 368.015 -5.24944 -0.81283 0
M  V30 3850 C 367.054 -6.12088 0.0390447 0
M  V30 3851 N 366.191 -6.97412 -0.809969 0
M  V30 3852 H 371.031 -2.83761 0.91015 0
M  V30 3853 H 368.568 -1.39707 0.460463 0
M  V30 3854 H 370.526 -3.96462 -1.29898 0
M  V30 3855 H 369.156 -2.8457 -1.5238 0
M  V30 3856 H 368.208 -3.73382 0.727303 0
M  V30 3857 H 369.52 -4.93319 0.737401 0
M  V30 3858 H 368.674 -5.90078 -1.41042 0
M  V30 3859 H 367.413 -4.63911 -1.50458 0
M  V30 3860 H 366.418 -5.45952 0.649328 0
M  V30 3861 H 367.643 -6.75189 0.727809 0
M  V30 3862 H 365.589 -6.38931 -1.48672 0
M  V30 3863 H 365.506 -7.55712 -0.208789 0
M  V30 3864 H 366.774 -7.66959 -1.39263 0
M  V30 3865 N 371.003 -0.499398 -1.49478 0
M  V30 3866 C 371.95 0.279881 -2.29097 0
M  V30 3867 C 372.92 0.961805 -1.3542 0
M  V30 3868 O 374.105 0.968777 -1.64376 0
M  V30 3869 C 371.245 1.33932 -3.18051 0
M  V30 3870 C 370.358 0.669333 -4.26783 0
M  V30 3871 C 369.493 1.70907 -5.02955 0
M  V30 3872 C 368.532 1.02087 -6.03527 0
M  V30 3873 N 367.669 2.00474 -6.7287 0
M  V30 3874 H 372.509 -0.405317 -2.95231 0
M  V30 3875 H 370.046 -0.211726 -1.45568 0
M  V30 3876 H 372.004 1.96553 -3.67998 0
M  V30 3877 H 370.634 1.9933 -2.53904 0
M  V30 3878 H 369.686 -0.0701234 -3.80335 0
M  V30 3879 H 370.998 0.127503 -4.98637 0
M  V30 3880 H 370.152 2.41037 -5.56764 0
M  V30 3881 H 368.891 2.28476 -4.30871 0
M  V30 3882 H 367.896 0.305338 -5.48951 0
M  V30 3883 H 369.121 0.451708 -6.77596 0
M  V30 3884 H 367.067 2.57007 -6.03559 0
M  V30 3885 H 366.984 1.51353 -7.40694 0
M  V30 3886 H 368.252 2.69897 -7.31284 0
M  V30 3887 N 372.481 1.55866 -0.233164 0
M  V30 3888 C 373.727 1.98897 0.395959 0
M  V30 3889 C 374.06 1.12091 1.58585 0
M  V30 3890 O 373.335 0.181182 1.93654 0
M  V30 3891 C 373.618 3.50658 0.819224 0
M  V30 3892 C 373.471 4.48233 -0.375109 0
M  V30 3893 C 374.79 4.07135 1.67121 0
M  V30 3894 H 371.909 0.723102 0.142451 0
M  V30 3895 H 374.551 1.87082 -0.331725 0
M  V30 3896 H 372.701 3.60857 1.43925 0
M  V30 3897 H 374.373 4.50031 -1.01341 0
M  V30 3898 H 372.616 4.21624 -1.02058 0
M  V30 3899 H 373.287 5.51988 -0.0358328 0
M  V30 3900 H 375.763 3.99952 1.14795 0
M  V30 3901 H 374.639 5.13615 1.93625 0
M  V30 3902 H 374.9 3.54736 2.63846 0
M  V30 3903 N 373.959 -0.0401083 1.57549 0
M  V30 3904 C 374.869 -1.06133 2.0922 0
M  V30 3905 C 375.885 -1.40356 1.0284 0
M  V30 3906 O 377.061 -1.49897 1.34509 0
M  V30 3907 C 374.126 -2.34658 2.55218 0
M  V30 3908 C 373.187 -2.07117 3.76033 0
M  V30 3909 C 372.42 -3.29514 4.19829 0
M  V30 3910 O 372.643 -4.39794 3.63232 0
M  V30 3911 O 371.577 -3.15863 5.12362 0
M  V30 3912 H 375.403 -0.652244 2.96613 0
M  V30 3913 H 372.988 -0.256368 1.47184 0
M  V30 3914 H 374.87 -3.10239 2.85184 0
M  V30 3915 H 373.545 -2.74883 1.70941 0
M  V30 3916 H 372.452 -1.29139 3.51104 0
M  V30 3917 H 373.785 -1.71754 4.61261 0
M  V30 3918 N 375.437 -1.54477 -0.31217 0
M  V30 3919 C 376.714 -1.63891 -1.06767 0
M  V30 3920 C 377.094 -0.480028 -2.0557 0
M  V30 3921 O 376.442 0.524487 -2.22399 0
M  V30 3922 C 376.652 -3.01402 -1.75948 0
M  V30 3923 C 378 -3.57838 -2.28554 0
M  V30 3924 O 379.024 -3.03782 -1.85998 0
M  V30 3925 O 377.883 -4.52462 -3.06497 0
M  V30 3926 H 374.977 -0.664125 -0.492816 0
M  V30 3927 H 377.523 -1.66823 -0.311149 0
M  V30 3928 H 376.295 -3.77187 -1.04144 0
M  V30 3929 H 375.918 -3.02199 -2.58383 0
M  V30 3930 N 376.915 0.57481 -1.46744 0
M  V30 3931 C 377.848 1.69827 -1.52427 0
M  V30 3932 C 378.826 1.58151 -0.377744 0
M  V30 3933 O 380.01 1.79257 -0.58303 0
M  V30 3934 C 377.137 3.07943 -1.41027 0
M  V30 3935 C 376.183 3.38116 -2.59961 0
M  V30 3936 S 377.016 3.29313 -4.22272 0
M  V30 3937 C 378.172 4.69953 -4.13394 0
M  V30 3938 H 378.405 1.64748 -2.47478 0
M  V30 3939 H 375.938 0.754203 -1.34726 0
M  V30 3940 H 377.896 3.87619 -1.35137 0
M  V30 3941 H 376.557 3.10504 -0.473909 0
M  V30 3942 H 375.75 4.38762 -2.47999 0
M  V30 3943 H 375.352 2.66024 -2.62882 0
M  V30 3944 H 377.644 5.60517 -3.80562 0
M  V30 3945 H 378.587 4.86972 -5.14066 0
M  V30 3946 H 378.995 4.47174 -3.44522 0
M  V30 3947 N 378.394 1.34581 0.820102 0
M  V30 3948 C 379.327 1.20735 1.93644 0
M  V30 3949 C 380.305 0.0983343 1.62302 0
M  V30 3950 O 381.489 0.263997 1.86642 0
M  V30 3951 C 378.616 0.856037 3.27704 0
M  V30 3952 C 377.662 1.97521 3.78005 0
M  V30 3953 S 378.495 3.58906 3.97425 0
M  V30 3954 C 379.651 3.25822 5.34407 0
M  V30 3955 H 379.884 2.15231 2.05093 0
M  V30 3956 H 377.417 1.1964 0.97599 0
M  V30 3957 H 379.375 0.660133 4.05157 0
M  V30 3958 H 378.036 -0.0706253 3.14021 0
M  V30 3959 H 377.229 1.68321 4.75062 0
M  V30 3960 H 376.831 2.12875 3.07507 0
M  V30 3961 H 379.123 2.77812 6.17922 0
M  V30 3962 H 380.066 4.22029 5.68592 0
M  V30 3963 H 380.474 2.61932 5.00052 0
M  V30 3964 N 379.872 -1.04064 1.18357 0
M  V30 3965 C 380.819 -2.12077 0.910603 0
M  V30 3966 C 381.789 -1.65421 -0.15 0
M  V30 3967 O 382.974 -1.90797 -0.0103614 0
M  V30 3968 C 380.114 -3.42252 0.442472 0
M  V30 3969 C 379.227 -4.0252 1.5685 0
M  V30 3970 C 378.362 -5.20657 1.05309 0
M  V30 3971 C 377.401 -5.72955 2.1538 0
M  V30 3972 N 376.538 -6.8238 1.65233 0
M  V30 3973 H 381.378 -2.34764 1.83548 0
M  V30 3974 H 378.915 -1.15157 0.915279 0
M  V30 3975 H 380.873 -4.16921 0.152534 0
M  V30 3976 H 379.503 -3.19712 -0.445428 0
M  V30 3977 H 378.555 -3.25178 1.97391 0
M  V30 3978 H 379.867 -4.37362 2.39824 0
M  V30 3979 H 379.021 -6.0244 0.717677 0
M  V30 3980 H 377.76 -4.87318 0.19293 0
M  V30 3981 H 376.765 -4.89793 2.49766 0
M  V30 3982 H 377.99 -6.08337 3.01832 0
M  V30 3983 H 375.936 -6.50917 0.815064 0
M  V30 3984 H 375.853 -7.16286 2.41805 0
M  V30 3985 H 377.121 -7.67788 1.34619 0
M  V30 3986 N 381.35 -0.985608 -1.22978 0
M  V30 3987 C 382.297 -0.529825 -2.24636 0
M  V30 3988 C 383.267 0.434028 -1.60329 0
M  V30 3989 O 384.452 0.340414 -1.87739 0
M  V30 3990 C 381.592 0.156533 -3.44745 0
M  V30 3991 C 380.705 -0.848197 -4.23591 0
M  V30 3992 C 379.84 -0.136109 -5.31026 0
M  V30 3993 C 378.879 -1.1297 -6.01585 0
M  V30 3994 N 378.016 -0.446415 -7.00679 0
M  V30 3995 H 382.856 -1.40148 -2.62988 0
M  V30 3996 H 380.393 -0.702168 -1.29259 0
M  V30 3997 H 382.351 0.571324 -4.1327 0
M  V30 3998 H 380.981 0.992025 -3.07179 0
M  V30 3999 H 380.033 -1.38135 -3.54433 0
M  V30 4000 H 381.345 -1.60512 -4.72268 0
M  V30 4001 H 380.499 0.335784 -6.0577 0
M  V30 4002 H 379.238 0.653373 -4.83304 0
M  V30 4003 H 378.243 -1.6123 -5.25628 0
M  V30 4004 H 379.468 -1.91993 -6.51395 0
M  V30 4005 H 377.414 0.323763 -6.55201 0
M  V30 4006 H 377.331 -1.1419 -7.47326 0
M  V30 4007 H 378.599 0.00291697 -7.795 0
M  V30 4008 N 382.828 1.3818 -0.7579 0
M  V30 4009 C 383.758 2.33027 -0.148597 0
M  V30 4010 C 384.739 1.55085 0.69875 0
M  V30 4011 O 385.924 1.83384 0.639053 0
M  V30 4012 C 383.054 3.3928 0.742034 0
M  V30 4013 C 382.008 4.28 -0.00291946 0
M  V30 4014 C 381.334 5.25146 1.00625 0
M  V30 4015 C 382.634 5.08938 -1.17385 0
M  V30 4016 H 384.328 2.84231 -0.940909 0
M  V30 4017 H 381.874 1.36659 -0.453908 0
M  V30 4018 H 383.827 4.046 1.17799 0
M  V30 4019 H 382.551 2.86569 1.56671 0
M  V30 4020 H 381.21 3.64192 -0.419504 0
M  V30 4021 H 380.858 4.68721 1.8251 0
M  V30 4022 H 380.558 5.85361 0.512428 0
M  V30 4023 H 382.082 5.93342 1.44143 0
M  V30 4024 H 383.496 5.67474 -0.815224 0
M  V30 4025 H 381.893 5.7841 -1.59882 0
M  V30 4026 H 382.963 4.42424 -1.98468 0
M  V30 4027 N 384.306 0.507319 1.49211 0
M  V30 4028 C 385.552 -0.0269732 2.03382 0
M  V30 4029 C 385.907 -1.34111 1.37957 0
M  V30 4030 O 385.2 -1.84733 0.508351 0
M  V30 4031 C 385.394 -0.229513 3.56662 0
M  V30 4032 C 385.223 1.06344 4.36945 0
M  V30 4033 C 383.993 1.617 4.78729 0
M  V30 4034 C 386.191 1.96833 4.75143 0
M  V30 4035 N 384.173 2.8552 5.43463 0
M  V30 4036 C 385.544 3.0523 5.39661 0
M  V30 4037 C 387.599 1.97434 4.57082 0
M  V30 4038 C 386.302 4.14265 5.88028 0
M  V30 4039 C 388.328 3.05448 5.06414 0
M  V30 4040 C 387.69 4.12564 5.70938 0
M  V30 4041 H 383.789 0.0310673 0.781383 0
M  V30 4042 H 386.373 0.683579 1.82305 0
M  V30 4043 H 384.544 -0.909127 3.7761 0
M  V30 4044 H 386.276 -0.761377 3.97473 0
M  V30 4045 H 383.031 1.16132 4.59141 0
M  V30 4046 H 383.455 3.48499 5.80412 0
M  V30 4047 H 388.097 1.15924 4.06597 0
M  V30 4048 H 385.815 4.96569 6.3753 0
M  V30 4049 H 389.401 3.06941 4.94246 0
M  V30 4050 H 388.281 4.94767 6.0842 0
M  V30 4051 N 385.784 -1.5574 0.241426 0
M  V30 4052 C 387.032 -1.98417 -0.384075 0
M  V30 4053 C 387.353 -1.13078 -1.58866 0
M  V30 4054 O 386.623 -0.212312 -1.94746 0
M  V30 4055 H 385.203 -0.732813 -0.144894 0
M  V30 4056 H 387.865 -1.9193 0.338943 0
M  V30 4057 H 386.961 -3.04219 -0.696939 0
M  V30 4058 N 387.262 0.0317525 -1.57568 0
M  V30 4059 C 388.539 0.758366 -1.803 0
M  V30 4060 C 388.919 1.93718 -0.838845 0
M  V30 4061 O 388.267 2.28187 0.119571 0
M  V30 4062 C 388.477 1.19392 -3.27943 0
M  V30 4063 C 389.825 1.61094 -3.92854 0
M  V30 4064 O 390.849 1.28857 -3.32076 0
M  V30 4065 O 389.708 2.20918 -4.99858 0
M  V30 4066 H 386.802 0.366514 -0.741348 0
M  V30 4067 H 389.348 0.00873765 -1.69698 0
M  V30 4068 H 388.12 0.352275 -3.89711 0
M  V30 4069 H 387.743 2.00365 -3.43424 0
M  V30 4070 N 388.74 1.54641 0.303973 0
M  V30 4071 C 390.156 1.45788 0.649463 0
M  V30 4072 C 390.356 0.64666 1.90842 0
M  V30 4073 O 389.412 0.153183 2.52035 0
M  V30 4074 C 390.725 2.89718 0.805227 0
M  V30 4075 C 392.273 2.99742 0.901305 0
M  V30 4076 C 392.748 4.44863 1.08909 0
M  V30 4077 N 394.239 4.48559 1.15536 0
M  V30 4078 C 394.974 5.58026 1.3189 0
M  V30 4079 N 394.47 6.77422 1.45161 0
M  V30 4080 N 396.263 5.45708 1.34755 0
M  V30 4081 H 388.414 2.05854 -0.523237 0
M  V30 4082 H 390.677 0.932186 -0.172431 0
M  V30 4083 H 390.383 3.51666 -0.0489108 0
M  V30 4084 H 390.257 3.36964 1.69513 0
M  V30 4085 H 392.644 2.3791 1.74593 0
M  V30 4086 H 392.725 2.55797 -0.0125531 0
M  V30 4087 H 392.369 5.07288 0.249241 0
M  V30 4088 H 392.299 4.86436 2.01713 0
M  V30 4089 H 394.79 3.6254 1.06646 0
M  V30 4090 H 395.103 7.56604 1.57387 0
M  V30 4091 H 393.448 6.80292 1.42223 0
M  V30 4092 H 396.639 4.51378 1.23996 0
M  V30 4093 H 396.812 6.3107 1.47157 0
M  V30 4094 N 390.218 -0.567019 1.47046 0
M  V30 4095 C 391.448 -1.34831 1.56538 0
M  V30 4096 C 391.856 -1.8802 0.21101 0
M  V30 4097 O 391.199 -1.65152 -0.804387 0
M  V30 4098 C 391.261 -2.56139 2.52256 0
M  V30 4099 C 390.925 -2.24307 3.98165 0
M  V30 4100 C 391.922 -1.82192 4.86931 0
M  V30 4101 C 389.607 -2.35968 4.43423 0
M  V30 4102 C 391.601 -1.52153 6.18973 0
M  V30 4103 C 389.288 -2.05542 5.75496 0
M  V30 4104 C 390.286 -1.63701 6.63092 0
M  V30 4105 O 389.974 -1.33657 7.92711 0
M  V30 4106 H 389.706 -0.417683 0.531523 0
M  V30 4107 H 392.26 -0.694726 1.93294 0
M  V30 4108 H 390.49 -3.24356 2.10548 0
M  V30 4109 H 392.179 -3.18214 2.51982 0
M  V30 4110 H 392.945 -1.72684 4.53217 0
M  V30 4111 H 388.824 -2.67495 3.75456 0
M  V30 4112 H 392.368 -1.19421 6.87302 0
M  V30 4113 H 388.265 -2.14679 6.08755 0
M  V30 4114 H 389.033 -1.4737 8.05124 0
M  V30 4115 N 391.696 -1.35014 -0.812953 0
M  V30 4116 C 392.943 -1.27931 -1.56971 0
M  V30 4117 C 393.271 0.148034 -1.93936 0
M  V30 4118 O 392.526 1.11175 -1.61054 0
M  V30 4119 C 392.825 -2.12524 -2.87347 0
M  V30 4120 C 392.491 -3.61401 -2.6963 0
M  V30 4121 C 391.153 -4.01983 -2.64506 0
M  V30 4122 C 393.505 -4.55894 -2.52607 0
M  V30 4123 C 390.833 -5.35235 -2.40293 0
M  V30 4124 C 393.185 -5.89336 -2.29925 0
M  V30 4125 C 391.849 -6.2907 -2.23219 0
M  V30 4126 H 391.119 -0.468131 -0.574399 0
M  V30 4127 H 393.766 -1.66851 -0.939836 0
M  V30 4128 H 392.071 -1.66463 -3.54679 0
M  V30 4129 H 393.768 -2.04383 -3.45005 0
M  V30 4130 H 390.358 -3.29193 -2.74463 0
M  V30 4131 H 394.542 -4.25431 -2.55583 0
M  V30 4132 H 389.798 -5.65028 -2.33566 0
M  V30 4133 H 393.972 -6.62139 -2.15743 0
M  V30 4134 H 391.599 -7.32256 -2.04219 0
M  V30 4135 N 393.175 1.03435 -1.18907 0
M  V30 4136 C 394.452 1.73778 -0.89781 0
M  V30 4137 C 394.832 2.02458 0.597832 0
M  V30 4138 O 394.18 1.67482 1.55441 0
M  V30 4139 C 394.39 3.01845 -1.75187 0
M  V30 4140 C 395.738 3.7546 -1.9828 0
M  V30 4141 O 396.762 3.11759 -1.72293 0
M  V30 4142 O 395.621 4.89966 -2.42065 0
M  V30 4143 H 392.715 0.75651 -0.334098 0
M  V30 4144 H 395.261 1.09444 -1.29693 0
M  V30 4145 H 394.033 2.76836 -2.76545 0
M  V30 4146 H 393.656 3.73919 -1.35167 0
M  V30 4147 N 394.653 0.992116 1.22453 0
M  V30 4148 C 396.064 0.702776 1.72968 0
M  V30 4149 C 396.415 -0.780399 1.80012 0
M  V30 4150 O 395.54 -1.61007 1.44589 0
M  V30 4151 C 396.135 1.26903 3.14135 0
M  V30 4152 C 394.694 1.02909 3.62059 0
M  V30 4153 C 393.841 1.38969 2.39964 0
M  V30 4154 H 396.792 1.16457 1.07812 0
M  V30 4155 H 396.813 0.647223 3.74955 0
M  V30 4156 H 396.325 2.34851 3.08977 0
M  V30 4157 H 394.426 -0.0337979 3.72585 0
M  V30 4158 H 394.539 1.69191 4.48231 0
M  V30 4159 H 392.903 0.808279 2.41535 0
M  V30 4160 H 393.686 2.4792 2.37467 0
M  V30 4161 N 396.131 -1.37776 0.765217 0
M  V30 4162 C 397.094 -2.28686 0.153416 0
M  V30 4163 C 398.094 -1.47727 -0.635081 0
M  V30 4164 O 399.284 -1.68027 -0.459632 0
M  V30 4165 C 396.416 -3.31608 -0.790495 0
M  V30 4166 H 397.609 -2.84297 0.954723 0
M  V30 4167 H 395.162 -1.46932 0.53299 0
M  V30 4168 H 395.897 -2.81109 -1.61705 0
M  V30 4169 H 395.682 -3.9144 -0.227348 0
M  V30 4170 H 397.172 -3.99559 -1.21419 0
M  V30 4171 N 397.609 -0.515225 -1.4894 0
M  V30 4172 C 398.557 0.269115 -2.31038 0
M  V30 4173 C 399.551 0.949443 -1.40292 0
M  V30 4174 O 400.757 0.87551 -1.57273 0
M  V30 4175 H 397.132 0.10565 -0.744542 0
M  V30 4176 H 399.103 -0.443096 -2.95092 0
M  V30 4177 C 397.852 1.31213 -3.21991 0
M  V30 4178 H 397.175 0.798034 -3.91754 0
M  V30 4179 H 398.615 1.83263 -3.82349 0
M  V30 4180 C 397.074 2.33791 -2.42576 0
M  V30 4181 O 397.604 3.3995 -2.14003 0
M  V30 4182 N 395.81 2.06625 -2.0434 0
M  V30 4183 H 395.357 1.20314 -2.27777 0
M  V30 4184 H 395.315 2.75483 -1.51514 0
M  V30 4185 N 399.087 1.5561 -0.249682 0
M  V30 4186 C 400.335 1.98618 0.373548 0
M  V30 4187 C 400.656 1.13919 1.58264 0
M  V30 4188 O 399.926 0.222637 1.94631 0
M  V30 4189 H 398.506 0.733571 0.141006 0
M  V30 4190 H 401.168 1.91748 -0.349117 0
M  V30 4191 H 400.264 3.04584 0.680796 0
M  V30 4192 N 400.565 -0.0233959 1.57583 0
M  V30 4193 C 401.512 -1.02224 2.06927 0
M  V30 4194 C 402.482 -1.35575 0.959617 0
M  V30 4195 O 403.667 -1.45815 1.23055 0
M  V30 4196 C 400.807 -2.31636 2.5581 0
M  V30 4197 C 399.92 -2.04394 3.80588 0
M  V30 4198 C 399.055 -3.27717 4.18061 0
M  V30 4199 C 398.094 -2.96056 5.3574 0
M  V30 4200 N 397.231 -4.11847 5.68618 0
M  V30 4201 H 402.071 -0.594504 2.9201 0
M  V30 4202 H 399.608 -0.281921 1.44373 0
M  V30 4203 H 401.566 -3.07258 2.82221 0
M  V30 4204 H 400.196 -2.72122 1.73636 0
M  V30 4205 H 399.248 -1.19244 3.61227 0
M  V30 4206 H 400.56 -1.77042 4.66323 0
M  V30 4207 H 399.714 -4.11702 4.4563 0
M  V30 4208 H 398.453 -3.58188 3.30988 0
M  V30 4209 H 397.458 -2.10474 5.07918 0
M  V30 4210 H 398.683 -2.66857 6.24471 0
M  V30 4211 H 396.629 -4.42258 4.84504 0
M  V30 4212 H 396.546 -3.87938 6.48876 0
M  V30 4213 H 397.814 -4.96689 6.00766 0
M  V30 4214 N 402.043 -1.548 -0.295768 0
M  V30 4215 C 403.29 -1.74329 -1.03032 0
M  V30 4216 C 403.618 -0.531915 -1.87085 0
M  V30 4217 O 402.873 0.486052 -1.89568 0
M  V30 4218 C 403.172 -2.98797 -1.961 0
M  V30 4219 C 402.838 -4.32356 -1.2798 0
M  V30 4220 C 401.5 -4.68661 -1.09135 0
M  V30 4221 C 403.852 -5.15128 -0.793243 0
M  V30 4222 C 401.18 -5.85312 -0.403269 0
M  V30 4223 C 403.532 -6.32488 -0.118854 0
M  V30 4224 C 402.196 -6.6745 0.0815043 0
M  V30 4225 H 401.466 -0.637916 -0.37702 0
M  V30 4226 H 404.113 -1.8906 -0.304696 0
M  V30 4227 H 402.418 -2.78869 -2.75207 0
M  V30 4228 H 404.115 -3.11102 -2.53015 0
M  V30 4229 H 400.705 -4.03808 -1.43655 0
M  V30 4230 H 404.889 -4.87575 -0.92653 0
M  V30 4231 H 400.145 -6.1094 -0.237098 0
M  V30 4232 H 404.319 -6.95892 0.266035 0
M  V30 4233 H 401.946 -7.57695 0.616685 0
M  V30 4234 N 403.521 0.559213 -1.47345 0
M  V30 4235 C 404.746 1.34676 -1.57725 0
M  V30 4236 C 405.171 1.86723 -0.227164 0
M  V30 4237 O 404.529 1.6286 0.796642 0
M  V30 4238 C 404.577 2.49399 -2.60447 0
M  V30 4239 O 403.681 3.51567 -2.15578 0
M  V30 4240 H 403.022 0.400115 -0.52991 0
M  V30 4241 H 405.552 0.676009 -1.93109 0
M  V30 4242 H 405.562 2.95996 -2.80803 0
M  V30 4243 H 404.237 2.10873 -3.58477 0
M  V30 4244 H 402.814 3.11289 -2.05313 0
M  V30 4245 N 404.999 1.35443 0.805782 0
M  V30 4246 C 405.946 1.28431 1.91766 0
M  V30 4247 C 406.916 0.156102 1.65365 0
M  V30 4248 O 408.101 0.339936 1.87747 0
M  V30 4249 C 405.241 1.06301 3.2832 0
M  V30 4250 C 404.354 2.2805 3.66902 0
M  V30 4251 C 403.489 1.99064 4.92491 0
M  V30 4252 C 402.528 3.16863 5.23703 0
M  V30 4253 N 401.665 2.87647 6.40471 0
M  V30 4254 H 406.505 2.23511 1.97096 0
M  V30 4255 H 404.042 1.11105 0.964054 0
M  V30 4256 H 406 0.915012 4.07042 0
M  V30 4257 H 404.63 0.148822 3.22457 0
M  V30 4258 H 403.682 2.53711 2.83434 0
M  V30 4259 H 404.994 3.1601 3.85927 0
M  V30 4260 H 404.148 1.81099 5.7904 0
M  V30 4261 H 402.887 1.0839 4.75503 0
M  V30 4262 H 401.892 3.35404 4.35642 0
M  V30 4263 H 403.117 4.08339 5.4262 0
M  V30 4264 H 401.063 1.99568 6.24907 0
M  V30 4265 H 400.98 3.69141 6.59751 0
M  V30 4266 H 402.248 2.73226 7.30047 0
M  V30 4267 N 406.477 -1.02803 1.19454 0
M  V30 4268 C 407.702 -1.80378 1.02364 0
M  V30 4269 C 408.127 -1.83282 -0.423007 0
M  V30 4270 O 407.485 -1.25945 -1.30413 0
M  V30 4271 C 407.533 -3.23248 1.59821 0
M  V30 4272 O 406.637 -4.04 0.828105 0
M  V30 4273 H 405.978 -0.556799 0.361761 0
M  V30 4274 H 408.508 -1.29385 1.58495 0
M  V30 4275 H 408.518 -3.73994 1.63073 0
M  V30 4276 H 407.193 -3.2045 2.65113 0
M  V30 4277 H 405.77 -3.62635 0.86891 0
M  V30 4278 N 407.956 -0.998596 -1.21925 0
M  V30 4279 C 408.919 -0.558679 -2.22287 0
M  V30 4280 C 409.919 0.361525 -1.56683 0
M  V30 4281 O 411.109 0.152695 -1.73529 0
M  V30 4282 C 408.241 0.18661 -3.40389 0
M  V30 4283 H 409.434 -1.4463 -2.62721 0
M  V30 4284 H 406.987 -0.786413 -1.35075 0
M  V30 4285 H 407.722 1.08996 -3.05435 0
M  V30 4286 H 407.507 -0.474188 -3.89222 0
M  V30 4287 H 408.997 0.482367 -4.14805 0
M  V30 4288 N 409.434 1.37368 -0.772513 0
M  V30 4289 C 410.662 2.03942 -0.348588 0
M  V30 4290 C 411.077 1.58264 1.02947 0
M  V30 4291 O 410.434 0.764246 1.65727 0
M  V30 4292 C 410.485 3.5946 -0.38351 0
M  V30 4293 O 410.206 4.03468 -1.70721 0
M  V30 4294 C 411.707 4.4327 0.0519152 0
M  V30 4295 H 408.927 0.654931 -0.145966 0
M  V30 4296 H 411.471 1.75686 -1.04665 0
M  V30 4297 H 409.626 3.86486 0.265978 0
M  V30 4298 H 410.04 4.97991 -1.64636 0
M  V30 4299 H 411.514 5.51995 -0.0236733 0
M  V30 4300 H 411.991 4.2514 1.10238 0
M  V30 4301 H 412.597 4.21471 -0.569415 0
M  V30 4302 N 410.912 0.523116 1.48665 0
M  V30 4303 C 412.137 -0.0117284 2.07397 0
M  V30 4304 C 412.562 -1.28031 1.37803 0
M  V30 4305 O 411.92 -1.75836 0.441762 0
M  V30 4306 C 411.968 -0.225786 3.59892 0
M  V30 4307 O 411.072 -1.29592 3.91509 0
M  V30 4308 H 410.413 0.0360673 0.66302 0
M  V30 4309 H 412.943 0.729066 1.9117 0
M  V30 4310 H 412.953 -0.450552 4.05505 0
M  V30 4311 H 411.628 0.700944 4.09951 0
M  V30 4312 H 410.205 -1.05436 3.57684 0
M  V30 4313 N 412.39 -1.55475 0.257931 0
M  V30 4314 C 413.801 -1.8511 -0.243135 0
M  V30 4315 C 414.152 -1.17986 -1.5676 0
M  V30 4316 O 413.277 -0.462102 -2.11409 0
M  V30 4317 C 413.872 -3.35826 -0.447929 0
M  V30 4318 C 412.431 -3.65647 -0.893245 0
M  V30 4319 C 411.578 -2.7729 0.0232965 0
M  V30 4320 H 414.529 -1.51261 0.480199 0
M  V30 4321 H 414.55 -3.58002 -1.28898 0
M  V30 4322 H 414.062 -3.84652 0.516196 0
M  V30 4323 H 412.163 -3.22308 -1.86945 0
M  V30 4324 H 412.276 -4.73312 -0.742469 0
M  V30 4325 H 410.64 -2.49942 -0.490021 0
M  V30 4326 H 411.423 -3.28926 0.982994 0
M  V30 4327 N 413.868 0.0150385 -1.57593 0
M  V30 4328 C 414.778 1.02791 -2.10882 0
M  V30 4329 C 415.794 1.38702 -1.0506 0
M  V30 4330 O 416.97 1.47739 -1.36877 0
M  V30 4331 C 414.035 2.30568 -2.58919 0
M  V30 4332 C 413.096 2.01108 -3.79281 0
M  V30 4333 C 412.329 3.22794 -4.25018 0
M  V30 4334 O 412.552 4.33959 -3.70183 0
M  V30 4335 O 411.486 3.07672 -5.17322 0
M  V30 4336 H 415.312 0.604973 -2.97613 0
M  V30 4337 H 412.897 0.23292 -1.47573 0
M  V30 4338 H 414.779 3.05662 -2.90084 0
M  V30 4339 H 413.454 2.72129 -1.75293 0
M  V30 4340 H 412.361 1.23537 -3.53114 0
M  V30 4341 H 413.694 1.64394 -4.63935 0
M  V30 4342 N 415.346 1.54954 0.287554 0
M  V30 4343 C 416.594 1.74528 1.01904 0
M  V30 4344 C 416.915 0.541349 1.87335 0
M  V30 4345 O 416.185 -0.444108 1.908 0
M  V30 4346 H 414.765 0.643576 0.379235 0
M  V30 4347 H 417.427 1.92333 0.315294 0
M  V30 4348 H 416.523 2.64015 1.6644 0
M  V30 4349 N 416.824 -0.551391 1.4764 0
M  V30 4350 C 417.771 -1.65796 1.60563 0
M  V30 4351 C 418.741 -1.59932 0.448428 0
M  V30 4352 O 419.926 -1.78679 0.669222 0
M  V30 4353 C 417.066 -3.04108 1.63133 0
M  V30 4354 C 416.179 -3.20365 2.89811 0
M  V30 4355 C 415.314 -4.49109 2.8368 0
M  V30 4356 C 414.353 -4.58819 4.05156 0
M  V30 4357 N 413.49 -5.78926 3.97227 0
M  V30 4358 H 418.33 -1.54088 2.5507 0
M  V30 4359 H 415.867 -0.75052 1.26513 0
M  V30 4360 H 417.825 -3.84207 1.62606 0
M  V30 4361 H 416.455 -3.14637 0.721341 0
M  V30 4362 H 415.507 -2.33659 3.00179 0
M  V30 4363 H 416.819 -3.23402 3.79753 0
M  V30 4364 H 415.973 -5.37475 2.81434 0
M  V30 4365 H 414.712 -4.4856 1.91431 0
M  V30 4366 H 413.717 -3.68864 4.077 0
M  V30 4367 H 414.942 -4.61124 4.98539 0
M  V30 4368 H 412.888 -5.79314 3.07785 0
M  V30 4369 H 412.805 -5.83367 4.80853 0
M  V30 4370 H 414.073 -6.69637 3.99007 0
M  V30 4371 N 418.302 -1.35869 -0.798587 0
M  V30 4372 C 419.249 -1.29446 -1.91082 0
M  V30 4373 C 420.219 -0.16487 -1.6528 0
M  V30 4374 O 421.404 -0.349888 -1.87564 0
M  V30 4375 C 418.544 -1.0804 -3.27752 0
M  V30 4376 C 417.657 -2.29993 -3.65687 0
M  V30 4377 C 416.792 -2.01673 -4.91428 0
M  V30 4378 C 415.831 -3.19636 -5.22015 0
M  V30 4379 N 414.968 -2.91039 -6.38937 0
M  V30 4380 H 419.808 -2.24553 -1.95907 0
M  V30 4381 H 417.345 -1.11615 -0.958148 0
M  V30 4382 H 419.303 -0.936586 -4.06551 0
M  V30 4383 H 417.933 -0.16592 -3.22373 0
M  V30 4384 H 416.985 -2.55211 -2.82085 0
M  V30 4385 H 418.297 -3.18052 -3.84245 0
M  V30 4386 H 417.451 -1.84168 -5.78072 0
M  V30 4387 H 416.19 -1.10911 -4.74921 0
M  V30 4388 H 415.195 -3.37709 -4.33858 0
M  V30 4389 H 416.42 -4.11211 -5.40447 0
M  V30 4390 H 414.366 -2.0288 -6.2384 0
M  V30 4391 H 414.283 -3.72635 -6.57784 0
M  V30 4392 H 415.551 -2.77093 -7.28587 0
M  V30 4393 N 419.78 1.02168 -1.19998 0
M  V30 4394 C 420.71 2.12488 -0.96804 0
M  V30 4395 C 421.691 1.69799 0.101185 0
M  V30 4396 O 422.876 1.94121 -0.0552993 0
M  V30 4397 C 420.006 3.43479 -0.513776 0
M  V30 4398 C 418.96 3.99884 -1.52566 0
M  V30 4399 C 418.286 5.26582 -0.928214 0
M  V30 4400 C 419.586 4.33861 -2.90795 0
M  V30 4401 H 421.28 2.32149 -1.89069 0
M  V30 4402 H 418.826 1.11564 -0.910468 0
M  V30 4403 H 420.779 4.20036 -0.338774 0
M  V30 4404 H 419.503 3.23561 0.444493 0
M  V30 4405 H 418.162 3.25429 -1.68794 0
M  V30 4406 H 417.81 5.02986 0.0378289 0
M  V30 4407 H 417.51 5.65284 -1.60397 0
M  V30 4408 H 419.034 6.05799 -0.764167 0
M  V30 4409 H 420.448 5.01327 -2.78109 0
M  V30 4410 H 418.845 4.83664 -3.55231 0
M  V30 4411 H 419.915 3.42848 -3.42904 0
M  V30 4412 N 421.258 1.00505 1.21394 0
M  V30 4413 C 422.669 0.721082 1.72213 0
M  V30 4414 C 423.02 -0.761263 1.80829 0
M  V30 4415 O 422.145 -1.59464 1.46288 0
M  V30 4416 C 422.74 1.30228 3.12772 0
M  V30 4417 C 421.299 1.06743 3.60947 0
M  V30 4418 C 420.446 1.41507 2.38477 0
M  V30 4419 H 423.397 1.17594 1.06571 0
M  V30 4420 H 423.418 0.686955 3.74247 0
M  V30 4421 H 422.93 2.38115 3.06468 0
M  V30 4422 H 421.031 0.00572162 3.726 0
M  V30 4423 H 421.144 1.73936 4.46411 0
M  V30 4424 H 419.508 0.833852 2.40664 0
M  V30 4425 H 420.291 2.50424 2.34824 0
M  V30 4426 N 422.737 -1.36956 0.779787 0
M  V30 4427 C 424.153 -1.52817 0.460342 0
M  V30 4428 C 424.353 -1.7361 -1.02283 0
M  V30 4429 O 423.409 -1.76207 -1.80852 0
M  V30 4430 C 424.722 -2.71983 1.28241 0
M  V30 4431 C 426.27 -2.85849 1.27512 0
M  V30 4432 C 426.745 -4.08008 2.08072 0
M  V30 4433 N 428.236 -4.15135 2.05467 0
M  V30 4434 C 428.971 -5.08711 2.64577 0
M  V30 4435 N 428.467 -6.07792 3.32506 0
M  V30 4436 N 430.26 -5.01254 2.54363 0
M  V30 4437 H 422.411 -1.21713 1.74068 0
M  V30 4438 H 424.674 -0.593294 0.739396 0
M  V30 4439 H 424.38 -2.63109 2.33381 0
M  V30 4440 H 424.254 -3.65882 0.917088 0
M  V30 4441 H 426.641 -2.94189 0.231686 0
M  V30 4442 H 426.722 -1.92886 1.68014 0
M  V30 4443 H 426.366 -4.00429 3.12441 0
M  V30 4444 H 426.296 -5.001 1.64947 0
M  V30 4445 H 428.787 -3.44189 1.5602 0
M  V30 4446 H 429.1 -6.75739 3.74963 0
M  V30 4447 H 427.445 -6.08047 3.36606 0
M  V30 4448 H 430.636 -4.22795 2.00902 0
M  V30 4449 H 430.809 -5.73995 3.00722 0
M  V30 4450 N 424.215 -0.530993 -1.48385 0
M  V30 4451 C 425.443 -0.00134122 -2.069 0
M  V30 4452 C 425.858 1.2805 -1.3874 0
M  V30 4453 O 425.215 1.76204 -0.475244 0
M  V30 4454 C 425.266 0.225256 -3.60798 0
M  V30 4455 O 424.987 -1.0058 -4.26398 0
M  V30 4456 C 426.488 0.795172 -4.3611 0
M  V30 4457 H 423.708 -0.0339704 -0.67014 0
M  V30 4458 H 426.252 -0.736926 -1.90761 0
M  V30 4459 H 424.407 0.910891 -3.76539 0
M  V30 4460 H 424.821 -0.787165 -5.1856 0
M  V30 4461 H 426.295 0.903143 -5.44562 0
M  V30 4462 H 426.772 1.80031 -4.00606 0
M  V30 4463 H 427.378 0.146069 -4.25049 0
M  V30 4464 N 425.693 1.55336 -0.266172 0
M  V30 4465 C 426.94 1.99397 0.353158 0
M  V30 4466 C 427.268 1.15451 1.56529 0
M  V30 4467 O 426.523 0.209974 1.9457 0
M  V30 4468 C 426.822 3.48606 0.787957 0
M  V30 4469 C 426.488 4.49773 -0.318541 0
M  V30 4470 C 425.15 4.77158 -0.62239 0
M  V30 4471 C 427.502 5.10212 -1.06459 0
M  V30 4472 C 424.83 5.62251 -1.67602 0
M  V30 4473 C 427.182 5.96449 -2.10788 0
M  V30 4474 C 425.846 6.22158 -2.41817 0
M  V30 4475 H 425.116 0.729644 0.12923 0
M  V30 4476 H 427.763 1.87732 -0.37802 0
M  V30 4477 H 426.068 3.57701 1.59866 0
M  V30 4478 H 427.765 3.80098 1.27775 0
M  V30 4479 H 424.355 4.2854 -0.0715925 0
M  V30 4480 H 428.539 4.89086 -0.843098 0
M  V30 4481 H 423.795 5.80419 -1.92155 0
M  V30 4482 H 427.969 6.42317 -2.69076 0
M  V30 4483 H 425.596 6.87888 -3.23596 0
M  V30 4484 N 427.171 -0.0066808 1.57599 0
M  V30 4485 C 428.411 -0.697501 1.92131 0
M  V30 4486 C 428.775 -1.71306 0.867071 0
M  V30 4487 O 429.976 -2.45377 1.09743 0
M  V30 4488 C 428.247 -1.32978 3.3174 0
M  V30 4489 S 429.806 -2.04665 3.88146 0
M  V30 4490 H 426.624 -0.230555 0.672581 0
M  V30 4491 H 429.226 0.0484026 1.9544 0
M  V30 4492 H 427.93 -0.57772 4.06313 0
M  V30 4493 H 427.461 -2.11376 3.31789 0
M  V30 4494 H 429.476 -3.32097 3.68682 0
M  V30 4495 N 428.649 -1.55105 -0.279332 0
M  V30 4496 C 429.581 -1.83952 -1.36727 0
M  V30 4497 C 430.594 -0.723642 -1.45833 0
M  V30 4498 O 431.783 -1.00141 -1.47763 0
M  V30 4499 C 428.883 -1.98183 -2.74912 0
M  V30 4500 C 428.056 -3.28787 -2.88475 0
M  V30 4501 C 427.115 -3.33162 -4.07295 0
M  V30 4502 O 426.141 -4.06576 -3.98353 0
M  V30 4503 N 427.343 -2.60109 -5.18964 0
M  V30 4504 H 430.108 -2.77853 -1.12328 0
M  V30 4505 H 427.669 -1.54945 -0.469442 0
M  V30 4506 H 429.661 -1.98488 -3.52682 0
M  V30 4507 H 428.231 -1.11177 -2.92162 0
M  V30 4508 H 427.451 -3.41075 -1.97641 0
M  V30 4509 H 428.739 -4.14933 -2.94463 0
M  V30 4510 H 428.137 -2.00136 -5.29115 0
M  V30 4511 H 426.694 -2.66143 -5.94988 0
M  V30 4512 N 430.127 0.543554 -1.4793 0
M  V30 4513 C 431.057 1.65888 -1.64327 0
M  V30 4514 C 432.038 1.62818 -0.492383 0
M  V30 4515 O 433.223 1.80226 -0.723338 0
M  V30 4516 C 430.353 3.04506 -1.67013 0
M  V30 4517 C 429.307 3.2243 -2.81466 0
M  V30 4518 C 428.633 4.61972 -2.69233 0
M  V30 4519 C 429.933 3.06496 -4.22915 0
M  V30 4520 H 431.627 1.52421 -2.57698 0
M  V30 4521 H 429.173 0.731849 -1.24016 0
M  V30 4522 H 431.126 3.82391 -1.77074 0
M  V30 4523 H 429.85 3.18964 -0.70212 0
M  V30 4524 H 428.509 2.46957 -2.70938 0
M  V30 4525 H 428.157 4.73247 -1.7043 0
M  V30 4526 H 427.857 4.74911 -3.46025 0
M  V30 4527 H 429.381 5.41974 -2.81242 0
M  V30 4528 H 430.795 3.74186 -4.34348 0
M  V30 4529 H 429.192 3.30938 -5.006 0
M  V30 4530 H 430.262 2.03077 -4.40327 0
M  V30 4531 N 431.605 1.3629 0.791371 0
M  V30 4532 C 432.854 1.29742 1.54434 0
M  V30 4533 C 433.167 -0.121729 1.95221 0
M  V30 4534 O 434.373 -0.309579 2.69729 0
M  V30 4535 C 432.829 2.27623 2.78776 0
M  V30 4536 C 432.437 3.74963 2.45166 0
M  V30 4537 C 434.181 2.30047 3.56761 0
M  V30 4538 C 432.088 4.64626 3.65891 0
M  V30 4539 H 431.018 0.482113 0.579727 0
M  V30 4540 H 433.669 1.61642 0.868565 0
M  V30 4541 H 432.051 1.88714 3.48142 0
M  V30 4542 H 433.225 4.22596 1.83709 0
M  V30 4543 H 431.54 3.75295 1.80396 0
M  V30 4544 H 434.137 2.94247 4.46456 0
M  V30 4545 H 434.48 1.30846 3.95203 0
M  V30 4546 H 435.013 2.67563 2.94372 0
M  V30 4547 H 431.752 5.64883 3.32547 0
M  V30 4548 H 431.272 4.2171 4.26521 0
M  V30 4549 H 432.951 4.80801 4.32943 0
M  V30 4550 N 433.083 -1.0153 1.20538 0
M  V30 4551 C 434.013 -2.11972 0.979295 0
M  V30 4552 C 434.994 -1.6985 -0.0921787 0
M  V30 4553 O 436.179 -1.94089 0.0655932 0
M  V30 4554 C 433.309 -3.43201 0.531984 0
M  V30 4555 C 432.263 -3.9907 1.54685 0
M  V30 4556 C 431.589 -5.26082 0.956127 0
M  V30 4557 C 432.889 -4.32313 2.93092 0
M  V30 4558 H 434.583 -2.31143 1.90298 0
M  V30 4559 H 432.129 -1.11079 0.916372 0
M  V30 4560 H 434.082 -4.1985 0.361044 0
M  V30 4561 H 432.806 -3.23792 -0.427327 0
M  V30 4562 H 431.465 -3.2453 1.70517 0
M  V30 4563 H 431.113 -5.02999 -0.0111538 0
M  V30 4564 H 430.813 -5.64426 1.63393 0
M  V30 4565 H 432.337 -6.05386 0.796284 0
M  V30 4566 H 433.751 -4.99845 2.80763 0
M  V30 4567 H 432.148 -4.81774 3.57791 0
M  V30 4568 H 433.218 -3.41025 3.44717 0
M  V30 4569 N 434.561 -1.01147 -1.20859 0
M  V30 4570 C 435.838 -0.613136 -1.85742 0
M  V30 4571 C 436.218 0.909004 -1.90526 0
M  V30 4572 O 435.566 1.79862 -1.40932 0
M  V30 4573 C 435.776 -1.255 -3.25654 0
M  V30 4574 C 437.124 -1.3672 -4.01986 0
M  V30 4575 O 438.148 -1.21082 -3.34989 0
M  V30 4576 O 437.007 -1.6194 -5.21956 0
M  V30 4577 H 434.101 -0.210878 -0.799662 0
M  V30 4578 H 436.647 -1.10853 -1.2849 0
M  V30 4579 H 435.419 -2.29532 -3.16908 0
M  V30 4580 H 435.042 -0.746369 -3.90532 0
M  V30 4581 N 436.039 1.36541 -0.78704 0
M  V30 4582 C 437.45 1.81873 -0.421807 0
M  V30 4583 C 437.801 1.65487 1.05397 0
M  V30 4584 O 436.926 1.17448 1.81755 0
M  V30 4585 C 437.521 3.30192 -0.758841 0
M  V30 4586 C 436.08 3.73743 -0.446468 0
M  V30 4587 C 435.227 2.58844 -0.994728 0
M  V30 4588 H 438.178 1.24796 -0.98039 0
M  V30 4589 H 438.199 3.80468 -0.0490648 0
M  V30 4590 H 437.711 3.42087 -1.83299 0
M  V30 4591 H 435.812 3.6741 0.619739 0
M  V30 4592 H 435.925 4.69272 -0.965415 0
M  V30 4593 H 434.289 2.51245 -0.418087 0
M  V30 4594 H 435.072 2.73525 -2.07458 0
M  V30 4595 N 437.518 0.538854 1.48102 0
M  V30 4596 C 438.767 0.0059532 2.01699 0
M  V30 4597 C 439.08 -1.34476 1.42041 0
M  V30 4598 O 440.286 -1.96653 1.87189 0
M  V30 4599 C 438.742 -0.0397627 3.59878 0
M  V30 4600 C 438.35 1.30659 4.28523 0
M  V30 4601 C 440.094 -0.521024 4.2129 0
M  V30 4602 C 438.001 1.22098 5.78659 0
M  V30 4603 H 436.931 -0.00154456 0.753998 0
M  V30 4604 H 439.582 0.683963 1.70277 0
M  V30 4605 H 437.964 -0.783037 3.88181 0
M  V30 4606 H 439.138 2.06613 4.11883 0
M  V30 4607 H 437.453 1.7243 3.79021 0
M  V30 4608 H 440.05 -0.603184 5.31287 0
M  V30 4609 H 440.393 -1.52885 3.8721 0
M  V30 4610 H 440.926 0.166834 3.9745 0
M  V30 4611 H 437.665 2.20424 6.17328 0
M  V30 4612 H 437.185 0.50295 5.97688 0
M  V30 4613 H 438.864 0.915345 6.40492 0
M  V30 4614 N 438.996 -1.55193 0.274407 0
M  V30 4615 C 440.243 -1.99581 -0.342579 0
M  V30 4616 C 440.571 -1.1628 -1.55914 0
M  V30 4617 O 439.826 -0.22029 -1.94456 0
M  V30 4618 C 440.125 -3.49019 -0.769458 0
M  V30 4619 C 439.791 -4.49598 0.342389 0
M  V30 4620 C 438.453 -4.76821 0.647686 0
M  V30 4621 C 440.805 -5.0964 1.09163 0
M  V30 4622 C 438.133 -5.61354 1.70581 0
M  V30 4623 C 440.485 -5.95323 2.13948 0
M  V30 4624 C 439.149 -6.20867 2.45113 0
M  V30 4625 H 438.419 -0.730319 -0.125358 0
M  V30 4626 H 441.066 -1.87529 0.387971 0
M  V30 4627 H 439.371 -3.58544 -1.57967 0
M  V30 4628 H 441.068 -3.8077 -1.25757 0
M  V30 4629 H 437.658 -4.28496 0.094318 0
M  V30 4630 H 441.842 -4.88632 0.869024 0
M  V30 4631 H 437.098 -5.79392 1.9523 0
M  V30 4632 H 441.272 -6.40881 2.72478 0
M  V30 4633 H 438.899 -6.86162 3.27239 0
M  V30 4634 N 440.474 -0.00167713 -1.576 0
M  V30 4635 C 441.421 0.989195 -2.08527 0
M  V30 4636 C 442.391 1.34031 -0.981065 0
M  V30 4637 O 443.576 1.43839 -1.2536 0
M  V30 4638 C 440.716 2.27537 -2.59463 0
M  V30 4639 C 439.829 1.98314 -3.83791 0
M  V30 4640 C 438.964 3.21025 -4.23222 0
M  V30 4641 C 438.003 2.87495 -5.40382 0
M  V30 4642 N 437.14 4.02749 -5.75098 0
M  V30 4643 H 441.98 0.547973 -2.92919 0
M  V30 4644 H 439.517 0.258917 -1.44803 0
M  V30 4645 H 441.475 3.02729 -2.87073 0
M  V30 4646 H 440.105 2.69325 -1.77943 0
M  V30 4647 H 439.157 1.13482 -3.63078 0
M  V30 4648 H 440.469 1.69601 -4.69081 0
M  V30 4649 H 439.623 4.04561 -4.52123 0
M  V30 4650 H 438.362 3.52877 -3.36644 0
M  V30 4651 H 437.367 2.02367 -5.11202 0
M  V30 4652 H 438.592 2.56889 -6.28637 0
M  V30 4653 H 436.538 4.34494 -4.91478 0
M  V30 4654 H 436.455 3.77566 -6.54966 0
M  V30 4655 H 437.723 4.87068 -6.08592 0
M  V30 4656 N 441.952 1.55251 0.271103 0
M  V30 4657 C 443.198 1.76207 1.00394 0
M  V30 4658 C 443.531 0.562604 1.85872 0
M  V30 4659 O 442.806 -0.439785 1.89463 0
M  V30 4660 C 443.089 3.06828 1.8849 0
M  V30 4661 C 442.942 4.37134 1.05992 0
M  V30 4662 C 444.261 3.33503 2.87165 0
M  V30 4663 H 441.38 0.641086 0.363562 0
M  V30 4664 H 444.022 1.87982 0.276189 0
M  V30 4665 H 442.172 2.96921 2.5054 0
M  V30 4666 H 443.844 4.59001 0.459978 0
M  V30 4667 H 442.087 4.32275 0.363443 0
M  V30 4668 H 442.758 5.2486 1.70955 0
M  V30 4669 H 445.234 3.43215 2.3525 0
M  V30 4670 H 444.11 4.2616 3.45946 0
M  V30 4671 H 444.371 2.53235 3.62387 0
M  V30 4672 N 443.43 -0.535701 1.48216 0
M  V30 4673 C 444.677 -1.29183 1.55942 0
M  V30 4674 C 445.005 -1.93125 0.230857 0
M  V30 4675 O 444.26 -1.79556 -0.778331 0
M  V30 4676 C 444.559 -2.4068 2.64212 0
M  V30 4677 C 444.225 -1.94428 4.06827 0
M  V30 4678 C 442.887 -1.81532 4.45645 0
M  V30 4679 C 445.239 -1.59405 4.96225 0
M  V30 4680 C 442.567 -1.31939 5.71672 0
M  V30 4681 C 444.919 -1.11276 6.22736 0
M  V30 4682 C 443.583 -0.969924 6.60416 0
M  V30 4683 H 442.853 -0.472715 0.570632 0
M  V30 4684 H 445.5 -0.598437 1.81909 0
M  V30 4685 H 443.805 -3.15666 2.32083 0
M  V30 4686 H 445.502 -2.98822 2.67407 0
M  V30 4687 H 442.092 -2.05415 3.76168 0
M  V30 4688 H 446.276 -1.68231 4.66917 0
M  V30 4689 H 441.532 -1.19562 5.99596 0
M  V30 4690 H 445.706 -0.832453 6.91407 0
M  V30 4691 H 443.333 -0.583436 7.57958 0
M  V30 4692 N 444.908 -1.36708 -0.784132 0
M  V30 4693 C 446.185 -1.21776 -1.53069 0
M  V30 4694 C 446.565 0.193876 -2.10208 0
M  V30 4695 O 445.913 1.20012 -1.94446 0
M  V30 4696 C 446.123 -2.30395 -2.62143 0
M  V30 4697 C 447.471 -2.67325 -3.29882 0
M  V30 4698 O 448.495 -2.29478 -2.7243 0
M  V30 4699 O 447.354 -3.32485 -4.33724 0
M  V30 4700 H 444.448 -0.474459 -0.677361 0
M  V30 4701 H 446.994 -1.48454 -0.82216 0
M  V30 4702 H 445.766 -3.2498 -2.17953 0
M  V30 4703 H 445.389 -2.05112 -3.40609 0
M  V30 4704 N 446.386 1.0089 -1.21074 0
M  V30 4705 C 447.349 2.0775 -0.968129 0
M  V30 4706 C 448.349 1.6069 0.0593445 0
M  V30 4707 O 449.539 1.73293 -0.177525 0
M  V30 4708 C 446.671 3.37794 -0.459108 0
M  V30 4709 H 447.864 2.30707 -1.9161 0
M  V30 4710 H 445.417 1.17807 -1.02719 0
M  V30 4711 H 446.152 3.20516 0.49397 0
M  V30 4712 H 445.937 3.7328 -1.20019 0
M  V30 4713 H 447.427 4.16454 -0.309099 0
M  V30 4714 N 447.864 1.01787 1.20321 0
M  V30 4715 C 449.113 0.703249 1.89043 0
M  V30 4716 C 449.426 -0.770445 1.79787 0
M  V30 4717 O 450.632 -1.19767 2.43656 0
M  V30 4718 C 449.088 1.20749 3.3904 0
M  V30 4719 C 448.696 2.70817 3.56878 0
M  V30 4720 C 450.44 0.968352 4.13308 0
M  V30 4721 C 448.347 3.14716 5.00708 0
M  V30 4722 H 447.277 0.259354 0.707991 0
M  V30 4723 H 449.928 1.23072 1.36108 0
M  V30 4724 H 448.31 0.607989 3.91305 0
M  V30 4725 H 449.484 3.36327 3.14993 0
M  V30 4726 H 447.799 2.92888 2.95983 0
M  V30 4727 H 450.396 1.27173 5.19356 0
M  V30 4728 H 450.739 -0.095149 4.16191 0
M  V30 4729 H 451.272 1.53129 3.67146 0
M  V30 4730 H 448.011 4.20347 5.02979 0
M  V30 4731 H 447.531 2.53927 5.43398 0
M  V30 4732 H 449.21 3.07426 5.69296 0
M  V30 4733 N 449.342 -1.36122 0.79427 0
M  V30 4734 C 450.275 -2.27759 0.141845 0
M  V30 4735 C 451.253 -1.47471 -0.684921 0
M  V30 4736 O 452.437 -1.76759 -0.654857 0
M  V30 4737 C 449.564 -3.29008 -0.804446 0
M  V30 4738 C 448.61 -4.26459 -0.0588617 0
M  V30 4739 S 449.443 -5.20253 1.26873 0
M  V30 4740 C 450.599 -6.25048 0.326562 0
M  V30 4741 H 450.832 -2.82746 0.918818 0
M  V30 4742 H 448.365 -1.42736 0.588722 0
M  V30 4743 H 450.323 -3.87842 -1.34495 0
M  V30 4744 H 448.984 -2.72924 -1.5547 0
M  V30 4745 H 448.177 -4.97973 -0.777087 0
M  V30 4746 H 447.779 -3.71731 0.411309 0
M  V30 4747 H 450.071 -6.75705 -0.492795 0
M  V30 4748 H 451.014 -7.00852 1.01053 0
M  V30 4749 H 451.422 -5.64454 -0.0722627 0
M  V30 4750 N 450.82 -0.546701 -1.47814 0
M  V30 4751 C 451.768 0.220048 -2.31557 0
M  V30 4752 C 452.762 0.919472 -1.42275 0
M  V30 4753 O 453.968 0.841953 -1.59095 0
M  V30 4754 H 450.343 0.0898334 -0.746615 0
M  V30 4755 H 452.314 -0.505589 -2.94086 0
M  V30 4756 C 451.063 1.24353 -3.24702 0
M  V30 4757 H 450.386 0.714758 -3.93359 0
M  V30 4758 H 451.826 1.75112 -3.8615 0
M  V30 4759 C 450.285 2.28593 -2.47481 0
M  V30 4760 O 450.815 3.35334 -2.21165 0
M  V30 4761 N 449.021 2.02244 -2.08676 0
M  V30 4762 H 448.568 1.15455 -2.30278 0
M  V30 4763 H 448.526 2.72207 -1.57323 0
M  V30 4764 N 452.299 1.55045 -0.282633 0
M  V30 4765 C 453.546 1.9976 0.33199 0
M  V30 4766 C 453.874 1.17105 1.55295 0
M  V30 4767 O 453.129 0.230599 1.94337 0
M  V30 4768 C 453.428 3.49422 0.750938 0
M  V30 4769 C 453.094 4.4941 -0.366228 0
M  V30 4770 C 451.756 4.76471 -0.672964 0
M  V30 4771 C 454.108 5.09054 -1.11864 0
M  V30 4772 C 451.436 5.60442 -1.73556 0
M  V30 4773 C 453.788 5.9418 -2.17102 0
M  V30 4774 C 452.452 6.19558 -2.48402 0
M  V30 4775 H 451.722 0.730974 0.121484 0
M  V30 4776 H 454.369 1.8732 -0.39791 0
M  V30 4777 H 452.674 3.59377 1.56063 0
M  V30 4778 H 454.371 3.81432 1.23736 0
M  V30 4779 H 450.961 4.2844 -0.117041 0
M  V30 4780 H 455.145 4.88165 -0.894925 0
M  V30 4781 H 450.401 5.78349 -1.983 0
M  V30 4782 H 454.575 6.39427 -2.75873 0
M  V30 4783 H 452.202 6.84417 -3.30874 0
M  V30 4784 N 453.777 0.010035 1.57597 0
M  V30 4785 C 454.724 -0.978122 2.09049 0
M  V30 4786 C 455.694 -1.33509 0.988159 0
M  V30 4787 O 456.879 -1.43172 1.26121 0
M  V30 4788 C 454.019 -2.26158 2.60666 0
M  V30 4789 C 453.132 -1.96275 3.84838 0
M  V30 4790 C 452.267 -3.18776 4.24918 0
M  V30 4791 C 451.306 -2.84625 5.41899 0
M  V30 4792 N 450.443 -3.99693 5.77226 0
M  V30 4793 H 455.283 -0.532431 2.93205 0
M  V30 4794 H 452.82 -0.251234 1.44939 0
M  V30 4795 H 454.778 -3.01202 2.88675 0
M  V30 4796 H 453.408 -2.68378 1.79369 0
M  V30 4797 H 452.46 -1.11555 3.63675 0
M  V30 4798 H 453.772 -1.67111 4.69974 0
M  V30 4799 H 452.926 -4.02157 4.54262 0
M  V30 4800 H 451.665 -3.51087 3.38511 0
M  V30 4801 H 450.67 -1.99653 5.12268 0
M  V30 4802 H 451.895 -2.53551 6.29991 0
M  V30 4803 H 449.841 -4.31882 4.93776 0
M  V30 4804 H 449.758 -3.74087 6.56959 0
M  V30 4805 H 451.026 -4.83834 6.11167 0
M  V30 4806 N 455.255 -1.55392 -0.262866 0
M  V30 4807 C 456.202 -1.88966 -1.32516 0
M  V30 4808 C 457.172 -0.742187 -1.48596 0
M  V30 4809 O 458.357 -0.99439 -1.62839 0
M  V30 4810 C 455.497 -2.17592 -2.67858 0
M  V30 4811 C 454.61 -3.45061 -2.59917 0
M  V30 4812 C 453.745 -3.63336 -3.87505 0
M  V30 4813 C 452.784 -4.84462 -3.74116 0
M  V30 4814 N 451.921 -4.99342 -4.93561 0
M  V30 4815 H 456.761 -2.79566 -1.03184 0
M  V30 4816 H 454.298 -1.38404 -0.498285 0
M  V30 4817 H 456.256 -2.3219 -3.46617 0
M  V30 4818 H 454.886 -1.30215 -2.95371 0
M  V30 4819 H 453.938 -3.38881 -1.72812 0
M  V30 4820 H 455.25 -4.3396 -2.45926 0
M  V30 4821 H 454.404 -3.77807 -4.74707 0
M  V30 4822 H 453.143 -2.72641 -4.04374 0
M  V30 4823 H 452.148 -4.69985 -2.85297 0
M  V30 4824 H 453.373 -5.76603 -3.58757 0
M  V30 4825 H 451.319 -4.1158 -5.10821 0
M  V30 4826 H 451.236 -5.82303 -4.82141 0
M  V30 4827 H 452.504 -5.18208 -5.82306 0
M  V30 4828 N 456.733 0.527833 -1.48498 0
M  V30 4829 C 457.643 1.65907 -1.65867 0
M  V30 4830 C 458.659 1.6537 -0.541192 0
M  V30 4831 O 459.835 1.84282 -0.812534 0
M  V30 4832 C 456.9 3.02364 -1.69637 0
M  V30 4833 C 455.961 3.1374 -2.93028 0
M  V30 4834 C 455.194 4.43688 -2.96609 0
M  V30 4835 O 455.417 5.30913 -2.08538 0
M  V30 4836 O 454.351 4.59475 -3.88802 0
M  V30 4837 H 458.177 1.5419 -2.61647 0
M  V30 4838 H 455.762 0.701163 -1.31924 0
M  V30 4839 H 457.644 3.83515 -1.74625 0
M  V30 4840 H 456.319 3.14401 -0.770312 0
M  V30 4841 H 455.226 2.31877 -2.93571 0
M  V30 4842 H 456.559 3.06621 -3.85026 0
M  V30 4843 N 458.211 1.37122 0.776871 0
M  V30 4844 C 459.121 1.34651 1.9211 0
M  V30 4845 C 460.137 0.246824 1.7224 0
M  V30 4846 O 461.313 0.48134 1.95563 0
M  V30 4847 C 458.378 1.14748 3.2716 0
M  V30 4848 C 457.439 2.34308 3.5972 0
M  V30 4849 C 456.672 2.15345 4.88326 0
M  V30 4850 O 456.895 1.13507 5.58992 0
M  V30 4851 O 455.829 3.03414 5.1983 0
M  V30 4852 H 459.655 2.31013 1.97146 0
M  V30 4853 H 457.24 1.17799 0.918901 0
M  V30 4854 H 459.122 1.05616 4.0795 0
M  V30 4855 H 457.797 0.214562 3.22988 0
M  V30 4856 H 456.704 2.49011 2.79185 0
M  V30 4857 H 458.037 3.26149 3.68629 0
M  V30 4858 N 459.689 -1.00246 1.21608 0
M  V30 4859 C 460.917 -1.77631 1.06089 0
M  V30 4860 C 461.332 -1.84746 -0.38916 0
M  V30 4861 O 460.689 -1.31068 -1.26994 0
M  V30 4862 C 460.74 -3.21415 1.65453 0
M  V30 4863 O 460.461 -3.14703 3.04785 0
M  V30 4864 C 461.962 -4.15289 1.55079 0
M  V30 4865 H 459.182 -0.558162 0.37242 0
M  V30 4866 H 461.726 -1.26093 1.60999 0
M  V30 4867 H 459.881 -3.70053 1.14629 0
M  V30 4868 H 460.295 -4.05056 3.33212 0
M  V30 4869 H 461.769 -5.13965 2.01355 0
M  V30 4870 H 462.246 -4.36279 0.505665 0
M  V30 4871 H 462.852 -3.72543 2.05163 0
M  V30 4872 N 461.167 -1.02423 -1.1978 0
M  V30 4873 C 462.13 -0.605703 -2.21052 0
M  V30 4874 C 463.13 0.328209 -1.57415 0
M  V30 4875 O 464.32 0.115853 -1.73814 0
M  V30 4876 C 461.452 0.114366 -3.40708 0
M  V30 4877 H 462.645 -1.5017 -2.59594 0
M  V30 4878 H 460.198 -0.814888 -1.33376 0
M  V30 4879 H 460.933 1.02492 -3.07678 0
M  V30 4880 H 460.718 -0.556641 -3.88129 0
M  V30 4881 H 462.208 0.394272 -4.15735 0
M  V30 4882 N 462.645 1.35699 -0.801477 0
M  V30 4883 C 463.592 2.29876 -0.206294 0
M  V30 4884 C 464.562 1.52565 0.656752 0
M  V30 4885 O 465.747 1.81024 0.602906 0
M  V30 4886 C 462.887 3.39052 0.643272 0
M  V30 4887 C 462 4.31335 -0.239644 0
M  V30 4888 C 461.135 5.27599 0.61744 0
M  V30 4889 C 460.174 6.11521 -0.26619 0
M  V30 4890 N 459.311 6.99938 0.550571 0
M  V30 4891 H 464.151 2.80187 -1.01484 0
M  V30 4892 H 461.688 1.37902 -0.511997 0
M  V30 4893 H 463.646 4.0101 1.15094 0
M  V30 4894 H 462.276 2.9003 1.41713 0
M  V30 4895 H 461.328 3.70426 -0.865381 0
M  V30 4896 H 462.64 4.90243 -0.919985 0
M  V30 4897 H 461.794 5.94906 1.19045 0
M  V30 4898 H 460.533 4.69176 1.33137 0
M  V30 4899 H 459.538 5.43166 -0.851507 0
M  V30 4900 H 460.763 6.72022 -0.9779 0
M  V30 4901 H 458.709 6.44008 1.24856 0
M  V30 4902 H 458.626 7.55966 -0.071832 0
M  V30 4903 H 459.894 7.71599 1.10702 0
M  V30 4904 N 464.123 0.554532 1.47522 0
M  V30 4905 C 465.053 -0.182974 2.32782 0
M  V30 4906 C 466.034 -0.911377 1.43624 0
M  V30 4907 O 467.219 -0.892366 1.72483 0
M  V30 4908 C 464.349 -1.21513 3.25349 0
M  V30 4909 C 463.303 -0.603355 4.23726 0
M  V30 4910 C 462.629 -1.73995 5.05598 0
M  V30 4911 C 463.929 0.441121 5.20434 0
M  V30 4912 H 465.623 0.52882 2.94693 0
M  V30 4913 H 463.169 0.255759 1.41711 0
M  V30 4914 H 465.122 -1.73922 3.83835 0
M  V30 4915 H 463.846 -1.95683 2.61487 0
M  V30 4916 H 462.505 -0.10059 3.66462 0
M  V30 4917 H 462.153 -2.47063 4.38143 0
M  V30 4918 H 461.853 -1.3364 5.72201 0
M  V30 4919 H 463.377 -2.26735 5.66942 0
M  V30 4920 H 464.791 0.00319931 5.733 0
M  V30 4921 H 463.188 0.763402 5.95224 0
M  V30 4922 H 464.258 1.33799 4.66075 0
M  V30 4923 N 465.601 -1.54893 0.290851 0
M  V30 4924 C 466.85 -1.99111 -0.322113 0
M  V30 4925 C 467.163 -1.18283 -1.55784 0
M  V30 4926 O 468.369 -1.5272 -2.24475 0
M  V30 4927 C 466.825 -3.54442 -0.624438 0
M  V30 4928 C 466.433 -4.44066 0.592373 0
M  V30 4929 C 468.177 -4.07211 -1.19916 0
M  V30 4930 C 466.084 -5.90812 0.263762 0
M  V30 4931 H 465.014 -0.743712 -0.124133 0
M  V30 4932 H 467.665 -1.79132 0.39797 0
M  V30 4933 H 466.047 -3.70281 -1.40384 0
M  V30 4934 H 467.221 -4.39999 1.36886 0
M  V30 4935 H 465.536 -4.02015 1.08502 0
M  V30 4936 H 468.133 -5.14407 -1.45909 0
M  V30 4937 H 468.476 -3.57196 -2.13815 0
M  V30 4938 H 469.009 -3.94873 -0.481687 0
M  V30 4939 H 465.748 -6.44955 1.17105 0
M  V30 4940 H 465.268 -5.97911 -0.475655 0
M  V30 4941 H 466.947 -6.46852 -0.138354 0
M  V30 4942 N 467.08 -0.0183926 -1.57589 0
M  V30 4943 C 467.99 0.982943 -2.13015 0
M  V30 4944 C 469.006 1.36443 -1.07979 0
M  V30 4945 O 470.182 1.44802 -1.3998 0
M  V30 4946 C 467.247 2.25024 -2.63752 0
M  V30 4947 C 466.308 1.93018 -3.83461 0
M  V30 4948 C 465.541 3.13706 -4.31769 0
M  V30 4949 O 465.764 4.2601 -3.79305 0
M  V30 4950 O 464.698 2.96629 -5.23732 0
M  V30 4951 H 468.524 0.541709 -2.9883 0
M  V30 4952 H 466.109 0.201565 -1.48034 0
M  V30 4953 H 467.991 2.99441 -2.96502 0
M  V30 4954 H 466.666 2.68349 -1.81026 0
M  V30 4955 H 465.573 1.16019 -3.55655 0
M  V30 4956 H 466.906 1.54516 -4.67317 0
M  V30 4957 N 468.558 1.5553 0.254621 0
M  V30 4958 C 469.505 1.89666 1.31512 0
M  V30 4959 C 470.475 0.750057 1.482 0
M  V30 4960 O 471.66 1.00301 1.62309 0
M  V30 4961 C 468.8 2.19009 2.667 0
M  V30 4962 C 467.913 3.46435 2.58083 0
M  V30 4963 C 467.048 3.65386 3.85573 0
M  V30 4964 C 466.087 4.8644 3.71541 0
M  V30 4965 N 465.224 5.01952 4.90906 0
M  V30 4966 H 470.064 2.80109 1.017 0
M  V30 4967 H 467.601 1.38666 0.490938 0
M  V30 4968 H 469.559 2.34025 3.45381 0
M  V30 4969 H 468.189 1.31779 2.94676 0
M  V30 4970 H 467.241 3.39792 1.71013 0
M  V30 4971 H 468.553 4.35258 2.43622 0
M  V30 4972 H 467.707 3.80319 4.72697 0
M  V30 4973 H 466.446 2.74781 4.02922 0
M  V30 4974 H 465.451 4.71491 2.82801 0
M  V30 4975 H 466.676 5.78497 3.55694 0
M  V30 4976 H 464.622 4.14283 5.08631 0
M  V30 4977 H 464.539 5.84851 4.79046 0
M  V30 4978 H 465.807 5.21289 5.7955 0
M  V30 4979 N 470.036 -0.519951 1.48776 0
M  V30 4980 C 470.966 -1.63253 1.66945 0
M  V30 4981 C 471.947 -1.62014 0.518224 0
M  V30 4982 O 473.132 -1.79053 0.751919 0
M  V30 4983 C 470.262 -3.0181 1.71836 0
M  V30 4984 C 469.216 -3.17911 2.8656 0
M  V30 4985 C 468.542 -4.5763 2.76548 0
M  V30 4986 C 469.842 -2.99729 4.27738 0
M  V30 4987 H 471.536 -1.48302 2.6009 0
M  V30 4988 H 469.082 -0.712026 1.25165 0
M  V30 4989 H 471.035 -3.79525 1.83135 0
M  V30 4990 H 469.759 -3.17806 0.752775 0
M  V30 4991 H 468.418 -2.42616 2.74833 0
M  V30 4992 H 468.066 -4.70476 1.77937 0
M  V30 4993 H 467.766 -4.69346 3.53536 0
M  V30 4994 H 469.29 -5.37431 2.89828 0
M  V30 4995 H 470.704 -3.67228 4.40246 0
M  V30 4996 H 469.101 -3.22932 5.05801 0
M  V30 4997 H 470.171 -1.96047 4.43502 0
M  V30 4998 N 471.514 -1.37532 -0.769588 0
M  V30 4999 C 472.791 -1.23392 -1.51768 0
M  V30 5000 C 473.171 0.17157 -2.10402 0
M  V30 5001 O 472.519 1.17943 -1.95708 0
M  V30 5002 C 472.729 -2.33163 -2.59685 0
M  V30 5003 C 474.077 -2.70809 -3.27028 0
M  V30 5004 O 475.101 -2.32355 -2.69981 0
M  V30 5005 O 473.96 -3.37066 -4.30173 0
M  V30 5006 H 471.054 -0.481617 -0.67229 0
M  V30 5007 H 473.6 -1.49318 -0.806368 0
M  V30 5008 H 472.372 -3.27273 -2.14494 0
M  V30 5009 H 471.995 -2.08713 -3.38415 0
M  V30 5010 N 472.992 0.995999 -1.22138 0
M  V30 5011 C 474.241 1.72928 -1.03821 0
M  V30 5012 C 474.554 1.90872 0.427444 0
M  V30 5013 O 475.76 2.61496 0.730212 0
M  V30 5014 C 474.216 3.11124 -1.80913 0
M  V30 5015 C 473.824 3.01122 -3.31707 0
M  V30 5016 C 475.568 3.8852 -1.71035 0
M  V30 5017 C 473.475 4.34453 -4.01253 0
M  V30 5018 H 472.405 0.648376 -0.384869 0
M  V30 5019 H 475.056 1.11213 -1.45959 0
M  V30 5020 H 473.438 3.73503 -1.31573 0
M  V30 5021 H 474.612 2.47926 -3.88419 0
M  V30 5022 H 472.927 2.3721 -3.42228 0
M  V30 5023 H 475.524 4.872 -2.20318 0
M  V30 5024 H 475.867 4.1087 -0.670196 0
M  V30 5025 H 476.4 3.32812 -2.17902 0
M  V30 5026 H 473.139 4.17303 -5.05508 0
M  V30 5027 H 472.659 4.87574 -3.49331 0
M  V30 5028 H 474.338 5.03215 -4.06674 0
M  V30 5029 N 474.47 1.03057 1.19235 0
M  V30 5030 C 475.417 0.612832 2.22515 0
M  V30 5031 C 476.387 -0.374224 1.61829 0
M  V30 5032 O 477.572 -0.270501 1.88873 0
M  V30 5033 C 474.712 -0.028475 3.45088 0
M  V30 5034 C 473.825 1.00483 4.20151 0
M  V30 5035 C 472.96 0.333102 5.30155 0
M  V30 5036 C 471.999 1.3522 5.96977 0
M  V30 5037 N 471.136 0.70616 6.9854 0
M  V30 5038 H 475.976 1.49812 2.57605 0
M  V30 5039 H 473.513 0.749658 1.26564 0
M  V30 5040 H 475.471 -0.417548 4.15105 0
M  V30 5041 H 474.101 -0.877334 3.10649 0
M  V30 5042 H 473.153 1.51194 3.49062 0
M  V30 5043 H 474.465 1.77929 4.65986 0
M  V30 5044 H 473.619 -0.110725 6.06599 0
M  V30 5045 H 472.358 -0.473547 4.85396 0
M  V30 5046 H 471.363 1.80627 5.19282 0
M  V30 5047 H 472.588 2.16037 6.4382 0
M  V30 5048 H 470.534 -0.0803667 6.55951 0
M  V30 5049 H 470.451 1.41848 7.42573 0
M  V30 5050 H 471.719 0.286391 7.78974 0
M  V30 5051 N 475.948 -1.35272 0.808662 0
M  V30 5052 C 476.878 -2.32315 0.234981 0
M  V30 5053 C 477.859 -1.57572 -0.64071 0
M  V30 5054 O 479.044 -1.8563 -0.570551 0
M  V30 5055 C 476.174 -3.41801 -0.615601 0
M  V30 5056 C 475.128 -4.27694 0.161767 0
M  V30 5057 C 474.454 -5.28519 -0.810649 0
M  V30 5058 C 475.754 -5.04231 1.36193 0
M  V30 5059 H 477.448 -2.80543 1.04575 0
M  V30 5060 H 474.994 -1.3488 0.504315 0
M  V30 5061 H 476.947 -4.08693 -1.02702 0
M  V30 5062 H 475.671 -2.92186 -1.45928 0
M  V30 5063 H 474.33 -3.62384 0.554382 0
M  V30 5064 H 473.978 -4.75171 -1.64988 0
M  V30 5065 H 473.678 -5.8686 -0.294822 0
M  V30 5066 H 475.202 -5.98283 -1.22023 0
M  V30 5067 H 476.616 -5.64058 1.02528 0
M  V30 5068 H 475.013 -5.72077 1.81239 0
M  V30 5069 H 476.083 -4.34753 2.14751 0
M  V30 5070 N 477.426 -0.562348 -1.47226 0
M  V30 5071 C 478.703 0.0256985 -1.95583 0
M  V30 5072 C 479.083 1.48032 -1.50498 0
M  V30 5073 O 478.431 2.15973 -0.746181 0
M  V30 5074 C 478.641 -0.125129 -3.48776 0
M  V30 5075 C 479.989 0.0175728 -4.24596 0
M  V30 5076 O 481.013 -0.0529341 -3.56161 0
M  V30 5077 O 479.872 0.170145 -5.46235 0
M  V30 5078 H 476.966 0.0612565 -0.824728 0
M  V30 5079 H 479.512 -0.629233 -1.57603 0
M  V30 5080 H 478.284 -1.13715 -3.74412 0
M  V30 5081 H 477.907 0.567178 -3.93534 0
M  V30 5082 N 478.904 1.54736 -0.299062 0
M  V30 5083 C 480.129 2.04975 0.316254 0
M  V30 5084 C 480.554 1.17501 1.46885 0
M  V30 5085 O 479.912 0.178678 1.80417 0
M  V30 5086 C 479.96 3.52672 0.751997 0
M  V30 5087 O 479.064 3.68226 1.85697 0
M  V30 5088 H 478.405 0.661126 0.0617175 0
M  V30 5089 H 480.935 1.99805 -0.440341 0
M  V30 5090 H 480.945 3.94488 1.04133 0
M  V30 5091 H 479.62 4.158 -0.0911482 0
M  V30 5092 H 478.197 3.38316 1.56834 0
M  V30 5093 N 480.382 0.0267497 1.57577 0
M  V30 5094 C 481.292 -0.971633 2.13533 0
M  V30 5095 C 482.308 -1.35868 1.08701 0
M  V30 5096 O 483.484 -1.44058 1.40746 0
M  V30 5097 C 480.549 -2.23622 2.64941 0
M  V30 5098 C 479.61 -1.90982 3.8448 0
M  V30 5099 C 478.843 -3.11411 4.33427 0
M  V30 5100 O 479.066 -4.23992 3.81558 0
M  V30 5101 O 478 -2.93848 5.25297 0
M  V30 5102 H 481.826 -0.525853 2.99113 0
M  V30 5103 H 479.411 -0.193712 1.48139 0
M  V30 5104 H 481.293 -2.97864 2.98086 0
M  V30 5105 H 479.968 -2.67386 1.82446 0
M  V30 5106 H 478.875 -1.14132 3.56265 0
M  V30 5107 H 480.208 -1.52036 4.6813 0
M  V30 5108 N 481.861 -1.55662 -0.24637 0
M  V30 5109 C 483.138 -1.68272 -0.997198 0
M  V30 5110 C 483.518 -0.566785 -2.03349 0
M  V30 5111 O 482.866 0.429688 -2.24424 0
M  V30 5112 C 483.076 -3.08594 -1.63006 0
M  V30 5113 C 484.424 -3.6721 -2.13171 0
M  V30 5114 O 485.448 -3.11397 -1.72946 0
M  V30 5115 O 484.307 -4.65054 -2.87031 0
M  V30 5116 H 481.401 -0.684429 -0.464205 0
M  V30 5117 H 483.947 -1.67993 -0.240114 0
M  V30 5118 H 482.719 -3.81264 -0.880527 0
M  V30 5119 H 482.342 -3.12886 -2.45333 0
M  V30 5120 N 483.339 0.512053 -1.4905 0
M  V30 5121 C 484.286 1.6148 -1.64902 0
M  V30 5122 C 485.256 1.58687 -0.490673 0
M  V30 5123 O 486.441 1.76842 -0.71636 0
M  V30 5124 C 483.581 2.99676 -1.71139 0
M  V30 5125 C 482.694 3.12568 -2.98203 0
M  V30 5126 C 481.829 4.4143 -2.95487 0
M  V30 5127 C 480.868 4.47916 -4.17179 0
M  V30 5128 N 480.005 5.68191 -4.12437 0
M  V30 5129 H 484.845 1.47271 -2.59066 0
M  V30 5130 H 482.382 0.716713 -1.28459 0
M  V30 5131 H 484.34 3.79761 -1.72736 0
M  V30 5132 H 482.97 3.12614 -0.804508 0
M  V30 5133 H 482.022 2.25618 -3.06269 0
M  V30 5134 H 483.334 3.1322 -3.88194 0
M  V30 5135 H 482.488 5.29825 -2.95585 0
M  V30 5136 H 481.227 4.43326 -2.03256 0
M  V30 5137 H 480.232 3.57925 -4.17337 0
M  V30 5138 H 481.457 4.47744 -5.1059 0
M  V30 5139 H 479.403 5.7095 -3.23036 0
M  V30 5140 H 479.32 5.70413 -4.96151 0
M  V30 5141 H 480.588 6.58823 -4.16621 0
M  V30 5142 N 484.817 1.37938 0.762283 0
M  V30 5143 C 486.094 1.24196 1.51112 0
M  V30 5144 C 486.474 -0.160409 2.1049 0
M  V30 5145 O 485.822 -1.16904 1.96331 0
M  V30 5146 C 486.032 2.34537 2.58445 0
M  V30 5147 C 487.38 2.7254 3.25588 0
M  V30 5148 O 488.404 2.33783 2.68745 0
M  V30 5149 O 487.263 3.39343 4.28379 0
M  V30 5150 H 484.357 0.485175 0.669727 0
M  V30 5151 H 486.903 1.49743 0.798438 0
M  V30 5152 H 485.675 3.28406 2.12756 0
M  V30 5153 H 485.298 2.10505 3.37303 0
M  V30 5154 N 486.295 -0.989507 1.22664 0
M  V30 5155 C 487.242 -2.08024 0.999733 0
M  V30 5156 C 488.212 -1.65909 -0.0797047 0
M  V30 5157 O 489.397 -1.90669 0.0705715 0
M  V30 5158 C 486.537 -3.40067 0.587234 0
M  V30 5159 C 485.65 -3.95505 1.73781 0
M  V30 5160 C 484.785 -5.15722 1.27297 0
M  V30 5161 C 483.824 -5.63305 2.39488 0
M  V30 5162 N 482.961 -6.74758 1.94026 0
M  V30 5163 H 487.801 -2.26768 1.9334 0
M  V30 5164 H 485.338 -1.11171 0.963297 0
M  V30 5165 H 487.296 -4.15899 0.329227 0
M  V30 5166 H 485.926 -3.21314 -0.309426 0
M  V30 5167 H 484.978 -3.16513 2.11006 0
M  V30 5168 H 486.29 -4.26797 2.58158 0
M  V30 5169 H 485.444 -5.98854 0.972546 0
M  V30 5170 H 484.183 -4.86061 0.399445 0
M  V30 5171 H 483.188 -4.78759 2.70315 0
M  V30 5172 H 484.413 -5.94988 3.27362 0
M  V30 5173 H 482.359 -6.46874 1.09041 0
M  V30 5174 H 482.276 -7.05386 2.71968 0
M  V30 5175 H 483.544 -7.61387 1.67062 0
M  V30 5176 N 487.773 -1.03688 -1.18687 0
M  V30 5177 C 488.683 -0.634908 -2.25845 0
M  V30 5178 C 489.699 0.337065 -1.70704 0
M  V30 5179 O 490.875 0.192943 -2.00474 0
M  V30 5180 C 487.94 -0.000180054 -3.467 0
M  V30 5181 C 487.001 -1.02067 -4.1699 0
M  V30 5182 C 486.234 -0.41614 -5.32075 0
M  V30 5183 O 486.457 0.778712 -5.65059 0
M  V30 5184 O 485.391 -1.14296 -5.90948 0
M  V30 5185 H 489.217 -1.52757 -2.62486 0
M  V30 5186 H 486.802 -0.807533 -1.25695 0
M  V30 5187 H 488.684 0.353342 -4.19916 0
M  V30 5188 H 487.359 0.866367 -3.11891 0
M  V30 5189 H 486.266 -1.42592 -3.45859 0
M  V30 5190 H 487.599 -1.85786 -4.5579 0
M  V30 5191 N 489.251 1.34841 -0.815825 0
M  V30 5192 C 490.499 1.98107 -0.399744 0
M  V30 5193 C 490.82 1.65019 1.03894 0
M  V30 5194 O 490.09 0.937311 1.72021 0
M  V30 5195 H 488.67 0.732827 -0.144823 0
M  V30 5196 H 491.332 1.64599 -1.0437 0
M  V30 5197 H 490.428 3.07856 -0.512965 0
M  V30 5198 N 490.729 0.570148 1.46925 0
M  V30 5199 C 491.676 -0.170257 2.30171 0
M  V30 5200 C 492.646 -0.896099 1.39855 0
M  V30 5201 O 493.831 -0.889248 1.68811 0
M  V30 5202 C 490.971 -1.18605 3.24079 0
M  V30 5203 C 490.084 -0.464947 4.29491 0
M  V30 5204 C 489.219 -1.46716 5.10537 0
M  V30 5205 C 488.258 -0.731758 6.0771 0
M  V30 5206 N 487.395 -1.68142 6.81669 0
M  V30 5207 H 492.235 0.545713 2.92961 0
M  V30 5208 H 489.772 0.280938 1.44392 0
M  V30 5209 H 491.73 -1.78771 3.76957 0
M  V30 5210 H 490.36 -1.86989 2.63125 0
M  V30 5211 H 489.412 0.251506 3.79568 0
M  V30 5212 H 490.724 0.110548 4.98677 0
M  V30 5213 H 489.878 -2.14199 5.6763 0
M  V30 5214 H 488.617 -2.07658 4.41282 0
M  V30 5215 H 487.622 -0.0430787 5.49783 0
M  V30 5216 H 488.847 -0.127904 6.7898 0
M  V30 5217 H 486.793 -2.27918 6.15134 0
M  V30 5218 H 486.71 -1.15841 7.47072 0
M  V30 5219 H 487.978 -2.347 7.43328 0
M  V30 5220 N 492.207 -1.54576 0.307264 0
M  V30 5221 C 493.618 -1.8579 -0.184121 0
M  V30 5222 C 493.969 -1.22914 -1.52927 0
M  V30 5223 O 493.094 -0.529126 -2.09831 0
M  V30 5224 C 493.689 -3.37081 -0.340862 0
M  V30 5225 C 492.248 -3.68304 -0.776465 0
M  V30 5226 C 491.395 -2.77076 0.111503 0
M  V30 5227 H 494.346 -1.49656 0.528078 0
M  V30 5228 H 494.367 -3.61922 -1.17443 0
M  V30 5229 H 493.879 -3.82815 0.638309 0
M  V30 5230 H 491.98 -3.28092 -1.76596 0
M  V30 5231 H 492.093 -4.75434 -0.591512 0
M  V30 5232 H 490.457 -2.51374 -0.410256 0
M  V30 5233 H 491.24 -3.25632 1.08714 0
M  V30 5234 N 493.685 -0.035106 -1.57561 0
M  V30 5235 C 494.615 0.942993 -2.13612 0
M  V30 5236 C 495.596 1.33531 -1.05373 0
M  V30 5237 O 496.781 1.41287 -1.33235 0
M  V30 5238 C 493.911 2.22332 -2.66807 0
M  V30 5239 C 492.865 1.97156 -3.79886 0
M  V30 5240 C 492.191 3.31506 -4.19533 0
M  V30 5241 C 493.491 1.30596 -5.05709 0
M  V30 5242 H 495.185 0.476179 -2.95589 0
M  V30 5243 H 492.731 0.227602 -1.4219 0
M  V30 5244 H 494.684 2.91142 -3.04654 0
M  V30 5245 H 493.408 2.7119 -1.81999 0
M  V30 5246 H 492.067 1.30763 -3.42486 0
M  V30 5247 H 491.715 3.78134 -3.31698 0
M  V30 5248 H 491.415 3.15465 -4.95738 0
M  V30 5249 H 492.939 4.01574 -4.59968 0
M  V30 5250 H 494.353 1.89416 -5.41105 0
M  V30 5251 H 492.75 1.24934 -5.86951 0
M  V30 5252 H 493.82 0.279742 -4.84092 0
M  V30 5253 N 495.163 1.55791 0.238111 0
M  V30 5254 C 496.093 1.94068 1.29846 0
M  V30 5255 C 497.074 0.806726 1.49753 0
M  V30 5256 O 498.259 1.06772 1.62214 0
M  V30 5257 C 495.389 2.24302 2.65153 0
M  V30 5258 C 494.343 3.40032 2.59927 0
M  V30 5259 C 493.669 3.55829 3.99111 0
M  V30 5260 C 494.969 4.75476 2.16148 0
M  V30 5261 H 496.663 2.82887 0.980563 0
M  V30 5262 H 494.209 1.36105 0.470253 0
M  V30 5263 H 496.162 2.4967 3.39475 0
M  V30 5264 H 494.886 1.32318 2.98596 0
M  V30 5265 H 493.545 3.14687 1.88063 0
M  V30 5266 H 493.193 2.6125 4.29834 0
M  V30 5267 H 492.893 4.3366 3.96501 0
M  V30 5268 H 494.417 3.83528 4.7512 0
M  V30 5269 H 495.831 5.00158 2.80205 0
M  V30 5270 H 494.228 5.56472 2.24631 0
M  V30 5271 H 495.298 4.71946 1.11333 0
M  V30 5272 N 496.642 -0.504142 1.49319 0
M  V30 5273 C 497.589 -1.60603 1.65756 0
M  V30 5274 C 498.559 -1.58425 0.499082 0
M  V30 5275 O 499.744 -1.76459 0.725728 0
M  V30 5276 C 496.884 -2.98764 1.72726 0
M  V30 5277 C 495.997 -3.10982 2.99857 0
M  V30 5278 C 495.132 -4.39857 2.97824 0
M  V30 5279 C 494.171 -4.45697 4.19548 0
M  V30 5280 N 493.308 -5.65995 4.15444 0
M  V30 5281 H 498.148 -1.45895 2.59843 0
M  V30 5282 H 495.685 -0.709891 1.28837 0
M  V30 5283 H 497.643 -3.78839 1.74747 0
M  V30 5284 H 496.273 -3.12183 0.821075 0
M  V30 5285 H 495.325 -2.23991 3.07461 0
M  V30 5286 H 496.637 -3.11157 3.89849 0
M  V30 5287 H 495.791 -5.2825 2.98391 0
M  V30 5288 H 494.53 -4.42242 2.05604 0
M  V30 5289 H 493.535 -3.55707 4.19229 0
M  V30 5290 H 494.76 -4.4503 5.12957 0
M  V30 5291 H 492.706 -5.69229 3.26059 0
M  V30 5292 H 492.623 -5.67773 4.99169 0
M  V30 5293 H 493.891 -6.56604 4.20109 0
M  V30 5294 N 498.12 -1.38341 -0.754957 0
M  V30 5295 C 499.083 -1.35262 -1.85032 0
M  V30 5296 C 500.083 -0.253393 -1.58791 0
M  V30 5297 O 501.273 -0.510205 -1.66561 0
M  V30 5298 C 498.405 -1.10544 -3.22479 0
M  V30 5299 H 499.598 -2.32712 -1.8917 0
M  V30 5300 H 497.151 -1.23614 -0.956515 0
M  V30 5301 H 497.886 -0.136952 -3.24011 0
M  V30 5302 H 497.671 -1.90127 -3.4292 0
M  V30 5303 H 499.161 -1.11082 -4.02555 0
M  V30 5304 N 499.598 0.982988 -1.23187 0
M  V30 5305 C 500.844 1.72648 -1.06398 0
M  V30 5306 C 501.177 1.90066 0.398561 0
M  V30 5307 O 500.452 1.45105 1.29518 0
M  V30 5308 C 500.735 3.12627 -1.78707 0
M  V30 5309 C 500.588 3.02795 -3.32618 0
M  V30 5310 C 501.907 4.11997 -1.54747 0
M  V30 5311 H 499.026 0.626649 -0.387918 0
M  V30 5312 H 501.668 1.14455 -1.51658 0
M  V30 5313 H 499.818 3.62308 -1.40234 0
M  V30 5314 H 501.49 2.60659 -3.80598 0
M  V30 5315 H 499.733 2.39362 -3.61785 0
M  V30 5316 H 500.404 4.01893 -3.78399 0
M  V30 5317 H 502.88 3.71114 -1.88186 0
M  V30 5318 H 501.756 5.08037 -2.07821 0
M  V30 5319 H 502.017 4.39462 -0.482249 0
M  V30 5320 N 501.076 1.04316 1.18135 0
M  V30 5321 C 502.009 0.580823 2.20685 0
M  V30 5322 C 502.987 -0.385943 1.57953 0
M  V30 5323 O 504.171 -0.299654 1.86103 0
M  V30 5324 C 501.298 -0.151162 3.38363 0
M  V30 5325 C 500.344 0.769247 4.19505 0
M  V30 5326 S 501.177 2.25352 4.85774 0
M  V30 5327 C 502.333 1.53246 6.0685 0
M  V30 5328 H 502.566 1.44968 2.5956 0
M  V30 5329 H 500.099 0.85434 1.28609 0
M  V30 5330 H 502.057 -0.567315 4.06561 0
M  V30 5331 H 500.718 -0.995936 2.97892 0
M  V30 5332 H 499.911 0.203335 5.0359 0
M  V30 5333 H 499.513 1.12436 3.56699 0
M  V30 5334 H 501.805 0.82689 6.72435 0
M  V30 5335 H 502.748 2.35044 6.67952 0
M  V30 5336 H 503.156 1.0237 5.5514 0
M  V30 5337 N 502.554 -1.34406 0.822964 0
M  V30 5338 C 503.97 -1.51275 0.508727 0
M  V30 5339 C 504.17 -1.76776 -0.967083 0
M  V30 5340 O 503.226 -1.81871 -1.75155 0
M  V30 5341 C 504.539 -2.67765 1.36829 0
M  V30 5342 C 506.087 -2.81647 1.36542 0
M  V30 5343 C 506.562 -4.01181 2.20947 0
M  V30 5344 N 508.053 -4.08388 2.18571 0
M  V30 5345 C 508.788 -5.00036 2.80627 0
M  V30 5346 N 508.284 -5.96906 3.51674 0
M  V30 5347 N 510.077 -4.92908 2.70181 0
M  V30 5348 H 502.228 -1.16113 1.77852 0
M  V30 5349 H 504.491 -0.56947 0.757897 0
M  V30 5350 H 504.197 -2.55551 2.41633 0
M  V30 5351 H 504.071 -3.62779 1.03303 0
M  V30 5352 H 506.458 -2.93303 0.325163 0
M  V30 5353 H 506.539 -1.87443 1.74066 0
M  V30 5354 H 506.183 -3.90286 3.25022 0
M  V30 5355 H 506.113 -4.94599 1.80774 0
M  V30 5356 H 508.604 -3.39051 1.66891 0
M  V30 5357 H 508.917 -6.63468 3.96271 0
M  V30 5358 H 507.262 -5.9703 3.5578 0
M  V30 5359 H 510.453 -4.1619 2.14251 0
M  V30 5360 H 510.626 -5.64137 3.18831 0
M  V30 5361 N 504.032 -0.577932 -1.46621 0
M  V30 5362 C 505.448 -0.239242 -1.57797 0
M  V30 5363 C 505.648 1.25843 -1.57371 0
M  V30 5364 O 504.704 2.03988 -1.48813 0
M  V30 5365 C 506.017 -0.884227 -2.87405 0
M  V30 5366 C 507.565 -0.857373 -3.01028 0
M  V30 5367 C 508.04 -1.48181 -4.33366 0
M  V30 5368 N 509.531 -1.44593 -4.40053 0
M  V30 5369 C 510.266 -1.89852 -5.41058 0
M  V30 5370 N 509.762 -2.43062 -6.48762 0
M  V30 5371 N 511.555 -1.80797 -5.3223 0
M  V30 5372 H 503.706 -1.55073 -1.45142 0
M  V30 5373 H 505.969 -0.647903 -0.692044 0
M  V30 5374 H 505.675 -1.93759 -2.93514 0
M  V30 5375 H 505.549 -0.389585 -3.75183 0
M  V30 5376 H 507.936 0.187357 -2.94505 0
M  V30 5377 H 508.017 -1.38999 -2.14739 0
M  V30 5378 H 507.661 -2.52572 -4.40647 0
M  V30 5379 H 507.591 -0.924464 -5.18422 0
M  V30 5380 H 510.082 -1.05694 -3.62819 0
M  V30 5381 H 510.395 -2.75466 -7.22038 0
M  V30 5382 H 508.74 -2.47085 -6.49595 0
M  V30 5383 H 511.931 -1.38989 -4.46989 0
M  V30 5384 H 512.104 -2.16385 -6.10804 0
M  V30 5385 N 505.51 1.54411 -0.315457 0
M  V30 5386 C 506.756 2.01425 0.282775 0
M  V30 5387 C 507.111 1.19978 1.5041 0
M  V30 5388 O 506.404 0.271766 1.89663 0
M  V30 5389 C 506.598 3.50936 0.676652 0
M  V30 5390 C 506.427 4.46856 -0.504954 0
M  V30 5391 C 505.197 4.95275 -1.00152 0
M  V30 5392 C 507.395 4.96141 -1.35456 0
M  V30 5393 N 505.377 5.75081 -2.14838 0
M  V30 5394 C 506.748 5.73791 -2.3487 0
M  V30 5395 C 508.803 4.78299 -1.38327 0
M  V30 5396 C 507.506 6.35498 -3.36949 0
M  V30 5397 C 509.532 5.40836 -2.39271 0
M  V30 5398 C 508.894 6.1833 -3.37413 0
M  V30 5399 H 504.993 0.779078 0.0675398 0
M  V30 5400 H 507.577 1.8946 -0.448656 0
M  V30 5401 H 505.748 3.63162 1.37723 0
M  V30 5402 H 507.48 3.84728 1.25566 0
M  V30 5403 H 504.235 4.70107 -0.574123 0
M  V30 5404 H 504.659 6.19664 -2.72665 0
M  V30 5405 H 509.301 4.17956 -0.638196 0
M  V30 5406 H 507.019 6.94967 -4.12367 0
M  V30 5407 H 510.605 5.28952 -2.42284 0
M  V30 5408 H 509.485 6.65861 -4.14244 0
M  V30 5409 N 506.988 0.0434614 1.5754 0
M  V30 5410 C 507.918 -0.931651 2.14109 0
M  V30 5411 C 508.899 -1.32971 1.06079 0
M  V30 5412 O 510.084 -1.40579 1.33982 0
M  V30 5413 C 507.214 -2.20914 2.67982 0
M  V30 5414 C 506.168 -1.95139 3.80926 0
M  V30 5415 C 505.494 -3.29276 4.21285 0
M  V30 5416 C 506.794 -1.27913 5.06395 0
M  V30 5417 H 508.488 -0.460497 2.95837 0
M  V30 5418 H 506.034 -0.220058 1.42309 0
M  V30 5419 H 507.987 -2.89522 3.06194 0
M  V30 5420 H 506.711 -2.70221 1.83434 0
M  V30 5421 H 505.37 -1.28945 3.43175 0
M  V30 5422 H 505.018 -3.76369 3.33699 0
M  V30 5423 H 504.718 -3.12831 4.97404 0
M  V30 5424 H 506.242 -3.99129 4.62091 0
M  V30 5425 H 507.656 -1.86544 5.42102 0
M  V30 5426 H 506.053 -1.2182 5.87605 0
M  V30 5427 H 507.123 -0.254066 4.84234 0
M  V30 5428 N 508.466 -1.55915 -0.229846 0
M  V30 5429 C 509.877 -1.68809 -0.797531 0
M  V30 5430 C 510.228 -0.643995 -1.8533 0
M  V30 5431 O 509.353 0.206492 -2.15413 0
M  V30 5432 C 509.948 -3.06043 -1.45338 0
M  V30 5433 C 508.507 -3.20819 -1.96856 0
M  V30 5434 C 507.654 -2.6472 -0.825736 0
M  V30 5435 H 510.605 -1.58699 -0.00533733 0
M  V30 5436 H 510.626 -3.01438 -2.32196 0
M  V30 5437 H 510.138 -3.82012 -0.684743 0
M  V30 5438 H 508.239 -2.49704 -2.76548 0
M  V30 5439 H 508.352 -4.27937 -2.15423 0
M  V30 5440 H 506.716 -2.22985 -1.23084 0
M  V30 5441 H 507.499 -3.43229 -0.0699019 0
M  V30 5442 N 509.944 0.496216 -1.49584 0
M  V30 5443 C 510.907 1.57952 -1.66084 0
M  V30 5444 C 511.907 1.51729 -0.53244 0
M  V30 5445 O 513.097 1.54796 -0.79899 0
M  V30 5446 C 510.229 2.97604 -1.66268 0
M  V30 5447 H 511.422 1.44649 -2.6271 0
M  V30 5448 H 508.975 0.7208 -1.38687 0
M  V30 5449 H 509.71 3.16378 -0.712432 0
M  V30 5450 H 509.495 3.03528 -2.4822 0
M  V30 5451 H 510.985 3.76301 -1.81073 0
M  V30 5452 N 511.423 1.38739 0.74761 0
M  V30 5453 C 512.671 1.35007 1.50391 0
M  V30 5454 C 512.992 -0.0574274 1.94915 0
M  V30 5455 O 512.262 -1.00628 1.6808 0
M  V30 5456 H 510.842 0.496784 0.557866 0
M  V30 5457 H 513.504 1.73479 0.888319 0
M  V30 5458 H 512.6 2.00474 2.392 0
M  V30 5459 N 512.901 -0.976442 1.23707 0
M  V30 5460 C 514.178 -1.69296 0.979699 0
M  V30 5461 C 514.558 -2.0508 -0.500555 0
M  V30 5462 O 513.906 -1.74708 -1.47273 0
M  V30 5463 C 514.116 -2.93143 1.89389 0
M  V30 5464 C 515.464 -3.65572 2.15968 0
M  V30 5465 O 516.488 -3.03184 1.86971 0
M  V30 5466 O 515.347 -4.77859 2.65167 0
M  V30 5467 H 512.441 -0.739708 0.369812 0
M  V30 5468 H 514.987 -1.03131 1.34767 0
M  V30 5469 H 513.759 -2.63327 2.89439 0
M  V30 5470 H 513.382 -3.67044 1.52854 0
M  V30 5471 N 514.379 -1.04941 -1.1758 0
M  V30 5472 C 515.342 -0.652456 -2.19717 0
M  V30 5473 C 516.342 0.294745 -1.58076 0
M  V30 5474 O 517.532 0.0789579 -1.74021 0
M  V30 5475 C 514.664 0.0420712 -3.40874 0
M  V30 5476 H 515.857 -1.55642 -2.5635 0
M  V30 5477 H 513.41 -0.842995 -1.31618 0
M  V30 5478 H 514.145 0.95943 -3.09783 0
M  V30 5479 H 513.93 -0.638844 -3.86861 0
M  V30 5480 H 515.42 0.306 -4.16477 0
M  V30 5481 N 515.857 1.33968 -0.830081 0
M  V30 5482 C 516.787 2.31911 -0.271911 0
M  V30 5483 C 517.768 1.58571 0.61556 0
M  V30 5484 O 518.953 1.86514 0.540946 0
M  V30 5485 C 516.083 3.42737 0.561146 0
M  V30 5486 C 515.037 4.27383 -0.229789 0
M  V30 5487 C 514.363 5.29742 0.726463 0
M  V30 5488 C 515.663 5.02 -1.44197 0
M  V30 5489 H 517.357 2.78844 -1.09025 0
M  V30 5490 H 514.903 1.34061 -0.52571 0
M  V30 5491 H 516.856 4.10276 0.961867 0
M  V30 5492 H 515.58 2.94471 1.41261 0
M  V30 5493 H 514.239 3.61456 -0.611964 0
M  V30 5494 H 513.887 4.77736 1.57408 0
M  V30 5495 H 513.587 5.87255 0.20142 0
M  V30 5496 H 515.111 6.00149 1.12489 0
M  V30 5497 H 516.525 5.62355 -1.11488 0
M  V30 5498 H 514.922 5.69122 -1.90317 0
M  V30 5499 H 515.992 4.31281 -2.2164 0
M  V30 5500 N 517.335 0.585699 1.46312 0
M  V30 5501 C 518.265 -0.133556 2.33118 0
M  V30 5502 C 519.246 -0.880707 1.45525 0
M  V30 5503 O 520.431 -0.855579 1.74337 0
M  V30 5504 C 517.561 -1.14585 3.27853 0
M  V30 5505 C 516.515 -0.513341 4.2491 0
M  V30 5506 C 515.841 -1.63231 5.09175 0
M  V30 5507 C 517.141 0.551413 5.19381 0
M  V30 5508 H 518.835 0.59121 2.93505 0
M  V30 5509 H 516.381 0.285761 1.41136 0
M  V30 5510 H 518.334 -1.65741 3.87438 0
M  V30 5511 H 517.058 -1.90093 2.65579 0
M  V30 5512 H 515.717 -0.0228349 3.66593 0
M  V30 5513 H 515.365 -2.37713 4.43285 0
M  V30 5514 H 515.065 -1.21473 5.74907 0
M  V30 5515 H 516.589 -2.14658 5.71624 0
M  V30 5516 H 518.003 0.124804 5.73164 0
M  V30 5517 H 516.4 0.889486 5.93471 0
M  V30 5518 H 517.47 1.43655 4.63132 0
M  V30 5519 N 518.813 -1.54241 0.323641 0
M  V30 5520 C 519.745 -2.21836 -0.576311 0
M  V30 5521 C 520.758 -1.21837 -1.07979 0
M  V30 5522 O 521.947 -1.48306 -0.99336 0
M  V30 5523 C 519.047 -2.86923 -1.80356 0
M  V30 5524 C 518.22 -4.1306 -1.43875 0
M  V30 5525 C 517.279 -4.6174 -2.52353 0
M  V30 5526 O 516.305 -5.26421 -2.16494 0
M  V30 5527 N 517.507 -4.35974 -3.83284 0
M  V30 5528 H 520.272 -2.997 0.00247987 0
M  V30 5529 H 517.833 -1.61233 0.146848 0
M  V30 5530 H 519.825 -3.16414 -2.52318 0
M  V30 5531 H 518.395 -2.12765 -2.29019 0
M  V30 5532 H 517.615 -3.90334 -0.550752 0
M  V30 5533 H 518.903 -4.95148 -1.17071 0
M  V30 5534 H 518.301 -3.84203 -4.15216 0
M  V30 5535 H 516.858 -4.70119 -4.51477 0
M  V30 5536 N 520.291 -0.0518155 -1.57515 0
M  V30 5537 C 521.224 0.957758 -2.07129 0
M  V30 5538 C 522.202 1.30355 -0.971927 0
M  V30 5539 O 523.386 1.41631 -1.2439 0
M  V30 5540 C 520.513 2.27157 -2.51232 0
M  V30 5541 C 519.559 2.07879 -3.72409 0
M  V30 5542 S 520.392 1.35656 -5.18033 0
M  V30 5543 C 521.548 2.68359 -5.65451 0
M  V30 5544 H 521.781 0.53552 -2.92437 0
M  V30 5545 H 519.314 0.160465 -1.53564 0
M  V30 5546 H 521.272 3.02676 -2.77304 0
M  V30 5547 H 519.933 2.66509 -1.66228 0
M  V30 5548 H 519.126 3.05061 -4.01191 0
M  V30 5549 H 518.728 1.40499 -3.46606 0
M  V30 5550 H 521.02 3.64526 -5.71076 0
M  V30 5551 H 521.963 2.44213 -6.64654 0
M  V30 5552 H 522.371 2.74647 -4.93183 0
M  V30 5553 N 521.769 1.56035 0.221574 0
M  V30 5554 C 523.018 1.78245 0.944016 0
M  V30 5555 C 523.331 0.620371 1.85501 0
M  V30 5556 O 524.537 0.726103 2.6161 0
M  V30 5557 C 522.993 3.15659 1.7288 0
M  V30 5558 C 522.601 4.39591 0.863942 0
M  V30 5559 C 524.345 3.47195 2.44246 0
M  V30 5560 C 522.252 5.6803 1.64607 0
M  V30 5561 H 521.182 0.664547 0.356222 0
M  V30 5562 H 523.833 1.8243 0.197904 0
M  V30 5563 H 522.215 3.0565 2.51781 0
M  V30 5564 H 523.389 4.60655 0.115464 0
M  V30 5565 H 521.704 4.15572 0.262407 0
M  V30 5566 H 524.301 4.40381 3.03263 0
M  V30 5567 H 524.644 2.69693 3.1713 0
M  V30 5568 H 525.177 3.58533 1.72334 0
M  V30 5569 H 521.916 6.48425 0.960507 0
M  V30 5570 H 521.436 5.51027 2.36917 0
M  V30 5571 H 523.115 6.08203 2.20675 0
M  V30 5572 N 523.247 -0.488276 1.49845 0
M  V30 5573 C 524.475 -1.26527 1.63702 0
M  V30 5574 C 524.89 -1.8618 0.313447 0
M  V30 5575 O 524.247 -1.68432 -0.702624 0
M  V30 5576 C 524.298 -2.3864 2.71538 0
M  V30 5577 O 524.019 -1.81437 3.98763 0
M  V30 5578 C 525.52 -3.29805 2.96215 0
M  V30 5579 H 522.74 -0.383295 0.55075 0
M  V30 5580 H 525.284 -0.584779 1.95961 0
M  V30 5581 H 523.439 -3.02496 2.42023 0
M  V30 5582 H 523.853 -2.55135 4.58265 0
M  V30 5583 H 525.327 -4.04722 3.75372 0
M  V30 5584 H 525.804 -3.87563 2.06619 0
M  V30 5585 H 526.41 -2.71703 3.27196 0
M  V30 5586 N 524.725 -1.39134 -0.740242 0
M  V30 5587 C 525.974 -1.35384 -1.49512 0
M  V30 5588 C 526.287 0.04919 -1.95538 0
M  V30 5589 O 527.493 0.209257 -2.70692 0
M  V30 5590 C 525.949 -2.37812 -2.70136 0
M  V30 5591 C 525.557 -3.83804 -2.31081 0
M  V30 5592 C 527.301 -2.4313 -3.47977 0
M  V30 5593 C 525.208 -4.77886 -3.48395 0
M  V30 5594 H 524.138 -0.503297 -0.561434 0
M  V30 5595 H 526.789 -1.64754 -0.807974 0
M  V30 5596 H 525.171 -2.01505 -3.40899 0
M  V30 5597 H 526.345 -4.29123 -1.67898 0
M  V30 5598 H 524.66 -3.81732 -1.66343 0
M  V30 5599 H 527.257 -3.10614 -4.35228 0
M  V30 5600 H 527.6 -1.45423 -3.90074 0
M  V30 5601 H 528.133 -2.78304 -2.84239 0
M  V30 5602 H 524.872 -5.76836 -3.11353 0
M  V30 5603 H 524.392 -4.3725 -4.10576 0
M  V30 5604 H 526.071 -4.96538 -4.148 0
M  V30 5605 N 526.204 0.969867 -1.24223 0
M  V30 5606 C 527.154 2.04913 -0.999732 0
M  V30 5607 C 528.138 1.60795 0.0580636 0
M  V30 5608 O 529.33 1.76317 -0.155392 0
M  V30 5609 C 526.459 3.37942 -0.604154 0
M  V30 5610 C 525.545 3.88628 -1.69791 0
M  V30 5611 N 525.936 4.12274 -2.93025 0
M  V30 5612 C 524.234 4.17268 -1.57492 0
M  V30 5613 C 524.935 4.53808 -3.63914 0
M  V30 5614 N 523.911 4.58855 -2.91468 0
M  V30 5615 H 527.713 2.21168 -1.93551 0
M  V30 5616 H 525.227 1.15349 -1.14317 0
M  V30 5617 H 527.224 4.14863 -0.411665 0
M  V30 5618 H 525.884 3.23075 0.324465 0
M  V30 5619 H 526.895 3.99789 -3.29225 0
M  V30 5620 H 523.572 4.11346 -0.714175 0
M  V30 5621 H 524.962 4.80534 -4.69614 0
M  V30 5622 N 527.682 1.05563 1.17022 0
M  V30 5623 C 528.612 0.681026 2.23348 0
M  V30 5624 C 529.593 -0.322983 1.67005 0
M  V30 5625 O 530.778 -0.199746 1.9317 0
M  V30 5626 C 527.908 0.0589053 3.4725 0
M  V30 5627 C 526.862 0.988082 4.16438 0
M  V30 5628 C 526.188 0.229646 5.34207 0
M  V30 5629 C 527.488 2.31388 4.68249 0
M  V30 5630 H 529.182 1.56993 2.54938 0
M  V30 5631 H 526.728 0.756302 1.2254 0
M  V30 5632 H 528.681 -0.214982 4.20851 0
M  V30 5633 H 527.405 -0.864968 3.14938 0
M  V30 5634 H 526.064 1.24659 3.44754 0
M  V30 5635 H 525.712 -0.697111 4.98146 0
M  V30 5636 H 525.412 0.848815 5.81437 0
M  V30 5637 H 526.936 -0.0368694 6.10589 0
M  V30 5638 H 528.35 2.09964 5.33468 0
M  V30 5639 H 526.747 2.88736 5.26072 0
M  V30 5640 H 527.817 2.94982 3.84855 0
M  V30 5641 N 529.16 -1.33526 0.837174 0
M  V30 5642 C 530.571 -1.80182 0.489017 0
M  V30 5643 C 530.922 -1.69285 -0.991826 0
M  V30 5644 O 530.047 -1.24113 -1.77271 0
M  V30 5645 C 530.642 -3.27149 0.880866 0
M  V30 5646 C 529.201 -3.71828 0.584872 0
M  V30 5647 C 528.348 -2.54974 1.09011 0
M  V30 5648 H 531.299 -1.21071 1.02603 0
M  V30 5649 H 531.32 -3.80024 0.190239 0
M  V30 5650 H 530.832 -3.35048 1.95869 0
M  V30 5651 H 528.933 -3.69457 -0.48295 0
M  V30 5652 H 529.046 -4.65366 1.13892 0
M  V30 5653 H 527.41 -2.4952 0.511047 0
M  V30 5654 H 528.193 -2.65637 2.17467 0
M  V30 5655 N 530.638 -0.59345 -1.46 0
M  V30 5656 C 531.863 -0.0872365 -2.07216 0
M  V30 5657 C 532.288 1.2131 -1.43755 0
M  V30 5658 O 531.646 1.73528 -0.525152 0
M  V30 5659 C 531.694 0.0538197 -3.6056 0
M  V30 5660 O 530.798 1.10765 -3.97247 0
M  V30 5661 H 530.139 -0.0676598 -0.660544 0
M  V30 5662 H 532.669 -0.819445 -1.87473 0
M  V30 5663 H 532.679 0.256567 -4.07193 0
M  V30 5664 H 531.354 -0.895739 -4.0614 0
M  V30 5665 H 529.931 0.882501 -3.62307 0
M  V30 5666 N 532.116 1.54067 -0.331816 0
M  V30 5667 C 533.527 1.86059 0.15454 0
M  V30 5668 C 533.878 1.25331 1.50952 0
M  V30 5669 O 533.003 0.562441 2.08963 0
M  V30 5670 C 533.598 3.37581 0.287192 0
M  V30 5671 C 532.157 3.69493 0.717773 0
M  V30 5672 C 531.304 2.76863 -0.155569 0
M  V30 5673 H 534.255 1.48797 -0.55182 0
M  V30 5674 H 534.276 3.63744 1.11671 0
M  V30 5675 H 533.788 3.81751 -0.699131 0
M  V30 5676 H 531.889 3.3086 1.71354 0
M  V30 5677 H 532.002 4.76315 0.5158 0
M  V30 5678 H 530.366 2.51995 0.370213 0
M  V30 5679 H 531.149 3.23861 -1.13881 0
M  V30 5680 N 533.594 0.0601682 1.57485 0
M  V30 5681 C 534.84 -0.612501 1.93329 0
M  V30 5682 C 535.173 -1.6996 0.939526 0
M  V30 5683 O 534.448 -1.94472 -0.0330957 0
M  V30 5684 C 534.731 -1.20025 3.39508 0
M  V30 5685 C 534.584 -0.12059 4.49638 0
M  V30 5686 C 535.903 -2.10923 3.86264 0
M  V30 5687 H 533.022 -0.221185 0.703027 0
M  V30 5688 H 535.664 0.123768 1.89596 0
M  V30 5689 H 533.814 -1.82774 3.42821 0
M  V30 5690 H 535.486 0.51185 4.58452 0
M  V30 5691 H 533.729 0.550251 4.30296 0
M  V30 5692 H 534.4 -0.572019 5.49028 0
M  V30 5693 H 536.876 -1.58124 3.84884 0
M  V30 5694 H 535.752 -2.48987 4.8918 0
M  V30 5695 H 536.013 -3.01292 3.23536 0
M  V30 5696 N 535.072 -1.5615 -0.213296 0
M  V30 5697 C 536.3 -1.83638 -0.953139 0
M  V30 5698 C 536.715 -0.640362 -1.77609 0
M  V30 5699 O 536.072 0.391071 -1.78261 0
M  V30 5700 C 536.123 -3.09735 -1.86405 0
M  V30 5701 O 535.844 -4.24723 -1.07435 0
M  V30 5702 C 537.345 -3.5027 -2.71709 0
M  V30 5703 H 534.565 -0.610263 -0.278962 0
M  V30 5704 H 537.109 -2.03247 -0.226035 0
M  V30 5705 H 535.264 -2.92077 -2.545 0
M  V30 5706 H 535.678 -4.9641 -1.69343 0
M  V30 5707 H 537.152 -4.41515 -3.31313 0
M  V30 5708 H 537.629 -2.72406 -3.44516 0
M  V30 5709 H 538.235 -3.70396 -2.09015 0
M  V30 5710 N 536.55 0.480323 -1.50102 0
M  V30 5711 C 537.513 1.56181 -1.6775 0
M  V30 5712 C 538.513 1.51156 -0.548503 0
M  V30 5713 O 539.703 1.5394 -0.815363 0
M  V30 5714 C 536.835 2.95823 -1.69415 0
M  V30 5715 H 538.028 1.41855 -2.6423 0
M  V30 5716 H 535.581 0.70605 -1.39444 0
M  V30 5717 H 536.316 3.15604 -0.745948 0
M  V30 5718 H 536.101 3.00878 -2.51425 0
M  V30 5719 H 537.591 3.74359 -1.85054 0
M  V30 5720 N 538.028 1.39524 0.732853 0
M  V30 5721 C 538.96 1.34318 1.85718 0
M  V30 5722 C 539.973 0.251576 1.60844 0
M  V30 5723 O 541.162 0.510685 1.71039 0
M  V30 5724 C 538.262 1.06334 3.21786 0
M  V30 5725 C 537.435 2.26813 3.73998 0
M  V30 5726 C 536.494 1.95253 4.88634 0
M  V30 5727 O 535.52 2.67957 5.02183 0
M  V30 5728 N 536.722 0.919984 5.73164 0
M  V30 5729 H 539.487 2.3121 1.90688 0
M  V30 5730 H 537.048 1.33654 0.91368 0
M  V30 5731 H 539.04 0.832363 3.96048 0
M  V30 5732 H 537.61 0.181682 3.12072 0
M  V30 5733 H 536.83 2.65849 2.91064 0
M  V30 5734 H 538.118 3.0717 4.05616 0
M  V30 5735 H 537.516 0.317487 5.64808 0
M  V30 5736 H 536.073 0.748905 6.47483 0
M  V30 5737 N 539.506 -0.963266 1.24736 0
M  V30 5738 C 540.453 -2.05857 1.04363 0
M  V30 5739 C 541.423 -1.6604 -0.0444951 0
M  V30 5740 O 542.608 -1.90477 0.110999 0
M  V30 5741 C 539.748 -3.38745 0.659235 0
M  V30 5742 C 538.861 -3.9173 1.82131 0
M  V30 5743 C 537.996 -5.12906 1.38208 0
M  V30 5744 C 537.035 -5.58098 2.51382 0
M  V30 5745 N 536.172 -6.7049 2.08295 0
M  V30 5746 H 541.012 -2.22616 1.98107 0
M  V30 5747 H 538.549 -1.09103 0.986661 0
M  V30 5748 H 540.507 -4.15107 0.417371 0
M  V30 5749 H 539.137 -3.21898 -0.241201 0
M  V30 5750 H 538.189 -3.11966 2.17672 0
M  V30 5751 H 539.501 -4.21225 2.67153 0
M  V30 5752 H 538.655 -5.96657 1.09935 0
M  V30 5753 H 537.394 -4.85105 0.502456 0
M  V30 5754 H 536.399 -4.72917 2.80409 0
M  V30 5755 H 537.624 -5.87911 3.39909 0
M  V30 5756 H 535.57 -6.44416 1.22737 0
M  V30 5757 H 535.487 -6.99458 2.86869 0
M  V30 5758 H 536.755 -7.57672 1.83175 0
M  V30 5759 N 540.985 -1.06182 -1.16461 0
M  V30 5760 C 542.215 -0.797425 -1.9059 0
M  V30 5761 C 542.623 0.651845 -1.77616 0
M  V30 5762 O 541.966 1.45788 -1.11766 0
M  V30 5763 C 542.028 -1.11128 -3.41893 0
M  V30 5764 C 541.692 -2.55874 -3.78652 0
M  V30 5765 C 542.689 -3.54104 -3.80665 0
M  V30 5766 C 540.374 -2.91144 -4.09317 0
M  V30 5767 C 542.368 -4.85645 -4.12829 0
M  V30 5768 C 540.055 -4.22885 -4.41148 0
M  V30 5769 C 541.053 -5.19945 -4.42883 0
M  V30 5770 O 540.741 -6.49322 -4.73959 0
M  V30 5771 H 540.473 -0.288709 -0.611247 0
M  V30 5772 H 543.027 -1.41841 -1.4856 0
M  V30 5773 H 541.257 -0.433217 -3.84266 0
M  V30 5774 H 542.946 -0.831306 -3.97296 0
M  V30 5775 H 543.712 -3.28197 -3.57088 0
M  V30 5776 H 539.591 -2.16252 -4.07131 0
M  V30 5777 H 543.135 -5.61398 -4.14099 0
M  V30 5778 H 539.032 -4.48551 -4.6419 0
M  V30 5779 H 539.8 -6.54294 -4.91774 0
M  V30 5780 N 542.463 1.3308 -0.844243 0
M  V30 5781 C 543.879 1.50447 -0.532729 0
M  V30 5782 C 544.079 1.78292 0.938837 0
M  V30 5783 O 543.135 1.84635 1.72239 0
M  V30 5784 C 544.448 2.65555 -1.41072 0
M  V30 5785 C 545.996 2.7944 -1.41005 0
M  V30 5786 C 546.471 3.97616 -2.27301 0
M  V30 5787 N 547.962 4.0486 -2.2504 0
M  V30 5788 C 548.697 4.95508 -2.88547 0
M  V30 5789 N 548.193 5.91236 -3.61126 0
M  V30 5790 N 549.986 4.88548 -2.77989 0
M  V30 5791 H 542.137 1.13269 -1.79677 0
M  V30 5792 H 544.4 0.55734 -0.766861 0
M  V30 5793 H 544.106 2.51675 -2.45668 0
M  V30 5794 H 543.98 3.61089 -1.09061 0
M  V30 5795 H 546.367 2.92749 -0.371784 0
M  V30 5796 H 546.448 1.8465 -1.77026 0
M  V30 5797 H 546.092 3.85066 -3.3119 0
M  V30 5798 H 546.022 4.91661 -1.88619 0
M  V30 5799 H 548.513 3.36353 -1.72264 0
M  V30 5800 H 548.826 6.57079 -4.06776 0
M  V30 5801 H 547.171 5.91295 -3.65234 0
M  V30 5802 H 550.362 4.12729 -2.20846 0
M  V30 5803 H 550.535 5.58994 -3.27765 0
M  V30 5804 N 543.941 0.601185 1.45683 0
M  V30 5805 C 545.181 0.0968037 2.04171 0
M  V30 5806 C 545.545 -1.2466 1.46027 0
M  V30 5807 O 546.746 -1.84132 1.95829 0
M  V30 5808 C 545.017 0.051384 3.57363 0
M  V30 5809 S 546.576 -0.392737 4.37039 0
M  V30 5810 H 543.394 0.0464504 0.709481 0
M  V30 5811 H 545.996 0.797846 1.78479 0
M  V30 5812 H 544.7 1.03274 3.97193 0
M  V30 5813 H 544.231 -0.671853 3.87621 0
M  V30 5814 H 546.246 -1.64364 4.68187 0
M  V30 5815 N 545.419 -1.53889 0.339982 0
M  V30 5816 C 546.329 -2.28604 -0.526988 0
M  V30 5817 C 547.345 -1.33578 -1.11503 0
M  V30 5818 O 548.521 -1.66612 -1.13148 0
M  V30 5819 C 545.586 -3.04164 -1.66389 0
M  V30 5820 C 544.647 -4.14809 -1.10599 0
M  V30 5821 C 543.88 -4.86756 -2.18871 0
M  V30 5822 O 544.103 -4.58343 -3.39526 0
M  V30 5823 O 543.037 -5.73289 -1.83366 0
M  V30 5824 H 546.863 -3.03594 0.0802707 0
M  V30 5825 H 544.448 -1.4903 0.105141 0
M  V30 5826 H 546.33 -3.51427 -2.32544 0
M  V30 5827 H 545.005 -2.32035 -2.25703 0
M  V30 5828 H 543.912 -3.71857 -0.409067 0
M  V30 5829 H 545.245 -4.89029 -0.557771 0
M  V30 5830 N 546.897 -0.0685191 -1.57451 0
M  V30 5831 C 547.827 0.89747 -2.15564 0
M  V30 5832 C 548.808 1.31266 -1.08181 0
M  V30 5833 O 549.993 1.38429 -1.36202 0
M  V30 5834 C 547.123 2.16623 -2.71463 0
M  V30 5835 C 546.077 1.89054 -3.83982 0
M  V30 5836 C 545.403 3.22532 -4.26471 0
M  V30 5837 C 546.703 1.1984 -5.08366 0
M  V30 5838 H 548.397 0.413373 -2.96533 0
M  V30 5839 H 545.943 0.197391 -1.42641 0
M  V30 5840 H 547.896 2.84614 -3.10761 0
M  V30 5841 H 546.62 2.67269 -1.8771 0
M  V30 5842 H 545.279 1.23469 -3.45183 0
M  V30 5843 H 544.927 3.71013 -3.39644 0
M  V30 5844 H 544.627 3.04879 -5.02317 0
M  V30 5845 H 546.151 3.91727 -4.68383 0
M  V30 5846 H 547.565 1.77896 -5.45001 0
M  V30 5847 H 545.962 1.12456 -5.89469 0
M  V30 5848 H 547.032 0.176996 -4.84577 0
M  V30 5849 N 548.375 1.56261 0.205012 0
M  V30 5850 C 549.305 1.96779 1.257 0
M  V30 5851 C 550.286 0.838309 1.48008 0
M  V30 5852 O 551.471 1.10189 1.59913 0
M  V30 5853 C 548.601 2.29876 2.60335 0
M  V30 5854 C 547.555 3.45469 2.52656 0
M  V30 5855 C 546.881 3.64215 3.91473 0
M  V30 5856 C 548.181 4.79954 2.06014 0
M  V30 5857 H 549.875 2.84904 0.920338 0
M  V30 5858 H 547.421 1.37072 0.441277 0
M  V30 5859 H 549.374 2.56814 3.34102 0
M  V30 5860 H 548.098 1.38622 2.95722 0
M  V30 5861 H 546.757 3.18605 1.81345 0
M  V30 5862 H 546.405 2.70309 4.24196 0
M  V30 5863 H 546.105 4.41973 3.87213 0
M  V30 5864 H 547.629 3.93519 4.66878 0
M  V30 5865 H 549.043 5.05989 2.69533 0
M  V30 5866 H 547.44 5.61111 2.12777 0
M  V30 5867 H 548.51 4.74201 1.01297 0
M  V30 5868 N 549.853 -0.472356 1.50355 0
M  V30 5869 C 551.083 -1.24603 1.64796 0
M  V30 5870 C 551.491 -1.86297 0.330156 0
M  V30 5871 O 550.834 -1.69934 -0.697728 0
M  V30 5872 C 550.896 -2.39578 2.68035 0
M  V30 5873 C 550.56 -1.98531 4.11624 0
M  V30 5874 C 551.557 -1.50856 4.97532 0
M  V30 5875 C 549.242 -2.0729 4.57532 0
M  V30 5876 C 551.236 -1.12481 6.27397 0
M  V30 5877 C 548.923 -1.68527 5.87403 0
M  V30 5878 C 549.921 -1.212 6.7216 0
M  V30 5879 O 549.609 -0.829728 7.99607 0
M  V30 5880 H 549.341 -0.383035 0.55701 0
M  V30 5881 H 551.895 -0.570392 1.97321 0
M  V30 5882 H 550.125 -3.10309 2.30749 0
M  V30 5883 H 551.814 -3.01544 2.71709 0
M  V30 5884 H 552.58 -1.43511 4.63281 0
M  V30 5885 H 548.459 -2.43076 3.91708 0
M  V30 5886 H 552.003 -0.754698 6.93506 0
M  V30 5887 H 547.9 -1.7553 6.21176 0
M  V30 5888 H 548.668 -0.958689 8.12866 0
M  V30 5889 N 551.331 -1.39911 -0.725443 0
M  V30 5890 C 552.241 -1.41688 -1.8698 0
M  V30 5891 C 553.257 -0.310579 -1.71206 0
M  V30 5892 O 554.433 -0.55359 -1.93642 0
M  V30 5893 C 551.498 -1.26811 -3.22676 0
M  V30 5894 C 550.559 -2.47497 -3.50776 0
M  V30 5895 C 549.792 -2.3332 -4.79997 0
M  V30 5896 O 550.015 -1.34175 -5.54394 0
M  V30 5897 O 548.949 -3.22498 -5.08211 0
M  V30 5898 H 552.775 -2.38171 -1.88436 0
M  V30 5899 H 550.36 -1.21128 -0.874548 0
M  V30 5900 H 552.242 -1.20684 -4.03749 0
M  V30 5901 H 550.917 -0.334289 -3.21969 0
M  V30 5902 H 549.824 -2.59201 -2.69751 0
M  V30 5903 H 551.157 -3.39606 -3.5627 0
M  V30 5904 N 552.809 0.956637 -1.25245 0
M  V30 5905 C 554.057 1.69764 -1.09657 0
M  V30 5906 C 554.378 1.91583 0.363464 0
M  V30 5907 O 553.648 1.50149 1.25825 0
M  V30 5908 H 552.228 0.629097 -0.402798 0
M  V30 5909 H 554.89 1.15026 -1.57337 0
M  V30 5910 H 553.986 2.67769 -1.60331 0
M  V30 5911 N 554.287 1.06798 1.15896 0
M  V30 5912 C 555.698 0.811355 1.68149 0
M  V30 5913 C 556.049 -0.664339 1.8461 0
M  V30 5914 O 555.174 -1.51485 1.54535 0
M  V30 5915 C 555.769 1.46624 3.05429 0
M  V30 5916 C 554.328 1.25726 3.54781 0
M  V30 5917 C 553.475 1.53949 2.3064 0
M  V30 5918 H 556.426 1.23078 1.00187 0
M  V30 5919 H 556.447 0.88437 3.7008 0
M  V30 5920 H 555.959 2.54025 2.93416 0
M  V30 5921 H 554.06 0.20322 3.72045 0
M  V30 5922 H 554.173 1.97354 4.36564 0
M  V30 5923 H 552.537 0.96025 2.35905 0
M  V30 5924 H 553.32 2.6252 2.2122 0
M  V30 5925 N 555.766 -1.3263 0.851289 0
M  V30 5926 C 557.177 -1.79653 0.5081 0
M  V30 5927 C 557.528 -1.70327 -0.973815 0
M  V30 5928 O 556.653 -1.25986 -1.75944 0
M  V30 5929 C 557.248 -3.26196 0.915515 0
M  V30 5930 C 555.807 -3.71187 0.624277 0
M  V30 5931 C 554.954 -2.53804 1.11709 0
M  V30 5932 H 557.905 -1.19976 1.03882 0
M  V30 5933 H 557.926 -3.79801 0.230535 0
M  V30 5934 H 557.438 -3.32952 1.99411 0
M  V30 5935 H 555.539 -3.69948 -0.443737 0
M  V30 5936 H 555.652 -4.64132 1.18821 0
M  V30 5937 H 554.016 -2.48964 0.537484 0
M  V30 5938 H 554.799 -2.63315 2.20272 0
M  V30 5939 N 557.244 -0.608902 -1.45362 0
M  V30 5940 C 558.521 -0.0365378 -1.95566 0
M  V30 5941 C 558.901 1.43169 -1.55131 0
M  V30 5942 O 558.249 2.1349 -0.814513 0
M  V30 5943 C 558.459 -0.236026 -3.48201 0
M  V30 5944 C 559.807 -0.117518 -4.24437 0
M  V30 5945 O 560.831 -0.166217 -3.55812 0
M  V30 5946 O 559.69 -0.00372127 -5.465 0
M  V30 5947 H 556.784 0.0349874 -0.82626 0
M  V30 5948 H 559.33 -0.679055 -1.55521 0
M  V30 5949 H 558.102 -1.25569 -3.70605 0
M  V30 5950 H 557.725 0.441691 -3.95139 0
M  V30 5951 N 558.722 1.53707 -0.348139 0
M  V30 5952 C 559.999 1.93247 0.302475 0
M  V30 5953 C 560.379 1.28012 1.67857 0
M  V30 5954 O 559.727 0.43274 2.24365 0
M  V30 5955 C 559.937 3.47031 0.370159 0
M  V30 5956 C 561.285 4.20066 0.61882 0
M  V30 5957 O 562.309 3.53319 0.452087 0
M  V30 5958 O 561.168 5.38318 0.94215 0
M  V30 5959 H 558.262 0.807736 0.177458 0
M  V30 5960 H 560.808 1.64927 -0.399651 0
M  V30 5961 H 559.58 3.86745 -0.59534 0
M  V30 5962 H 559.203 3.81532 1.11888 0
M  V30 5963 N 560.2 0.0768682 1.57412 0
M  V30 5964 C 561.11 -0.903207 2.16516 0
M  V30 5965 C 562.126 -1.32341 1.12968 0
M  V30 5966 O 563.302 -1.39507 1.45258 0
M  V30 5967 C 560.367 -2.1508 2.71922 0
M  V30 5968 C 559.428 -1.78653 3.90361 0
M  V30 5969 C 558.661 -2.97465 4.43114 0
M  V30 5970 O 558.884 -4.11638 3.94854 0
M  V30 5971 O 557.818 -2.76987 5.3438 0
M  V30 5972 H 561.644 -0.430427 3.00634 0
M  V30 5973 H 559.229 -0.146485 1.4868 0
M  V30 5974 H 561.111 -2.8823 3.07411 0
M  V30 5975 H 559.786 -2.61446 1.9086 0
M  V30 5976 H 558.693 -1.0274 3.59716 0
M  V30 5977 H 560.026 -1.37066 4.7273 0
M  V30 5978 N 561.678 -1.56367 -0.196722 0
M  V30 5979 C 562.641 -1.93561 -1.22746 0
M  V30 5980 C 563.641 -0.816566 -1.38524 0
M  V30 5981 O 564.831 -1.084 -1.36363 0
M  V30 5982 C 561.963 -2.20823 -2.59712 0
M  V30 5983 H 563.156 -2.85774 -0.909586 0
M  V30 5984 H 560.709 -1.50032 -0.438174 0
M  V30 5985 H 561.444 -1.31243 -2.96557 0
M  V30 5986 H 561.229 -3.02368 -2.49632 0
M  V30 5987 H 562.719 -2.50608 -3.34044 0
M  V30 5988 N 563.156 0.464375 -1.50603 0
M  V30 5989 C 564.119 1.54393 -1.69397 0
M  V30 5990 C 565.119 1.50566 -0.564504 0
M  V30 5991 O 566.309 1.53066 -0.831645 0
M  V30 5992 C 563.441 2.9401 -1.72543 0
M  V30 5993 H 564.634 1.39044 -2.65719 0
M  V30 5994 H 562.187 0.69122 -1.40185 0
M  V30 5995 H 562.922 3.14795 -0.77938 0
M  V30 5996 H 562.707 2.98195 -2.54602 0
M  V30 5997 H 564.197 3.72375 -1.89015 0
M  V30 5998 N 564.634 1.40294 0.718013 0
M  V30 5999 C 565.567 1.34767 1.84155 0
M  V30 6000 C 566.545 0.218455 1.61126 0
M  V30 6001 O 567.729 0.401716 1.8417 0
M  V30 6002 C 564.856 1.09676 3.20451 0
M  V30 6003 C 563.902 2.25016 3.62312 0
M  V30 6004 S 564.735 3.87397 3.69707 0
M  V30 6005 C 565.891 3.64565 5.08766 0
M  V30 6006 H 566.124 2.29851 1.88562 0
M  V30 6007 H 563.657 1.2655 0.884555 0
M  V30 6008 H 565.615 0.95885 3.99144 0
M  V30 6009 H 564.276 0.162502 3.13679 0
M  V30 6010 H 563.469 2.03097 4.61268 0
M  V30 6011 H 563.071 2.35098 2.90869 0
M  V30 6012 H 565.363 3.22882 5.95612 0
M  V30 6013 H 566.306 4.63043 5.35721 0
M  V30 6014 H 566.714 2.98303 4.79245 0
M  V30 6015 N 566.112 -0.949982 1.2575 0
M  V30 6016 C 567.36 -1.6918 1.10555 0
M  V30 6017 C 567.681 -1.91773 -0.353298 0
M  V30 6018 O 566.951 -1.50814 -1.25027 0
M  V30 6019 H 565.531 -0.626952 0.406129 0
M  V30 6020 H 568.193 -1.1419 1.57945 0
M  V30 6021 H 567.289 -2.66915 1.61749 0
M  V30 6022 N 567.59 -1.07411 -1.15328 0
M  V30 6023 C 568.839 -0.792643 -1.85473 0
M  V30 6024 C 569.152 0.683789 -1.83259 0
M  V30 6025 O 570.358 1.08005 -2.49093 0
M  V30 6026 C 568.814 -1.36787 -3.32892 0
M  V30 6027 C 568.422 -2.87536 -3.43551 0
M  V30 6028 C 570.166 -1.16444 -4.08217 0
M  V30 6029 C 568.073 -3.38247 -4.85122 0
M  V30 6030 H 567.003 -0.292838 -0.694811 0
M  V30 6031 H 569.654 -1.29426 -1.30082 0
M  V30 6032 H 568.036 -0.793993 -3.87958 0
M  V30 6033 H 569.21 -3.50973 -2.98588 0
M  V30 6034 H 567.525 -3.06676 -2.81672 0
M  V30 6035 H 570.122 -1.51808 -5.12697 0
M  V30 6036 H 570.465 -0.10353 -4.16171 0
M  V30 6037 H 570.998 -1.70472 -3.59422 0
M  V30 6038 H 567.737 -4.43866 -4.82351 0
M  V30 6039 H 567.257 -2.79564 -5.30664 0
M  V30 6040 H 568.936 -3.34238 -5.5398 0
M  V30 6041 N 569.068 1.32177 -0.85831 0
M  V30 6042 C 570.015 2.28794 -0.303607 0
M  V30 6043 C 570.985 1.55213 0.591453 0
M  V30 6044 O 572.17 1.83418 0.525585 0
M  V30 6045 C 569.31 3.41475 0.49889 0
M  V30 6046 C 568.423 4.2993 -0.422373 0
M  V30 6047 C 567.558 5.29743 0.393111 0
M  V30 6048 C 566.597 6.09842 -0.525317 0
M  V30 6049 N 565.734 7.01643 0.253208 0
M  V30 6050 H 570.574 2.75631 -1.13276 0
M  V30 6051 H 568.111 1.35606 -0.570026 0
M  V30 6052 H 570.069 4.05531 0.979826 0
M  V30 6053 H 568.699 2.95779 1.29284 0
M  V30 6054 H 567.751 3.66422 -1.02171 0
M  V30 6055 H 569.063 4.85899 -1.12709 0
M  V30 6056 H 568.217 5.9942 0.937056 0
M  V30 6057 H 566.956 4.744 1.13117 0
M  V30 6058 H 565.961 5.39066 -1.08112 0
M  V30 6059 H 567.186 6.6727 -1.26205 0
M  V30 6060 H 565.132 6.48725 0.974295 0
M  V30 6061 H 565.049 7.54981 -0.392398 0
M  V30 6062 H 566.317 7.756 0.778761 0
M  V30 6063 N 570.547 0.616602 1.45037 0
M  V30 6064 C 571.772 0.120192 2.07051 0
M  V30 6065 C 572.197 -1.19008 1.45666 0
M  V30 6066 O 571.555 -1.7267 0.552692 0
M  V30 6067 C 571.603 0.00354901 3.606 0
M  V30 6068 O 570.707 -1.04431 3.98958 0
M  V30 6069 H 570.048 0.0781599 0.659384 0
M  V30 6070 H 572.578 0.849167 1.86146 0
M  V30 6071 H 572.588 -0.191754 4.07549 0
M  V30 6072 H 571.263 0.960239 4.04663 0
M  V30 6073 H 569.84 -0.824749 3.63665 0
M  V30 6074 N 572.025 -1.5352 0.356285 0
M  V30 6075 C 573.265 -2.03027 -0.23649 0
M  V30 6076 C 573.629 -1.23813 -1.46746 0
M  V30 6077 O 574.83 -1.63281 -2.13525 0
M  V30 6078 C 573.101 -3.53442 -0.530415 0
M  V30 6079 S 574.66 -4.24836 -1.09819 0
M  V30 6080 H 571.478 -0.707591 -0.0695378 0
M  V30 6081 H 574.08 -1.89077 0.496999 0
M  V30 6082 H 572.784 -4.087 0.373114 0
M  V30 6083 H 572.315 -3.71536 -1.29323 0
M  V30 6084 H 574.33 -4.35228 -2.38309 0
M  V30 6085 N 573.503 -0.0852151 -1.57369 0
M  V30 6086 C 574.78 0.622534 -1.85429 0
M  V30 6087 C 575.16 1.86962 -0.980229 0
M  V30 6088 O 574.508 2.28445 -0.0500219 0
M  V30 6089 C 574.718 0.947374 -3.35896 0
M  V30 6090 C 576.066 1.31509 -4.03721 0
M  V30 6091 O 577.09 1.03869 -3.40719 0
M  V30 6092 O 575.949 1.83231 -5.14868 0
M  V30 6093 H 573.043 0.310513 -0.766492 0
M  V30 6094 H 575.589 -0.117164 -1.69295 0
M  V30 6095 H 574.361 0.0622264 -3.91251 0
M  V30 6096 H 573.984 1.74338 -3.5734 0
M  V30 6097 N 574.981 1.5647 0.188427 0
M  V30 6098 C 576.392 1.70864 0.752494 0
M  V30 6099 C 576.743 0.692905 1.83557 0
M  V30 6100 O 575.868 -0.149307 2.15884 0
M  V30 6101 C 576.463 3.09789 1.37173 0
M  V30 6102 C 575.022 3.25925 1.88281 0
M  V30 6103 C 574.169 2.66817 0.755259 0
M  V30 6104 H 577.12 1.58657 -0.0367408 0
M  V30 6105 H 577.141 3.07489 2.24122 0
M  V30 6106 H 576.653 3.83693 0.583219 0
M  V30 6107 H 574.754 2.56948 2.6983 0
M  V30 6108 H 574.867 4.33498 2.04001 0
M  V30 6109 H 573.231 2.2617 1.17128 0
M  V30 6110 H 574.014 3.43294 -0.0211237 0
M  V30 6111 N 576.459 -0.456382 1.50847 0
M  V30 6112 C 577.406 -1.55249 1.70782 0
M  V30 6113 C 578.376 -1.56757 0.549231 0
M  V30 6114 O 579.561 -1.74061 0.7815 0
M  V30 6115 C 576.701 -2.93118 1.82143 0
M  V30 6116 C 575.814 -3.01285 3.09598 0
M  V30 6117 C 574.949 -4.30159 3.11667 0
M  V30 6118 C 573.988 -4.32124 4.33515 0
M  V30 6119 N 573.125 -5.52492 4.3324 0
M  V30 6120 H 577.965 -1.37555 2.64353 0
M  V30 6121 H 575.502 -0.668543 1.3103 0
M  V30 6122 H 577.46 -3.73088 1.86711 0
M  V30 6123 H 576.09 -3.09413 0.919978 0
M  V30 6124 H 575.142 -2.14096 3.14431 0
M  V30 6125 H 576.454 -2.98597 3.99551 0
M  V30 6126 H 575.608 -5.18489 3.15046 0
M  V30 6127 H 574.347 -4.35477 2.1957 0
M  V30 6128 H 573.352 -3.42189 4.30333 0
M  V30 6129 H 574.577 -4.28485 5.26856 0
M  V30 6130 H 572.523 -5.58567 3.44004 0
M  V30 6131 H 572.44 -5.51605 5.16979 0
M  V30 6132 H 573.708 -6.42906 4.40786 0
M  V30 6133 N 577.937 -1.40673 -0.710563 0
M  V30 6134 C 579.185 -1.38947 -1.46759 0
M  V30 6135 C 579.506 0.00572879 -1.94999 0
M  V30 6136 O 578.776 0.961358 -1.70689 0
M  V30 6137 H 577.356 -0.5114 -0.544499 0
M  V30 6138 H 580.018 -1.75773 -0.842012 0
M  V30 6139 H 579.114 -2.06745 -2.33801 0
M  V30 6140 N 579.415 0.9433 -1.26252 0
M  V30 6141 C 580.826 1.50404 -1.10614 0
M  V30 6142 C 581.177 1.93666 0.31429 0
M  V30 6143 O 580.302 1.79709 1.20555 0
M  V30 6144 C 580.897 2.73336 -2.00182 0
M  V30 6145 C 579.456 3.25686 -1.88695 0
M  V30 6146 C 578.603 1.98474 -1.93658 0
M  V30 6147 H 581.554 0.759006 -1.39373 0
M  V30 6148 H 581.575 3.47567 -1.54847 0
M  V30 6149 H 581.087 2.41818 -3.03555 0
M  V30 6150 H 579.188 3.61998 -0.882489 0
M  V30 6151 H 579.301 3.92935 -2.74115 0
M  V30 6152 H 577.665 2.14278 -1.37684 0
M  V30 6153 H 578.448 1.6929 -2.98657 0
M  V30 6154 N 580.893 1.08022 1.14757 0
M  V30 6155 C 581.823 0.728248 2.21853 0
M  V30 6156 C 582.804 -0.287486 1.67653 0
M  V30 6157 O 583.989 -0.158727 1.9355 0
M  V30 6158 C 581.119 0.132549 3.47047 0
M  V30 6159 C 580.073 1.07619 4.14249 0
M  V30 6160 C 579.399 0.342907 5.33599 0
M  V30 6161 C 580.699 2.41268 4.63235 0
M  V30 6162 H 582.393 1.62365 2.51551 0
M  V30 6163 H 579.939 0.782125 1.20908 0
M  V30 6164 H 581.892 -0.125665 4.21213 0
M  V30 6165 H 580.616 -0.797971 3.16702 0
M  V30 6166 H 579.275 1.31944 3.42033 0
M  V30 6167 H 578.923 -0.59129 4.99513 0
M  V30 6168 H 578.623 0.971955 5.79506 0
M  V30 6169 H 580.147 0.0926538 6.1053 0
M  V30 6170 H 581.561 2.21232 5.28894 0
M  V30 6171 H 579.958 2.9983 5.19829 0
M  V30 6172 H 581.028 3.03079 3.78512 0
M  V30 6173 N 582.371 -1.3172 0.865308 0
M  V30 6174 C 583.304 -2.26687 0.262376 0
M  V30 6175 C 584.282 -1.50894 -0.605787 0
M  V30 6176 O 585.466 -1.79982 -0.56024 0
M  V30 6177 C 582.593 -3.3281 -0.628915 0
M  V30 6178 C 581.639 -4.26172 0.167278 0
M  V30 6179 S 582.472 -5.12797 1.54272 0
M  V30 6180 C 583.628 -6.22438 0.657427 0
M  V30 6181 H 583.861 -2.77478 1.0674 0
M  V30 6182 H 581.394 -1.39414 0.663555 0
M  V30 6183 H 583.352 -3.94426 -1.13747 0
M  V30 6184 H 582.013 -2.80782 -1.40785 0
M  V30 6185 H 581.206 -5.01392 -0.51203 0
M  V30 6186 H 580.808 -3.69029 0.607777 0
M  V30 6187 H 583.1 -6.77368 -0.133925 0
M  V30 6188 H 584.043 -6.9451 1.38061 0
M  V30 6189 H 584.451 -5.64043 0.227044 0
M  V30 6190 N 583.85 -0.624285 -1.44708 0
M  V30 6191 C 584.783 0.133905 -2.27807 0
M  V30 6192 C 585.76 0.857794 -1.38133 0
M  V30 6193 O 586.945 0.863277 -1.6757 0
M  V30 6194 C 584.072 1.19541 -3.16903 0
M  V30 6195 C 583.118 0.572813 -4.22636 0
M  V30 6196 S 583.951 -0.631953 -5.31758 0
M  V30 6197 C 585.106 0.429733 -6.24423 0
M  V30 6198 H 585.34 -0.571072 -2.91764 0
M  V30 6199 H 582.873 -0.412261 -1.48794 0
M  V30 6200 H 584.831 1.80293 -3.68788 0
M  V30 6201 H 583.492 1.87255 -2.5218 0
M  V30 6202 H 582.685 1.37205 -4.84965 0
M  V30 6203 H 582.287 0.0400641 -3.73979 0
M  V30 6204 H 584.579 1.30421 -6.64828 0
M  V30 6205 H 585.522 -0.157804 -7.07924 0
M  V30 6206 H 585.93 0.75256 -5.59461 0
M  V30 6207 N 585.328 1.53329 -0.364422 0
M  V30 6208 C 586.558 2.05359 0.226096 0
M  V30 6209 C 586.966 1.23777 1.43094 0
M  V30 6210 O 586.309 0.271139 1.81688 0
M  V30 6211 C 586.371 3.52918 0.684794 0
M  V30 6212 C 586.035 4.55218 -0.403206 0
M  V30 6213 C 587.032 5.04583 -1.2527 0
M  V30 6214 C 584.717 4.99134 -0.563117 0
M  V30 6215 C 586.711 5.96463 -2.24745 0
M  V30 6216 C 584.398 5.9082 -1.56124 0
M  V30 6217 C 585.396 6.39375 -2.40184 0
M  V30 6218 O 585.084 7.29255 -3.38293 0
M  V30 6219 H 584.816 0.674588 0.0436772 0
M  V30 6220 H 587.37 1.98688 -0.520782 0
M  V30 6221 H 585.6 3.57122 1.48326 0
M  V30 6222 H 587.289 3.87812 1.19818 0
M  V30 6223 H 588.055 4.71403 -1.14034 0
M  V30 6224 H 583.934 4.60928 0.0813909 0
M  V30 6225 H 587.478 6.34285 -2.90393 0
M  V30 6226 H 583.375 6.23414 -1.67407 0
M  V30 6227 H 584.143 7.47249 -3.34009 0
M  V30 6228 N 586.806 0.0935595 1.57322 0
M  V30 6229 C 588.055 -0.570191 1.93473 0
M  V30 6230 C 588.368 -1.69434 0.977318 0
M  V30 6231 O 589.574 -2.41914 1.23248 0
M  V30 6232 C 588.03 -1.06564 3.43762 0
M  V30 6233 C 587.638 0.0286723 4.47991 0
M  V30 6234 C 589.382 -1.70221 3.88877 0
M  V30 6235 C 587.289 -0.482046 5.89432 0
M  V30 6236 H 586.219 -0.216764 0.72217 0
M  V30 6237 H 588.87 0.169313 1.82717 0
M  V30 6238 H 587.252 -1.85878 3.49664 0
M  V30 6239 H 588.426 0.804106 4.5373 0
M  V30 6240 H 586.741 0.570336 4.12476 0
M  V30 6241 H 589.338 -2.09502 4.91948 0
M  V30 6242 H 589.681 -2.57078 3.27439 0
M  V30 6243 H 590.214 -0.974919 3.85668 0
M  V30 6244 H 586.953 0.349871 6.54566 0
M  V30 6245 H 586.473 -1.22452 5.87167 0
M  V30 6246 H 588.152 -0.951508 6.39965 0
M  V30 6247 N 588.284 -1.56567 -0.180126 0
M  V30 6248 C 589.509 -1.85975 -0.918041 0
M  V30 6249 C 589.934 -0.678888 -1.75422 0
M  V30 6250 O 589.292 0.372168 -1.77439 0
M  V30 6251 C 589.34 -3.13731 -1.77779 0
M  V30 6252 O 588.444 -2.95335 -2.87838 0
M  V30 6253 H 587.785 -0.61196 -0.257683 0
M  V30 6254 H 590.315 -2.03798 -0.180923 0
M  V30 6255 H 590.325 -3.4491 -2.17948 0
M  V30 6256 H 589 -3.99293 -1.16352 0
M  V30 6257 H 587.577 -2.7549 -2.51316 0
M  V30 6258 N 589.762 0.448376 -1.51087 0
M  V30 6259 C 590.709 1.54341 -1.71603 0
M  V30 6260 C 591.679 1.56463 -0.557536 0
M  V30 6261 O 592.864 1.73644 -0.79072 0
M  V30 6262 C 590.004 2.92148 -1.83695 0
M  V30 6263 C 589.117 2.99639 -3.11192 0
M  V30 6264 C 588.252 4.285 -3.13944 0
M  V30 6265 C 587.291 4.29819 -4.35801 0
M  V30 6266 N 586.428 5.50186 -4.36164 0
M  V30 6267 H 591.268 1.36151 -2.65079 0
M  V30 6268 H 588.805 0.661585 -1.31383 0
M  V30 6269 H 590.763 3.72093 -1.88687 0
M  V30 6270 H 589.393 3.0892 -0.936374 0
M  V30 6271 H 588.445 2.12425 -3.15562 0
M  V30 6272 H 589.757 2.96474 -4.01129 0
M  V30 6273 H 588.911 5.16811 -3.17791 0
M  V30 6274 H 587.65 4.34307 -2.21876 0
M  V30 6275 H 586.655 3.39902 -4.32142 0
M  V30 6276 H 587.88 4.25685 -5.29121 0
M  V30 6277 H 585.826 5.56735 -3.46961 0
M  V30 6278 H 585.743 5.48856 -5.19897 0
M  V30 6279 H 587.011 6.40559 -4.44189 0
M  V30 6280 N 591.24 1.41047 0.703093 0
M  V30 6281 C 592.173 1.36713 1.82715 0
M  V30 6282 C 593.151 0.235533 1.60885 0
M  V30 6283 O 594.335 0.421227 1.83733 0
M  V30 6284 C 591.462 1.13069 3.1927 0
M  V30 6285 C 590.508 2.28846 3.59905 0
M  V30 6286 S 591.341 3.91297 3.65578 0
M  V30 6287 C 592.497 3.69941 5.04871 0
M  V30 6288 H 592.73 2.31838 1.86114 0
M  V30 6289 H 590.263 1.27481 0.871083 0
M  V30 6290 H 592.221 1.00113 3.98105 0
M  V30 6291 H 590.882 0.195763 3.13489 0
M  V30 6292 H 590.075 2.07977 4.59088 0
M  V30 6293 H 589.677 2.3817 2.88359 0
M  V30 6294 H 591.969 3.29181 5.92154 0
M  V30 6295 H 592.912 4.68699 5.30779 0
M  V30 6296 H 593.32 3.03369 4.76054 0
M  V30 6297 N 592.718 -0.936591 1.26751 0
M  V30 6298 C 593.964 -1.6858 1.12733 0
M  V30 6299 C 594.297 -1.91414 -0.327745 0
M  V30 6300 O 593.572 -1.49812 -1.24043 0
M  V30 6301 C 593.855 -3.05779 1.90187 0
M  V30 6302 C 593.708 -2.90242 3.43627 0
M  V30 6303 C 595.027 -4.0597 1.69931 0
M  V30 6304 H 592.146 -0.61182 0.410908 0
M  V30 6305 H 594.788 -1.08747 1.55801 0
M  V30 6306 H 592.938 -3.56853 1.53584 0
M  V30 6307 H 594.61 -2.46354 3.9001 0
M  V30 6308 H 592.853 -2.2577 3.70419 0
M  V30 6309 H 593.524 -3.87572 3.93055 0
M  V30 6310 H 596 -3.63874 2.0183 0
M  V30 6311 H 594.876 -4.99974 2.26534 0
M  V30 6312 H 595.137 -4.37369 0.64502 0
M  V30 6313 N 594.196 -1.08629 -1.14182 0
M  V30 6314 C 595.607 -0.838003 -1.66836 0
M  V30 6315 C 595.958 0.634885 -1.85644 0
M  V30 6316 O 595.083 1.49008 -1.56926 0
M  V30 6317 C 595.678 -1.51465 -3.03058 0
M  V30 6318 C 594.237 -1.31355 -3.52736 0
M  V30 6319 C 593.384 -1.57599 -2.28162 0
M  V30 6320 H 596.335 -1.24656 -0.982165 0
M  V30 6321 H 596.356 -0.943134 -3.68626 0
M  V30 6322 H 595.868 -2.58661 -2.89337 0
M  V30 6323 H 593.969 -0.262384 -3.71675 0
M  V30 6324 H 594.082 -2.04275 -4.33369 0
M  V30 6325 H 592.446 -0.997659 -2.34348 0
M  V30 6326 H 593.229 -2.66006 -2.17015 0
M  V30 6327 N 595.674 1.31259 -0.872281 0
M  V30 6328 C 596.902 2.00795 -0.498907 0
M  V30 6329 C 597.317 1.65464 0.909238 0
M  V30 6330 O 596.674 0.885073 1.59602 0
M  V30 6331 C 596.725 3.55625 -0.649092 0
M  V30 6332 O 596.446 3.89692 -2.00179 0
M  V30 6333 C 597.947 4.42434 -0.277034 0
M  V30 6334 H 595.167 0.642299 -0.194145 0
M  V30 6335 H 597.711 1.67438 -1.17408 0
M  V30 6336 H 595.866 3.87394 -0.0214402 0
M  V30 6337 H 596.28 4.84407 -2.01122 0
M  V30 6338 H 597.754 5.50299 -0.433064 0
M  V30 6339 H 598.231 4.32146 0.783989 0
M  V30 6340 H 598.837 4.16086 -0.880483 0
M  V30 6341 N 597.152 0.631951 1.44375 0
M  V30 6342 C 598.377 0.142146 2.06912 0
M  V30 6343 C 598.802 -1.17456 1.4692 0
M  V30 6344 O 598.16 -1.72074 0.570975 0
M  V30 6345 C 598.208 0.0417952 3.60576 0
M  V30 6346 O 597.312 -1.00194 4.00044 0
M  V30 6347 H 596.653 0.0851491 0.658518 0
M  V30 6348 H 599.183 0.868863 1.85235 0
M  V30 6349 H 599.193 -0.148517 4.0773 0
M  V30 6350 H 597.868 1.0031 4.03622 0
M  V30 6351 H 596.445 -0.786131 3.64519 0
M  V30 6352 N 598.631 -1.53133 0.372548 0
M  V30 6353 C 599.908 -1.93704 -0.271693 0
M  V30 6354 C 600.288 -1.30667 -1.65799 0
M  V30 6355 O 599.636 -0.46838 -2.23648 0
M  V30 6356 C 599.846 -3.47576 -0.314903 0
M  V30 6357 C 601.194 -4.20998 -0.551912 0
M  V30 6358 O 602.218 -3.53994 -0.39582 0
M  V30 6359 O 601.077 -5.39748 -0.85639 0
M  V30 6360 H 598.171 -0.810457 -0.164586 0
M  V30 6361 H 600.717 -1.6427 0.425838 0
M  V30 6362 H 599.489 -3.85749 0.656792 0
M  V30 6363 H 599.112 -3.83264 -1.05804 0
M  V30 6364 N 600.109 -0.101901 -1.5727 0
M  V30 6365 C 601.056 0.854577 -2.14396 0
M  V30 6366 C 602.026 1.27521 -1.06432 0
M  V30 6367 O 603.211 1.35575 -1.34253 0
M  V30 6368 C 600.351 2.10576 -2.73408 0
M  V30 6369 C 599.464 1.73504 -3.95626 0
M  V30 6370 C 598.599 2.9346 -4.42781 0
M  V30 6371 C 597.638 2.52547 -5.57572 0
M  V30 6372 N 596.775 3.65359 -5.99547 0
M  V30 6373 H 601.615 0.360578 -2.9581 0
M  V30 6374 H 599.152 0.166303 -1.46157 0
M  V30 6375 H 601.11 2.83859 -3.05745 0
M  V30 6376 H 599.74 2.57463 -1.94711 0
M  V30 6377 H 598.792 0.901622 -3.6956 0
M  V30 6378 H 600.104 1.39426 -4.78917 0
M  V30 6379 H 599.258 3.74988 -4.76937 0
M  V30 6380 H 597.997 3.30753 -3.58404 0
M  V30 6381 H 597.002 1.69446 -5.23037 0
M  V30 6382 H 598.227 2.1639 -6.43702 0
M  V30 6383 H 596.173 4.02358 -5.18116 0
M  V30 6384 H 596.09 3.35148 -6.77652 0
M  V30 6385 H 597.358 4.47378 -6.38336 0
M  V30 6386 N 601.587 1.56661 0.17182 0
M  V30 6387 C 602.835 1.81606 0.886774 0
M  V30 6388 C 603.156 0.678818 1.82803 0
M  V30 6389 O 602.426 -0.301354 1.93568 0
M  V30 6390 H 601.006 0.669934 0.330451 0
M  V30 6391 H 603.668 1.94142 0.171757 0
M  V30 6392 H 602.764 2.75634 1.46398 0
M  V30 6393 N 603.065 -0.440357 1.51323 0
M  V30 6394 C 604.481 -0.7766 1.39431 0
M  V30 6395 C 604.681 -1.95838 0.474296 0
M  V30 6396 O 603.737 -2.52398 -0.0716692 0
M  V30 6397 C 605.05 -1.05981 2.81405 0
M  V30 6398 C 606.598 -1.16442 2.90534 0
M  V30 6399 C 607.073 -1.48058 4.33408 0
M  V30 6400 N 608.564 -1.54988 4.36501 0
M  V30 6401 C 609.299 -1.81017 5.44078 0
M  V30 6402 N 608.795 -2.04858 6.61819 0
M  V30 6403 N 610.588 -1.82774 5.31554 0
M  V30 6404 H 602.739 0.338006 2.09693 0
M  V30 6405 H 605.002 0.0888072 0.943831 0
M  V30 6406 H 604.708 -0.264173 3.50706 0
M  V30 6407 H 604.582 -1.98822 3.20546 0
M  V30 6408 H 606.969 -1.95068 2.21432 0
M  V30 6409 H 607.05 -0.215088 2.54894 0
M  V30 6410 H 606.694 -0.699605 5.03059 0
M  V30 6411 H 606.624 -2.44192 4.66559 0
M  V30 6412 H 609.115 -1.38479 3.51613 0
M  V30 6413 H 609.428 -2.2408 7.396 0
M  V30 6414 H 607.773 -2.02187 6.6494 0
M  V30 6415 H 610.964 -1.63665 4.38556 0
M  V30 6416 H 611.137 -2.02722 6.15474 0
M  V30 6417 N 604.543 -1.41418 -0.695603 0
M  V30 6418 C 605.79 -1.40774 -1.45564 0
M  V30 6419 C 606.118 -0.0168604 -1.94493 0
M  V30 6420 O 605.373 0.971259 -1.69897 0
M  V30 6421 C 605.672 -2.36112 -2.68302 0
M  V30 6422 C 605.338 -3.82952 -2.38031 0
M  V30 6423 C 604 -4.22954 -2.29486 0
M  V30 6424 C 606.352 -4.75662 -2.13061 0
M  V30 6425 C 603.68 -5.53674 -1.94067 0
M  V30 6426 C 606.032 -6.06702 -1.79151 0
M  V30 6427 C 604.696 -6.45725 -1.69102 0
M  V30 6428 H 603.966 -0.515128 -0.532658 0
M  V30 6429 H 606.613 -1.74216 -0.795047 0
M  V30 6430 H 604.918 -1.95924 -3.39295 0
M  V30 6431 H 606.615 -2.32887 -3.26442 0
M  V30 6432 H 603.205 -3.5127 -2.45576 0
M  V30 6433 H 607.389 -4.45561 -2.18608 0
M  V30 6434 H 602.645 -5.8279 -1.8484 0
M  V30 6435 H 606.819 -6.78041 -1.5885 0
M  V30 6436 H 604.446 -7.46929 -1.41426 0
M  V30 6437 N 606.021 0.929856 -1.27246 0
M  V30 6438 C 607.251 1.70895 -1.16096 0
M  V30 6439 C 607.659 1.87039 0.285122 0
M  V30 6440 O 607.002 1.38557 1.20614 0
M  V30 6441 C 607.064 3.12919 -1.7698 0
M  V30 6442 C 606.728 3.2012 -3.26148 0
M  V30 6443 C 607.725 3.02533 -4.22812 0
M  V30 6444 C 605.41 3.43148 -3.66817 0
M  V30 6445 C 607.404 3.07861 -5.58122 0
M  V30 6446 C 605.091 3.48109 -5.02258 0
M  V30 6447 C 606.089 3.30483 -5.97721 0
M  V30 6448 O 605.777 3.35175 -7.30694 0
M  V30 6449 H 605.509 0.54152 -0.404639 0
M  V30 6450 H 608.063 1.17342 -1.68582 0
M  V30 6451 H 606.293 3.67945 -1.18969 0
M  V30 6452 H 607.982 3.72787 -1.60576 0
M  V30 6453 H 608.748 2.84586 -3.92728 0
M  V30 6454 H 604.627 3.55918 -2.9299 0
M  V30 6455 H 608.171 2.94021 -6.32612 0
M  V30 6456 H 604.068 3.65579 -5.31998 0
M  V30 6457 H 604.836 3.51644 -7.39114 0
M  V30 6458 N 607.499 1.09233 1.13605 0
M  V30 6459 C 608.462 0.733553 2.17144 0
M  V30 6460 C 609.462 -0.235873 1.59061 0
M  V30 6461 O 610.652 -0.0143167 1.74194 0
M  V30 6462 C 607.784 0.084471 3.40795 0
M  V30 6463 H 608.977 1.65049 2.50397 0
M  V30 6464 H 606.53 0.891264 1.28399 0
M  V30 6465 H 607.265 -0.843795 3.1313 0
M  V30 6466 H 607.05 0.781985 3.84223 0
M  V30 6467 H 608.54 -0.151216 4.17326 0
M  V30 6468 N 608.977 -1.30795 0.87923 0
M  V30 6469 C 610.224 -1.96362 0.494786 0
M  V30 6470 C 610.552 -1.69448 -0.954868 0
M  V30 6471 O 609.807 -0.988711 -1.68888 0
M  V30 6472 C 610.106 -3.50287 0.709476 0
M  V30 6473 C 609.772 -3.9724 2.13333 0
M  V30 6474 C 608.434 -4.09772 2.52271 0
M  V30 6475 C 610.786 -4.21807 3.06151 0
M  V30 6476 C 608.114 -4.44227 3.83248 0
M  V30 6477 C 610.466 -4.5773 4.36654 0
M  V30 6478 C 609.13 -4.68469 4.75492 0
M  V30 6479 H 608.4 -0.71854 0.181055 0
M  V30 6480 H 611.047 -1.55764 1.11399 0
M  V30 6481 H 609.352 -3.91799 0.0072 0
M  V30 6482 H 611.049 -3.99082 0.391703 0
M  V30 6483 H 607.639 -3.87988 1.82107 0
M  V30 6484 H 611.823 -4.11611 2.77291 0
M  V30 6485 H 607.079 -4.50741 4.13089 0
M  V30 6486 H 611.253 -4.7569 5.08617 0
M  V30 6487 H 608.88 -4.94923 5.77022 0
M  V30 6488 N 610.455 -0.639598 -1.44038 0
M  V30 6489 C 611.703 -0.147188 -2.01563 0
M  V30 6490 C 612.024 1.2384 -1.50628 0
M  V30 6491 O 611.294 1.82452 -0.713316 0
M  V30 6492 H 609.874 -0.0514231 -0.745228 0
M  V30 6493 H 612.536 -0.828205 -1.76428 0
M  V30 6494 H 611.632 -0.121358 -3.11864 0
M  V30 6495 N 611.933 1.52934 -0.380664 0
M  V30 6496 C 613.349 1.59571 -0.0302429 0
M  V30 6497 C 613.549 1.39509 1.45394 0
M  V30 6498 O 612.605 1.20777 2.21741 0
M  V30 6499 C 613.918 2.96519 -0.499691 0
M  V30 6500 C 615.466 3.09672 -0.455204 0
M  V30 6501 C 615.941 4.49056 -0.900703 0
M  V30 6502 N 617.432 4.55215 -0.856367 0
M  V30 6503 C 618.167 5.61282 -1.17259 0
M  V30 6504 N 617.663 6.75035 -1.55885 0
M  V30 6505 N 619.456 5.51343 -1.0944 0
M  V30 6506 H 611.607 1.64224 -1.347 0
M  V30 6507 H 613.87 0.771033 -0.551554 0
M  V30 6508 H 613.576 3.16388 -1.53595 0
M  V30 6509 H 613.45 3.77052 0.105789 0
M  V30 6510 H 615.837 2.89504 0.571949 0
M  V30 6511 H 615.918 2.31113 -1.09638 0
M  V30 6512 H 615.562 4.69964 -1.92604 0
M  V30 6513 H 615.492 5.26068 -0.236629 0
M  V30 6514 H 617.983 3.73546 -0.572013 0
M  V30 6515 H 618.296 7.51926 -1.784 0
M  V30 6516 H 616.641 6.76388 -1.59764 0
M  V30 6517 H 619.832 4.61356 -0.791713 0
M  V30 6518 H 620.005 6.33905 -1.34417 0
M  V30 6519 N 613.412 0.11024 1.57214 0
M  V30 6520 C 614.658 -0.550684 1.9518 0
M  V30 6521 C 614.991 -1.66885 0.993122 0
M  V30 6522 O 614.266 -1.94479 0.0287907 0
M  V30 6523 C 614.549 -1.09163 3.43155 0
M  V30 6524 C 614.402 0.0225198 4.49794 0
M  V30 6525 C 615.721 -1.98527 3.92778 0
M  V30 6526 H 612.84 -0.198706 0.709708 0
M  V30 6527 H 615.482 0.184024 1.89107 0
M  V30 6528 H 613.632 -1.71775 3.48462 0
M  V30 6529 H 615.304 0.657443 4.56591 0
M  V30 6530 H 613.547 0.686868 4.28328 0
M  V30 6531 H 614.218 -0.39706 5.5057 0
M  V30 6532 H 616.694 -1.458 3.8972 0
M  V30 6533 H 615.57 -2.33298 4.96853 0
M  V30 6534 H 615.831 -2.90846 3.32958 0
M  V30 6535 N 614.89 -1.56749 -0.16351 0
M  V30 6536 C 616.137 -1.82434 -0.878866 0
M  V30 6537 C 616.465 -0.688557 -1.81904 0
M  V30 6538 O 615.72 0.323644 -1.93005 0
M  V30 6539 C 616.019 -3.14342 -1.70071 0
M  V30 6540 C 615.685 -4.41647 -0.908775 0
M  V30 6541 C 614.347 -4.76224 -0.690236 0
M  V30 6542 C 616.699 -5.19998 -0.353815 0
M  V30 6543 C 614.027 -5.86624 0.0942374 0
M  V30 6544 C 616.379 -6.3122 0.41761 0
M  V30 6545 C 615.043 -6.64358 0.646879 0
M  V30 6546 H 614.313 -0.667574 -0.3216 0
M  V30 6547 H 616.96 -1.90963 -0.14337 0
M  V30 6548 H 615.265 -3.0119 -2.50583 0
M  V30 6549 H 616.962 -3.31426 -2.25738 0
M  V30 6550 H 613.552 -4.1453 -1.08916 0
M  V30 6551 H 617.736 -4.93673 -0.509975 0
M  V30 6552 H 612.992 -6.10751 0.281529 0
M  V30 6553 H 617.166 -6.91133 0.854849 0
M  V30 6554 H 614.793 -7.49742 1.25662 0
M  V30 6555 N 616.368 0.432326 -1.51554 0
M  V30 6556 C 617.593 1.20824 -1.68571 0
M  V30 6557 C 618.018 1.84126 -0.384596 0
M  V30 6558 O 617.376 1.69025 0.655751 0
M  V30 6559 C 617.424 2.26429 -2.80646 0
M  V30 6560 O 616.528 3.32032 -2.44598 0
M  V30 6561 H 615.869 0.353765 -0.561913 0
M  V30 6562 H 618.399 0.509916 -1.98144 0
M  V30 6563 H 618.409 2.71133 -3.04878 0
M  V30 6564 H 617.084 1.79733 -3.75058 0
M  V30 6565 H 615.661 2.92769 -2.30956 0
M  V30 6566 N 617.846 1.41785 0.688094 0
M  V30 6567 C 619.094 1.41264 1.4453 0
M  V30 6568 C 619.415 0.0252946 1.94984 0
M  V30 6569 O 618.685 -0.934081 1.72197 0
M  V30 6570 H 617.265 0.519998 0.536294 0
M  V30 6571 H 619.927 1.7709 0.813941 0
M  V30 6572 H 619.023 2.10439 2.30482 0
M  V30 6573 N 619.324 -0.923095 1.27737 0
M  V30 6574 C 620.254 -2.04124 1.13383 0
M  V30 6575 C 621.235 -1.70066 0.0340658 0
M  V30 6576 O 622.42 -1.93068 0.209383 0
M  V30 6577 C 619.55 -3.3831 0.785097 0
M  V30 6578 C 618.504 -3.86496 1.8386 0
M  V30 6579 C 617.83 -5.1754 1.34373 0
M  V30 6580 C 619.13 -4.09381 3.24353 0
M  V30 6581 H 620.824 -2.1639 2.06919 0
M  V30 6582 H 618.37 -1.03976 0.996243 0
M  V30 6583 H 620.323 -4.16016 0.671485 0
M  V30 6584 H 619.047 -3.2607 -0.185969 0
M  V30 6585 H 617.706 -3.10987 1.9412 0
M  V30 6586 H 617.354 -5.01696 0.361989 0
M  V30 6587 H 617.054 -5.50751 2.04811 0
M  V30 6588 H 618.578 -5.97811 1.24315 0
M  V30 6589 H 619.992 -4.77641 3.17067 0
M  V30 6590 H 618.389 -4.53906 3.92542 0
M  V30 6591 H 619.459 -3.14515 3.69064 0
M  V30 6592 N 620.802 -1.09834 -1.13024 0
M  V30 6593 C 622.048 -0.83819 -1.84668 0
M  V30 6594 C 622.381 0.634645 -1.83537 0
M  V30 6595 O 621.656 1.46753 -1.27647 0
M  V30 6596 C 621.939 -1.37933 -3.32636 0
M  V30 6597 C 621.792 -2.91857 -3.42257 0
M  V30 6598 C 623.111 -1.01654 -4.28199 0
M  V30 6599 H 620.23 -0.30595 -0.670495 0
M  V30 6600 H 622.872 -1.36044 -1.32635 0
M  V30 6601 H 621.022 -0.935111 -3.77078 0
M  V30 6602 H 622.694 -3.44759 -3.06495 0
M  V30 6603 H 620.937 -3.28776 -2.83 0
M  V30 6604 H 621.608 -3.24799 -4.46329 0
M  V30 6605 H 624.084 -1.39973 -3.9185 0
M  V30 6606 H 622.96 -1.42217 -5.30156 0
M  V30 6607 H 623.221 0.0747794 -4.42037 0
M  V30 6608 N 622.28 1.30327 -0.886154 0
M  V30 6609 C 623.505 2.0079 -0.519425 0
M  V30 6610 C 623.93 1.65979 0.885013 0
M  V30 6611 O 623.288 0.877043 1.58675 0
M  V30 6612 C 623.336 3.53686 -0.702758 0
M  V30 6613 O 622.44 4.11637 0.250828 0
M  V30 6614 H 621.781 0.63171 -0.204544 0
M  V30 6615 H 624.311 1.66145 -1.19402 0
M  V30 6616 H 624.321 4.03531 -0.602207 0
M  V30 6617 H 622.996 3.78361 -1.72673 0
M  V30 6618 H 621.573 3.72755 0.103873 0
M  V30 6619 N 623.758 0.647228 1.43697 0
M  V30 6620 C 624.986 0.16575 2.06235 0
M  V30 6621 C 625.401 -1.1662 1.48476 0
M  V30 6622 O 624.758 -1.7187 0.613762 0
M  V30 6623 C 624.809 0.0621651 3.61447 0
M  V30 6624 O 624.53 1.34146 4.17057 0
M  V30 6625 C 626.031 -0.446102 4.4105 0
M  V30 6626 H 623.251 0.0871158 0.665321 0
M  V30 6627 H 625.795 0.886183 1.84301 0
M  V30 6628 H 623.95 -0.608794 3.82587 0
M  V30 6629 H 624.364 1.19675 5.10664 0
M  V30 6630 H 625.838 -0.46755 5.50016 0
M  V30 6631 H 626.315 -1.47627 4.13646 0
M  V30 6632 H 626.921 0.192159 4.24866 0
M  V30 6633 N 625.236 -1.5273 0.388769 0
M  V30 6634 C 626.484 -2.01174 -0.193208 0
M  V30 6635 C 626.805 -1.27705 -1.47365 0
M  V30 6636 O 626.075 -0.396966 -1.91836 0
M  V30 6637 H 624.655 -0.743287 -0.0743871 0
M  V30 6638 H 627.317 -1.87826 0.520336 0
M  V30 6639 H 626.413 -3.09477 -0.403803 0
M  V30 6640 N 626.714 -0.118576 -1.57153 0
M  V30 6641 C 627.644 0.828436 -2.1831 0
M  V30 6642 C 628.625 1.27758 -1.12303 0
M  V30 6643 O 629.81 1.34026 -1.40537 0
M  V30 6644 C 626.94 2.07876 -2.78217 0
M  V30 6645 C 625.894 1.76742 -3.89803 0
M  V30 6646 C 625.22 3.08801 -4.36516 0
M  V30 6647 C 626.52 1.03606 -5.11921 0
M  V30 6648 H 628.214 0.318824 -2.97698 0
M  V30 6649 H 625.76 0.151911 -1.43196 0
M  V30 6650 H 627.713 2.74584 -3.19659 0
M  V30 6651 H 626.437 2.61161 -1.96118 0
M  V30 6652 H 625.096 1.12424 -3.48936 0
M  V30 6653 H 624.744 3.6002 -3.51276 0
M  V30 6654 H 624.444 2.88743 -5.11763 0
M  V30 6655 H 625.968 3.76627 -4.80608 0
M  V30 6656 H 627.382 1.60467 -5.50385 0
M  V30 6657 H 625.779 0.936454 -5.92748 0
M  V30 6658 H 626.849 0.0227421 -4.84895 0
M  V30 6659 N 628.193 1.56834 0.155195 0
M  V30 6660 C 629.14 1.97646 1.19184 0
M  V30 6661 C 630.11 0.842788 1.4313 0
M  V30 6662 O 631.295 1.1042 1.55602 0
M  V30 6663 C 628.435 2.35527 2.52232 0
M  V30 6664 C 627.548 3.62147 2.35529 0
M  V30 6665 C 626.683 3.89167 3.61555 0
M  V30 6666 C 625.722 5.09084 3.39853 0
M  V30 6667 N 624.859 5.32156 4.5799 0
M  V30 6668 H 629.699 2.8601 0.836802 0
M  V30 6669 H 627.236 1.41507 0.401758 0
M  V30 6670 H 629.194 2.55516 3.29799 0
M  V30 6671 H 627.824 1.50253 2.85699 0
M  V30 6672 H 626.876 3.4998 1.49057 0
M  V30 6673 H 628.188 4.49871 2.15448 0
M  V30 6674 H 627.342 4.09611 4.47553 0
M  V30 6675 H 626.081 2.9985 3.84632 0
M  V30 6676 H 625.086 4.88522 2.52243 0
M  V30 6677 H 626.311 5.99947 3.18183 0
M  V30 6678 H 624.257 4.45791 4.81255 0
M  V30 6679 H 624.174 6.14133 4.40882 0
M  V30 6680 H 625.442 5.57091 5.45225 0
M  V30 6681 N 629.671 -0.424282 1.51781 0
M  V30 6682 C 630.917 -1.17434 1.6534 0
M  V30 6683 C 631.25 -1.90549 0.374806 0
M  V30 6684 O 630.525 -1.84145 -0.626179 0
M  V30 6685 C 630.808 -2.18093 2.86544 0
M  V30 6686 C 630.661 -1.48975 4.24413 0
M  V30 6687 C 631.98 -3.18934 3.03264 0
M  V30 6688 H 629.099 -0.425566 0.601716 0
M  V30 6689 H 631.741 -0.461921 1.84299 0
M  V30 6690 H 629.891 -2.78849 2.7051 0
M  V30 6691 H 631.563 -0.914551 4.52143 0
M  V30 6692 H 629.806 -0.791893 4.26511 0
M  V30 6693 H 630.477 -2.22347 5.05238 0
M  V30 6694 H 632.953 -2.68243 3.18096 0
M  V30 6695 H 631.829 -3.86645 3.89611 0
M  V30 6696 H 632.09 -3.85793 2.15908 0
M  V30 6697 N 631.149 -1.42148 -0.680565 0
M  V30 6698 C 632.565 -1.24947 -0.992995 0
M  V30 6699 C 632.765 -0.149527 -2.00944 0
M  V30 6700 O 631.821 0.481145 -2.47873 0
M  V30 6701 C 633.134 -2.60426 -1.5033 0
M  V30 6702 C 634.682 -2.67733 -1.62137 0
M  V30 6703 C 635.157 -4.03564 -2.16565 0
M  V30 6704 N 636.648 -4.05488 -2.23905 0
M  V30 6705 C 637.383 -5.07401 -2.67081 0
M  V30 6706 N 636.879 -6.19698 -3.09751 0
M  V30 6707 N 638.672 -4.94758 -2.66778 0
M  V30 6708 H 630.823 -2.12399 -0.0074788 0
M  V30 6709 H 633.086 -0.94571 -0.0658529 0
M  V30 6710 H 632.792 -3.41743 -0.830947 0
M  V30 6711 H 632.666 -2.83949 -2.483 0
M  V30 6712 H 635.053 -1.86765 -2.2848 0
M  V30 6713 H 635.134 -2.48004 -0.626713 0
M  V30 6714 H 634.778 -4.84987 -1.50833 0
M  V30 6715 H 634.708 -4.20641 -3.1681 0
M  V30 6716 H 637.199 -3.24415 -1.93812 0
M  V30 6717 H 637.512 -6.93318 -3.41365 0
M  V30 6718 H 635.857 -6.23212 -3.07623 0
M  V30 6719 H 639.048 -4.06105 -2.32801 0
M  V30 6720 H 639.221 -5.74317 -3.00107 0
M  V30 6721 N 632.627 0.916307 -1.28225 0
M  V30 6722 C 633.876 1.65975 -1.14608 0
M  V30 6723 C 634.189 1.93204 0.305191 0
M  V30 6724 O 635.395 2.65611 0.562432 0
M  V30 6725 C 633.851 2.98989 -2.00333 0
M  V30 6726 C 633.459 2.79417 -3.50186 0
M  V30 6727 C 635.203 3.76856 -1.95397 0
M  V30 6728 C 633.11 4.08056 -4.28071 0
M  V30 6729 H 632.04 0.622587 -0.425324 0
M  V30 6730 H 634.691 1.01705 -1.52736 0
M  V30 6731 H 633.073 3.6438 -1.5506 0
M  V30 6732 H 634.247 2.22723 -4.034 0
M  V30 6733 H 632.562 2.14966 -3.56621 0
M  V30 6734 H 635.159 4.72203 -2.50856 0
M  V30 6735 H 635.502 4.05776 -0.930137 0
M  V30 6736 H 636.035 3.1828 -2.38626 0
M  V30 6737 H 632.774 3.8431 -5.31024 0
M  V30 6738 H 632.294 4.64371 -3.79631 0
M  V30 6739 H 633.973 4.76333 -4.37854 0
M  V30 6740 N 634.105 1.10431 1.1244 0
M  V30 6741 C 635.038 0.696987 2.17296 0
M  V30 6742 C 636.016 -0.301673 1.59777 0
M  V30 6743 O 637.2 -0.200583 1.8743 0
M  V30 6744 C 634.327 0.0284094 3.38688 0
M  V30 6745 C 633.373 0.990536 4.14838 0
M  V30 6746 S 634.206 2.50785 4.73146 0
M  V30 6747 C 635.362 1.85198 5.97873 0
M  V30 6748 H 635.595 1.58523 2.51511 0
M  V30 6749 H 633.128 0.921312 1.239 0
M  V30 6750 H 635.086 -0.351009 4.08997 0
M  V30 6751 H 633.747 -0.836629 3.02753 0
M  V30 6752 H 632.94 0.469991 5.01804 0
M  V30 6753 H 632.542 1.31186 3.50237 0
M  V30 6754 H 634.834 1.18217 6.67106 0
M  V30 6755 H 635.777 2.7012 6.54554 0
M  V30 6756 H 636.185 1.31653 5.48933 0
M  V30 6757 N 635.583 -1.29855 0.893053 0
M  V30 6758 C 636.831 -1.9544 0.514566 0
M  V30 6759 C 637.152 -1.70795 -0.940959 0
M  V30 6760 O 636.422 -1.03601 -1.66264 0
M  V30 6761 H 635.002 -0.723137 0.187302 0
M  V30 6762 H 637.664 -1.58234 1.13789 0
M  V30 6763 H 636.76 -3.04341 0.691581 0
M  V30 6764 N 637.061 -0.65484 -1.43351 0
M  V30 6765 C 638.472 -0.248506 -1.85039 0
M  V30 6766 C 638.823 1.20526 -1.54816 0
M  V30 6767 O 637.948 1.92016 -0.99794 0
M  V30 6768 C 638.543 -0.444241 -3.35875 0
M  V30 6769 C 637.102 -0.0922108 -3.76287 0
M  V30 6770 C 636.249 -0.746327 -2.67068 0
M  V30 6771 H 639.2 -0.8584 -1.33481 0
M  V30 6772 H 639.221 0.309762 -3.79237 0
M  V30 6773 H 638.733 -1.50239 -3.5784 0
M  V30 6774 H 636.834 0.96328 -3.59933 0
M  V30 6775 H 636.947 -0.518807 -4.76283 0
M  V30 6776 H 635.311 -0.179416 -2.54067 0
M  V30 6777 H 636.094 -1.80754 -2.91861 0
M  V30 6778 N 638.539 1.52521 -0.396863 0
M  V30 6779 C 639.487 2.28217 0.44943 0
M  V30 6780 C 640.481 1.32416 1.05652 0
M  V30 6781 O 641.687 1.49925 0.996124 0
M  V30 6782 H 638.062 0.733966 0.1637 0
M  V30 6783 H 640.033 2.97658 -0.210367 0
M  V30 6784 C 638.782 3.10713 1.56054 0
M  V30 6785 H 638.105 3.84291 1.10273 0
M  V30 6786 H 639.545 3.66803 2.12677 0
M  V30 6787 C 638.004 2.23499 2.52091 0
M  V30 6788 O 638.534 1.8669 3.55682 0
M  V30 6789 N 636.74 1.8751 2.2201 0
M  V30 6790 H 636.287 2.17643 1.37802 0
M  V30 6791 H 636.245 1.29448 2.86514 0
M  V30 6792 N 640.017 0.126909 1.57088 0
M  V30 6793 C 641.247 -0.535892 1.99529 0
M  V30 6794 C 641.655 -1.60259 1.00566 0
M  V30 6795 O 640.998 -1.83698 -0.00843269 0
M  V30 6796 C 641.06 -1.21374 3.38391 0
M  V30 6797 C 640.724 -0.294044 4.56053 0
M  V30 6798 C 641.721 0.470454 5.17767 0
M  V30 6799 C 639.406 -0.202808 5.0189 0
M  V30 6800 C 641.4 1.31384 6.23712 0
M  V30 6801 C 639.087 0.644203 6.07695 0
M  V30 6802 C 640.085 1.40115 6.68473 0
M  V30 6803 O 639.773 2.23408 7.72233 0
M  V30 6804 H 639.505 -0.145799 0.66009 0
M  V30 6805 H 642.059 0.212441 2.04298 0
M  V30 6806 H 640.289 -2.00931 3.30399 0
M  V30 6807 H 641.978 -1.77424 3.65069 0
M  V30 6808 H 642.744 0.409884 4.83265 0
M  V30 6809 H 638.623 -0.781688 4.54324 0
M  V30 6810 H 642.167 1.90514 6.71081 0
M  V30 6811 H 638.064 0.706137 6.41626 0
M  V30 6812 H 638.832 2.16436 7.89365 0
M  V30 6813 N 641.495 -1.56914 -0.146875 0
M  V30 6814 C 642.723 -1.87515 -0.874394 0
M  V30 6815 C 643.138 -0.715116 -1.74733 0
M  V30 6816 O 642.495 0.315113 -1.79759 0
M  V30 6817 C 642.546 -3.17362 -1.731 0
M  V30 6818 O 642.267 -4.28897 -0.893245 0
M  V30 6819 C 643.768 -3.61479 -2.56609 0
M  V30 6820 H 640.988 -0.621546 -0.252827 0
M  V30 6821 H 643.532 -2.04023 -0.139627 0
M  V30 6822 H 641.687 -3.02608 -2.41883 0
M  V30 6823 H 642.101 -5.03146 -1.48137 0
M  V30 6824 H 643.575 -4.5517 -3.12289 0
M  V30 6825 H 644.052 -2.86773 -3.32653 0
M  V30 6826 H 644.658 -3.78927 -1.93117 0
M  V30 6827 N 642.974 0.416227 -1.52004 0
M  V30 6828 C 644.385 0.995319 -1.57957 0
M  V30 6829 C 644.736 1.91744 -0.415754 0
M  V30 6830 O 643.861 2.11349 0.464808 0
M  V30 6831 C 644.456 1.81191 -2.86278 0
M  V30 6832 C 643.015 2.34115 -2.94732 0
M  V30 6833 C 642.162 1.139 -2.52828 0
M  V30 6834 H 645.113 0.196716 -1.57476 0
M  V30 6835 H 645.134 2.66859 -2.71231 0
M  V30 6836 H 644.646 1.14051 -3.70963 0
M  V30 6837 H 642.747 3.04647 -2.14525 0
M  V30 6838 H 642.86 2.65466 -3.98829 0
M  V30 6839 H 641.224 1.49081 -2.06511 0
M  V30 6840 H 642.007 0.483383 -3.3988 0
M  V30 6841 N 644.452 1.42507 0.673017 0
M  V30 6842 C 645.7 1.42789 1.43023 0
M  V30 6843 C 646.021 0.0459738 1.94946 0
M  V30 6844 O 645.291 -0.915765 1.73178 0
M  V30 6845 H 643.871 0.525657 0.530748 0
M  V30 6846 H 646.533 1.77944 0.795113 0
M  V30 6847 H 645.629 2.12872 2.28237 0
M  V30 6848 N 645.93 -0.909495 1.28709 0
M  V30 6849 C 646.877 -2.01245 1.13 0
M  V30 6850 C 647.847 -1.6608 0.0259684 0
M  V30 6851 O 649.032 -1.89835 0.191687 0
M  V30 6852 C 646.172 -3.35644 0.802315 0
M  V30 6853 C 645.285 -3.83653 1.98582 0
M  V30 6854 C 644.42 -5.06582 1.59837 0
M  V30 6855 C 643.459 -5.46934 2.74827 0
M  V30 6856 N 642.596 -6.61053 2.36546 0
M  V30 6857 H 647.436 -2.14013 2.0737 0
M  V30 6858 H 644.973 -1.0482 1.03205 0
M  V30 6859 H 646.931 -4.12963 0.593057 0
M  V30 6860 H 645.561 -3.22631 -0.104457 0
M  V30 6861 H 644.613 -3.02454 2.30708 0
M  V30 6862 H 645.925 -4.09515 2.84779 0
M  V30 6863 H 645.079 -5.91457 1.35143 0
M  V30 6864 H 643.818 -4.82537 0.707753 0
M  V30 6865 H 642.823 -4.60599 3.00215 0
M  V30 6866 H 644.048 -5.72965 3.64538 0
M  V30 6867 H 641.994 -6.3863 1.49959 0
M  V30 6868 H 641.911 -6.86662 3.16277 0
M  V30 6869 H 643.179 -7.49221 2.15146 0
M  V30 6870 N 647.408 -1.11026 -1.11852 0
M  V30 6871 C 648.355 -0.764662 -2.17765 0
M  V30 6872 C 649.325 0.261854 -1.64023 0
M  V30 6873 O 650.51 0.139748 -1.90288 0
M  V30 6874 C 647.65 -0.209317 -3.44465 0
M  V30 6875 C 646.763 -1.29187 -4.12231 0
M  V30 6876 C 645.898 -0.697523 -5.266 0
M  V30 6877 C 644.937 -1.76023 -5.86244 0
M  V30 6878 N 644.074 -1.18569 -6.92016 0
M  V30 6879 H 648.914 -1.67202 -2.46673 0
M  V30 6880 H 646.451 -0.835065 -1.21099 0
M  V30 6881 H 648.409 0.130599 -4.16996 0
M  V30 6882 H 647.039 0.661251 -3.15955 0
M  V30 6883 H 646.091 -1.74881 -3.37818 0
M  V30 6884 H 647.403 -2.09607 -4.52622 0
M  V30 6885 H 646.557 -0.307412 -6.05921 0
M  V30 6886 H 645.296 0.138044 -4.87505 0
M  V30 6887 H 644.301 -2.1597 -5.05606 0
M  V30 6888 H 645.526 -2.59875 -6.27409 0
M  V30 6889 H 643.472 -0.371695 -6.54946 0
M  V30 6890 H 643.389 -1.92666 -7.31038 0
M  V30 6891 H 644.657 -0.82233 -7.7515 0
M  V30 6892 N 648.886 1.2938 -0.899927 0
M  V30 6893 C 649.796 2.31462 -0.382437 0
M  V30 6894 C 650.812 1.65956 0.522929 0
M  V30 6895 O 651.988 1.97131 0.412454 0
M  V30 6896 C 649.053 3.44595 0.381472 0
M  V30 6897 C 648.114 4.25692 -0.555444 0
M  V30 6898 C 647.347 5.33422 0.172102 0
M  V30 6899 O 647.57 5.53053 1.396 0
M  V30 6900 O 646.504 5.99939 -0.485491 0
M  V30 6901 H 650.33 2.77706 -1.22934 0
M  V30 6902 H 647.915 1.33821 -0.664259 0
M  V30 6903 H 649.797 4.13474 0.813442 0
M  V30 6904 H 648.472 3.00458 1.20443 0
M  V30 6905 H 647.379 3.59453 -1.03653 0
M  V30 6906 H 648.712 4.73471 -1.34483 0
M  V30 6907 N 650.364 0.662433 1.43002 0
M  V30 6908 C 651.641 0.109096 1.95296 0
M  V30 6909 C 652.021 -1.37313 1.60338 0
M  V30 6910 O 651.369 -2.1032 0.893187 0
M  V30 6911 C 651.579 0.365096 3.47085 0
M  V30 6912 C 652.927 0.274964 4.23709 0
M  V30 6913 O 653.951 0.29816 3.5495 0
M  V30 6914 O 652.81 0.206549 5.4611 0
M  V30 6915 H 649.904 -0.00429724 0.826989 0
M  V30 6916 H 652.45 0.736308 1.52894 0
M  V30 6917 H 651.222 1.39237 3.65689 0
M  V30 6918 H 650.845 -0.294733 3.96506 0
M  V30 6919 N 651.842 -1.52309 0.404946 0
M  V30 6920 C 652.772 -2.29805 -0.41376 0
M  V30 6921 C 653.753 -1.3384 -1.0498 0
M  V30 6922 O 654.938 -1.62745 -1.05961 0
M  V30 6923 C 652.068 -3.11639 -1.53292 0
M  V30 6924 C 651.022 -4.15616 -1.02211 0
M  V30 6925 C 650.348 -4.8577 -2.23455 0
M  V30 6926 C 651.648 -5.2224 -0.0790725 0
M  V30 6927 H 653.342 -2.98493 0.232878 0
M  V30 6928 H 650.888 -1.43552 0.113441 0
M  V30 6929 H 652.841 -3.64618 -2.11262 0
M  V30 6930 H 651.565 -2.40712 -2.20738 0
M  V30 6931 H 650.224 -3.63641 -0.46484 0
M  V30 6932 H 649.872 -4.11376 -2.89445 0
M  V30 6933 H 649.572 -5.56058 -1.89929 0
M  V30 6934 H 651.096 -5.4156 -2.82038 0
M  V30 6935 H 652.51 -5.70485 -0.567438 0
M  V30 6936 H 650.907 -5.99867 0.167167 0
M  V30 6937 H 651.977 -4.77078 0.867447 0
M  V30 6938 N 653.32 -0.135238 -1.57019 0
M  V30 6939 C 654.55 0.525303 -1.9981 0
M  V30 6940 C 654.958 1.59724 -1.01415 0
M  V30 6941 O 654.301 1.837 -0.00130938 0
M  V30 6942 C 654.363 1.19578 -3.3903 0
M  V30 6943 C 654.027 0.269855 -4.56203 0
M  V30 6944 C 655.024 -0.497905 -5.1751 0
M  V30 6945 C 652.709 0.176188 -5.01991 0
M  V30 6946 C 654.703 -1.3469 -6.23007 0
M  V30 6947 C 652.39 -0.676422 -6.07345 0
M  V30 6948 C 653.388 -1.43658 -6.67721 0
M  V30 6949 O 653.076 -2.27501 -7.71037 0
M  V30 6950 H 652.808 0.142296 -0.660854 0
M  V30 6951 H 655.362 -0.223272 -2.04183 0
M  V30 6952 H 653.592 1.99176 -3.3146 0
M  V30 6953 H 655.281 1.75486 -3.66005 0
M  V30 6954 H 656.047 -0.435507 -4.83041 0
M  V30 6955 H 651.926 0.757583 -4.54733 0
M  V30 6956 H 655.47 -1.9407 -6.70062 0
M  V30 6957 H 651.367 -0.740154 -6.41243 0
M  V30 6958 H 652.135 -2.20619 -7.88206 0
M  V30 6959 N 654.798 1.5699 0.138552 0
M  V30 6960 C 655.728 2.01933 1.17241 0
M  V30 6961 C 656.709 0.90033 1.44319 0
M  V30 6962 O 657.894 1.16872 1.55095 0
M  V30 6963 C 655.024 2.40711 2.50351 0
M  V30 6964 C 653.978 3.55874 2.37776 0
M  V30 6965 C 653.304 3.80491 3.75674 0
M  V30 6966 C 654.604 4.8826 1.85472 0
M  V30 6967 H 656.298 2.88551 0.798672 0
M  V30 6968 H 653.844 1.3882 0.382743 0
M  V30 6969 H 655.797 2.70754 3.22909 0
M  V30 6970 H 654.521 1.5104 2.89576 0
M  V30 6971 H 653.18 3.2601 1.67669 0
M  V30 6972 H 652.828 2.88057 4.12349 0
M  V30 6973 H 652.528 4.57998 3.68119 0
M  V30 6974 H 654.052 4.12967 4.49767 0
M  V30 6975 H 655.466 5.16965 2.4783 0
M  V30 6976 H 653.863 5.69631 1.88787 0
M  V30 6977 H 654.933 4.78071 0.810935 0
M  V30 6978 N 656.276 -0.40816 1.52223 0
M  V30 6979 C 657.223 -1.49737 1.75635 0
M  V30 6980 C 658.193 -1.5493 0.598824 0
M  V30 6981 O 659.378 -1.71487 0.83648 0
M  V30 6982 C 656.518 -2.87174 1.91376 0
M  V30 6983 C 655.631 -2.91283 3.19027 0
M  V30 6984 C 654.766 -4.20026 3.25195 0
M  V30 6985 C 653.805 -4.18113 4.47044 0
M  V30 6986 N 652.942 -5.38429 4.50598 0
M  V30 6987 H 657.782 -1.29075 2.68596 0
M  V30 6988 H 655.319 -0.626518 1.33091 0
M  V30 6989 H 657.277 -3.66959 1.98486 0
M  V30 6990 H 655.907 -3.06329 1.01795 0
M  V30 6991 H 654.959 -2.03984 3.21084 0
M  V30 6992 H 656.271 -2.85734 4.08849 0
M  V30 6993 H 655.425 -5.08204 3.31382 0
M  V30 6994 H 654.164 -4.28271 2.33313 0
M  V30 6995 H 653.169 -3.28325 4.41002 0
M  V30 6996 H 654.394 -4.11507 5.40221 0
M  V30 6997 H 652.34 -5.4734 3.616 0
M  V30 6998 H 652.257 -5.34879 5.34266 0
M  V30 6999 H 653.525 -6.28557 4.61016 0
M  V30 7000 N 657.755 -1.42862 -0.66545 0
M  V30 7001 C 659.166 -1.3901 -1.24632 0
M  V30 7002 C 659.517 -0.0880285 -1.96002 0
M  V30 7003 O 658.642 0.812947 -2.0055 0
M  V30 7004 C 659.237 -2.51806 -2.2667 0
M  V30 7005 C 657.796 -2.51257 -2.80262 0
M  V30 7006 C 656.943 -2.30124 -1.5472 0
M  V30 7007 H 659.894 -1.5194 -0.458237 0
M  V30 7008 H 659.915 -2.22593 -3.08598 0
M  V30 7009 H 659.427 -3.46558 -1.74697 0
M  V30 7010 H 657.528 -1.60349 -3.36332 0
M  V30 7011 H 657.641 -3.48614 -3.28641 0
M  V30 7012 H 656.005 -1.7856 -1.81627 0
M  V30 7013 H 656.788 -3.26945 -1.04699 0
M  V30 7014 N 659.233 0.902656 -1.29189 0
M  V30 7015 C 660.482 1.6475 -1.16362 0
M  V30 7016 C 660.795 1.93517 0.284682 0
M  V30 7017 O 662.001 2.66192 0.534229 0
M  V30 7018 C 660.457 2.96848 -2.03493 0
M  V30 7019 C 660.065 2.75687 -3.5313 0
M  V30 7020 C 661.809 3.74762 -1.99383 0
M  V30 7021 C 659.716 4.03492 -4.32375 0
M  V30 7022 H 658.646 0.618041 -0.431904 0
M  V30 7023 H 661.297 1.0008 -1.53806 0
M  V30 7024 H 659.679 3.62715 -1.58916 0
M  V30 7025 H 660.853 2.18431 -4.05739 0
M  V30 7026 H 659.168 2.11171 -3.58881 0
M  V30 7027 H 661.765 4.69515 -2.5585 0
M  V30 7028 H 662.108 4.04767 -0.973123 0
M  V30 7029 H 662.641 3.15732 -2.41988 0
M  V30 7030 H 659.38 3.78656 -5.3507 0
M  V30 7031 H 658.9 4.60318 -3.84535 0
M  V30 7032 H 660.579 4.71662 -4.42881 0
M  V30 7033 N 660.711 1.11618 1.11262 0
M  V30 7034 C 661.643 0.734015 2.17129 0
M  V30 7035 C 662.656 -0.235243 1.61091 0
M  V30 7036 O 663.845 -0.0178597 1.78491 0
M  V30 7037 C 660.945 0.0643682 3.38839 0
M  V30 7038 C 660.118 1.06092 4.24339 0
M  V30 7039 C 659.177 0.420482 5.24517 0
M  V30 7040 O 658.203 1.07495 5.58957 0
M  V30 7041 N 659.405 -0.815828 5.74739 0
M  V30 7042 H 662.17 1.64492 2.50524 0
M  V30 7043 H 659.731 1.00664 1.26801 0
M  V30 7044 H 661.723 -0.375851 4.02951 0
M  V30 7045 H 660.293 -0.749147 3.03491 0
M  V30 7046 H 659.513 1.67903 3.56654 0
M  V30 7047 H 660.801 1.73507 4.78302 0
M  V30 7048 H 660.199 -1.36668 5.48943 0
M  V30 7049 H 658.756 -1.199 6.40677 0
M  V30 7050 N 662.189 -1.289 0.906776 0
M  V30 7051 C 663.605 -1.47733 0.603902 0
M  V30 7052 C 663.805 -1.82568 -0.852702 0
M  V30 7053 O 662.861 -1.92642 -1.63234 0
M  V30 7054 C 664.174 -2.58522 1.53581 0
M  V30 7055 C 665.722 -2.72394 1.54177 0
M  V30 7056 C 666.197 -3.86318 2.46013 0
M  V30 7057 N 667.688 -3.93661 2.441 0
M  V30 7058 C 668.423 -4.81177 3.11859 0
M  V30 7059 N 667.919 -5.73333 3.88923 0
M  V30 7060 N 669.712 -4.74728 3.00981 0
M  V30 7061 H 661.863 -1.04567 1.84877 0
M  V30 7062 H 664.126 -0.520118 0.792579 0
M  V30 7063 H 663.832 -2.39667 2.57396 0
M  V30 7064 H 663.706 -3.55475 1.26165 0
M  V30 7065 H 666.093 -2.90641 0.511034 0
M  V30 7066 H 666.174 -1.75993 1.85634 0
M  V30 7067 H 665.818 -3.68826 3.49185 0
M  V30 7068 H 665.748 -4.82102 2.11862 0
M  V30 7069 H 668.239 -3.27751 1.88115 0
M  V30 7070 H 668.552 -6.36923 4.37663 0
M  V30 7071 H 666.897 -5.73196 3.93029 0
M  V30 7072 H 670.088 -4.01722 2.40286 0
M  V30 7073 H 670.261 -5.42719 3.54062 0
M  V30 7074 N 663.667 -0.670007 -1.42649 0
M  V30 7075 C 664.895 -0.19854 -2.05945 0
M  V30 7076 C 665.31 1.14243 -1.50313 0
M  V30 7077 O 664.667 1.70872 -0.641027 0
M  V30 7078 C 664.718 -0.11966 -3.61302 0
M  V30 7079 O 664.439 -1.40764 -4.1487 0
M  V30 7080 C 665.94 0.375878 -4.41704 0
M  V30 7081 H 663.16 -0.0976894 -0.663851 0
M  V30 7082 H 665.704 -0.915392 -1.82868 0
M  V30 7083 H 663.859 0.547851 -3.83507 0
M  V30 7084 H 664.273 -1.27784 -5.08696 0
M  V30 7085 H 665.747 0.379988 -5.50691 0
M  V30 7086 H 666.224 1.41028 -4.15942 0
M  V30 7087 H 666.83 -0.259727 -4.24506 0
M  V30 7088 N 665.145 1.52092 -0.413018 0
M  V30 7089 C 666.394 2.01041 0.16287 0
M  V30 7090 C 666.707 1.30288 1.45892 0
M  V30 7091 O 667.913 1.70075 2.11629 0
M  V30 7092 C 666.369 3.58283 0.340806 0
M  V30 7093 C 665.977 4.37955 -0.943377 0
M  V30 7094 C 667.721 4.15452 0.871774 0
M  V30 7095 C 665.628 5.86847 -0.732417 0
M  V30 7096 H 664.558 0.751224 0.0646414 0
M  V30 7097 H 667.209 1.75404 -0.539059 0
M  V30 7098 H 665.591 3.80266 1.10516 0
M  V30 7099 H 666.765 4.2773 -1.71418 0
M  V30 7100 H 665.08 3.92122 -1.40105 0
M  V30 7101 H 667.677 5.24375 1.0457 0
M  V30 7102 H 668.02 3.73057 1.84755 0
M  V30 7103 H 668.553 3.97452 0.166377 0
M  V30 7104 H 665.292 6.33609 -1.67986 0
M  V30 7105 H 664.812 5.998 -0.000980058 0
M  V30 7106 H 666.491 6.45906 -0.376105 0
M  V30 7107 N 666.623 0.143563 1.56945 0
M  V30 7108 C 667.553 -0.7936 2.196 0
M  V30 7109 C 668.534 -1.25955 1.14321 0
M  V30 7110 O 669.719 -1.31773 1.42651 0
M  V30 7111 C 666.849 -2.03424 2.81489 0
M  V30 7112 C 665.803 -1.70519 3.92565 0
M  V30 7113 C 665.129 -3.01817 4.41373 0
M  V30 7114 C 666.429 -0.95449 5.13504 0
M  V30 7115 H 668.123 -0.271423 2.98167 0
M  V30 7116 H 665.669 -0.12911 1.4342 0
M  V30 7117 H 667.622 -2.69463 3.23987 0
M  V30 7118 H 666.346 -2.58008 2.00248 0
M  V30 7119 H 665.005 -1.06859 3.5068 0
M  V30 7120 H 664.653 -3.54386 3.56959 0
M  V30 7121 H 664.353 -2.80565 5.16292 0
M  V30 7122 H 665.877 -3.68934 4.86539 0
M  V30 7123 H 667.291 -1.5169 5.52868 0
M  V30 7124 H 665.688 -0.842035 5.94163 0
M  V30 7125 H 666.758 0.0544033 4.84869 0
M  V30 7126 N 668.101 -1.57061 -0.130224 0
M  V30 7127 C 669.034 -1.94698 -1.19029 0
M  V30 7128 C 670.012 -0.815074 -1.40696 0
M  V30 7129 O 671.196 -1.07223 -1.55034 0
M  V30 7130 C 668.323 -2.23352 -2.5462 0
M  V30 7131 C 667.369 -3.45945 -2.49448 0
M  V30 7132 S 668.202 -4.98927 -1.94505 0
M  V30 7133 C 669.358 -5.30721 -3.31792 0
M  V30 7134 H 669.591 -2.84308 -0.869272 0
M  V30 7135 H 667.124 -1.50688 -0.336531 0
M  V30 7136 H 669.082 -2.40539 -3.32643 0
M  V30 7137 H 667.743 -1.34376 -2.83905 0
M  V30 7138 H 666.936 -3.63324 -3.49302 0
M  V30 7139 H 666.538 -3.28086 -1.79543 0
M  V30 7140 H 668.83 -5.25215 -4.27966 0
M  V30 7141 H 669.773 -6.32048 -3.19251 0
M  V30 7142 H 670.181 -4.5821 -3.29703 0
M  V30 7143 N 669.579 0.400081 -1.52437 0
M  V30 7144 C 670.512 1.50929 -1.7116 0
M  V30 7145 C 671.49 1.52679 -0.559275 0
M  V30 7146 O 672.674 1.71251 -0.787735 0
M  V30 7147 C 669.801 2.89433 -1.75915 0
M  V30 7148 C 668.847 3.05556 -2.97553 0
M  V30 7149 S 669.68 2.77919 -4.57735 0
M  V30 7150 C 670.836 4.18636 -4.6529 0
M  V30 7151 H 671.069 1.3482 -2.64973 0
M  V30 7152 H 668.602 0.592245 -1.4259 0
M  V30 7153 H 670.56 3.69253 -1.7934 0
M  V30 7154 H 669.221 3.02877 -0.832137 0
M  V30 7155 H 668.414 4.0691 -2.97388 0
M  V30 7156 H 668.016 2.33615 -2.92062 0
M  V30 7157 H 670.308 5.12406 -4.43223 0
M  V30 7158 H 671.251 4.23821 -5.67258 0
M  V30 7159 H 671.659 4.04029 -3.94234 0
M  V30 7160 N 671.057 1.43213 0.657864 0
M  V30 7161 C 672.305 1.44298 1.41501 0
M  V30 7162 C 672.626 0.0666478 1.94886 0
M  V30 7163 O 671.896 -0.897345 1.74139 0
M  V30 7164 H 670.476 0.531257 0.525143 0
M  V30 7165 H 673.138 1.78777 0.776195 0
M  V30 7166 H 672.234 2.1528 2.25966 0
M  V30 7167 N 672.536 -0.895792 1.29666 0
M  V30 7168 C 673.952 -1.17726 1.07763 0
M  V30 7169 C 674.152 -2.00794 -0.168576 0
M  V30 7170 O 673.208 -2.37213 -0.865244 0
M  V30 7171 C 674.521 -1.89441 2.33522 0
M  V30 7172 C 676.069 -2.02251 2.3888 0
M  V30 7173 C 676.544 -2.77378 3.64452 0
M  V30 7174 N 678.035 -2.8493 3.65198 0
M  V30 7175 C 678.77 -3.43606 4.59045 0
M  V30 7176 N 678.266 -4.03417 5.63228 0
M  V30 7177 N 680.059 -3.41317 4.46608 0
M  V30 7178 H 672.21 -0.341652 2.09634 0
M  V30 7179 H 674.473 -0.213865 0.923561 0
M  V30 7180 H 674.179 -1.35842 3.24407 0
M  V30 7181 H 674.053 -2.89893 2.41334 0
M  V30 7182 H 676.44 -2.55025 1.4848 0
M  V30 7183 H 676.521 -1.0092 2.3505 0
M  V30 7184 H 676.165 -2.25279 4.55205 0
M  V30 7185 H 676.095 -3.79062 3.65541 0
M  V30 7186 H 678.586 -2.42453 2.89871 0
M  V30 7187 H 678.899 -4.46224 6.30955 0
M  V30 7188 H 677.244 -4.01868 5.67033 0
M  V30 7189 H 680.435 -2.93812 3.64407 0
M  V30 7190 H 680.608 -3.86751 5.1993 0
M  V30 7191 N 674.014 -1.12206 -1.10668 0
M  V30 7192 C 675.244 -0.897332 -1.86095 0
M  V30 7193 C 675.652 0.556778 -1.80822 0
M  V30 7194 O 674.995 1.39658 -1.19337 0
M  V30 7195 C 675.057 -1.29095 -3.35522 0
M  V30 7196 C 674.721 -2.75586 -3.64556 0
M  V30 7197 C 675.718 -3.73785 -3.6136 0
M  V30 7198 C 673.403 -3.12432 -3.93309 0
M  V30 7199 C 675.397 -5.06845 -3.86506 0
M  V30 7200 C 673.084 -4.45675 -4.18111 0
M  V30 7201 C 674.082 -5.42691 -4.147 0
M  V30 7202 O 673.77 -6.73532 -4.38873 0
M  V30 7203 H 673.502 -0.320704 -0.595084 0
M  V30 7204 H 676.056 -1.49517 -1.40833 0
M  V30 7205 H 674.286 -0.636299 -3.81429 0
M  V30 7206 H 675.975 -1.04073 -3.92331 0
M  V30 7207 H 676.741 -3.46664 -3.39189 0
M  V30 7208 H 672.62 -2.3753 -3.95096 0
M  V30 7209 H 676.164 -5.82559 -3.83758 0
M  V30 7210 H 672.061 -4.72526 -4.39761 0
M  V30 7211 H 672.829 -6.79442 -4.564 0
M  V30 7212 N 675.492 1.28418 -0.913599 0
M  V30 7213 C 676.738 1.9527 -0.547484 0
M  V30 7214 C 677.071 1.71745 0.906486 0
M  V30 7215 O 676.346 1.03834 1.64465 0
M  V30 7216 C 676.629 3.49748 -0.857205 0
M  V30 7217 C 676.482 3.82675 -2.3639 0
M  V30 7218 C 677.801 4.3868 -0.353258 0
M  V30 7219 H 674.92 0.709236 -0.200381 0
M  V30 7220 H 677.562 1.51789 -1.14281 0
M  V30 7221 H 675.712 3.86915 -0.350548 0
M  V30 7222 H 677.384 3.55378 -2.94116 0
M  V30 7223 H 675.627 3.29724 -2.81894 0
M  V30 7224 H 676.298 4.90547 -2.53115 0
M  V30 7225 H 678.774 4.08584 -0.787288 0
M  V30 7226 H 677.65 5.45621 -0.599049 0
M  V30 7227 H 677.911 4.35753 0.746413 0
M  V30 7228 N 676.97 0.677563 1.42291 0
M  V30 7229 C 677.88 0.000962654 2.346 0
M  V30 7230 C 678.896 -0.785833 1.55244 0
M  V30 7231 O 680.072 -0.727523 1.87801 0
M  V30 7232 C 677.137 -0.936746 3.33805 0
M  V30 7233 C 676.198 -0.144173 4.29058 0
M  V30 7234 C 675.431 -1.03722 5.23524 0
M  V30 7235 O 675.654 -2.27675 5.22992 0
M  V30 7236 O 674.588 -0.496542 5.99848 0
M  V30 7237 H 678.414 0.761397 2.94001 0
M  V30 7238 H 675.999 0.43781 1.42841 0
M  V30 7239 H 677.881 -1.47497 3.94744 0
M  V30 7240 H 676.556 -1.67698 2.76874 0
M  V30 7241 H 675.463 0.438224 3.71524 0
M  V30 7242 H 676.796 0.55701 4.89038 0
M  V30 7243 N 678.448 -1.51871 0.421078 0
M  V30 7244 C 679.859 -1.86644 -0.0457991 0
M  V30 7245 C 680.21 -1.33919 -1.43388 0
M  V30 7246 O 679.335 -0.683316 -2.05328 0
M  V30 7247 C 679.93 -3.38681 -0.0898844 0
M  V30 7248 C 678.489 -3.73049 -0.501127 0
M  V30 7249 C 677.636 -2.75485 0.316723 0
M  V30 7250 H 680.587 -1.45327 0.637635 0
M  V30 7251 H 680.608 -3.69636 -0.902734 0
M  V30 7252 H 680.12 -3.77025 0.920513 0
M  V30 7253 H 678.221 -3.40288 -1.51773 0
M  V30 7254 H 678.334 -4.78512 -0.237217 0
M  V30 7255 H 676.698 -2.53725 -0.222663 0
M  V30 7256 H 677.481 -3.16671 1.32569 0
M  V30 7257 N 679.926 -0.151884 -1.56866 0
M  V30 7258 C 681.175 0.497992 -1.95456 0
M  V30 7259 C 681.488 1.6569 -1.03953 0
M  V30 7260 O 682.694 2.37173 -1.32142 0
M  V30 7261 C 681.15 0.93732 -3.4748 0
M  V30 7262 C 680.758 -0.194921 -4.47576 0
M  V30 7263 C 682.502 1.55671 -3.94926 0
M  V30 7264 C 680.409 0.26295 -5.90815 0
M  V30 7265 H 679.339 0.189811 -0.729717 0
M  V30 7266 H 681.99 -0.237011 -1.81963 0
M  V30 7267 H 680.372 1.72773 -3.56322 0
M  V30 7268 H 681.546 -0.971951 -4.50433 0
M  V30 7269 H 679.861 -0.72303 -4.10075 0
M  V30 7270 H 682.458 1.91099 -4.99385 0
M  V30 7271 H 682.801 2.44748 -3.36755 0
M  V30 7272 H 683.334 0.831109 -3.89021 0
M  V30 7273 H 680.073 -0.592568 -6.52816 0
M  V30 7274 H 679.593 1.00575 -5.91308 0
M  V30 7275 H 681.272 0.713333 -6.43056 0
M  V30 7276 N 681.404 1.57128 0.121893 0
M  V30 7277 C 682.314 2.03425 1.16857 0
M  V30 7278 C 683.33 0.954108 1.45509 0
M  V30 7279 O 684.506 1.26541 1.56682 0
M  V30 7280 C 681.571 2.42685 2.47599 0
M  V30 7281 C 680.632 3.64767 2.2637 0
M  V30 7282 C 679.865 4.02145 3.50878 0
M  V30 7283 O 680.088 3.39897 4.58068 0
M  V30 7284 O 679.022 4.95262 3.42051 0
M  V30 7285 H 682.848 2.92825 0.80544 0
M  V30 7286 H 680.433 1.45654 0.332477 0
M  V30 7287 H 682.315 2.68684 3.24634 0
M  V30 7288 H 680.99 1.56432 2.83392 0
M  V30 7289 H 679.897 3.43922 1.47203 0
M  V30 7290 H 681.23 4.51716 1.95482 0
M  V30 7291 N 682.882 -0.391992 1.52647 0
M  V30 7292 C 684.159 -1.15136 1.58123 0
M  V30 7293 C 684.539 -2.07786 0.372597 0
M  V30 7294 O 683.887 -2.19374 -0.639304 0
M  V30 7295 C 684.097 -1.91367 2.91856 0
M  V30 7296 C 685.445 -2.46833 3.45483 0
M  V30 7297 O 686.469 -2.01527 2.9371 0
M  V30 7298 O 685.328 -3.29587 4.3593 0
M  V30 7299 H 682.422 -0.526649 0.637629 0
M  V30 7300 H 684.968 -0.397386 1.64982 0
M  V30 7301 H 683.74 -1.23597 3.71268 0
M  V30 7302 H 683.363 -2.73732 2.88369 0
M  V30 7303 N 684.36 -1.4356 -0.65026 0
M  V30 7304 C 685.606 -1.45549 -1.41221 0
M  V30 7305 C 685.939 -0.0805472 -1.94033 0
M  V30 7306 O 685.214 0.899043 -1.72475 0
M  V30 7307 C 685.497 -2.50028 -2.59148 0
M  V30 7308 C 685.35 -3.96808 -2.1181 0
M  V30 7309 C 686.669 -2.51212 -3.61359 0
M  V30 7310 H 683.788 -0.529967 -0.512156 0
M  V30 7311 H 686.43 -1.75127 -0.736933 0
M  V30 7312 H 684.58 -2.24937 -3.16758 0
M  V30 7313 H 686.252 -4.32966 -1.59178 0
M  V30 7314 H 684.495 -4.09498 -1.43156 0
M  V30 7315 H 685.166 -4.6553 -2.96625 0
M  V30 7316 H 687.642 -2.73583 -3.13515 0
M  V30 7317 H 686.518 -3.26252 -4.41419 0
M  V30 7318 H 686.779 -1.54701 -4.1415 0
M  V30 7319 N 685.838 0.888903 -1.30139 0
M  V30 7320 C 687.249 1.45578 -1.16893 0
M  V30 7321 C 687.6 1.94825 0.231866 0
M  V30 7322 O 686.725 1.84661 1.12824 0
M  V30 7323 C 687.32 2.646 -2.11595 0
M  V30 7324 C 685.879 3.17389 -2.02339 0
M  V30 7325 C 685.026 1.90081 -2.01902 0
M  V30 7326 H 687.977 0.69921 -1.42467 0
M  V30 7327 H 687.998 3.40687 -1.69449 0
M  V30 7328 H 687.51 2.28726 -3.13538 0
M  V30 7329 H 685.611 3.5793 -1.03523 0
M  V30 7330 H 685.724 3.80955 -2.90534 0
M  V30 7331 H 684.088 2.08246 -1.46648 0
M  V30 7332 H 684.871 1.5647 -3.05568 0
M  V30 7333 N 687.317 1.12792 1.10072 0
M  V30 7334 C 688.557 0.895691 1.8373 0
M  V30 7335 C 688.921 -0.568131 1.83402 0
M  V30 7336 O 690.122 -0.917666 2.52651 0
M  V30 7337 C 688.393 1.4593 3.2625 0
M  V30 7338 S 689.952 1.36615 4.16991 0
M  V30 7339 H 686.77 0.323017 0.633389 0
M  V30 7340 H 689.372 1.43816 1.32428 0
M  V30 7341 H 688.076 2.51818 3.24062 0
M  V30 7342 H 687.607 0.914478 3.82624 0
M  V30 7343 H 689.622 0.340131 4.95033 0
M  V30 7344 N 688.795 -1.27931 0.920396 0
M  V30 7345 C 690.043 -1.94304 0.555906 0
M  V30 7346 C 690.364 -1.72753 -0.904519 0
M  V30 7347 O 689.634 -1.07104 -1.64029 0
M  V30 7348 H 688.214 -0.719001 0.202599 0
M  V30 7349 H 690.876 -1.55785 1.1712 0
M  V30 7350 H 689.972 -3.02806 0.755981 0
M  V30 7351 N 690.273 -0.685099 -1.4193 0
M  V30 7352 C 691.221 -0.00165985 -2.326 0
M  V30 7353 C 692.215 0.779678 -1.50391 0
M  V30 7354 O 693.421 0.68648 -1.66395 0
M  V30 7355 H 689.796 0.0182616 -0.751778 0
M  V30 7356 H 691.767 -0.783592 -2.87928 0
M  V30 7357 C 690.516 0.928385 -3.35077 0
M  V30 7358 H 689.839 0.336578 -3.98381 0
M  V30 7359 H 691.279 1.37509 -4.01083 0
M  V30 7360 C 689.738 2.03964 -2.68142 0
M  V30 7361 O 690.268 3.12727 -2.5212 0
M  V30 7362 N 688.474 1.81433 -2.27003 0
M  V30 7363 H 688.021 0.929807 -2.40234 0
M  V30 7364 H 687.979 2.55973 -1.82552 0
M  V30 7365 N 691.751 1.51645 -0.429126 0
M  V30 7366 C 693 2.01203 0.141538 0
M  V30 7367 C 693.313 1.31828 1.44502 0
M  V30 7368 O 694.519 1.7231 2.09813 0
M  V30 7369 C 692.975 3.58624 0.302786 0
M  V30 7370 C 692.583 4.3693 -0.989775 0
M  V30 7371 C 694.327 4.16353 0.827661 0
M  V30 7372 C 692.234 5.86037 -0.794619 0
M  V30 7373 H 691.164 0.751867 0.05667 0
M  V30 7374 H 693.815 1.74822 -0.557633 0
M  V30 7375 H 692.197 3.81417 1.06476 0
M  V30 7376 H 693.371 4.25887 -1.75945 0
M  V30 7377 H 691.686 3.90614 -1.44256 0
M  V30 7378 H 694.283 5.25455 0.990026 0
M  V30 7379 H 694.626 3.74995 1.80787 0
M  V30 7380 H 695.159 3.97606 0.124213 0
M  V30 7381 H 691.898 6.31792 -1.74697 0
M  V30 7382 H 691.418 5.99765 -0.0645968 0
M  V30 7383 H 693.097 6.45471 -0.444591 0
M  V30 7384 N 693.229 0.160201 1.56784 0
M  V30 7385 C 694.475 -0.48831 1.96833 0
M  V30 7386 C 694.808 -1.63641 1.04571 0
M  V30 7387 O 694.083 -1.94289 0.0906481 0
M  V30 7388 C 694.366 -0.981908 3.46454 0
M  V30 7389 C 694.219 0.165607 4.49495 0
M  V30 7390 C 695.538 -1.85931 3.98896 0
M  V30 7391 H 692.657 -0.176027 0.71567 0
M  V30 7392 H 695.299 0.244093 1.88426 0
M  V30 7393 H 693.449 -1.60602 3.5375 0
M  V30 7394 H 695.121 0.802372 4.54268 0
M  V30 7395 H 693.364 0.822789 4.25926 0
M  V30 7396 H 694.035 -0.221699 5.51555 0
M  V30 7397 H 696.511 -1.33327 3.94161 0
M  V30 7398 H 695.387 -2.17373 5.04024 0
M  V30 7399 H 695.648 -2.80106 3.42042 0
M  V30 7400 N 694.707 -1.5719 -0.113559 0
M  V30 7401 C 695.955 -1.84772 -0.818761 0
M  V30 7402 C 696.276 -0.746196 -1.80158 0
M  V30 7403 O 695.546 0.229305 -1.94553 0
M  V30 7404 H 694.126 -0.681737 -0.305359 0
M  V30 7405 H 696.788 -1.94645 -0.0995845 0
M  V30 7406 H 695.884 -2.80878 -1.36067 0
M  V30 7407 N 696.185 0.383891 -1.52853 0
M  V30 7408 C 697.115 1.47559 -1.80965 0
M  V30 7409 C 698.096 1.5669 -0.661986 0
M  V30 7410 O 699.281 1.71556 -0.910072 0
M  V30 7411 C 696.411 2.85114 -1.98312 0
M  V30 7412 C 695.365 2.9082 -3.14019 0
M  V30 7413 C 694.691 4.30873 -3.16627 0
M  V30 7414 C 695.991 2.60001 -4.52986 0
M  V30 7415 H 697.685 1.24283 -2.72386 0
M  V30 7416 H 695.231 0.596445 -1.31067 0
M  V30 7417 H 697.184 3.61496 -2.16561 0
M  V30 7418 H 695.908 3.09738 -1.03585 0
M  V30 7419 H 694.567 2.16886 -2.9556 0
M  V30 7420 H 694.215 4.52545 -2.19573 0
M  V30 7421 H 693.915 4.3561 -3.94357 0
M  V30 7422 H 695.439 5.09154 -3.37038 0
M  V30 7423 H 696.853 3.261 -4.71521 0
M  V30 7424 H 695.25 2.76081 -5.32822 0
M  V30 7425 H 696.32 1.5532 -4.59351 0
M  V30 7426 N 697.663 1.43903 0.642637 0
M  V30 7427 C 698.909 1.46296 1.40447 0
M  V30 7428 C 699.242 0.0908361 1.93987 0
M  V30 7429 O 698.517 -0.889884 1.72949 0
M  V30 7430 C 698.8 2.51399 2.57819 0
M  V30 7431 C 698.653 3.97926 2.09702 0
M  V30 7432 C 699.972 2.53125 3.60022 0
M  V30 7433 H 697.091 0.532676 0.509338 0
M  V30 7434 H 699.733 1.75515 0.727635 0
M  V30 7435 H 697.883 2.26614 3.1556 0
M  V30 7436 H 699.555 4.33804 1.5688 0
M  V30 7437 H 697.798 4.10252 1.40982 0
M  V30 7438 H 698.469 4.67096 2.94152 0
M  V30 7439 H 700.945 2.75242 3.12059 0
M  V30 7440 H 699.821 3.28589 4.39682 0
M  V30 7441 H 700.082 1.56895 4.13324 0
M  V30 7442 N 699.141 -0.881989 1.30609 0
M  V30 7443 C 700.389 -1.63082 1.19368 0
M  V30 7444 C 700.71 -1.93376 -0.251147 0
M  V30 7445 O 699.98 -1.5723 -1.16857 0
M  V30 7446 H 698.56 -0.604542 0.438791 0
M  V30 7447 H 701.222 -1.05658 1.63776 0
M  V30 7448 H 700.318 -2.57966 1.7567 0
M  V30 7449 N 700.619 -1.13374 -1.09472 0
M  V30 7450 C 701.865 -0.896516 -1.81908 0
M  V30 7451 C 702.198 0.575933 -1.85463 0
M  V30 7452 O 701.473 1.42618 -1.32251 0
M  V30 7453 C 701.756 -1.48445 -3.28079 0
M  V30 7454 C 701.609 -3.02598 -3.32798 0
M  V30 7455 C 702.928 -1.15226 -4.24748 0
M  V30 7456 H 700.047 -0.327127 -0.660422 0
M  V30 7457 H 702.689 -1.40195 -1.2824 0
M  V30 7458 H 700.839 -1.0546 -3.73912 0
M  V30 7459 H 702.511 -3.54335 -2.95372 0
M  V30 7460 H 700.754 -3.37613 -2.72397 0
M  V30 7461 H 701.425 -3.38835 -4.3577 0
M  V30 7462 H 703.901 -1.52369 -3.87199 0
M  V30 7463 H 702.777 -1.59012 -5.25363 0
M  V30 7464 H 703.038 -0.0658891 -4.42051 0
M  V30 7465 N 702.098 1.27442 -0.927168 0
M  V30 7466 C 703.375 1.89473 -0.485742 0
M  V30 7467 C 703.755 1.83922 1.03614 0
M  V30 7468 O 703.103 1.28409 1.89007 0
M  V30 7469 C 703.313 3.33417 -1.03123 0
M  V30 7470 C 704.661 4.10333 -1.0914 0
M  V30 7471 O 705.685 3.4243 -0.98082 0
M  V30 7472 O 704.544 5.31737 -1.26165 0
M  V30 7473 H 701.638 0.812124 -0.156154 0
M  V30 7474 H 704.184 1.35713 -1.01882 0
M  V30 7475 H 702.956 3.31747 -2.07508 0
M  V30 7476 H 702.579 3.94695 -0.479767 0
M  V30 7477 N 703.576 0.692616 1.41565 0
M  V30 7478 C 704.508 -0.0137132 2.29196 0
M  V30 7479 C 705.521 -0.747417 1.44629 0
M  V30 7480 O 706.71 -0.598611 1.68163 0
M  V30 7481 C 703.81 -1.04347 3.22436 0
M  V30 7482 C 702.983 -0.379985 4.35746 0
M  V30 7483 C 702.042 -1.31195 5.09583 0
M  V30 7484 O 701.068 -0.805455 5.63472 0
M  V30 7485 N 702.27 -2.64443 5.16769 0
M  V30 7486 H 705.035 0.738614 2.90456 0
M  V30 7487 H 702.596 0.538415 1.52685 0
M  V30 7488 H 704.588 -1.6686 3.687 0
M  V30 7489 H 703.158 -1.69736 2.62504 0
M  V30 7490 H 702.378 0.424975 3.91903 0
M  V30 7491 H 703.666 0.0814904 5.08735 0
M  V30 7492 H 703.064 -3.08114 4.74428 0
M  V30 7493 H 701.621 -3.22159 5.66619 0
M  V30 7494 N 705.054 -1.51416 0.437162 0
M  V30 7495 C 706.301 -2.02086 -0.129364 0
M  V30 7496 C 706.629 -1.32133 -1.42728 0
M  V30 7497 O 705.884 -0.424916 -1.91031 0
M  V30 7498 C 706.183 -3.55203 -0.39564 0
M  V30 7499 C 705.849 -4.43447 0.81644 0
M  V30 7500 C 704.511 -4.67285 1.14884 0
M  V30 7501 C 706.863 -4.95219 1.62503 0
M  V30 7502 C 704.191 -5.40141 2.29052 0
M  V30 7503 C 706.543 -5.69327 2.7577 0
M  V30 7504 C 705.207 -5.91429 3.09464 0
M  V30 7505 H 704.477 -0.739486 -0.0473375 0
M  V30 7506 H 707.124 -1.82368 0.584321 0
M  V30 7507 H 705.429 -3.73252 -1.19121 0
M  V30 7508 H 707.126 -3.91944 -0.847399 0
M  V30 7509 H 703.716 -4.2509 0.547422 0
M  V30 7510 H 707.9 -4.76686 1.38144 0
M  V30 7511 H 703.156 -5.55468 2.55471 0
M  V30 7512 H 707.33 -6.08433 3.38795 0
M  V30 7513 H 704.957 -6.47662 3.98042 0
M  V30 7514 N 706.532 -0.168513 -1.56696 0
M  V30 7515 C 707.462 0.758563 -2.20835 0
M  V30 7516 C 708.443 1.24121 -1.1631 0
M  V30 7517 O 709.628 1.29487 -1.4473 0
M  V30 7518 C 706.758 1.9892 -2.8469 0
M  V30 7519 C 705.712 1.64252 -3.95228 0
M  V30 7520 C 705.038 2.94757 -4.46119 0
M  V30 7521 C 706.338 0.872675 -5.14958 0
M  V30 7522 H 708.032 0.223953 -2.98561 0
M  V30 7523 H 705.578 0.106277 -1.43607 0
M  V30 7524 H 707.531 2.64275 -3.28233 0
M  V30 7525 H 706.255 2.5479 -2.04327 0
M  V30 7526 H 704.914 1.01266 -3.52336 0
M  V30 7527 H 704.562 3.48662 -3.62552 0
M  V30 7528 H 704.262 2.72316 -5.2069 0
M  V30 7529 H 705.786 3.61147 -4.92347 0
M  V30 7530 H 707.2 1.42875 -5.55211 0
M  V30 7531 H 705.597 0.747402 -5.95428 0
M  V30 7532 H 706.667 -0.131535 -4.84722 0
M  V30 7533 N 708.01 1.57248 0.105221 0
M  V30 7534 C 709.256 1.85845 0.811753 0
M  V30 7535 C 709.589 0.756219 1.78871 0
M  V30 7536 O 708.864 -0.236736 1.93054 0
M  V30 7537 C 709.147 3.25059 1.54947 0
M  V30 7538 C 709 4.45898 0.591185 0
M  V30 7539 C 710.319 3.6203 2.50245 0
M  V30 7540 H 707.438 0.675973 0.293649 0
M  V30 7541 H 710.08 1.89849 0.0756269 0
M  V30 7542 H 708.23 3.21776 2.17698 0
M  V30 7543 H 709.902 4.61291 -0.0285352 0
M  V30 7544 H 708.145 4.33693 -0.0962343 0
M  V30 7545 H 708.816 5.40009 1.1443 0
M  V30 7546 H 711.292 3.66192 1.97593 0
M  V30 7547 H 710.168 4.60389 2.98886 0
M  V30 7548 H 710.429 2.90176 3.33542 0
M  V30 7549 N 709.488 -0.375779 1.53054 0
M  V30 7550 C 710.435 -1.45978 1.78771 0
M  V30 7551 C 711.405 -1.53625 0.631552 0
M  V30 7552 O 712.59 -1.69674 0.872667 0
M  V30 7553 C 709.73 -2.8305 1.97425 0
M  V30 7554 C 708.843 -2.84451 3.25134 0
M  V30 7555 C 707.978 -4.13034 3.34031 0
M  V30 7556 C 707.017 -4.08536 4.55812 0
M  V30 7557 N 706.154 -5.2875 4.61918 0
M  V30 7558 H 710.994 -1.23349 2.71273 0
M  V30 7559 H 708.531 -0.598147 1.3439 0
M  V30 7560 H 710.489 -3.62666 2.06225 0
M  V30 7561 H 709.119 -3.04101 1.0827 0
M  V30 7562 H 708.171 -1.97127 3.25338 0
M  V30 7563 H 709.483 -2.76998 4.14818 0
M  V30 7564 H 708.637 -5.0106 3.42087 0
M  V30 7565 H 707.376 -4.23226 2.42345 0
M  V30 7566 H 706.381 -3.18897 4.47867 0
M  V30 7567 H 707.606 -3.99955 5.48828 0
M  V30 7568 H 705.552 -5.39547 3.73129 0
M  V30 7569 H 705.469 -5.23426 5.45492 0
M  V30 7570 H 706.737 -6.18637 4.74245 0
M  V30 7571 N 710.966 -1.44241 -0.634997 0
M  V30 7572 C 712.194 -1.50296 -1.42193 0
M  V30 7573 C 712.609 -0.12658 -1.88375 0
M  V30 7574 O 711.966 0.86678 -1.60603 0
M  V30 7575 C 712.017 -2.46437 -2.64482 0
M  V30 7576 O 711.738 -3.78724 -2.20226 0
M  V30 7577 C 713.239 -2.61918 -3.57651 0
M  V30 7578 H 710.459 -0.509865 -0.43621 0
M  V30 7579 H 713.003 -1.89167 -0.776921 0
M  V30 7580 H 711.158 -2.10712 -3.25083 0
M  V30 7581 H 711.572 -4.30595 -2.9948 0
M  V30 7582 H 713.046 -3.33225 -4.40074 0
M  V30 7583 H 713.523 -1.67017 -4.06204 0
M  V30 7584 H 714.129 -2.98528 -3.02921 0
M  V30 7585 N 712.444 0.87505 -1.31075 0
M  V30 7586 C 713.692 1.62447 -1.20231 0
M  V30 7587 C 714.013 1.93506 0.240888 0
M  V30 7588 O 713.283 1.57847 1.16022 0
M  V30 7589 H 711.863 0.602207 -0.441991 0
M  V30 7590 H 714.525 1.04788 -1.64334 0
M  V30 7591 H 713.621 2.57031 -1.77036 0
M  V30 7592 N 713.922 1.13953 1.08869 0
M  V30 7593 C 715.15 0.92817 1.84912 0
M  V30 7594 C 715.565 -0.523197 1.81406 0
M  V30 7595 O 714.922 -1.36237 1.21432 0
M  V30 7596 C 714.973 1.41509 3.32652 0
M  V30 7597 O 714.694 2.80959 3.36145 0
M  V30 7598 C 716.195 1.243 4.25517 0
M  V30 7599 H 713.415 0.330612 0.583898 0
M  V30 7600 H 715.959 1.51349 1.37527 0
M  V30 7601 H 714.114 0.872648 3.77444 0
M  V30 7602 H 714.528 3.02704 4.28335 0
M  V30 7603 H 716.002 1.63237 5.27312 0
M  V30 7604 H 716.479 0.18532 4.38809 0
M  V30 7605 H 717.085 1.77375 3.86546 0
M  V30 7606 N 715.4 -1.26948 0.933913 0
M  V30 7607 C 716.649 -1.93378 0.573409 0
M  V30 7608 C 716.962 -1.74148 -0.890614 0
M  V30 7609 O 718.168 -2.34971 -1.36017 0
M  V30 7610 C 716.624 -3.46449 0.974747 0
M  V30 7611 C 716.232 -3.74425 2.45988 0
M  V30 7612 C 717.976 -4.18924 0.685791 0
M  V30 7613 C 715.883 -5.209 2.8003 0
M  V30 7614 H 714.813 -0.723952 0.210736 0
M  V30 7615 H 717.464 -1.44143 1.13557 0
M  V30 7616 H 715.846 -3.94528 0.341181 0
M  V30 7617 H 717.02 -3.37079 3.14188 0
M  V30 7618 H 715.335 -3.15167 2.72138 0
M  V30 7619 H 717.932 -5.26786 0.916546 0
M  V30 7620 H 718.275 -4.14587 -0.377217 0
M  V30 7621 H 718.808 -3.76687 1.27874 0
M  V30 7622 H 715.547 -5.30332 3.85264 0
M  V30 7623 H 715.067 -5.59369 2.16485 0
M  V30 7624 H 716.746 -5.88837 2.68105 0
M  V30 7625 N 716.879 -0.700114 -1.41195 0
M  V30 7626 C 718.107 -0.242179 -2.05478 0
M  V30 7627 C 718.522 1.11029 -1.52702 0
M  V30 7628 O 717.879 1.69473 -0.677127 0
M  V30 7629 C 717.93 -0.196271 -3.60967 0
M  V30 7630 O 717.651 -1.49532 -4.11791 0
M  V30 7631 C 719.152 0.282102 -4.42401 0
M  V30 7632 H 716.372 -0.111749 -0.661629 0
M  V30 7633 H 718.916 -0.953975 -1.80885 0
M  V30 7634 H 717.071 0.46638 -3.84582 0
M  V30 7635 H 717.485 -1.38545 -5.05871 0
M  V30 7636 H 718.959 0.263093 -5.51373 0
M  V30 7637 H 719.436 1.32174 -4.1884 0
M  V30 7638 H 720.042 -0.349712 -4.2386 0
M  V30 7639 N 718.357 1.51182 -0.445186 0
M  V30 7640 C 719.585 2.06568 0.117091 0
M  V30 7641 C 720 1.31182 1.35781 0
M  V30 7642 O 719.357 0.373605 1.78635 0
M  V30 7643 C 719.408 3.58917 0.431408 0
M  V30 7644 O 719.129 4.31456 -0.760078 0
M  V30 7645 C 720.63 4.30843 1.0435 0
M  V30 7646 H 717.85 0.670985 0.00444436 0
M  V30 7647 H 720.394 1.94666 -0.626525 0
M  V30 7648 H 718.549 3.70708 1.12493 0
M  V30 7649 H 718.963 5.22215 -0.489048 0
M  V30 7650 H 720.437 5.38499 1.21337 0
M  V30 7651 H 720.914 3.89644 2.02667 0
M  V30 7652 H 721.52 4.23516 0.38913 0
M  V30 7653 N 719.835 0.176821 1.56605 0
M  V30 7654 C 721.082 -0.466715 1.97048 0
M  V30 7655 C 721.41 -1.6288 1.06302 0
M  V30 7656 O 720.665 -1.95453 0.0982571 0
M  V30 7657 C 720.964 -0.986208 3.43524 0
M  V30 7658 C 720.63 0.0605667 4.50859 0
M  V30 7659 C 719.292 0.348242 4.79938 0
M  V30 7660 C 721.644 0.770794 5.15469 0
M  V30 7661 C 718.972 1.35144 5.70923 0
M  V30 7662 C 721.324 1.76301 6.07537 0
M  V30 7663 C 719.988 2.05808 6.3498 0
M  V30 7664 H 719.258 -0.170783 0.721051 0
M  V30 7665 H 721.905 0.269942 1.89588 0
M  V30 7666 H 720.21 -1.80079 3.47964 0
M  V30 7667 H 721.907 -1.49323 3.72161 0
M  V30 7668 H 718.497 -0.173823 4.28247 0
M  V30 7669 H 722.681 0.56176 4.9311 0
M  V30 7670 H 717.937 1.58616 5.90467 0
M  V30 7671 H 722.111 2.31868 6.56666 0
M  V30 7672 H 719.738 2.8369 7.05283 0
M  V30 7673 N 721.313 -1.57302 -0.09688 0
M  V30 7674 C 722.223 -2.05258 -1.13606 0
M  V30 7675 C 723.239 -0.977137 -1.43972 0
M  V30 7676 O 724.415 -1.29018 -1.54649 0
M  V30 7677 C 721.48 -2.46593 -2.43706 0
M  V30 7678 C 720.541 -3.68322 -2.20538 0
M  V30 7679 C 719.774 -4.07676 -3.44435 0
M  V30 7680 O 719.997 -3.47141 -4.52603 0
M  V30 7681 O 718.931 -5.00641 -3.34129 0
M  V30 7682 H 722.757 -2.94069 -0.758752 0
M  V30 7683 H 720.342 -1.46164 -0.309263 0
M  V30 7684 H 722.224 -2.73814 -3.20318 0
M  V30 7685 H 720.899 -1.6092 -2.80867 0
M  V30 7686 H 719.806 -3.4622 -1.41713 0
M  V30 7687 H 721.139 -4.54769 -1.88271 0
M  V30 7688 N 722.791 0.367657 -1.53252 0
M  V30 7689 C 723.741 1.45035 -1.75923 0
M  V30 7690 C 724.725 1.48736 -0.613719 0
M  V30 7691 O 725.917 1.54012 -0.872313 0
M  V30 7692 C 723.046 2.82493 -1.9507 0
M  V30 7693 C 722.132 2.83279 -3.15617 0
M  V30 7694 N 722.523 2.53712 -4.37566 0
M  V30 7695 C 720.821 3.1444 -3.16297 0
M  V30 7696 C 721.522 2.62123 -5.19294 0
M  V30 7697 N 720.498 2.96747 -4.55458 0
M  V30 7698 H 724.3 1.21035 -2.6782 0
M  V30 7699 H 721.814 0.575822 -1.51849 0
M  V30 7700 H 723.811 3.60473 -2.0944 0
M  V30 7701 H 722.471 3.07459 -1.044 0
M  V30 7702 H 723.482 2.27344 -4.65333 0
M  V30 7703 H 720.159 3.44733 -2.35511 0
M  V30 7704 H 721.549 2.42628 -6.26563 0
M  V30 7705 N 724.269 1.44576 0.627338 0
M  V30 7706 C 725.232 1.51372 1.72102 0
M  V30 7707 C 726.232 0.395329 1.55865 0
M  V30 7708 O 727.422 0.658094 1.61291 0
M  V30 7709 C 724.554 1.39129 3.11217 0
M  V30 7710 H 725.747 2.48798 1.6745 0
M  V30 7711 H 723.3 1.31724 0.841336 0
M  V30 7712 H 724.035 0.428114 3.21462 0
M  V30 7713 H 723.82 2.20229 3.24409 0
M  V30 7714 H 725.31 1.46874 3.90919 0
M  V30 7715 N 725.747 -0.868086 1.31537 0
M  V30 7716 C 726.697 -1.96321 1.1594 0
M  V30 7717 C 727.681 -1.60748 0.0698962 0
M  V30 7718 O 728.873 -1.74524 0.295011 0
M  V30 7719 C 726.002 -3.32073 0.870789 0
M  V30 7720 C 725.088 -3.73907 2.00136 0
M  V30 7721 N 725.479 -3.87685 3.24859 0
M  V30 7722 C 723.777 -4.03433 1.90152 0
M  V30 7723 C 724.478 -4.23454 3.98825 0
M  V30 7724 N 723.454 -4.34242 3.27009 0
M  V30 7725 H 727.256 -2.05088 2.10514 0
M  V30 7726 H 724.77 -1.059 1.23122 0
M  V30 7727 H 726.767 -4.10279 0.740034 0
M  V30 7728 H 725.427 -3.24631 -0.0667068 0
M  V30 7729 H 726.438 -3.72363 3.59953 0
M  V30 7730 H 723.115 -4.0437 1.03879 0
M  V30 7731 H 724.505 -4.41696 5.06314 0
M  V30 7732 N 727.225 -1.14528 -1.08264 0
M  V30 7733 C 728.173 -0.829201 -2.17318 0
M  V30 7734 C 729.167 0.193521 -1.68291 0
M  V30 7735 O 730.373 0.0494744 -1.79932 0
M  V30 7736 H 726.748 -0.250435 -0.709074 0
M  V30 7737 H 728.719 -1.75683 -2.41201 0
M  V30 7738 C 727.468 -0.324663 -3.46181 0
M  V30 7739 H 726.791 -1.10299 -3.84284 0
M  V30 7740 H 728.231 -0.142059 -4.23762 0
M  V30 7741 C 726.69 0.952033 -3.23169 0
M  V30 7742 O 727.22 2.02549 -3.46896 0
M  V30 7743 N 725.426 0.887854 -2.76705 0
M  V30 7744 H 724.973 0.0141402 -2.57596 0
M  V30 7745 H 724.931 1.74263 -2.61686 0
M  V30 7746 N 728.703 1.26451 -0.940633 0
M  V30 7747 C 729.636 2.24771 -0.394094 0
M  V30 7748 C 730.614 1.54169 0.516781 0
M  V30 7749 O 731.798 1.82942 0.454352 0
M  V30 7750 C 728.925 3.3591 0.433807 0
M  V30 7751 C 727.971 4.24472 -0.415464 0
M  V30 7752 S 728.804 5.0293 -1.83907 0
M  V30 7753 C 729.96 6.17546 -1.01921 0
M  V30 7754 H 730.193 2.70782 -1.22737 0
M  V30 7755 H 727.726 1.35308 -0.743709 0
M  V30 7756 H 729.684 4.00387 0.905576 0
M  V30 7757 H 728.345 2.88512 1.24175 0
M  V30 7758 H 727.538 5.03525 0.218833 0
M  V30 7759 H 727.14 3.64857 -0.821897 0
M  V30 7760 H 729.432 6.76996 -0.261227 0
M  V30 7761 H 730.375 6.8528 -1.78318 0
M  V30 7762 H 730.783 5.6176 -0.555511 0
M  V30 7763 N 730.181 0.707592 1.40822 0
M  V30 7764 C 731.597 0.38034 1.55002 0
M  V30 7765 C 731.797 -1.11163 1.68062 0
M  V30 7766 O 730.853 -1.89761 1.66574 0
M  V30 7767 C 732.166 1.1394 2.78277 0
M  V30 7768 C 733.714 1.12492 2.92087 0
M  V30 7769 C 734.189 1.86597 4.18265 0
M  V30 7770 N 735.68 1.83626 4.25248 0
M  V30 7771 C 736.415 2.37794 5.21768 0
M  V30 7772 N 735.911 3.00485 6.24244 0
M  V30 7773 N 737.704 2.27982 5.13791 0
M  V30 7774 H 729.855 1.67511 1.3059 0
M  V30 7775 H 732.118 0.707579 0.630901 0
M  V30 7776 H 731.824 2.19398 2.74877 0
M  V30 7777 H 731.698 0.725793 3.70151 0
M  V30 7778 H 734.085 0.0785564 2.94995 0
M  V30 7779 H 734.166 1.57768 2.01353 0
M  V30 7780 H 733.81 2.91219 4.16118 0
M  V30 7781 H 733.74 1.38746 5.07993 0
M  V30 7782 H 736.231 1.3793 3.51829 0
M  V30 7783 H 736.544 3.39355 6.94304 0
M  V30 7784 H 734.889 3.04567 6.24711 0
M  V30 7785 H 738.08 1.78669 4.3266 0
M  V30 7786 H 738.253 2.70499 5.88841 0
M  V30 7787 N 731.66 -1.50943 0.453197 0
M  V30 7788 C 732.906 -2.02512 -0.108082 0
M  V30 7789 C 733.239 -1.33574 -1.40967 0
M  V30 7790 O 732.514 -0.455671 -1.89087 0
M  V30 7791 C 732.797 -3.58759 -0.310453 0
M  V30 7792 C 732.65 -4.38293 1.0109 0
M  V30 7793 C 733.969 -4.26816 -1.07313 0
M  V30 7794 H 731.088 -0.73603 -0.0378064 0
M  V30 7795 H 733.73 -1.80433 0.595295 0
M  V30 7796 H 731.88 -3.77702 -0.909582 0
M  V30 7797 H 733.552 -4.30964 1.64523 0
M  V30 7798 H 731.795 -4.02745 1.61179 0
M  V30 7799 H 732.466 -5.45828 0.82315 0
M  V30 7800 H 734.942 -4.1224 -0.565473 0
M  V30 7801 H 733.818 -5.35989 -1.1835 0
M  V30 7802 H 734.079 -3.88757 -2.10525 0
M  V30 7803 N 733.138 -0.185124 -1.56509 0
M  V30 7804 C 734.071 0.77877 -2.145 0
M  V30 7805 C 735.049 1.21649 -1.07891 0
M  V30 7806 O 736.233 1.30579 -1.35946 0
M  V30 7807 C 733.36 2.05048 -2.69579 0
M  V30 7808 C 732.406 1.75569 -3.88687 0
M  V30 7809 S 733.239 0.912642 -5.27666 0
M  V30 7810 C 734.395 2.19471 -5.8616 0
M  V30 7811 H 734.628 0.285751 -2.95924 0
M  V30 7812 H 732.161 0.0297417 -1.54371 0
M  V30 7813 H 734.119 2.78085 -3.01958 0
M  V30 7814 H 732.78 2.51462 -1.88216 0
M  V30 7815 H 731.973 2.69962 -4.25601 0
M  V30 7816 H 731.575 1.10619 -3.57267 0
M  V30 7817 H 733.867 3.14815 -5.99915 0
M  V30 7818 H 734.81 1.87005 -6.8296 0
M  V30 7819 H 735.218 2.31862 -5.14685 0
M  V30 7820 N 734.616 1.57351 0.0885366 0
M  V30 7821 C 735.563 2.02523 1.10693 0
M  V30 7822 C 736.533 0.902736 1.39427 0
M  V30 7823 O 737.718 1.16921 1.50779 0
M  V30 7824 C 734.858 2.46013 2.42016 0
M  V30 7825 C 733.971 3.7181 2.19957 0
M  V30 7826 C 733.106 4.04152 3.44724 0
M  V30 7827 C 732.145 5.2304 3.17956 0
M  V30 7828 N 731.282 5.51102 4.35007 0
M  V30 7829 H 736.122 2.89302 0.714742 0
M  V30 7830 H 733.659 1.43084 0.341378 0
M  V30 7831 H 735.617 2.69274 3.18665 0
M  V30 7832 H 734.247 1.62235 2.79069 0
M  V30 7833 H 733.299 3.55987 1.34079 0
M  V30 7834 H 734.611 4.58604 1.96173 0
M  V30 7835 H 733.765 4.28225 4.29777 0
M  V30 7836 H 732.504 3.15893 3.71568 0
M  V30 7837 H 731.509 4.98781 2.31296 0
M  V30 7838 H 732.734 6.12902 2.92451 0
M  V30 7839 H 730.68 4.65802 4.61914 0
M  V30 7840 H 730.597 6.3228 4.14437 0
M  V30 7841 H 731.865 5.79714 5.21106 0
M  V30 7842 N 736.094 -0.359525 1.53444 0
M  V30 7843 C 737.341 -1.10152 1.6992 0
M  V30 7844 C 737.669 -1.89125 0.4541 0
M  V30 7845 O 736.924 -1.87396 -0.564023 0
M  V30 7846 C 737.223 -2.08287 2.90433 0
M  V30 7847 C 736.889 -1.45749 4.26694 0
M  V30 7848 C 735.551 -1.28421 4.63747 0
M  V30 7849 C 737.903 -1.00557 5.11408 0
M  V30 7850 C 735.231 -0.644951 5.83144 0
M  V30 7851 C 737.583 -0.380288 6.31456 0
M  V30 7852 C 736.247 -0.194557 6.67216 0
M  V30 7853 H 735.517 -0.403076 0.621781 0
M  V30 7854 H 738.164 -0.382612 1.87639 0
M  V30 7855 H 736.469 -2.86503 2.67251 0
M  V30 7856 H 738.166 -2.65662 3.00374 0
M  V30 7857 H 734.756 -1.6023 3.97523 0
M  V30 7858 H 738.94 -1.12735 4.83326 0
M  V30 7859 H 734.196 -0.48952 6.09437 0
M  V30 7860 H 738.37 -0.0219455 6.96397 0
M  V30 7861 H 735.997 0.30285 7.59597 0
M  V30 7862 N 737.572 -1.44907 -0.619662 0
M  V30 7863 C 738.797 -1.52021 -1.41083 0
M  V30 7864 C 739.222 -0.14976 -1.87503 0
M  V30 7865 O 738.58 0.863303 -1.59426 0
M  V30 7866 C 738.628 -2.49911 -2.59955 0
M  V30 7867 O 737.732 -2.00857 -3.60181 0
M  V30 7868 H 737.073 -0.512912 -0.421684 0
M  V30 7869 H 739.603 -1.90149 -0.755282 0
M  V30 7870 H 739.613 -2.68323 -3.07354 0
M  V30 7871 H 738.288 -3.4945 -2.25516 0
M  V30 7872 H 736.865 -1.92265 -3.19513 0
M  V30 7873 N 739.05 0.861098 -1.31996 0
M  V30 7874 C 740.296 1.61721 -1.22369 0
M  V30 7875 C 740.629 1.93 0.215587 0
M  V30 7876 O 739.904 1.56789 1.15098 0
M  V30 7877 C 740.187 2.9417 -2.07691 0
M  V30 7878 C 740.04 2.69714 -3.59965 0
M  V30 7879 C 741.359 3.95372 -1.93312 0
M  V30 7880 H 738.478 0.586822 -0.44588 0
M  V30 7881 H 741.12 0.994788 -1.61876 0
M  V30 7882 H 739.27 3.47292 -1.74128 0
M  V30 7883 H 740.942 2.23196 -4.03709 0
M  V30 7884 H 739.185 2.03789 -3.82952 0
M  V30 7885 H 739.856 3.63996 -4.14983 0
M  V30 7886 H 742.332 3.51487 -2.22701 0
M  V30 7887 H 741.208 4.85916 -2.55298 0
M  V30 7888 H 741.469 4.32865 -0.898922 0
M  V30 7889 N 740.528 1.15101 1.07655 0
M  V30 7890 C 741.753 0.948177 1.84457 0
M  V30 7891 C 742.178 -0.498432 1.81376 0
M  V30 7892 O 741.536 -1.35509 1.20445 0
M  V30 7893 C 741.584 1.46318 3.29581 0
M  V30 7894 O 740.688 0.660342 4.07079 0
M  V30 7895 H 740.029 0.338428 0.571281 0
M  V30 7896 H 742.559 1.5301 1.35828 0
M  V30 7897 H 742.569 1.47468 3.80417 0
M  V30 7898 H 741.244 2.51635 3.31138 0
M  V30 7899 H 739.821 0.718216 3.65918 0
M  V30 7900 N 742.006 -1.2595 0.947325 0
M  V30 7901 C 743.417 -1.75389 0.639963 0
M  V30 7902 C 743.768 -1.77081 -0.844788 0
M  V30 7903 O 742.893 -1.3869 -1.66114 0
M  V30 7904 C 743.488 -3.18506 1.15496 0
M  V30 7905 C 742.047 -3.65534 0.897894 0
M  V30 7906 C 741.194 -2.44818 1.30228 0
M  V30 7907 H 744.145 -1.1194 1.12495 0
M  V30 7908 H 744.166 -3.77045 0.511627 0
M  V30 7909 H 743.678 -3.17243 2.23559 0
M  V30 7910 H 741.779 -3.72221 -0.168096 0
M  V30 7911 H 741.892 -4.54039 1.52922 0
M  V30 7912 H 740.256 -2.44291 0.720678 0
M  V30 7913 H 741.039 -2.46251 2.39198 0
M  V30 7914 N 743.484 -0.715051 -1.40445 0
M  V30 7915 C 744.73 -0.254705 -2.01194 0
M  V30 7916 C 745.063 1.14894 -1.56567 0
M  V30 7917 O 744.338 1.77933 -0.785491 0
M  V30 7918 C 744.621 -0.334148 -3.58546 0
M  V30 7919 C 744.474 -1.77613 -4.13248 0
M  V30 7920 C 745.793 0.294968 -4.3911 0
M  V30 7921 H 742.912 -0.094025 -0.730978 0
M  V30 7922 H 745.554 -0.907449 -1.66929 0
M  V30 7923 H 743.704 0.221609 -3.87867 0
M  V30 7924 H 745.376 -2.38723 -3.94727 0
M  V30 7925 H 743.619 -2.30402 -3.67556 0
M  V30 7926 H 744.29 -1.78311 -5.22407 0
M  V30 7927 H 746.766 -0.178563 -4.15717 0
M  V30 7928 H 745.642 0.208934 -5.48502 0
M  V30 7929 H 745.903 1.37841 -4.20062 0
M  V30 7930 N 744.962 1.50701 -0.461195 0
M  V30 7931 C 746.208 2.02566 0.0973411 0
M  V30 7932 C 746.541 1.3432 1.40257 0
M  V30 7933 O 745.816 0.465692 1.88843 0
M  V30 7934 C 746.099 3.58919 0.291423 0
M  V30 7935 C 745.952 4.37751 -1.03413 0
M  V30 7936 C 747.271 4.27379 1.05048 0
M  V30 7937 H 744.39 0.73622 0.0339026 0
M  V30 7938 H 747.032 1.80115 -0.604855 0
M  V30 7939 H 745.182 3.78179 0.889539 0
M  V30 7940 H 746.854 4.30085 -1.66806 0
M  V30 7941 H 745.097 4.01885 -1.63313 0
M  V30 7942 H 745.768 5.45384 -0.852085 0
M  V30 7943 H 748.244 4.12534 0.543603 0
M  V30 7944 H 747.12 5.36609 1.15506 0
M  V30 7945 H 747.381 3.89868 2.0846 0
M  V30 7946 N 746.441 0.193421 1.56409 0
M  V30 7947 C 747.857 -0.162447 1.58771 0
M  V30 7948 C 748.057 -1.6116 1.20954 0
M  V30 7949 O 747.113 -2.3469 0.931497 0
M  V30 7950 C 748.426 0.138391 3.00381 0
M  V30 7951 C 749.974 0.0783649 3.12902 0
M  V30 7952 C 750.449 0.352491 4.56642 0
M  V30 7953 N 751.94 0.30105 4.62221 0
M  V30 7954 C 752.675 0.487028 5.71328 0
M  V30 7955 N 752.171 0.733265 6.88909 0
M  V30 7956 N 753.964 0.4214 5.60518 0
M  V30 7957 H 746.115 1.13909 1.79272 0
M  V30 7958 H 748.378 0.454528 0.83193 0
M  V30 7959 H 748.084 1.14312 3.32604 0
M  V30 7960 H 747.958 -0.559804 3.73023 0
M  V30 7961 H 750.345 -0.916963 2.80492 0
M  V30 7962 H 750.426 0.809611 2.4265 0
M  V30 7963 H 750.07 1.34513 4.89764 0
M  V30 7964 H 750 -0.399624 5.25081 0
M  V30 7965 H 752.491 0.117279 3.77718 0
M  V30 7966 H 752.804 0.86403 7.67955 0
M  V30 7967 H 751.149 0.770138 6.9072 0
M  V30 7968 H 754.34 0.229461 4.67537 0
M  V30 7969 H 754.513 0.569758 6.4549 0
M  V30 7970 N 747.919 -1.57396 -0.0801906 0
M  V30 7971 C 749.165 -1.87113 -0.782083 0
M  V30 7972 C 749.498 -0.78458 -1.77646 0
M  V30 7973 O 748.773 0.205993 -1.93406 0
M  V30 7974 C 749.056 -3.27483 -1.49756 0
M  V30 7975 C 748.909 -4.46782 -0.520171 0
M  V30 7976 C 750.228 -3.65965 -2.44454 0
M  V30 7977 H 747.347 -0.680559 -0.282858 0
M  V30 7978 H 749.989 -1.89946 -0.0454139 0
M  V30 7979 H 748.139 -3.25199 -2.12551 0
M  V30 7980 H 749.811 -4.61187 0.101919 0
M  V30 7981 H 748.054 -4.33485 0.165219 0
M  V30 7982 H 748.725 -5.41761 -1.05824 0
M  V30 7983 H 751.201 -3.69289 -1.91742 0
M  V30 7984 H 750.077 -4.65086 -2.91524 0
M  V30 7985 H 750.338 -2.95446 -3.28883 0
M  V30 7986 N 749.397 0.351382 -1.53633 0
M  V30 7987 C 750.36 1.41403 -1.80383 0
M  V30 7988 C 751.36 1.45963 -0.674635 0
M  V30 7989 O 752.55 1.46476 -0.942895 0
M  V30 7990 C 749.682 2.80401 -1.93876 0
M  V30 7991 H 750.875 1.18951 -2.75301 0
M  V30 7992 H 748.428 0.58533 -1.44926 0
M  V30 7993 H 749.163 3.08147 -1.01074 0
M  V30 7994 H 748.948 2.78488 -2.7602 0
M  V30 7995 H 750.438 3.57329 -2.16116 0
M  V30 7996 N 750.875 1.45233 0.611969 0
M  V30 7997 C 752.121 1.49242 1.37312 0
M  V30 7998 C 752.454 0.131963 1.93751 0
M  V30 7999 O 751.729 -0.852999 1.74798 0
M  V30 8000 C 752.012 2.56811 2.52428 0
M  V30 8001 C 751.865 4.02284 2.01215 0
M  V30 8002 C 753.184 2.60705 3.54572 0
M  V30 8003 H 750.303 0.54336 0.497925 0
M  V30 8004 H 752.945 1.77019 0.690242 0
M  V30 8005 H 751.095 2.33256 3.10683 0
M  V30 8006 H 752.767 4.37035 1.47643 0
M  V30 8007 H 751.01 4.1315 1.32248 0
M  V30 8008 H 751.681 4.7323 2.84178 0
M  V30 8009 H 754.157 2.81799 3.06151 0
M  V30 8010 H 753.033 3.37841 4.32614 0
M  V30 8011 H 753.294 1.65627 4.09903 0
M  V30 8012 N 752.353 -0.854086 1.3245 0
M  V30 8013 C 753.263 -1.99503 1.23434 0
M  V30 8014 C 754.279 -1.73371 0.147828 0
M  V30 8015 O 755.455 -1.97998 0.368609 0
M  V30 8016 C 752.52 -3.33192 0.958328 0
M  V30 8017 C 751.581 -3.72542 2.13333 0
M  V30 8018 C 750.814 -4.99852 1.8704 0
M  V30 8019 O 751.037 -5.64573 0.813239 0
M  V30 8020 O 749.971 -5.36345 2.73161 0
M  V30 8021 H 753.797 -2.10046 2.1935 0
M  V30 8022 H 751.382 -0.984823 1.12346 0
M  V30 8023 H 753.264 -4.13327 0.820918 0
M  V30 8024 H 751.939 -3.23687 0.0293299 0
M  V30 8025 H 750.846 -2.92981 2.32622 0
M  V30 8026 H 752.179 -3.86694 3.04514 0
M  V30 8027 N 753.831 -1.1567 -1.07043 0
M  V30 8028 C 754.794 -0.858906 -2.12498 0
M  V30 8029 C 755.794 0.142735 -1.60165 0
M  V30 8030 O 756.984 -0.0872678 -1.73981 0
M  V30 8031 C 754.116 -0.283021 -3.39723 0
M  V30 8032 H 755.309 -1.79368 -2.40348 0
M  V30 8033 H 752.862 -0.964608 -1.22984 0
M  V30 8034 H 753.597 0.659796 -3.17517 0
M  V30 8035 H 753.382 -1.00467 -3.7901 0
M  V30 8036 H 754.872 -0.0923543 -4.17498 0
M  V30 8037 N 755.309 1.25446 -0.953992 0
M  V30 8038 C 756.256 2.25912 -0.472485 0
M  V30 8039 C 757.226 1.59173 0.47469 0
M  V30 8040 O 758.411 1.86812 0.388082 0
M  V30 8041 C 755.551 3.44235 0.244218 0
M  V30 8042 C 754.664 4.25613 -0.740121 0
M  V30 8043 C 753.799 5.312 -0.000922267 0
M  V30 8044 C 752.838 6.04265 -0.976236 0
M  V30 8045 N 751.975 7.01589 -0.267952 0
M  V30 8046 H 756.815 2.66469 -1.3341 0
M  V30 8047 H 754.352 1.31005 -0.669045 0
M  V30 8048 H 756.31 4.11682 0.676314 0
M  V30 8049 H 754.94 3.04554 1.06988 0
M  V30 8050 H 753.992 3.57834 -1.2907 0
M  V30 8051 H 755.304 4.762 -1.48441 0
M  V30 8052 H 754.458 6.04719 0.48984 0
M  V30 8053 H 753.197 4.81484 0.776159 0
M  V30 8054 H 752.202 5.29561 -1.478 0
M  V30 8055 H 753.427 6.5607 -1.75354 0
M  V30 8056 H 751.373 6.54164 0.490403 0
M  V30 8057 H 751.29 7.4999 -0.951344 0
M  V30 8058 H 752.558 7.7924 0.201294 0
M  V30 8059 N 756.787 0.722489 1.40064 0
M  V30 8060 C 757.735 0.063329 2.32514 0
M  V30 8061 C 758.729 -0.73953 1.52405 0
M  V30 8062 O 759.935 -0.642122 1.68157 0
M  V30 8063 H 756.31 0.00167692 0.751998 0
M  V30 8064 H 758.281 0.859656 2.85749 0
M  V30 8065 C 757.03 -0.839219 3.3742 0
M  V30 8066 H 756.353 -0.230836 3.99133 0
M  V30 8067 H 757.793 -1.26827 4.04587 0
M  V30 8068 C 756.252 -1.96783 2.73456 0
M  V30 8069 O 756.782 -3.05933 2.60323 0
M  V30 8070 N 754.988 -1.75351 2.31734 0
M  V30 8071 H 754.535 -0.865787 2.42615 0
M  V30 8072 H 754.493 -2.51043 1.89275 0
M  V30 8073 N 758.265 -1.50454 0.469181 0
M  V30 8074 C 759.676 -1.86695 0.0136034 0
M  V30 8075 C 760.027 -1.38413 -1.39055 0
M  V30 8076 O 759.152 -0.748294 -2.03051 0
M  V30 8077 C 759.747 -3.38795 0.0179098 0
M  V30 8078 C 758.306 -3.74455 -0.382191 0
M  V30 8079 C 757.453 -2.74338 0.404207 0
M  V30 8080 H 760.404 -1.43225 0.683547 0
M  V30 8081 H 760.425 -3.72321 -0.78468 0
M  V30 8082 H 759.937 -3.73906 1.04 0
M  V30 8083 H 758.038 -3.44944 -1.4087 0
M  V30 8084 H 758.151 -4.79025 -0.084862 0
M  V30 8085 H 756.515 -2.54305 -0.141829 0
M  V30 8086 H 757.298 -3.12293 1.42577 0
M  V30 8087 N 759.743 -0.201713 -1.56304 0
M  V30 8088 C 760.706 0.702811 -2.18159 0
M  V30 8089 C 761.706 1.13619 -1.13787 0
M  V30 8090 O 762.896 1.0482 -1.39134 0
M  V30 8091 C 760.028 1.96032 -2.78898 0
M  V30 8092 H 761.221 0.163836 -2.99452 0
M  V30 8093 H 758.774 0.04791 -1.56227 0
M  V30 8094 H 759.509 2.54165 -2.01421 0
M  V30 8095 H 759.294 1.65824 -3.55309 0
M  V30 8096 H 760.784 2.60519 -3.26373 0
M  V30 8097 N 761.222 1.57436 0.0718424 0
M  V30 8098 C 762.499 1.78312 0.804006 0
M  V30 8099 C 762.879 0.789273 1.9579 0
M  V30 8100 O 762.227 -0.177605 2.27809 0
M  V30 8101 C 762.437 3.24798 1.277 0
M  V30 8102 C 763.785 3.88627 1.71039 0
M  V30 8103 O 764.809 3.28689 1.37266 0
M  V30 8104 O 763.668 4.94073 2.33567 0
M  V30 8105 H 760.762 0.73178 0.385262 0
M  V30 8106 H 763.308 1.69621 0.0519219 0
M  V30 8107 H 762.08 3.88688 0.45134 0
M  V30 8108 H 761.703 3.38213 2.0904 0
M  V30 8109 N 762.7 -0.34323 1.53817 0
M  V30 8110 C 763.63 -1.42709 1.84814 0
M  V30 8111 C 764.611 -1.5488 0.703297 0
M  V30 8112 O 765.796 -1.69082 0.955237 0
M  V30 8113 C 762.926 -2.79756 2.05801 0
M  V30 8114 C 761.88 -2.82392 3.21619 0
M  V30 8115 C 761.206 -4.22326 3.2794 0
M  V30 8116 C 762.506 -2.479 4.59721 0
M  V30 8117 H 764.2 -1.17018 2.75585 0
M  V30 8118 H 761.746 -0.561485 1.32602 0
M  V30 8119 H 763.699 -3.55627 2.26069 0
M  V30 8120 H 762.423 -3.06883 1.11761 0
M  V30 8121 H 761.082 -2.08974 3.01207 0
M  V30 8122 H 760.73 -4.46564 2.31494 0
M  V30 8123 H 760.43 -4.25001 4.05768 0
M  V30 8124 H 761.954 -5.00039 3.50419 0
M  V30 8125 H 763.368 -3.13484 4.80001 0
M  V30 8126 H 761.765 -2.61857 5.39954 0
M  V30 8127 H 762.835 -1.43087 4.63308 0
M  V30 8128 N 764.178 -1.45556 -0.604258 0
M  V30 8129 C 765.589 -1.44171 -1.18624 0
M  V30 8130 C 765.94 -0.171081 -1.95453 0
M  V30 8131 O 765.065 0.727156 -2.03817 0
M  V30 8132 C 765.66 -2.61193 -2.15786 0
M  V30 8133 C 764.219 -2.62918 -2.69353 0
M  V30 8134 C 763.366 -2.36479 -1.4482 0
M  V30 8135 H 766.317 -1.53747 -0.393381 0
M  V30 8136 H 766.338 -2.35481 -2.98879 0
M  V30 8137 H 765.85 -3.53656 -1.59841 0
M  V30 8138 H 763.951 -1.7447 -3.29228 0
M  V30 8139 H 764.064 -3.6224 -3.13559 0
M  V30 8140 H 762.428 -1.86103 -1.73891 0
M  V30 8141 H 763.211 -3.31091 -0.907376 0
M  V30 8142 N 765.656 0.84705 -1.32902 0
M  V30 8143 C 766.603 1.95624 -1.22473 0
M  V30 8144 C 767.573 1.65767 -0.105178 0
M  V30 8145 O 768.758 1.88704 -0.282042 0
M  V30 8146 C 765.898 3.31434 -0.961542 0
M  V30 8147 C 765.011 3.73741 -2.1666 0
M  V30 8148 C 764.146 4.98379 -1.83825 0
M  V30 8149 C 763.185 5.33199 -3.00609 0
M  V30 8150 N 762.322 6.49014 -2.67816 0
M  V30 8151 H 767.162 2.03875 -2.17345 0
M  V30 8152 H 764.699 0.997764 -1.08088 0
M  V30 8153 H 766.657 4.09663 -0.789411 0
M  V30 8154 H 765.287 3.22762 -0.0495938 0
M  V30 8155 H 764.339 2.91102 -2.44875 0
M  V30 8156 H 765.651 3.95462 -3.03993 0
M  V30 8157 H 764.805 5.84336 -1.63208 0
M  V30 8158 H 763.544 4.78611 -0.937172 0
M  V30 8159 H 762.549 4.4575 -3.21849 0
M  V30 8160 H 763.774 5.5492 -3.9146 0
M  V30 8161 H 761.72 6.30748 -1.80258 0
M  V30 8162 H 761.637 6.7079 -3.48679 0
M  V30 8163 H 762.905 7.38103 -2.50647 0
M  V30 8164 N 767.134 1.16236 1.06428 0
M  V30 8165 C 768.064 0.890807 2.1584 0
M  V30 8166 C 769.045 -0.162333 1.69324 0
M  V30 8167 O 770.23 -0.0147191 1.94194 0
M  V30 8168 C 767.36 0.389615 3.45108 0
M  V30 8169 C 766.314 1.38051 4.05125 0
M  V30 8170 C 765.64 0.737773 5.29586 0
M  V30 8171 C 766.94 2.74965 4.44062 0
M  V30 8172 H 768.634 1.80577 2.38814 0
M  V30 8173 H 766.18 0.869657 1.14774 0
M  V30 8174 H 768.133 0.187127 4.20984 0
M  V30 8175 H 766.857 -0.560851 3.21748 0
M  V30 8176 H 765.516 1.56952 3.31303 0
M  V30 8177 H 765.164 -0.219135 5.02522 0
M  V30 8178 H 764.864 1.39914 5.70699 0
M  V30 8179 H 766.388 0.545275 6.0816 0
M  V30 8180 H 767.802 2.59855 5.11027 0
M  V30 8181 H 766.199 3.37563 4.96156 0
M  V30 8182 H 767.269 3.30321 3.54987 0
M  V30 8183 N 768.612 -1.24939 0.960631 0
M  V30 8184 C 769.858 -1.93104 0.61958 0
M  V30 8185 C 770.191 -1.74991 -0.84212 0
M  V30 8186 O 769.466 -1.09867 -1.60498 0
M  V30 8187 C 769.749 -3.46326 0.986422 0
M  V30 8188 C 769.602 -3.73638 2.50429 0
M  V30 8189 C 770.921 -4.37067 0.515827 0
M  V30 8190 H 768.04 -0.701311 0.226566 0
M  V30 8191 H 770.682 -1.47442 1.19836 0
M  V30 8192 H 768.832 -3.85348 0.493907 0
M  V30 8193 H 770.504 -3.44217 3.07103 0
M  V30 8194 H 768.747 -3.19035 2.93937 0
M  V30 8195 H 769.418 -4.80815 2.71147 0
M  V30 8196 H 771.894 -4.05381 0.938389 0
M  V30 8197 H 770.77 -5.43022 0.80114 0
M  V30 8198 H 771.031 -4.38224 -0.584171 0
M  V30 8199 N 770.09 -0.729906 -1.39679 0
M  V30 8200 C 771 -0.0880322 -2.34435 0
M  V30 8201 C 772.016 0.727674 -1.58053 0
M  V30 8202 O 773.192 0.657321 -1.90371 0
M  V30 8203 C 770.257 0.812211 -3.37052 0
M  V30 8204 C 769.318 -0.0151681 -4.29297 0
M  V30 8205 C 768.551 0.842202 -5.27013 0
M  V30 8206 O 768.774 2.08108 -5.31081 0
M  V30 8207 O 767.708 0.27357 -6.01278 0
M  V30 8208 H 771.534 -0.869989 -2.90972 0
M  V30 8209 H 769.119 -0.490522 -1.41118 0
M  V30 8210 H 771.001 1.32745 -3.99946 0
M  V30 8211 H 769.676 1.57307 -2.82907 0
M  V30 8212 H 768.583 -0.575811 -3.69642 0
M  V30 8213 H 769.916 -0.738129 -4.86634 0
M  V30 8214 N 771.568 1.50203 -0.477153 0
M  V30 8215 C 772.816 2.01959 0.0755889 0
M  V30 8216 C 773.137 1.3608 1.39668 0
M  V30 8217 O 772.407 0.508136 1.89195 0
M  V30 8218 H 770.987 0.74636 0.0309248 0
M  V30 8219 H 773.649 1.84473 -0.628959 0
M  V30 8220 H 772.745 3.11305 0.222683 0
M  V30 8221 N 773.046 0.209999 1.56195 0
M  V30 8222 C 773.976 -0.699746 2.22769 0
M  V30 8223 C 774.957 -1.20993 1.1956 0
M  V30 8224 O 776.142 -1.25605 1.48112 0
M  V30 8225 C 773.272 -1.91302 2.89863 0
M  V30 8226 C 772.226 -1.53715 3.99444 0
M  V30 8227 C 771.552 -2.82826 4.53777 0
M  V30 8228 C 772.852 -0.735836 5.17091 0
M  V30 8229 H 774.546 -0.144716 2.9905 0
M  V30 8230 H 772.092 -0.0681645 1.43839 0
M  V30 8231 H 774.045 -2.5548 3.35124 0
M  V30 8232 H 772.769 -2.49283 2.11011 0
M  V30 8233 H 771.428 -0.918892 3.54897 0
M  V30 8234 H 771.076 -3.38927 3.71669 0
M  V30 8235 H 770.776 -2.58415 5.27727 0
M  V30 8236 H 772.3 -3.47966 5.01749 0
M  V30 8237 H 773.714 -1.28105 5.58804 0
M  V30 8238 H 772.111 -0.589272 5.972 0
M  V30 8239 H 773.181 0.260004 4.84202 0
M  V30 8240 N 774.524 -1.57472 -0.0634922 0
M  V30 8241 C 775.471 -2.04258 -1.07457 0
M  V30 8242 C 776.441 -0.924804 -1.37973 0
M  V30 8243 O 777.626 -1.19305 -1.48899 0
M  V30 8244 C 774.766 -2.49832 -2.38071 0
M  V30 8245 C 773.879 -3.75263 -2.14014 0
M  V30 8246 C 773.014 -4.09585 -3.38251 0
M  V30 8247 C 772.053 -5.28032 -3.09594 0
M  V30 8248 N 771.19 -5.57953 -4.26185 0
M  V30 8249 H 776.03 -2.90402 -0.668626 0
M  V30 8250 H 773.567 -1.43609 -0.318572 0
M  V30 8251 H 775.525 -2.7431 -3.14341 0
M  V30 8252 H 774.155 -1.66654 -2.76453 0
M  V30 8253 H 773.207 -3.58075 -1.28399 0
M  V30 8254 H 774.519 -4.61667 -1.88852 0
M  V30 8255 H 773.673 -4.35008 -4.2291 0
M  V30 8256 H 772.412 -3.21765 -3.66495 0
M  V30 8257 H 771.417 -5.02397 -2.23332 0
M  V30 8258 H 772.642 -6.17477 -2.82663 0
M  V30 8259 H 770.588 -4.73092 -4.54445 0
M  V30 8260 H 770.505 -6.38793 -4.04326 0
M  V30 8261 H 771.773 -5.87931 -5.11817 0
M  V30 8262 N 776.003 0.335068 -1.53997 0
M  V30 8263 C 777.419 0.678704 -1.4445 0
M  V30 8264 C 777.619 1.92106 -0.608078 0
M  V30 8265 O 776.675 2.52292 -0.102373 0
M  V30 8266 C 777.988 0.863435 -2.88037 0
M  V30 8267 C 779.536 0.961513 -2.97866 0
M  V30 8268 C 780.011 1.1785 -4.42578 0
M  V30 8269 N 781.502 1.2455 -4.46141 0
M  V30 8270 C 782.237 1.43106 -5.55255 0
M  V30 8271 N 781.733 1.5878 -6.74359 0
M  V30 8272 N 783.526 1.45722 -5.42883 0
M  V30 8273 H 775.677 -0.481656 -2.06867 0
M  V30 8274 H 777.94 -0.153615 -0.935471 0
M  V30 8275 H 777.646 0.0219511 -3.51693 0
M  V30 8276 H 777.52 1.76268 -3.33481 0
M  V30 8277 H 779.907 1.79351 -2.34344 0
M  V30 8278 H 779.988 0.0389862 -2.5577 0
M  V30 8279 H 779.632 0.351397 -5.06683 0
M  V30 8280 H 779.562 2.11472 -4.82273 0
M  V30 8281 H 782.053 1.13928 -3.60318 0
M  V30 8282 H 782.366 1.72599 -7.53279 0
M  V30 8283 H 780.711 1.559 -6.77289 0
M  V30 8284 H 783.902 1.33065 -4.48789 0
M  V30 8285 H 784.075 1.59841 -6.27977 0
M  V30 8286 N 777.481 1.45874 0.596531 0
M  V30 8287 C 778.411 1.5824 1.71705 0
M  V30 8288 C 779.392 0.433366 1.64487 0
M  V30 8289 O 780.577 0.657895 1.82717 0
M  V30 8290 C 777.707 1.55927 3.10329 0
M  V30 8291 C 776.661 2.69659 3.32367 0
M  V30 8292 C 775.987 2.52403 4.71377 0
M  V30 8293 C 777.287 4.11591 3.21544 0
M  V30 8294 H 778.981 2.52035 1.61613 0
M  V30 8295 H 776.527 1.21297 0.776082 0
M  V30 8296 H 778.48 1.63173 3.88526 0
M  V30 8297 H 777.204 0.586674 3.21288 0
M  V30 8298 H 775.863 2.61859 2.56564 0
M  V30 8299 H 775.511 1.53258 4.79083 0
M  V30 8300 H 775.211 3.28679 4.87077 0
M  V30 8301 H 776.735 2.6152 5.5176 0
M  V30 8302 H 778.149 4.20576 3.89601 0
M  V30 8303 H 776.546 4.88344 3.4877 0
M  V30 8304 H 777.616 4.32719 2.1882 0
M  V30 8305 N 778.959 -0.83999 1.33349 0
M  V30 8306 C 779.922 -1.93128 1.23426 0
M  V30 8307 C 780.922 -1.60065 0.153599 0
M  V30 8308 O 782.112 -1.69425 0.405049 0
M  V30 8309 C 779.244 -3.28761 0.901622 0
M  V30 8310 H 780.437 -2.03352 2.20427 0
M  V30 8311 H 777.99 -1.03194 1.17391 0
M  V30 8312 H 778.725 -3.24233 -0.0659337 0
M  V30 8313 H 778.51 -3.54138 1.68311 0
M  V30 8314 H 780 -4.08714 0.856913 0
M  V30 8315 N 780.437 -1.16799 -1.0581 0
M  V30 8316 C 781.384 -0.87902 -2.13405 0
M  V30 8317 C 782.354 0.174541 -1.6518 0
M  V30 8318 O 783.539 0.0386843 -1.90761 0
M  V30 8319 C 780.679 -0.391616 -3.42871 0
M  V30 8320 C 779.792 -1.50857 -4.04804 0
M  V30 8321 C 778.927 -0.975682 -5.22163 0
M  V30 8322 C 777.966 -2.06851 -5.76089 0
M  V30 8323 N 777.103 -1.55085 -6.84758 0
M  V30 8324 H 781.943 -1.80043 -2.37463 0
M  V30 8325 H 779.48 -0.898083 -1.16503 0
M  V30 8326 H 781.438 -0.0906247 -4.17102 0
M  V30 8327 H 780.068 0.49284 -3.19016 0
M  V30 8328 H 779.12 -1.92542 -3.28073 0
M  V30 8329 H 780.432 -2.33305 -4.40874 0
M  V30 8330 H 779.586 -0.628165 -6.03439 0
M  V30 8331 H 778.325 -0.120566 -4.87551 0
M  V30 8332 H 777.33 -2.42467 -4.93447 0
M  V30 8333 H 778.555 -2.92768 -6.12751 0
M  V30 8334 H 776.501 -0.718345 -6.52055 0
M  V30 8335 H 776.418 -2.31145 -7.19797 0
M  V30 8336 H 777.686 -1.23206 -7.69702 0
M  V30 8337 N 781.915 1.24427 -0.967243 0
M  V30 8338 C 783.14 1.9708 -0.646069 0
M  V30 8339 C 783.565 1.71272 0.777665 0
M  V30 8340 O 782.923 0.976179 1.52776 0
M  V30 8341 C 782.971 3.48501 -0.926266 0
M  V30 8342 O 782.075 4.12398 -0.0114653 0
M  V30 8343 H 781.416 0.617423 -0.244304 0
M  V30 8344 H 783.946 1.58215 -1.29727 0
M  V30 8345 H 783.956 3.98885 -0.857619 0
M  V30 8346 H 782.631 3.66613 -1.96386 0
M  V30 8347 H 781.208 3.72661 -0.133396 0
M  V30 8348 N 783.393 0.737304 1.3929 0
M  V30 8349 C 784.67 0.212464 1.94443 0
M  V30 8350 C 785.05 -1.28621 1.67391 0
M  V30 8351 O 784.398 -2.0529 1.00342 0
M  V30 8352 C 784.608 0.548565 3.44662 0
M  V30 8353 C 785.956 0.499177 4.21656 0
M  V30 8354 O 786.98 0.485892 3.5287 0
M  V30 8355 O 785.839 0.495739 5.44247 0
M  V30 8356 H 782.933 0.0395457 0.826054 0
M  V30 8357 H 785.479 0.816319 1.48776 0
M  V30 8358 H 784.251 1.58426 3.57795 0
M  V30 8359 H 783.874 -0.0841399 3.97511 0
M  V30 8360 N 784.871 -1.49948 0.485112 0
M  V30 8361 C 786.282 -1.8667 0.0334041 0
M  V30 8362 C 786.633 -1.3988 -1.37579 0
M  V30 8363 O 785.758 -0.769788 -2.02245 0
M  V30 8364 C 786.353 -3.38757 0.0538426 0
M  V30 8365 C 784.912 -3.74839 -0.342453 0
M  V30 8366 C 784.059 -2.73894 0.433281 0
M  V30 8367 H 787.01 -1.42492 0.698699 0
M  V30 8368 H 787.031 -3.73132 -0.745146 0
M  V30 8369 H 786.543 -3.72782 1.07959 0
M  V30 8370 H 784.644 -3.46419 -1.37203 0
M  V30 8371 H 784.757 -4.79088 -0.0340503 0
M  V30 8372 H 783.121 -2.54441 -0.114849 0
M  V30 8373 H 783.904 -3.10763 1.45881 0
M  V30 8374 N 786.349 -0.21828 -1.56081 0
M  V30 8375 C 787.282 0.733096 -2.16104 0
M  V30 8376 C 788.26 1.19333 -1.10447 0
M  V30 8377 O 789.444 1.27666 -1.38685 0
M  V30 8378 C 786.571 1.99283 -2.73868 0
M  V30 8379 C 785.617 1.67285 -3.92324 0
M  V30 8380 S 786.45 0.800511 -5.29483 0
M  V30 8381 C 787.606 2.06988 -5.90683 0
M  V30 8382 H 787.839 0.222917 -2.96463 0
M  V30 8383 H 785.372 -0.00300946 -1.544 0
M  V30 8384 H 787.33 2.71618 -3.07789 0
M  V30 8385 H 785.991 2.47414 -1.93508 0
M  V30 8386 H 785.184 2.60874 -4.31232 0
M  V30 8387 H 784.786 1.03016 -3.59533 0
M  V30 8388 H 787.078 3.02019 -6.06457 0
M  V30 8389 H 788.021 1.72476 -6.86773 0
M  V30 8390 H 788.429 2.20893 -5.19487 0
M  V30 8391 N 787.827 1.57504 0.0551401 0
M  V30 8392 C 789.073 1.88334 0.752216 0
M  V30 8393 C 789.406 0.812742 1.76375 0
M  V30 8394 O 788.681 -0.175198 1.93709 0
M  V30 8395 C 788.964 3.29824 1.44528 0
M  V30 8396 C 788.817 4.47553 0.449026 0
M  V30 8397 C 790.136 3.69808 2.38601 0
M  V30 8398 H 787.255 0.684973 0.271995 0
M  V30 8399 H 789.897 1.89994 0.0151895 0
M  V30 8400 H 788.047 3.28539 2.07351 0
M  V30 8401 H 789.719 4.60967 -0.175277 0
M  V30 8402 H 787.962 4.33168 -0.234162 0
M  V30 8403 H 788.633 5.43376 0.971917 0
M  V30 8404 H 791.109 3.72293 1.85842 0
M  V30 8405 H 789.985 4.69665 2.84088 0
M  V30 8406 H 790.246 3.00641 3.24141 0
M  V30 8407 N 789.305 -0.326896 1.54172 0
M  V30 8408 C 790.237 -1.42319 1.79661 0
M  V30 8409 C 791.25 -1.47989 0.678456 0
M  V30 8410 O 792.439 -1.50773 0.955503 0
M  V30 8411 C 789.539 -2.80876 1.89636 0
M  V30 8412 C 788.712 -2.98449 3.19761 0
M  V30 8413 C 787.771 -4.17347 3.2048 0
M  V30 8414 O 786.797 -4.10667 3.94134 0
M  V30 8415 N 787.999 -5.26717 2.44027 0
M  V30 8416 H 790.764 -1.20819 2.74268 0
M  V30 8417 H 788.325 -0.516866 1.53428 0
M  V30 8418 H 790.317 -3.58619 1.87549 0
M  V30 8419 H 788.887 -2.95442 1.02141 0
M  V30 8420 H 788.107 -2.08035 3.34836 0
M  V30 8421 H 789.395 -3.07083 4.05681 0
M  V30 8422 H 788.793 -5.35019 1.8377 0
M  V30 8423 H 787.35 -6.02891 2.47721 0
M  V30 8424 N 790.784 -1.46188 -0.588786 0
M  V30 8425 C 792.024 -1.52738 -1.35833 0
M  V30 8426 C 792.388 -0.172403 -1.91224 0
M  V30 8427 O 793.589 -0.112633 -2.68564 0
M  V30 8428 C 791.86 -2.59085 -2.4619 0
M  V30 8429 S 793.419 -2.84997 -3.3365 0
M  V30 8430 H 790.237 -0.539713 -0.462851 0
M  V30 8431 H 792.839 -1.83386 -0.677489 0
M  V30 8432 H 791.543 -3.56177 -2.03878 0
M  V30 8433 H 791.074 -2.3015 -3.19053 0
M  V30 8434 H 793.089 -2.19804 -4.4486 0
M  V30 8435 N 792.262 0.832906 -1.33792 0
M  V30 8436 C 793.511 1.58351 -1.24932 0
M  V30 8437 C 793.824 1.94754 0.181703 0
M  V30 8438 O 795.03 2.6865 0.392375 0
M  V30 8439 C 793.486 2.85643 -2.18943 0
M  V30 8440 C 793.094 2.56581 -3.67247 0
M  V30 8441 C 794.838 3.63667 -2.18968 0
M  V30 8442 C 792.745 3.80006 -4.53155 0
M  V30 8443 H 791.675 0.594278 -0.464058 0
M  V30 8444 H 794.326 0.91786 -1.58895 0
M  V30 8445 H 792.708 3.53781 -1.77919 0
M  V30 8446 H 793.882 1.96617 -4.16747 0
M  V30 8447 H 792.197 1.91851 -3.6957 0
M  V30 8448 H 794.794 4.55293 -2.80379 0
M  V30 8449 H 795.137 3.99039 -1.18631 0
M  V30 8450 H 795.67 3.0246 -2.58384 0
M  V30 8451 H 792.409 3.4976 -5.5439 0
M  V30 8452 H 791.929 4.39288 -4.08395 0
M  V30 8453 H 793.608 4.47523 -4.6726 0
M  V30 8454 N 793.74 1.17359 1.05189 0
M  V30 8455 C 794.989 0.956412 1.77583 0
M  V30 8456 C 795.302 -0.516018 1.88671 0
M  V30 8457 O 796.508 -0.851401 2.57805 0
M  V30 8458 C 794.964 1.66203 3.19225 0
M  V30 8459 C 794.572 3.17299 3.16267 0
M  V30 8460 C 796.316 1.52725 3.96075 0
M  V30 8461 C 794.223 3.8055 4.52698 0
M  V30 8462 H 793.153 0.354204 0.665624 0
M  V30 8463 H 795.804 1.40612 1.17901 0
M  V30 8464 H 794.186 1.14006 3.79234 0
M  V30 8465 H 795.36 3.76431 2.65776 0
M  V30 8466 H 793.675 3.3079 2.52917 0
M  V30 8467 H 796.272 1.97351 4.96947 0
M  V30 8468 H 796.615 0.477803 4.13549 0
M  V30 8469 H 797.148 2.02139 3.42614 0
M  V30 8470 H 793.887 4.85492 4.4043 0
M  V30 8471 H 793.407 3.26206 5.03339 0
M  V30 8472 H 795.086 3.82757 5.21638 0
M  V30 8473 N 795.218 -1.23913 0.973828 0
M  V30 8474 C 796.128 -2.28838 0.516735 0
M  V30 8475 C 797.144 -1.68723 -0.425282 0
M  V30 8476 O 798.32 -1.99201 -0.296819 0
M  V30 8477 C 795.385 -3.46233 -0.179914 0
M  V30 8478 C 794.446 -4.21729 0.80269 0
M  V30 8479 C 793.679 -5.33518 0.139191 0
M  V30 8480 O 793.902 -5.60252 -1.07118 0
M  V30 8481 O 792.836 -5.96088 0.834447 0
M  V30 8482 H 796.662 -2.70067 1.38916 0
M  V30 8483 H 794.247 -1.2972 0.74115 0
M  V30 8484 H 796.129 -4.17514 -0.570991 0
M  V30 8485 H 794.804 -3.06969 -1.02721 0
M  V30 8486 H 793.711 -3.52799 1.24434 0
M  V30 8487 H 795.044 -4.64825 1.61859 0
M  V30 8488 N 796.696 -0.74468 -1.38897 0
M  V30 8489 C 797.606 -0.112892 -2.34328 0
M  V30 8490 C 798.622 0.71087 -1.58816 0
M  V30 8491 O 799.798 0.637092 -1.91058 0
M  V30 8492 C 796.863 0.776417 -3.37894 0
M  V30 8493 C 795.924 -0.0606999 -4.29257 0
M  V30 8494 C 795.157 0.786258 -5.27877 0
M  V30 8495 O 795.38 2.02463 -5.33259 0
M  V30 8496 O 794.314 0.209781 -6.01534 0
M  V30 8497 H 798.14 -0.900801 -2.90033 0
M  V30 8498 H 795.725 -0.505462 -1.4059 0
M  V30 8499 H 797.607 1.28496 -4.01331 0
M  V30 8500 H 796.282 1.54297 -2.84559 0
M  V30 8501 H 795.189 -0.614984 -3.69011 0
M  V30 8502 H 796.522 -0.789702 -4.85824 0
M  V30 8503 N 798.174 1.49689 -0.493057 0
M  V30 8504 C 799.399 2.07331 0.0535114 0
M  V30 8505 C 799.824 1.35196 1.30781 0
M  V30 8506 O 799.182 0.406246 1.7669 0
M  V30 8507 C 799.23 3.59364 0.29825 0
M  V30 8508 O 798.334 3.88819 1.37454 0
M  V30 8509 H 797.675 0.663612 -0.0227018 0
M  V30 8510 H 800.205 1.926 -0.690402 0
M  V30 8511 H 800.215 4.04515 0.532159 0
M  V30 8512 H 798.89 4.1128 -0.618207 0
M  V30 8513 H 797.467 3.55487 1.12621 0
M  V30 8514 N 799.652 0.226554 1.55963 0
M  V30 8515 C 800.9 -0.402991 1.98041 0
M  V30 8516 C 801.221 -1.59938 1.11557 0
M  V30 8517 O 800.491 -1.9494 0.193719 0
M  V30 8518 H 799.071 -0.15188 0.731397 0
M  V30 8519 H 801.733 0.320613 1.92245 0
M  V30 8520 H 800.829 -0.725937 3.0354 0
M  V30 8521 N 801.13 -1.57531 -0.0467866 0
M  V30 8522 C 802.04 -2.08768 -1.07018 0
M  V30 8523 C 803.056 -1.02245 -1.40791 0
M  V30 8524 O 804.232 -1.33873 -1.50466 0
M  V30 8525 C 801.297 -2.54221 -2.35738 0
M  V30 8526 C 800.358 -3.75152 -2.08709 0
M  V30 8527 C 799.591 -4.18428 -3.31291 0
M  V30 8528 O 799.814 -3.61365 -4.4133 0
M  V30 8529 O 798.748 -5.11018 -3.18032 0
M  V30 8530 H 802.574 -2.96334 -0.664812 0
M  V30 8531 H 800.159 -1.47074 -0.262605 0
M  V30 8532 H 802.041 -2.83866 -3.11445 0
M  V30 8533 H 800.716 -1.69774 -2.75605 0
M  V30 8534 H 799.623 -3.50553 -1.30627 0
M  V30 8535 H 800.956 -4.60528 -1.73708 0
M  V30 8536 N 802.608 0.318715 -1.54344 0
M  V30 8537 C 803.558 1.39364 -1.80448 0
M  V30 8538 C 804.542 1.46708 -0.660728 0
M  V30 8539 O 805.734 1.51159 -0.920869 0
M  V30 8540 C 802.863 2.76144 -2.03959 0
M  V30 8541 C 801.949 2.73094 -3.24469 0
M  V30 8542 N 802.34 2.39663 -4.45416 0
M  V30 8543 C 800.638 3.04218 -3.2614 0
M  V30 8544 C 801.339 2.45469 -5.27371 0
M  V30 8545 N 800.315 2.82107 -4.64668 0
M  V30 8546 H 804.117 1.12453 -2.71535 0
M  V30 8547 H 801.631 0.527221 -1.53604 0
M  V30 8548 H 803.628 3.53627 -2.20802 0
M  V30 8549 H 802.288 3.03982 -1.14129 0
M  V30 8550 H 803.299 2.12424 -4.72331 0
M  V30 8551 H 799.976 3.37066 -2.4636 0
M  V30 8552 H 801.366 2.22571 -6.33965 0
M  V30 8553 N 804.086 1.46499 0.581025 0
M  V30 8554 C 805.335 1.51162 1.3354 0
M  V30 8555 C 805.648 0.168433 1.94873 0
M  V30 8556 O 806.854 0.092883 2.71341 0
M  V30 8557 C 805.31 2.66362 2.42032 0
M  V30 8558 C 804.918 4.07109 1.86994 0
M  V30 8559 C 806.662 2.80297 3.188 0
M  V30 8560 C 804.569 5.13645 2.93125 0
M  V30 8561 H 803.499 0.562576 0.502021 0
M  V30 8562 H 806.15 1.72713 0.619863 0
M  V30 8563 H 804.532 2.38143 3.16392 0
M  V30 8564 H 805.706 4.45125 1.19166 0
M  V30 8565 H 804.021 3.97854 1.22887 0
M  V30 8566 H 806.618 3.5706 3.9801 0
M  V30 8567 H 806.961 1.87875 3.71495 0
M  V30 8568 H 807.494 3.0817 2.51547 0
M  V30 8569 H 804.233 6.07866 2.45315 0
M  V30 8570 H 803.753 4.80172 3.59437 0
M  V30 8571 H 805.432 5.39562 3.57046 0
M  V30 8572 N 805.565 -0.825799 1.34232 0
M  V30 8573 C 806.814 -1.57686 1.2577 0
M  V30 8574 C 807.127 -1.94848 -0.171372 0
M  V30 8575 O 808.333 -2.68854 -0.378123 0
M  V30 8576 C 806.789 -2.84478 2.20454 0
M  V30 8577 C 806.397 -2.54629 3.68603 0
M  V30 8578 C 808.141 -3.625 2.20893 0
M  V30 8579 C 806.048 -3.77597 4.55164 0
M  V30 8580 H 804.978 -0.591809 0.467203 0
M  V30 8581 H 807.629 -0.909421 1.59379 0
M  V30 8582 H 806.011 -3.52832 1.79793 0
M  V30 8583 H 807.185 -1.94404 4.17784 0
M  V30 8584 H 805.5 -1.89888 3.70582 0
M  V30 8585 H 808.097 -4.538 2.82789 0
M  V30 8586 H 808.44 -3.98404 1.20746 0
M  V30 8587 H 808.973 -3.01086 2.59985 0
M  V30 8588 H 805.712 -3.46815 5.56237 0
M  V30 8589 H 805.232 -4.37116 4.10719 0
M  V30 8590 H 806.911 -4.45039 4.69627 0
M  V30 8591 N 807.043 -1.17915 -1.04565 0
M  V30 8592 C 808.006 -0.903787 -2.10628 0
M  V30 8593 C 809.006 0.10873 -1.60432 0
M  V30 8594 O 810.196 -0.124152 -1.73757 0
M  V30 8595 C 807.328 -0.355017 -3.39046 0
M  V30 8596 H 808.521 -1.84425 -2.3649 0
M  V30 8597 H 806.074 -0.990477 -1.2091 0
M  V30 8598 H 806.809 0.592297 -3.18845 0
M  V30 8599 H 806.594 -1.08484 -3.76794 0
M  V30 8600 H 808.084 -0.180891 -4.17208 0
M  V30 8601 N 808.521 1.23394 -0.980386 0
M  V30 8602 C 809.769 1.91431 -0.647978 0
M  V30 8603 C 810.09 1.76871 0.821066 0
M  V30 8604 O 809.36 1.14808 1.58732 0
M  V30 8605 H 807.94 0.708516 -0.236673 0
M  V30 8606 H 810.602 1.50019 -1.2442 0
M  V30 8607 H 809.698 2.98854 -0.899592 0
M  V30 8608 N 809.999 0.752036 1.385 0
M  V30 8609 C 810.962 0.131587 2.28822 0
M  V30 8610 C 811.962 -0.649149 1.47115 0
M  V30 8611 O 813.152 -0.475645 1.67581 0
M  V30 8612 C 810.284 -0.822101 3.30839 0
M  V30 8613 H 811.477 0.927551 2.85196 0
M  V30 8614 H 809.03 0.518945 1.47434 0
M  V30 8615 H 809.765 -1.6438 2.79553 0
M  V30 8616 H 809.55 -0.264689 3.91206 0
M  V30 8617 H 811.04 -1.25226 3.98382 0
M  V30 8618 N 811.477 -1.49425 0.500989 0
M  V30 8619 C 812.725 -2.02053 -0.0434495 0
M  V30 8620 C 813.046 -1.38285 -1.37486 0
M  V30 8621 O 812.316 -0.538171 -1.88363 0
M  V30 8622 H 810.896 -0.746757 -0.0190469 0
M  V30 8623 H 813.558 -1.83449 0.658227 0
M  V30 8624 H 812.654 -3.11619 -0.173129 0
M  V30 8625 N 812.955 -0.234822 -1.55841 0
M  V30 8626 C 813.865 0.680828 -2.24504 0
M  V30 8627 C 814.881 1.20306 -1.25708 0
M  V30 8628 O 816.057 1.24188 -1.58554 0
M  V30 8629 C 813.122 1.86636 -2.92178 0
M  V30 8630 C 812.183 1.3848 -4.06352 0
M  V30 8631 C 811.416 2.51382 -4.70789 0
M  V30 8632 O 811.639 3.69831 -4.34259 0
M  V30 8633 O 810.573 2.21828 -5.59532 0
M  V30 8634 H 814.399 0.12583 -3.03439 0
M  V30 8635 H 811.984 -0.00381817 -1.494 0
M  V30 8636 H 813.866 2.55845 -3.34845 0
M  V30 8637 H 812.541 2.40921 -2.16192 0
M  V30 8638 H 811.448 0.660341 -3.68226 0
M  V30 8639 H 812.781 0.888177 -4.8412 0
M  V30 8640 N 814.433 1.57553 0.0384317 0
M  V30 8641 C 815.363 2.0898 1.04161 0
M  V30 8642 C 816.344 0.99029 1.38301 0
M  V30 8643 O 817.529 1.26499 1.47349 0
M  V30 8644 C 814.659 2.56145 2.34536 0
M  V30 8645 C 813.613 3.70275 2.14663 0
M  V30 8646 C 812.939 4.03612 3.50715 0
M  V30 8647 C 814.239 4.99067 1.54045 0
M  V30 8648 H 815.933 2.93046 0.613548 0
M  V30 8649 H 813.479 1.40973 0.293684 0
M  V30 8650 H 815.432 2.90741 3.05037 0
M  V30 8651 H 814.156 1.6915 2.79385 0
M  V30 8652 H 812.815 3.36013 1.46597 0
M  V30 8653 H 812.463 3.13698 3.93195 0
M  V30 8654 H 812.163 4.80482 3.38247 0
M  V30 8655 H 813.687 4.40735 4.22593 0
M  V30 8656 H 815.101 5.3168 2.14451 0
M  V30 8657 H 813.498 5.80484 1.52178 0
M  V30 8658 H 814.568 4.8226 0.505259 0
M  V30 8659 N 815.911 -0.310526 1.54511 0
M  V30 8660 C 816.861 -1.38405 1.81185 0
M  V30 8661 C 817.845 -1.46355 0.668499 0
M  V30 8662 O 819.037 -1.50668 0.928873 0
M  V30 8663 C 816.166 -2.75059 2.0542 0
M  V30 8664 C 815.252 -2.7137 3.25913 0
M  V30 8665 N 815.643 -2.37298 4.4668 0
M  V30 8666 C 813.941 -3.02484 3.27749 0
M  V30 8667 C 814.642 -2.42669 5.28665 0
M  V30 8668 N 813.618 -2.79639 4.66158 0
M  V30 8669 H 817.42 -1.11012 2.72128 0
M  V30 8670 H 814.934 -0.519068 1.53881 0
M  V30 8671 H 816.931 -3.52451 2.22674 0
M  V30 8672 H 815.591 -3.03372 1.15739 0
M  V30 8673 H 816.602 -2.09917 4.73451 0
M  V30 8674 H 813.279 -3.35754 2.48144 0
M  V30 8675 H 814.669 -2.19206 6.35136 0
M  V30 8676 N 817.389 -1.46805 -0.573248 0
M  V30 8677 C 818.319 -1.60951 -1.69165 0
M  V30 8678 C 819.3 -0.45948 -1.63777 0
M  V30 8679 O 820.485 -0.68688 -1.81647 0
M  V30 8680 C 817.615 -1.60844 -3.07809 0
M  V30 8681 C 816.569 -2.74913 -3.28035 0
M  V30 8682 C 815.895 -2.59871 -4.67302 0
M  V30 8683 C 817.195 -4.16654 -3.14955 0
M  V30 8684 H 818.889 -2.54574 -1.57582 0
M  V30 8685 H 816.435 -1.22516 -0.756686 0
M  V30 8686 H 818.388 -1.69334 -3.85881 0
M  V30 8687 H 817.112 -0.637714 -3.20314 0
M  V30 8688 H 815.771 -2.65908 -2.52366 0
M  V30 8689 H 815.419 -1.60861 -4.76585 0
M  V30 8690 H 815.119 -3.36386 -4.81786 0
M  V30 8691 H 816.643 -2.70265 -5.4753 0
M  V30 8692 H 818.057 -4.26721 -3.82861 0
M  V30 8693 H 816.454 -4.93831 -3.40956 0
M  V30 8694 H 817.524 -4.36146 -2.11908 0
M  V30 8695 N 818.867 0.818669 -1.34668 0
M  V30 8696 C 819.777 1.9616 -1.2868 0
M  V30 8697 C 820.793 1.72918 -0.193742 0
M  V30 8698 O 821.969 1.96951 -0.420975 0
M  V30 8699 C 819.034 3.30534 -1.04633 0
M  V30 8700 C 818.095 3.66755 -2.23136 0
M  V30 8701 C 817.328 4.94717 -2.00227 0
M  V30 8702 O 817.551 5.62218 -0.96264 0
M  V30 8703 O 816.485 5.28915 -2.87286 0
M  V30 8704 H 820.311 2.04157 -2.24842 0
M  V30 8705 H 817.896 0.954691 -1.14917 0
M  V30 8706 H 819.778 4.11005 -0.930216 0
M  V30 8707 H 818.453 3.23495 -0.115139 0
M  V30 8708 H 817.36 2.8671 -2.40308 0
M  V30 8709 H 818.693 3.78484 -3.1466 0
M  V30 8710 N 820.346 1.18468 1.03938 0
M  V30 8711 C 821.595 0.975193 1.76558 0
M  V30 8712 C 821.908 -0.495978 1.89207 0
M  V30 8713 O 823.114 -0.824009 2.58694 0
M  V30 8714 C 821.57 1.69579 3.17444 0
M  V30 8715 C 821.178 3.20636 3.12884 0
M  V30 8716 C 822.922 1.56917 3.94433 0
M  V30 8717 C 820.829 3.8533 4.48636 0
M  V30 8718 H 819.759 0.361244 0.66183 0
M  V30 8719 H 822.41 1.41854 1.16403 0
M  V30 8720 H 820.792 1.18022 3.78004 0
M  V30 8721 H 821.966 3.79228 2.61768 0
M  V30 8722 H 820.281 3.33454 2.49394 0
M  V30 8723 H 822.878 2.02611 4.94826 0
M  V30 8724 H 823.221 0.521638 4.13019 0
M  V30 8725 H 823.754 2.05762 3.40451 0
M  V30 8726 H 820.493 4.90136 4.35255 0
M  V30 8727 H 820.013 3.31526 4.99851 0
M  V30 8728 H 821.692 3.88269 5.17549 0
M  V30 8729 N 821.824 -1.22873 0.986916 0
M  V30 8730 C 823.064 -1.93192 0.667543 0
M  V30 8731 C 823.428 -1.7521 -0.785196 0
M  V30 8732 O 824.629 -2.39737 -1.2157 0
M  V30 8733 C 822.9 -3.4147 1.05513 0
M  V30 8734 S 824.459 -4.30425 0.853218 0
M  V30 8735 H 821.277 -0.667726 0.244261 0
M  V30 8736 H 823.879 -1.48808 1.26793 0
M  V30 8737 H 822.583 -3.52069 2.10892 0
M  V30 8738 H 822.114 -3.9086 0.446293 0
M  V30 8739 H 824.129 -4.95521 -0.259444 0
M  V30 8740 N 823.302 -0.75937 -1.38099 0
M  V30 8741 C 824.232 -0.151077 -2.33011 0
M  V30 8742 C 825.213 0.697099 -1.5516 0
M  V30 8743 O 826.398 0.637101 -1.83452 0
M  V30 8744 C 823.528 0.738423 -3.39359 0
M  V30 8745 C 822.482 -0.0074741 -4.27999 0
M  V30 8746 C 821.808 1.00066 -5.25253 0
M  V30 8747 C 823.108 -1.17926 -5.08813 0
M  V30 8748 H 824.802 -0.943933 -2.84131 0
M  V30 8749 H 822.348 -0.455362 -1.36611 0
M  V30 8750 H 824.301 1.17369 -4.04725 0
M  V30 8751 H 823.025 1.56366 -2.86735 0
M  V30 8752 H 821.684 -0.423379 -3.64147 0
M  V30 8753 H 821.332 1.82012 -4.68914 0
M  V30 8754 H 821.032 0.506199 -5.85416 0
M  V30 8755 H 822.556 1.43512 -5.93495 0
M  V30 8756 H 823.97 -0.821262 -5.67387 0
M  V30 8757 H 822.367 -1.60497 -5.78239 0
M  V30 8758 H 823.437 -1.98938 -4.42212 0
M  V30 8759 N 824.78 1.49157 -0.508906 0
M  V30 8760 C 825.727 2.2927 0.265288 0
M  V30 8761 C 826.697 1.3603 0.953162 0
M  V30 8762 O 827.882 1.64989 0.958291 0
M  V30 8763 C 825.022 3.18897 1.31904 0
M  V30 8764 C 824.135 4.27201 0.642144 0
M  V30 8765 C 823.27 5.04033 1.67701 0
M  V30 8766 C 822.309 6.04165 0.982422 0
M  V30 8767 N 821.446 6.74133 1.96186 0
M  V30 8768 H 826.286 2.94967 -0.424107 0
M  V30 8769 H 823.823 1.45431 -0.220991 0
M  V30 8770 H 825.781 3.69242 1.94206 0
M  V30 8771 H 824.411 2.55168 1.97709 0
M  V30 8772 H 823.463 3.80283 -0.0943395 0
M  V30 8773 H 824.775 4.98708 0.0957507 0
M  V30 8774 H 823.929 5.58287 2.37487 0
M  V30 8775 H 822.668 4.32317 2.25728 0
M  V30 8776 H 821.673 5.49135 0.270378 0
M  V30 8777 H 822.898 6.7787 0.408554 0
M  V30 8778 H 820.844 6.05183 2.53159 0
M  V30 8779 H 820.761 7.41643 1.46634 0
M  V30 8780 H 822.029 7.32987 2.65236 0
M  V30 8781 N 826.258 0.243083 1.55714 0
M  V30 8782 C 827.535 -0.432851 1.90751 0
M  V30 8783 C 827.915 -1.76153 1.16333 0
M  V30 8784 O 827.263 -2.26783 0.279565 0
M  V30 8785 C 827.473 -0.604685 3.43722 0
M  V30 8786 C 828.821 -0.90231 4.14902 0
M  V30 8787 O 829.845 -0.690689 3.49439 0
M  V30 8788 O 828.704 -1.3051 5.30688 0
M  V30 8789 H 825.798 -0.231835 0.79384 0
M  V30 8790 H 828.344 0.286867 1.67258 0
M  V30 8791 H 827.116 0.331655 3.89892 0
M  V30 8792 H 826.739 -1.37509 3.73065 0
M  V30 8793 N 827.736 -1.57571 -0.0300757 0
M  V30 8794 C 828.666 -2.0953 -1.03051 0
M  V30 8795 C 829.647 -0.99761 -1.37774 0
M  V30 8796 O 830.832 -1.27279 -1.46676 0
M  V30 8797 C 827.962 -2.57385 -2.33174 0
M  V30 8798 C 826.916 -3.71409 -2.12696 0
M  V30 8799 C 826.242 -4.05467 -3.4857 0
M  V30 8800 C 827.542 -4.99877 -1.51396 0
M  V30 8801 H 829.236 -2.93367 -0.597999 0
M  V30 8802 H 826.782 -1.41127 -0.286203 0
M  V30 8803 H 828.735 -2.92355 -3.03491 0
M  V30 8804 H 827.459 -1.70629 -2.78484 0
M  V30 8805 H 826.118 -3.36786 -1.44813 0
M  V30 8806 H 825.766 -3.15779 -3.91526 0
M  V30 8807 H 825.466 -4.82269 -3.35694 0
M  V30 8808 H 826.99 -4.4297 -4.2025 0
M  V30 8809 H 828.404 -5.3281 -2.11629 0
M  V30 8810 H 826.801 -5.81283 -1.49098 0
M  V30 8811 H 827.871 -4.82522 -0.479676 0
M  V30 8812 N 829.214 0.302327 -1.54673 0
M  V30 8813 C 830.124 1.39542 -1.88587 0
M  V30 8814 C 831.14 1.55543 -0.779895 0
M  V30 8815 O 832.316 1.70233 -1.07623 0
M  V30 8816 C 829.381 2.7394 -2.12504 0
M  V30 8817 C 828.442 2.66935 -3.3622 0
M  V30 8818 C 827.675 3.94923 -3.58987 0
M  V30 8819 O 827.898 4.94218 -2.84789 0
M  V30 8820 O 826.832 3.96896 -4.52501 0
M  V30 8821 H 830.658 1.13784 -2.81579 0
M  V30 8822 H 828.243 0.49827 -1.40846 0
M  V30 8823 H 830.125 3.5346 -2.29443 0
M  V30 8824 H 828.8 2.99544 -1.22698 0
M  V30 8825 H 827.707 1.85892 -3.24646 0
M  V30 8826 H 829.04 2.46283 -4.26152 0
M  V30 8827 N 830.692 1.47107 0.565454 0
M  V30 8828 C 831.602 1.61591 1.70075 0
M  V30 8829 C 832.618 0.498931 1.66693 0
M  V30 8830 O 833.794 0.765372 1.8629 0
M  V30 8831 C 830.859 1.61887 3.06583 0
M  V30 8832 C 829.92 2.84949 3.21096 0
M  V30 8833 C 829.153 2.85221 4.51093 0
M  V30 8834 O 829.376 1.94959 5.36048 0
M  V30 8835 O 828.31 3.76982 4.69221 0
M  V30 8836 H 832.136 2.57638 1.60799 0
M  V30 8837 H 829.721 1.30097 0.73451 0
M  V30 8838 H 831.603 1.64809 3.87835 0
M  V30 8839 H 830.278 0.69005 3.16259 0
M  V30 8840 H 829.185 2.87575 2.39273 0
M  V30 8841 H 830.518 3.77098 3.1632 0
M  V30 8842 N 832.17 -0.811516 1.35101 0
M  V30 8843 C 833.447 -1.55491 1.18667 0
M  V30 8844 C 833.827 -2.09775 -0.236189 0
M  V30 8845 O 833.175 -1.91989 -1.23905 0
M  V30 8846 C 833.385 -2.66732 2.25067 0
M  V30 8847 C 834.733 -3.35201 2.60625 0
M  V30 8848 O 835.757 -2.76998 2.23943 0
M  V30 8849 O 834.616 -4.40334 3.23679 0
M  V30 8850 H 831.71 -0.686783 0.460716 0
M  V30 8851 H 834.256 -0.851903 1.46768 0
M  V30 8852 H 833.028 -2.24457 3.20523 0
M  V30 8853 H 832.651 -3.44673 1.98208 0
M  V30 8854 N 833.648 -1.19017 -1.03309 0
M  V30 8855 C 834.598 -0.89194 -2.0983 0
M  V30 8856 C 835.582 0.14151 -1.60277 0
M  V30 8857 O 836.774 -0.0635946 -1.76886 0
M  V30 8858 C 833.903 -0.427793 -3.40624 0
M  V30 8859 C 832.989 -1.49374 -3.96923 0
M  V30 8860 N 833.38 -2.71213 -4.26939 0
M  V30 8861 C 831.678 -1.35605 -4.24885 0
M  V30 8862 C 832.379 -3.39849 -4.72099 0
M  V30 8863 N 831.355 -2.67239 -4.73375 0
M  V30 8864 H 835.157 -1.81801 -2.30923 0
M  V30 8865 H 832.671 -1.08171 -1.21131 0
M  V30 8866 H 834.668 -0.195608 -4.16441 0
M  V30 8867 H 833.328 0.491848 -3.20953 0
M  V30 8868 H 834.339 -3.08014 -4.16351 0
M  V30 8869 H 831.016 -0.499537 -4.14501 0
M  V30 8870 H 832.406 -4.44018 -5.04279 0
M  V30 8871 N 835.127 1.22348 -0.993418 0
M  V30 8872 C 836.09 2.22522 -0.549251 0
M  V30 8873 C 837.09 1.56529 0.368164 0
M  V30 8874 O 838.28 1.73463 0.16005 0
M  V30 8875 C 835.412 3.40307 0.201037 0
M  V30 8876 H 836.605 2.63332 -1.43515 0
M  V30 8877 H 834.158 1.35407 -0.78068 0
M  V30 8878 H 834.893 3.0497 1.10289 0
M  V30 8879 H 834.678 3.8942 -0.457685 0
M  V30 8880 H 836.168 4.14597 0.499946 0
M  V30 8881 N 836.605 0.766683 1.37694 0
M  V30 8882 C 837.845 0.333815 2.01656 0
M  V30 8883 C 838.209 -1.06813 1.59546 0
M  V30 8884 O 839.41 -1.60084 2.15932 0
M  V30 8885 C 837.681 0.467032 3.54335 0
M  V30 8886 S 839.24 0.118679 4.38639 0
M  V30 8887 H 836.058 0.128723 0.699251 0
M  V30 8888 H 838.66 1.00018 1.67978 0
M  V30 8889 H 837.364 1.48808 3.82471 0
M  V30 8890 H 836.895 -0.216066 3.92806 0
M  V30 8891 H 838.91 -1.08746 4.84137 0
M  V30 8892 N 838.083 -1.48885 0.516809 0
M  V30 8893 C 839.332 -2.01686 -0.0239899 0
M  V30 8894 C 839.645 -1.40029 -1.3657 0
M  V30 8895 O 840.851 -1.84249 -1.9941 0
M  V30 8896 C 839.307 -3.59779 -0.0931825 0
M  V30 8897 C 838.915 -4.30416 1.24283 0
M  V30 8898 C 840.659 -4.20471 -0.583507 0
M  V30 8899 C 838.566 -5.80408 1.13494 0
M  V30 8900 H 837.496 -0.753892 -0.0127376 0
M  V30 8901 H 840.147 -1.71273 0.65861 0
M  V30 8902 H 838.529 -3.86976 -0.840577 0
M  V30 8903 H 839.703 -4.14905 2.00476 0
M  V30 8904 H 838.018 -3.81539 1.66785 0
M  V30 8905 H 840.615 -5.30333 -0.681987 0
M  V30 8906 H 840.958 -3.84898 -1.58617 0
M  V30 8907 H 841.491 -3.97654 0.107814 0
M  V30 8908 H 838.23 -6.20532 2.11235 0
M  V30 8909 H 837.75 -5.98368 0.414167 0
M  V30 8910 H 839.429 -6.41781 0.820162 0
M  V30 8911 N 839.561 -0.251338 -1.55583 0
M  V30 8912 C 840.972 0.25098 -1.85005 0
M  V30 8913 C 841.323 1.57259 -1.17321 0
M  V30 8914 O 840.448 2.11603 -0.453136 0
M  V30 8915 C 841.043 0.462161 -3.35633 0
M  V30 8916 C 839.602 0.908737 -3.65266 0
M  V30 8917 C 838.749 -0.0115418 -2.77298 0
M  V30 8918 H 841.7 -0.473782 -1.51463 0
M  V30 8919 H 841.721 1.30415 -3.57452 0
M  V30 8920 H 841.233 -0.499886 -3.84867 0
M  V30 8921 H 839.334 1.8831 -3.21512 0
M  V30 8922 H 839.447 0.762526 -4.72993 0
M  V30 8923 H 837.811 0.500612 -2.49732 0
M  V30 8924 H 838.594 -0.969042 -3.29339 0
M  V30 8925 N 841.039 1.57585 0.0217189 0
M  V30 8926 C 842.288 1.88786 0.710125 0
M  V30 8927 C 842.601 0.850819 1.76126 0
M  V30 8928 O 843.807 1.0523 2.50277 0
M  V30 8929 C 842.263 3.3505 1.31413 0
M  V30 8930 C 841.871 4.47001 0.298959 0
M  V30 8931 C 843.615 3.7539 1.98199 0
M  V30 8932 C 841.522 5.8433 0.911727 0
M  V30 8933 H 840.452 0.704388 0.268986 0
M  V30 8934 H 843.103 1.83466 -0.0352638 0
M  V30 8935 H 841.485 3.35138 2.10947 0
M  V30 8936 H 842.659 4.58395 -0.470203 0
M  V30 8937 H 840.974 4.15542 -0.267222 0
M  V30 8938 H 843.571 4.75314 2.4491 0
M  V30 8939 H 843.914 3.07766 2.80331 0
M  V30 8940 H 844.447 3.77508 1.2543 0
M  V30 8941 H 841.186 6.55372 0.129659 0
M  V30 8942 H 840.706 5.76643 1.65056 0
M  V30 8943 H 842.385 6.31295 1.41688 0
M  V30 8944 N 842.517 -0.29412 1.54831 0
M  V30 8945 C 843.464 -1.36296 1.86258 0
M  V30 8946 C 844.434 -1.50061 0.712097 0
M  V30 8947 O 845.619 -1.64809 0.961381 0
M  V30 8948 C 842.759 -2.72187 2.12151 0
M  V30 8949 C 841.872 -2.66816 3.39755 0
M  V30 8950 C 841.007 -3.94747 3.55455 0
M  V30 8951 C 840.046 -3.838 4.76827 0
M  V30 8952 N 839.183 -5.03521 4.89296 0
M  V30 8953 H 844.023 -1.08796 2.7743 0
M  V30 8954 H 841.56 -0.526069 1.37371 0
M  V30 8955 H 843.518 -3.51225 2.25159 0
M  V30 8956 H 842.148 -2.97934 1.24237 0
M  V30 8957 H 841.2 -1.79605 3.3533 0
M  V30 8958 H 842.512 -2.5462 4.28917 0
M  V30 8959 H 841.666 -4.82223 3.68166 0
M  V30 8960 H 840.405 -4.09785 2.64438 0
M  V30 8961 H 839.41 -2.94708 4.64141 0
M  V30 8962 H 840.635 -3.70301 5.69258 0
M  V30 8963 H 838.581 -5.1901 4.01204 0
M  V30 8964 H 838.498 -4.93775 5.72471 0
M  V30 8965 H 839.766 -5.92629 5.06371 0
M  V30 8966 N 843.995 -1.47404 -0.557645 0
M  V30 8967 C 844.942 -1.59859 -1.66475 0
M  V30 8968 C 845.912 -0.441644 -1.60121 0
M  V30 8969 O 847.097 -0.661641 -1.78961 0
M  V30 8970 C 844.237 -1.61843 -3.04797 0
M  V30 8971 C 843.35 -2.8845 -3.2159 0
M  V30 8972 C 842.485 -2.81773 -4.50308 0
M  V30 8973 C 841.524 -4.03208 -4.60532 0
M  V30 8974 N 840.661 -3.94769 -5.80604 0
M  V30 8975 H 845.501 -2.54415 -1.55168 0
M  V30 8976 H 843.038 -1.26194 -0.755876 0
M  V30 8977 H 844.996 -1.60976 -3.84893 0
M  V30 8978 H 843.626 -0.707997 -3.1494 0
M  V30 8979 H 842.678 -2.99186 -2.34929 0
M  V30 8980 H 843.99 -3.78379 -3.25009 0
M  V30 8981 H 843.144 -2.79153 -5.38663 0
M  V30 8982 H 841.883 -1.89527 -4.49367 0
M  V30 8983 H 840.888 -4.06133 -3.70589 0
M  V30 8984 H 842.113 -4.9658 -4.63233 0
M  V30 8985 H 840.059 -3.05326 -5.80613 0
M  V30 8986 H 839.976 -4.78375 -5.854 0
M  V30 8987 H 841.244 -3.96165 -6.71322 0
M  V30 8988 N 845.473 0.80434 -1.35529 0
M  V30 8989 C 846.698 1.598 -1.32207 0
M  V30 8990 C 847.123 1.87848 0.0974226 0
M  V30 8991 O 846.481 1.46728 1.06492 0
M  V30 8992 C 846.529 2.90483 -2.13663 0
M  V30 8993 O 845.633 3.83411 -1.51888 0
M  V30 8994 H 844.974 0.485305 -0.453183 0
M  V30 8995 H 847.504 0.998119 -1.78602 0
M  V30 8996 H 847.514 3.39888 -2.257 0
M  V30 8997 H 846.189 2.69395 -3.16859 0
M  V30 8998 H 844.766 3.41967 -1.48704 0
M  V30 8999 N 846.951 1.19563 1.02676 0
M  V30 9000 C 848.228 0.908857 1.73203 0
M  V30 9001 C 848.608 -0.584928 2.02834 0
M  V30 9002 O 847.956 -1.54372 1.68469 0
M  V30 9003 C 848.166 1.77105 3.00724 0
M  V30 9004 C 849.514 2.00667 3.7419 0
M  V30 9005 O 850.538 1.74274 3.10656 0
M  V30 9006 O 849.397 2.4518 4.88415 0
M  V30 9007 H 846.491 0.338909 0.754367 0
M  V30 9008 H 849.037 1.30387 1.08616 0
M  V30 9009 H 847.809 2.78303 2.7507 0
M  V30 9010 H 847.432 1.37546 3.73051 0
M  V30 9011 N 848.429 -1.21819 0.999893 0
M  V30 9012 C 849.84 -1.72517 0.713775 0
M  V30 9013 C 850.191 -1.80505 -0.768922 0
M  V30 9014 O 849.316 -1.45611 -1.60083 0
M  V30 9015 C 849.911 -3.13321 1.28901 0
M  V30 9016 C 848.47 -3.61396 1.05212 0
M  V30 9017 C 847.617 -2.39074 1.40494 0
M  V30 9018 H 850.568 -1.07068 1.17141 0
M  V30 9019 H 850.589 -3.74535 0.671084 0
M  V30 9020 H 850.101 -3.07475 2.36814 0
M  V30 9021 H 848.202 -3.72599 -0.0100732 0
M  V30 9022 H 848.315 -4.47145 1.72042 0
M  V30 9023 H 846.679 -2.41015 0.823642 0
M  V30 9024 H 847.462 -2.35884 2.49427 0
M  V30 9025 N 849.908 -0.773975 -1.37286 0
M  V30 9026 C 851.154 -0.339809 -1.99933 0
M  V30 9027 C 851.487 1.0815 -1.61299 0
M  V30 9028 O 850.762 1.74442 -0.860252 0
M  V30 9029 C 851.045 -0.485919 -3.56806 0
M  V30 9030 C 850.898 -1.9498 -4.05343 0
M  V30 9031 C 852.217 0.108461 -4.39966 0
M  V30 9032 H 849.336 -0.124944 -0.726332 0
M  V30 9033 H 851.978 -0.977433 -1.6293 0
M  V30 9034 H 850.128 0.0569023 -3.88458 0
M  V30 9035 H 851.8 -2.5525 -3.84246 0
M  V30 9036 H 850.043 -2.45784 -3.57453 0
M  V30 9037 H 850.714 -2.00308 -5.14374 0
M  V30 9038 H 853.19 -0.354722 -4.14585 0
M  V30 9039 H 852.066 -0.0238926 -5.48895 0
M  V30 9040 H 852.327 1.19901 -4.25531 0
M  V30 9041 N 851.386 1.48609 -0.524698 0
M  V30 9042 C 852.632 2.02797 0.0113382 0
M  V30 9043 C 852.965 1.40147 1.34433 0
M  V30 9044 O 852.24 0.545368 1.86698 0
M  V30 9045 C 852.523 3.59832 0.138931 0
M  V30 9046 C 852.376 4.32971 -1.21886 0
M  V30 9047 C 853.695 4.3145 0.868265 0
M  V30 9048 H 850.814 0.736995 0.00264645 0
M  V30 9049 H 853.456 1.77388 -0.680704 0
M  V30 9050 H 851.606 3.81612 0.72834 0
M  V30 9051 H 853.278 4.22624 -1.84897 0
M  V30 9052 H 851.521 3.94597 -1.80211 0
M  V30 9053 H 852.192 5.41279 -1.08263 0
M  V30 9054 H 854.668 4.14468 0.368145 0
M  V30 9055 H 853.544 5.41025 0.926428 0
M  V30 9056 H 853.805 3.98358 1.91737 0
M  V30 9057 N 852.864 0.259585 1.55447 0
M  V30 9058 C 854.089 -0.368317 2.04103 0
M  V30 9059 C 854.514 -1.49827 1.13725 0
M  V30 9060 O 853.872 -1.80814 0.132705 0
M  V30 9061 C 853.92 -0.841506 3.50644 0
M  V30 9062 O 853.024 -1.95008 3.63381 0
M  V30 9063 H 852.365 -0.0785227 0.659341 0
M  V30 9064 H 854.895 0.389349 2.00861 0
M  V30 9065 H 854.905 -1.14138 3.9171 0
M  V30 9066 H 853.58 -0.0147001 4.15897 0
M  V30 9067 H 852.157 -1.65393 3.34215 0
M  V30 9068 N 854.342 -1.57594 -0.0133615 0
M  V30 9069 C 855.572 -1.93969 -0.711295 0
M  V30 9070 C 855.98 -0.859084 -1.68572 0
M  V30 9071 O 855.323 0.171842 -1.82894 0
M  V30 9072 C 855.385 -3.2625 -1.51001 0
M  V30 9073 C 855.049 -4.51628 -0.698645 0
M  V30 9074 C 856.046 -5.19899 0.00791185 0
M  V30 9075 C 853.731 -4.98095 -0.648553 0
M  V30 9076 C 855.725 -6.32928 0.753691 0
M  V30 9077 C 853.412 -6.11017 0.10096 0
M  V30 9078 C 854.41 -6.78289 0.800828 0
M  V30 9079 O 854.098 -7.89048 1.53814 0
M  V30 9080 H 853.83 -0.6445 -0.203951 0
M  V30 9081 H 856.384 -2.05378 0.0298267 0
M  V30 9082 H 854.614 -3.11211 -2.29531 0
M  V30 9083 H 856.303 -3.47835 -2.09202 0
M  V30 9084 H 857.069 -4.84995 -0.0217192 0
M  V30 9085 H 852.948 -4.45568 -1.18282 0
M  V30 9086 H 856.492 -6.85371 1.3005 0
M  V30 9087 H 852.389 -6.45364 0.132459 0
M  V30 9088 H 853.157 -8.05492 1.45345 0
M  V30 9089 N 855.82 0.285905 -1.54985 0
M  V30 9090 C 857.236 0.632405 -1.46536 0
M  V30 9091 C 857.436 1.90074 -0.668888 0
M  V30 9092 O 856.492 2.51839 -0.182586 0
M  V30 9093 C 857.805 0.771361 -2.90638 0
M  V30 9094 C 859.353 0.866262 -3.00774 0
M  V30 9095 C 859.828 1.0371 -4.46103 0
M  V30 9096 N 861.319 1.10294 -4.49877 0
M  V30 9097 C 862.054 1.25369 -5.59527 0
M  V30 9098 N 861.55 1.37246 -6.7907 0
M  V30 9099 N 863.343 1.28377 -5.47244 0
M  V30 9100 H 855.494 -0.547226 -2.0523 0
M  V30 9101 H 857.757 -0.183298 -0.930111 0
M  V30 9102 H 857.463 -0.0899485 -3.51585 0
M  V30 9103 H 857.337 1.65569 -3.3892 0
M  V30 9104 H 859.724 1.71805 -2.39931 0
M  V30 9105 H 859.805 -0.0424049 -2.55765 0
M  V30 9106 H 859.449 0.190021 -5.07544 0
M  V30 9107 H 859.379 1.96022 -4.88757 0
M  V30 9108 H 861.87 1.02407 -3.6376 0
M  V30 9109 H 862.183 1.48546 -7.58389 0
M  V30 9110 H 860.528 1.34274 -6.81906 0
M  V30 9111 H 863.719 1.1872 -4.52795 0
M  V30 9112 H 863.892 1.39782 -6.32744 0
M  V30 9113 N 857.298 1.47698 0.54982 0
M  V30 9114 C 858.208 1.63386 1.68351 0
M  V30 9115 C 859.224 0.516583 1.66155 0
M  V30 9116 O 860.4 0.785088 1.85468 0
M  V30 9117 C 857.465 1.6513 3.04849 0
M  V30 9118 C 856.526 2.88338 3.18056 0
M  V30 9119 C 855.759 2.8999 4.48042 0
M  V30 9120 O 855.982 2.00633 5.3395 0
M  V30 9121 O 854.916 3.81938 4.65196 0
M  V30 9122 H 858.742 2.59329 1.58057 0
M  V30 9123 H 856.327 1.30869 0.72067 0
M  V30 9124 H 858.209 1.68913 3.86065 0
M  V30 9125 H 856.884 0.723555 3.1551 0
M  V30 9126 H 855.791 2.90097 2.36209 0
M  V30 9127 H 857.124 3.80431 3.12302 0
M  V30 9128 N 858.776 -0.797141 1.35954 0
M  V30 9129 C 860.004 -1.5858 1.32891 0
M  V30 9130 C 860.419 -1.88578 -0.0915564 0
M  V30 9131 O 859.776 -1.49532 -1.04625 0
M  V30 9132 C 859.827 -2.91143 2.14284 0
M  V30 9133 O 859.548 -2.62442 3.50793 0
M  V30 9134 C 861.049 -3.85476 2.18914 0
M  V30 9135 H 858.269 -0.492111 0.456144 0
M  V30 9136 H 860.813 -0.98994 1.78943 0
M  V30 9137 H 858.968 -3.47219 1.71807 0
M  V30 9138 H 859.382 -3.4715 3.93175 0
M  V30 9139 H 860.856 -4.75574 2.80238 0
M  V30 9140 H 861.333 -4.22758 1.19047 0
M  V30 9141 H 861.939 -3.35334 2.61593 0
M  V30 9142 N 860.254 -1.20106 -1.0204 0
M  V30 9143 C 861.5 -1.01039 -1.75838 0
M  V30 9144 C 861.833 0.456819 -1.88751 0
M  V30 9145 O 861.108 1.33919 -1.41053 0
M  V30 9146 C 861.391 -1.69009 -3.17975 0
M  V30 9147 C 861.244 -3.2315 -3.1288 0
M  V30 9148 C 862.563 -1.42005 -4.16561 0
M  V30 9149 H 859.682 -0.368465 -0.638281 0
M  V30 9150 H 862.324 -1.48066 -1.19064 0
M  V30 9151 H 860.474 -1.29026 -3.66449 0
M  V30 9152 H 862.146 -3.72402 -2.72239 0
M  V30 9153 H 860.389 -3.54253 -2.50374 0
M  V30 9154 H 861.06 -3.65862 -4.13339 0
M  V30 9155 H 863.536 -1.76685 -3.76725 0
M  V30 9156 H 862.412 -1.92101 -5.14187 0
M  V30 9157 H 862.673 -0.346884 -4.40737 0
M  V30 9158 N 861.732 1.21287 -1.00634 0
M  V30 9159 C 862.957 1.94925 -0.708441 0
M  V30 9160 C 863.382 1.73659 0.722783 0
M  V30 9161 O 862.74 1.02429 1.49593 0
M  V30 9162 C 862.788 3.45377 -1.03667 0
M  V30 9163 O 861.892 4.12153 -0.142661 0
M  V30 9164 H 861.233 0.609338 -0.263824 0
M  V30 9165 H 863.763 1.54008 -1.34695 0
M  V30 9166 H 863.773 3.95954 -0.984086 0
M  V30 9167 H 862.448 3.6018 -2.0795 0
M  V30 9168 H 861.025 3.72048 -0.251888 0
M  V30 9169 N 863.21 0.781244 1.36873 0
M  V30 9170 C 864.12 0.174981 2.33947 0
M  V30 9171 C 865.136 -0.668512 1.60645 0
M  V30 9172 O 866.312 -0.586213 1.9268 0
M  V30 9173 C 863.377 -0.686557 3.39834 0
M  V30 9174 C 862.438 0.174489 4.28945 0
M  V30 9175 C 861.671 -0.646024 5.29776 0
M  V30 9176 O 861.894 -1.88254 5.38439 0
M  V30 9177 O 860.828 -0.0502214 6.01879 0
M  V30 9178 H 864.654 0.977382 2.87543 0
M  V30 9179 H 862.239 0.542559 1.392 0
M  V30 9180 H 864.121 -1.1781 4.04597 0
M  V30 9181 H 862.796 -1.46699 2.8855 0
M  V30 9182 H 861.703 0.712604 3.6725 0
M  V30 9183 H 863.036 0.918232 4.83559 0
M  V30 9184 N 864.689 -1.48329 0.532571 0
M  V30 9185 C 865.599 -2.33445 -0.232546 0
M  V30 9186 C 866.615 -1.46651 -0.93645 0
M  V30 9187 O 867.791 -1.79627 -0.910834 0
M  V30 9188 C 864.856 -3.22824 -1.26434 0
M  V30 9189 C 863.917 -4.25492 -0.570511 0
M  V30 9190 C 863.15 -5.10601 -1.55315 0
M  V30 9191 O 863.373 -4.97733 -2.78599 0
M  V30 9192 O 862.307 -5.91927 -1.09112 0
M  V30 9193 H 866.133 -3.00119 0.464988 0
M  V30 9194 H 863.718 -1.46489 0.293462 0
M  V30 9195 H 865.6 -3.78103 -1.86055 0
M  V30 9196 H 864.275 -2.58807 -1.94424 0
M  V30 9197 H 863.182 -3.74041 0.0662587 0
M  V30 9198 H 864.515 -4.92154 0.0674904 0
M  V30 9199 N 866.167 -0.267825 -1.55308 0
M  V30 9200 C 867.392 0.357487 -2.04296 0
M  V30 9201 C 867.817 1.49222 -1.14518 0
M  V30 9202 O 867.175 1.80741 -0.142292 0
M  V30 9203 C 867.223 0.822899 -3.51085 0
M  V30 9204 O 866.327 1.93078 -3.6441 0
M  V30 9205 H 865.668 0.075025 -0.659748 0
M  V30 9206 H 868.198 -0.399996 -2.00652 0
M  V30 9207 H 868.208 1.12059 -3.92309 0
M  V30 9208 H 866.883 -0.0073562 -4.15899 0
M  V30 9209 H 865.46 1.63618 -3.35087 0
M  V30 9210 N 867.645 1.57599 0.00500368 0
M  V30 9211 C 868.593 2.09223 1.01628 0
M  V30 9212 C 869.587 1.01113 1.35913 0
M  V30 9213 O 870.793 1.19583 1.34536 0
M  V30 9214 H 867.168 0.667999 0.345372 0
M  V30 9215 H 869.139 2.93188 0.555274 0
M  V30 9216 C 867.888 2.60674 2.30097 0
M  V30 9217 H 867.211 3.43491 2.04582 0
M  V30 9218 H 868.651 3.00479 2.99146 0
M  V30 9219 C 867.11 1.51862 3.00731 0
M  V30 9220 O 867.64 0.898651 3.91519 0
M  V30 9221 N 865.846 1.24729 2.62471 0
M  V30 9222 H 865.393 1.7533 1.88725 0
M  V30 9223 H 865.351 0.521437 3.10046 0
M  V30 9224 N 869.123 -0.277682 1.55134 0
M  V30 9225 C 870.369 -1.0114 1.7578 0
M  V30 9226 C 870.702 -1.86109 0.554719 0
M  V30 9227 O 869.977 -1.89275 -0.447813 0
M  V30 9228 C 870.26 -1.89789 3.06027 0
M  V30 9229 C 870.113 -1.07844 4.3668 0
M  V30 9230 C 871.432 -2.88577 3.32282 0
M  V30 9231 H 868.551 -0.366277 0.639539 0
M  V30 9232 H 871.193 -0.284155 1.87863 0
M  V30 9233 H 869.343 -2.51796 2.95856 0
M  V30 9234 H 871.015 -0.479432 4.58802 0
M  V30 9235 H 869.258 -0.381764 4.32117 0
M  V30 9236 H 869.929 -1.73179 5.24131 0
M  V30 9237 H 872.405 -2.36702 3.42215 0
M  V30 9238 H 871.281 -3.47749 4.2469 0
M  V30 9239 H 871.542 -3.63458 2.51696 0
M  V30 9240 N 870.601 -1.47988 -0.541979 0
M  V30 9241 C 871.531 -1.64503 -1.65713 0
M  V30 9242 C 872.512 -0.494116 -1.62765 0
M  V30 9243 O 873.697 -0.725256 -1.80149 0
M  V30 9244 C 870.827 -1.67337 -3.04328 0
M  V30 9245 C 869.781 -2.81809 -3.2213 0
M  V30 9246 C 869.107 -2.69724 -4.61685 0
M  V30 9247 C 870.407 -4.23241 -3.06046 0
M  V30 9248 H 872.101 -2.5786 -1.52147 0
M  V30 9249 H 869.647 -1.24094 -0.730529 0
M  V30 9250 H 871.6 -1.77481 -3.82202 0
M  V30 9251 H 870.324 -0.705514 -3.18889 0
M  V30 9252 H 868.983 -2.71201 -2.46669 0
M  V30 9253 H 868.631 -1.70934 -4.73065 0
M  V30 9254 H 868.331 -3.4653 -4.74543 0
M  V30 9255 H 869.855 -2.81818 -5.41674 0
M  V30 9256 H 871.269 -4.34746 -3.73723 0
M  V30 9257 H 869.666 -5.00952 -3.30405 0
M  V30 9258 H 870.736 -4.40543 -2.02609 0
M  V30 9259 N 872.079 0.78992 -1.36375 0
M  V30 9260 C 873.319 1.56098 -1.31958 0
M  V30 9261 C 873.683 1.91738 0.100197 0
M  V30 9262 O 874.884 2.67451 0.268913 0
M  V30 9263 C 873.155 2.80406 -2.21601 0
M  V30 9264 S 874.714 3.70655 -2.34863 0
M  V30 9265 H 871.532 0.534632 -0.46871 0
M  V30 9266 H 874.134 0.930417 -1.7194 0
M  V30 9267 H 872.838 2.52273 -3.23707 0
M  V30 9268 H 872.369 3.48436 -1.82637 0
M  V30 9269 H 874.384 4.71509 -1.54575 0
M  V30 9270 N 873.557 1.20646 1.01402 0
M  V30 9271 C 874.487 0.98155 2.11867 0
M  V30 9272 C 875.468 -0.0903712 1.6986 0
M  V30 9273 O 876.653 0.0676586 1.94082 0
M  V30 9274 C 873.783 0.535636 3.43145 0
M  V30 9275 C 872.737 1.55109 3.98905 0
M  V30 9276 C 872.063 0.961725 5.2598 0
M  V30 9277 C 873.363 2.93552 4.32001 0
M  V30 9278 H 875.057 1.90544 2.3094 0
M  V30 9279 H 872.603 0.917554 1.10982 0
M  V30 9280 H 874.556 0.365512 4.19812 0
M  V30 9281 H 873.28 -0.423882 3.23838 0
M  V30 9282 H 871.939 1.70862 3.24348 0
M  V30 9283 H 871.587 -0.00580108 5.03 0
M  V30 9284 H 871.287 1.63993 5.64252 0
M  V30 9285 H 872.811 0.802726 6.053 0
M  V30 9286 H 874.225 2.81295 4.99546 0
M  V30 9287 H 872.622 3.58303 4.81393 0
M  V30 9288 H 873.692 3.4508 3.40658 0
M  V30 9289 N 875.035 -1.20752 1.01276 0
M  V30 9290 C 876.26 -1.94547 0.718769 0
M  V30 9291 C 876.685 -1.7404 -0.713563 0
M  V30 9292 O 876.043 -1.03221 -1.49047 0
M  V30 9293 C 876.091 -3.44823 1.05497 0
M  V30 9294 O 875.195 -4.12072 0.164516 0
M  V30 9295 H 874.536 -0.607931 0.267051 0
M  V30 9296 H 877.066 -1.53292 1.35509 0
M  V30 9297 H 877.076 -3.95427 1.00507 0
M  V30 9298 H 875.751 -3.59072 2.09858 0
M  V30 9299 H 874.328 -3.71909 0.271615 0
M  V30 9300 N 876.513 -0.788492 -1.36457 0
M  V30 9301 C 877.46 -0.18435 -2.30063 0
M  V30 9302 C 878.43 0.67128 -1.51931 0
M  V30 9303 O 879.615 0.620152 -1.8044 0
M  V30 9304 C 876.755 0.675596 -3.38422 0
M  V30 9305 C 875.868 -0.198475 -4.31544 0
M  V30 9306 C 875.003 0.667757 -5.26986 0
M  V30 9307 C 874.042 -0.207825 -6.11747 0
M  V30 9308 N 873.179 0.617335 -6.99381 0
M  V30 9309 H 878.019 -0.988056 -2.81143 0
M  V30 9310 H 875.556 -0.498815 -1.38384 0
M  V30 9311 H 877.514 1.18916 -3.99894 0
M  V30 9312 H 876.144 1.44474 -2.88664 0
M  V30 9313 H 875.196 -0.829995 -3.71235 0
M  V30 9314 H 876.508 -0.873163 -4.91098 0
M  V30 9315 H 875.662 1.24716 -5.93743 0
M  V30 9316 H 874.401 1.37607 -4.67884 0
M  V30 9317 H 873.406 -0.799638 -5.43954 0
M  V30 9318 H 874.631 -0.913729 -6.72925 0
M  V30 9319 H 872.577 1.30996 -6.42788 0
M  V30 9320 H 872.494 0.000307255 -7.56 0
M  V30 9321 H 873.762 1.1806 -7.70508 0
M  V30 9322 N 877.991 1.48044 -0.54043 0
M  V30 9323 C 879.216 2.07396 -0.0124765 0
M  V30 9324 C 879.641 1.39288 1.26414 0
M  V30 9325 O 878.999 0.462252 1.75308 0
M  V30 9326 C 879.047 3.60131 0.18377 0
M  V30 9327 O 878.151 3.92995 1.25014 0
M  V30 9328 H 877.492 0.662554 -0.0438026 0
M  V30 9329 H 880.022 1.90306 -0.751327 0
M  V30 9330 H 880.032 4.06003 0.403197 0
M  V30 9331 H 878.707 4.09105 -0.74874 0
M  V30 9332 H 877.284 3.5889 1.01254 0
M  V30 9333 N 879.47 0.276058 1.55163 0
M  V30 9334 C 880.881 -0.221516 1.85381 0
M  V30 9335 C 881.232 -1.55372 1.19808 0
M  V30 9336 O 880.357 -2.10855 0.486742 0
M  V30 9337 C 880.952 -0.408706 3.36326 0
M  V30 9338 C 879.511 -0.850512 3.66665 0
M  V30 9339 C 878.658 0.055656 2.77244 0
M  V30 9340 H 881.609 0.497819 1.5069 0
M  V30 9341 H 881.63 -1.24711 3.59482 0
M  V30 9342 H 881.142 0.561052 3.84023 0
M  V30 9343 H 879.243 -1.83171 3.24468 0
M  V30 9344 H 879.356 -0.687181 4.74146 0
M  V30 9345 H 877.72 -0.460819 2.50497 0
M  V30 9346 H 878.503 1.02131 3.27756 0
M  V30 9347 N 880.948 -1.576 0.00335426 0
M  V30 9348 C 881.896 -2.09759 -1.00517 0
M  V30 9349 C 882.89 -1.01833 -1.35375 0
M  V30 9350 O 884.096 -1.20294 -1.339 0
M  V30 9351 H 880.471 -0.669821 -0.341825 0
M  V30 9352 H 882.442 -2.93478 -0.539718 0
M  V30 9353 C 881.191 -2.6189 -2.28711 0
M  V30 9354 H 880.514 -3.44571 -2.02758 0
M  V30 9355 H 881.954 -3.02061 -2.97548 0
M  V30 9356 C 880.413 -1.53455 -2.99922 0
M  V30 9357 O 880.943 -0.919402 -3.91037 0
M  V30 9358 N 879.149 -1.2612 -2.61806 0
M  V30 9359 H 878.696 -1.76329 -1.87792 0
M  V30 9360 H 878.654 -0.537872 -3.09765 0
M  V30 9361 N 882.426 0.269451 -1.5528 0
M  V30 9362 C 883.373 1.33316 -1.88403 0
M  V30 9363 C 884.343 1.48909 -0.735881 0
M  V30 9364 O 885.528 1.63259 -0.987479 0
M  V30 9365 C 882.668 2.68778 -2.16454 0
M  V30 9366 C 881.781 2.61377 -3.43956 0
M  V30 9367 C 880.916 3.89042 -3.6169 0
M  V30 9368 C 879.955 3.76166 -4.82872 0
M  V30 9369 N 879.092 4.95673 -4.97245 0
M  V30 9370 H 883.932 1.04368 -2.79126 0
M  V30 9371 H 881.469 0.504147 -1.38191 0
M  V30 9372 H 883.427 3.47599 -2.30719 0
M  V30 9373 H 882.057 2.9592 -1.28961 0
M  V30 9374 H 881.109 1.74247 -3.38145 0
M  V30 9375 H 882.421 2.47764 -4.32914 0
M  V30 9376 H 881.575 4.76304 -3.75791 0
M  V30 9377 H 880.314 4.05526 -2.70924 0
M  V30 9378 H 879.319 2.87287 -4.68771 0
M  V30 9379 H 880.544 3.61198 -5.75077 0
M  V30 9380 H 878.49 5.12561 -4.09411 0
M  V30 9381 H 878.407 4.84605 -5.80254 0
M  V30 9382 H 879.675 5.84498 -5.15735 0
M  V30 9383 N 883.904 1.48273 0.534124 0
M  V30 9384 C 884.854 1.58889 1.63519 0
M  V30 9385 C 885.838 0.44626 1.54588 0
M  V30 9386 O 887.03 0.697474 1.62679 0
M  V30 9387 C 884.159 1.62787 3.0225 0
M  V30 9388 C 883.245 2.82515 3.16301 0
M  V30 9389 N 883.636 4.06977 3.00338 0
M  V30 9390 C 881.934 2.7976 3.47347 0
M  V30 9391 C 882.635 4.87283 3.17694 0
M  V30 9392 N 881.611 4.20024 3.45081 0
M  V30 9393 H 885.413 2.52869 1.49781 0
M  V30 9394 H 882.927 1.44587 0.739479 0
M  V30 9395 H 884.924 1.68486 3.81337 0
M  V30 9396 H 883.584 0.699201 3.17082 0
M  V30 9397 H 884.595 4.37479 2.77186 0
M  V30 9398 H 881.272 1.96132 3.68563 0
M  V30 9399 H 882.662 5.96047 3.10126 0
M  V30 9400 N 885.382 -0.782676 1.36792 0
M  V30 9401 C 886.33 -1.91698 1.31737 0
M  V30 9402 C 887.324 -1.68118 0.207994 0
M  V30 9403 O 888.53 -1.76042 0.375393 0
M  V30 9404 H 884.905 -0.630215 0.410284 0
M  V30 9405 H 886.876 -1.93078 2.27516 0
M  V30 9406 C 885.625 -3.28816 1.13029 0
M  V30 9407 H 884.948 -3.4753 1.97643 0
M  V30 9408 H 886.388 -4.08515 1.13541 0
M  V30 9409 C 884.847 -3.36497 -0.1647 0
M  V30 9410 O 885.377 -3.84822 -1.15216 0
M  V30 9411 N 883.583 -2.89828 -0.211678 0
M  V30 9412 H 883.13 -2.50693 0.59252 0
M  V30 9413 H 883.088 -2.95349 -1.07779 0
M  V30 9414 N 886.86 -1.21182 -1.00761 0
M  V30 9415 C 888.276 -0.968607 -1.26847 0
M  V30 9416 C 888.476 0.346561 -1.98497 0
M  V30 9417 O 887.532 1.07287 -2.28573 0
M  V30 9418 C 888.845 -2.1574 -2.09467 0
M  V30 9419 C 890.393 -2.19937 -2.22703 0
M  V30 9420 C 890.868 -3.38328 -3.08704 0
M  V30 9421 N 892.359 -3.38398 -3.16293 0
M  V30 9422 C 893.094 -4.26653 -3.83086 0
M  V30 9423 N 892.59 -5.25101 -4.5193 0
M  V30 9424 N 894.383 -4.14469 -3.797 0
M  V30 9425 H 886.534 -2.05763 -0.526816 0
M  V30 9426 H 888.797 -0.90087 -0.29519 0
M  V30 9427 H 888.503 -3.11034 -1.64167 0
M  V30 9428 H 888.377 -2.14584 -3.10216 0
M  V30 9429 H 890.764 -1.25201 -2.67224 0
M  V30 9430 H 890.845 -2.25139 -1.21433 0
M  V30 9431 H 890.489 -4.33356 -2.64886 0
M  V30 9432 H 890.419 -3.30364 -4.10082 0
M  V30 9433 H 892.91 -2.67149 -2.67282 0
M  V30 9434 H 893.223 -5.8875 -5.00592 0
M  V30 9435 H 891.568 -5.29029 -4.50726 0
M  V30 9436 H 894.759 -3.3682 -3.25069 0
M  V30 9437 H 894.932 -4.83458 -4.31477 0
M  V30 9438 N 888.338 1.20213 -1.01915 0
M  V30 9439 C 889.268 2.25336 -0.612023 0
M  V30 9440 C 890.249 1.65933 0.374186 0
M  V30 9441 O 891.434 1.92464 0.259053 0
M  V30 9442 C 888.564 3.47267 0.047904 0
M  V30 9443 C 887.518 4.1928 -0.859557 0
M  V30 9444 C 886.844 5.3466 -0.0652655 0
M  V30 9445 C 888.144 4.75143 -2.1688 0
M  V30 9446 H 889.838 2.59645 -1.49079 0
M  V30 9447 H 887.384 1.24808 -0.718263 0
M  V30 9448 H 889.337 4.19991 0.344294 0
M  V30 9449 H 888.061 3.12129 0.961404 0
M  V30 9450 H 886.72 3.48425 -1.13999 0
M  V30 9451 H 886.368 4.95767 0.849964 0
M  V30 9452 H 886.068 5.83772 -0.669618 0
M  V30 9453 H 887.592 6.10187 0.224612 0
M  V30 9454 H 889.006 5.39672 -1.9346 0
M  V30 9455 H 887.403 5.34702 -2.72422 0
M  V30 9456 H 888.473 3.93744 -2.83008 0
M  V30 9457 N 889.816 0.795718 1.36037 0
M  V30 9458 C 891.046 0.382597 2.03026 0
M  V30 9459 C 891.454 -1.00779 1.60126 0
M  V30 9460 O 890.797 -1.65884 0.78919 0
M  V30 9461 C 890.859 0.374145 3.57548 0
M  V30 9462 C 890.523 1.71318 4.23673 0
M  V30 9463 C 891.52 2.6697 4.4612 0
M  V30 9464 C 889.205 1.99421 4.61017 0
M  V30 9465 C 891.199 3.88916 5.04998 0
M  V30 9466 C 888.886 3.21632 5.19611 0
M  V30 9467 C 889.884 4.16198 5.41542 0
M  V30 9468 O 889.572 5.36254 5.98905 0
M  V30 9469 H 889.304 0.154944 0.658003 0
M  V30 9470 H 891.858 1.07756 1.74865 0
M  V30 9471 H 890.088 -0.377349 3.84854 0
M  V30 9472 H 891.777 -0.01517 4.05897 0
M  V30 9473 H 892.543 2.46548 4.17659 0
M  V30 9474 H 888.422 1.2663 4.43267 0
M  V30 9475 H 891.966 4.6274 5.22032 0
M  V30 9476 H 887.863 3.4193 5.47498 0
M  V30 9477 H 888.631 5.37403 6.17366 0
M  V30 9478 N 891.294 -1.47756 0.548274 0
M  V30 9479 C 892.227 -2.26804 -0.252059 0
M  V30 9480 C 893.205 -1.3349 -0.928389 0
M  V30 9481 O 894.389 -1.6286 -0.949156 0
M  V30 9482 C 891.516 -3.10266 -1.35841 0
M  V30 9483 C 890.562 -4.1909 -0.791578 0
M  V30 9484 S 891.395 -5.34323 0.354878 0
M  V30 9485 C 892.551 -6.21348 -0.753511 0
M  V30 9486 H 892.784 -2.94336 0.418744 0
M  V30 9487 H 890.317 -1.50735 0.334413 0
M  V30 9488 H 892.275 -3.58925 -1.99207 0
M  V30 9489 H 890.936 -2.42112 -2.00101 0
M  V30 9490 H 890.129 -4.77183 -1.62212 0
M  V30 9491 H 889.731 -3.73266 -0.234274 0
M  V30 9492 H 892.023 -6.57156 -1.6478 0
M  V30 9493 H 892.966 -7.07788 -0.210141 0
M  V30 9494 H 893.374 -5.54797 -1.04216 0
M  V30 9495 N 892.772 -0.284283 -1.55015 0
M  V30 9496 C 893.719 0.599194 -2.22886 0
M  V30 9497 C 894.689 1.14264 -1.20553 0
M  V30 9498 O 895.874 1.19025 -1.49123 0
M  V30 9499 C 893.014 1.77317 -2.96062 0
M  V30 9500 C 892.127 1.26271 -4.13134 0
M  V30 9501 C 891.262 2.39922 -4.73931 0
M  V30 9502 C 890.301 1.85925 -5.8318 0
M  V30 9503 N 889.438 2.93084 -6.38002 0
M  V30 9504 H 894.278 0.0137816 -2.97997 0
M  V30 9505 H 891.815 -0.00496503 -1.47099 0
M  V30 9506 H 893.773 2.46339 -3.36709 0
M  V30 9507 H 892.403 2.33047 -2.23358 0
M  V30 9508 H 891.455 0.465296 -3.77544 0
M  V30 9509 H 892.767 0.827284 -4.91892 0
M  V30 9510 H 891.921 3.1692 -5.17346 0
M  V30 9511 H 890.66 2.86784 -3.9447 0
M  V30 9512 H 889.665 1.07409 -5.39206 0
M  V30 9513 H 890.89 1.39987 -6.64515 0
M  V30 9514 H 888.836 3.3931 -5.61431 0
M  V30 9515 H 888.753 2.53986 -7.12058 0
M  V30 9516 H 890.021 3.7003 -6.86075 0
M  V30 9517 N 894.251 1.57596 -0.0117121 0
M  V30 9518 C 895.214 2.08089 0.960816 0
M  V30 9519 C 896.214 0.992519 1.26514 0
M  V30 9520 O 897.404 1.25475 1.20837 0
M  V30 9521 C 894.536 2.53217 2.28241 0
M  V30 9522 H 895.729 2.9529 0.523829 0
M  V30 9523 H 893.282 1.54508 0.235995 0
M  V30 9524 H 894.017 1.69294 2.76604 0
M  V30 9525 H 893.802 3.32714 2.0747 0
M  V30 9526 H 895.292 2.92568 2.97983 0
M  V30 9527 N 895.729 -0.261212 1.5542 0
M  V30 9528 C 897.145 -0.609012 1.47524 0
M  V30 9529 C 897.345 -1.88986 0.699042 0
M  V30 9530 O 896.401 -2.51517 0.222628 0
M  V30 9531 C 897.714 -0.725025 2.91828 0
M  V30 9532 C 899.262 -0.818302 3.02114 0
M  V30 9533 C 899.737 -0.965996 4.47697 0
M  V30 9534 N 901.228 -1.03123 4.51575 0
M  V30 9535 C 901.963 -1.16451 5.6145 0
M  V30 9536 N 901.459 -1.26425 6.81167 0
M  V30 9537 N 903.252 -1.19655 5.49217 0
M  V30 9538 H 895.403 0.579807 2.04333 0
M  V30 9539 H 897.666 0.198072 0.927077 0
M  V30 9540 H 897.372 0.145871 3.51397 0
M  V30 9541 H 897.246 -1.60156 3.41511 0
M  V30 9542 H 899.633 -1.67966 2.42634 0
M  V30 9543 H 899.714 0.0830895 2.55665 0
M  V30 9544 H 899.358 -0.109251 5.07782 0
M  V30 9545 H 899.288 -1.88221 4.91813 0
M  V30 9546 H 901.779 -0.966072 3.65343 0
M  V30 9547 H 902.092 -1.36462 7.60656 0
M  V30 9548 H 900.437 -1.23408 6.83956 0
M  V30 9549 H 903.628 -1.11501 4.54626 0
M  V30 9550 H 903.801 -1.29698 6.34888 0
M  V30 9551 N 897.207 -1.48554 -0.526253 0
M  V30 9552 C 898.618 -1.50256 -1.10815 0
M  V30 9553 C 898.969 -0.274445 -1.94271 0
M  V30 9554 O 898.094 0.618094 -2.07385 0
M  V30 9555 C 898.689 -2.72264 -2.01638 0
M  V30 9556 C 897.248 -2.76826 -2.55038 0
M  V30 9557 C 896.395 -2.43823 -1.32081 0
M  V30 9558 H 899.346 -1.55616 -0.31133 0
M  V30 9559 H 899.367 -2.50993 -2.85977 0
M  V30 9560 H 898.879 -3.61632 -1.4087 0
M  V30 9561 H 896.98 -1.91676 -3.19517 0
M  V30 9562 H 897.093 -3.78351 -2.93917 0
M  V30 9563 H 895.457 -1.95058 -1.63781 0
M  V30 9564 H 896.24 -3.35436 -0.730596 0
M  V30 9565 N 898.685 0.775411 -1.37205 0
M  V30 9566 C 899.932 1.53384 -1.32211 0
M  V30 9567 C 900.26 1.9427 0.0944958 0
M  V30 9568 O 899.515 1.64059 1.06692 0
M  V30 9569 C 899.814 2.81377 -2.20367 0
M  V30 9570 C 899.48 2.59561 -3.68699 0
M  V30 9571 C 898.142 2.53319 -4.09124 0
M  V30 9572 C 900.494 2.39939 -4.62686 0
M  V30 9573 C 897.822 2.25442 -5.41658 0
M  V30 9574 C 900.174 2.13586 -5.95453 0
M  V30 9575 C 898.838 2.05786 -6.34987 0
M  V30 9576 H 898.108 0.561271 -0.483793 0
M  V30 9577 H 900.755 0.893466 -1.6938 0
M  V30 9578 H 899.06 3.49954 -1.76181 0
M  V30 9579 H 900.757 3.39238 -2.13819 0
M  V30 9580 H 897.347 2.6528 -3.36637 0
M  V30 9581 H 901.531 2.43753 -4.32317 0
M  V30 9582 H 896.787 2.17896 -5.71254 0
M  V30 9583 H 900.961 1.97401 -6.67837 0
M  V30 9584 H 898.588 1.83948 -7.37609 0
M  V30 9585 N 900.163 1.21714 1.00117 0
M  V30 9586 C 901.574 1.03477 1.55401 0
M  V30 9587 C 901.925 -0.40429 1.91989 0
M  V30 9588 O 901.05 -1.28807 1.7389 0
M  V30 9589 C 901.645 1.87213 2.82377 0
M  V30 9590 C 900.204 1.73297 3.34133 0
M  V30 9591 C 899.351 1.84189 2.07291 0
M  V30 9592 H 902.302 1.3568 0.823195 0
M  V30 9593 H 902.323 1.38465 3.54412 0
M  V30 9594 H 901.835 2.91944 2.55715 0
M  V30 9595 H 899.936 0.712662 3.65721 0
M  V30 9596 H 900.049 2.55486 4.05294 0
M  V30 9597 H 898.413 1.27538 2.20468 0
M  V30 9598 H 899.196 2.90435 1.83037 0
M  V30 9599 N 901.641 -1.19671 1.02551 0
M  V30 9600 C 902.918 -1.85014 0.634771 0
M  V30 9601 C 903.298 -1.91574 -0.886706 0
M  V30 9602 O 902.646 -1.43022 -1.78205 0
M  V30 9603 C 902.856 -3.24167 1.29292 0
M  V30 9604 C 904.204 -4.00363 1.41402 0
M  V30 9605 O 905.228 -3.33553 1.24983 0
M  V30 9606 O 904.087 -5.2003 1.6802 0
M  V30 9607 H 901.181 -0.797147 0.220196 0
M  V30 9608 H 903.727 -1.27188 1.12345 0
M  V30 9609 H 902.499 -3.14208 2.33215 0
M  V30 9610 H 902.122 -3.89634 0.791895 0
M  V30 9611 N 903.119 -0.802921 -1.35613 0
M  V30 9612 C 904.367 -0.380822 -1.9848 0
M  V30 9613 C 904.688 1.05464 -1.6402 0
M  V30 9614 O 903.958 1.72908 -0.920854 0
M  V30 9615 H 902.538 -0.137824 -0.734176 0
M  V30 9616 H 905.2 -1.02795 -1.65587 0
M  V30 9617 H 904.296 -0.483565 -3.08331 0
M  V30 9618 N 904.597 1.47463 -0.556102 0
M  V30 9619 C 905.527 2.32801 0.180497 0
M  V30 9620 C 906.508 1.43721 0.909848 0
M  V30 9621 O 907.693 1.72578 0.89053 0
M  V30 9622 C 904.823 3.25478 1.21167 0
M  V30 9623 C 903.777 4.2379 0.598846 0
M  V30 9624 C 903.103 5.05783 1.73457 0
M  V30 9625 C 904.403 5.20387 -0.446659 0
M  V30 9626 H 906.097 2.94636 -0.531956 0
M  V30 9627 H 903.643 1.41683 -0.257267 0
M  V30 9628 H 905.596 3.8402 1.73513 0
M  V30 9629 H 904.32 2.61695 1.95405 0
M  V30 9630 H 902.979 3.66472 0.0966897 0
M  V30 9631 H 902.627 4.38405 2.46596 0
M  V30 9632 H 902.327 5.72343 1.33031 0
M  V30 9633 H 903.851 5.67183 2.26131 0
M  V30 9634 H 905.265 5.73299 -0.00930019 0
M  V30 9635 H 903.662 5.95143 -0.769735 0
M  V30 9636 H 904.732 4.65932 -1.34295 0
M  V30 9637 N 906.075 0.2925 1.54862 0
M  V30 9638 C 907.038 -0.574423 2.21885 0
M  V30 9639 C 908.038 -1.06791 1.20218 0
M  V30 9640 O 909.228 -0.9653 1.45009 0
M  V30 9641 C 906.36 -1.79438 2.89853 0
M  V30 9642 H 907.553 0.0110319 2.99898 0
M  V30 9643 H 905.106 0.043256 1.5624 0
M  V30 9644 H 905.841 -2.4199 2.15897 0
M  V30 9645 H 905.626 -1.44827 3.64373 0
M  V30 9646 H 907.116 -2.41048 3.41007 0
M  V30 9647 N 907.553 -1.57587 0.0200696 0
M  V30 9648 C 908.463 -2.13119 -0.980676 0
M  V30 9649 C 909.479 -1.08124 -1.36328 0
M  V30 9650 O 910.655 -1.40134 -1.44653 0
M  V30 9651 C 907.72 -2.63991 -2.24743 0
M  V30 9652 C 906.781 -3.83667 -1.9261 0
M  V30 9653 C 906.014 -4.32103 -3.13246 0
M  V30 9654 O 906.237 -3.79758 -4.25606 0
M  V30 9655 O 905.171 -5.24047 -2.96072 0
M  V30 9656 H 908.997 -2.98887 -0.538528 0
M  V30 9657 H 906.582 -1.48055 -0.19999 0
M  V30 9658 H 908.464 -2.9682 -2.99125 0
M  V30 9659 H 907.139 -1.81311 -2.68157 0
M  V30 9660 H 906.046 -3.55778 -1.15641 0
M  V30 9661 H 907.379 -4.67482 -1.54019 0
M  V30 9662 N 909.032 0.252966 -1.55557 0
M  V30 9663 C 910.309 1.00432 -1.67847 0
M  V30 9664 C 910.689 2.03587 -0.55816 0
M  V30 9665 O 910.037 2.24239 0.439197 0
M  V30 9666 C 910.247 1.64313 -3.079 0
M  V30 9667 C 911.595 2.14726 -3.66303 0
M  V30 9668 O 912.619 1.74264 -3.10661 0
M  V30 9669 O 911.478 2.89 -4.63833 0
M  V30 9670 H 908.572 0.467102 -0.682455 0
M  V30 9671 H 911.118 0.247233 -1.67889 0
M  V30 9672 H 909.89 0.896681 -3.80888 0
M  V30 9673 H 909.513 2.46657 -3.11843 0
M  V30 9674 N 910.51 1.48831 0.518367 0
M  V30 9675 C 911.759 1.5669 1.27008 0
M  V30 9676 C 912.072 0.250934 1.93984 0
M  V30 9677 O 913.278 0.207884 2.70703 0
M  V30 9678 C 911.734 2.76387 2.30517 0
M  V30 9679 C 911.342 4.14673 1.69559 0
M  V30 9680 C 913.086 2.93566 3.06625 0
M  V30 9681 C 910.993 5.25616 2.71076 0
M  V30 9682 H 909.923 0.583362 0.477708 0
M  V30 9683 H 912.574 1.75187 0.546052 0
M  V30 9684 H 910.956 2.51348 3.06006 0
M  V30 9685 H 912.13 4.49779 1.00179 0
M  V30 9686 H 910.445 4.02708 1.05902 0
M  V30 9687 H 913.042 3.7362 3.82508 0
M  V30 9688 H 913.385 2.03462 3.63193 0
M  V30 9689 H 913.918 3.18562 2.38251 0
M  V30 9690 H 910.657 6.17723 2.19313 0
M  V30 9691 H 910.177 4.94985 3.38748 0
M  V30 9692 H 911.856 5.5422 3.3384 0
M  V30 9693 N 911.988 -0.768124 1.37614 0
M  V30 9694 C 913.265 -1.51637 1.23554 0
M  V30 9695 C 913.645 -2.1042 -0.169331 0
M  V30 9696 O 912.993 -1.95834 -1.17735 0
M  V30 9697 C 913.203 -2.59436 2.33439 0
M  V30 9698 C 914.551 -3.2674 2.71157 0
M  V30 9699 O 915.575 -2.69733 2.32642 0
M  V30 9700 O 914.434 -4.29814 3.37524 0
M  V30 9701 H 911.528 -0.671778 0.482332 0
M  V30 9702 H 914.074 -0.804779 1.49403 0
M  V30 9703 H 912.846 -2.14146 3.27502 0
M  V30 9704 H 912.469 -3.38192 2.09073 0
M  V30 9705 N 913.466 -1.22244 -0.994698 0
M  V30 9706 C 914.413 -0.990906 -2.08446 0
M  V30 9707 C 915.383 0.086737 -1.65873 0
M  V30 9708 O 916.568 -0.0624882 -1.90698 0
M  V30 9709 C 913.708 -0.572813 -3.40313 0
M  V30 9710 C 912.821 -1.72103 -3.96238 0
M  V30 9711 C 911.956 -1.2511 -5.16257 0
M  V30 9712 C 910.995 -2.37098 -5.64315 0
M  V30 9713 N 910.132 -1.91164 -6.75574 0
M  V30 9714 H 914.972 -1.92377 -2.27585 0
M  V30 9715 H 912.509 -0.958576 -1.11578 0
M  V30 9716 H 914.467 -0.311594 -4.16035 0
M  V30 9717 H 913.097 0.323044 -3.21179 0
M  V30 9718 H 912.149 -2.09662 -3.17405 0
M  V30 9719 H 913.461 -2.56347 -4.27888 0
M  V30 9720 H 912.615 -0.947152 -5.99261 0
M  V30 9721 H 911.354 -0.378836 -4.86226 0
M  V30 9722 H 910.359 -2.68283 -4.799 0
M  V30 9723 H 911.584 -3.24837 -5.96371 0
M  V30 9724 H 909.53 -1.06298 -6.47331 0
M  V30 9725 H 909.447 -2.68975 -7.06533 0
M  V30 9726 H 910.715 -1.63833 -7.62088 0
M  V30 9727 N 914.944 1.19125 -1.03184 0
M  V30 9728 C 916.192 1.8851 -0.728587 0
M  V30 9729 C 916.513 1.80195 0.74531 0
M  V30 9730 O 915.783 1.21437 1.5372 0
M  V30 9731 H 914.363 0.69784 -0.266511 0
M  V30 9732 H 917.025 1.44607 -1.3067 0
M  V30 9733 H 916.121 2.9477 -1.02554 0
M  V30 9734 N 916.422 0.810101 1.35185 0
M  V30 9735 C 917.332 0.224565 2.33523 0
M  V30 9736 C 918.348 -0.634287 1.62027 0
M  V30 9737 O 919.524 -0.545211 1.9388 0
M  V30 9738 C 916.589 -0.614319 3.41214 0
M  V30 9739 C 915.65 0.265435 4.28479 0
M  V30 9740 C 914.883 -0.533506 5.31027 0
M  V30 9741 O 915.106 -1.7679 5.42311 0
M  V30 9742 O 914.04 0.0774573 6.0185 0
M  V30 9743 H 917.866 1.03815 2.85405 0
M  V30 9744 H 915.451 0.571964 1.38018 0
M  V30 9745 H 917.333 -1.09201 4.07005 0
M  V30 9746 H 916.008 -1.40545 2.91597 0
M  V30 9747 H 914.915 0.790343 3.65656 0
M  V30 9748 H 916.248 1.0206 4.81503 0
M  V30 9749 N 917.9 -1.47166 0.563914 0
M  V30 9750 C 919.146 -2.02756 0.0424338 0
M  V30 9751 C 919.479 -1.43662 -1.3067 0
M  V30 9752 O 918.754 -0.594676 -1.85186 0
M  V30 9753 C 919.037 -3.60074 -0.0434793 0
M  V30 9754 C 918.89 -4.29587 1.33323 0
M  V30 9755 C 920.209 -4.336 -0.753568 0
M  V30 9756 H 917.328 -0.736806 0.0168946 0
M  V30 9757 H 919.97 -1.75521 0.727496 0
M  V30 9758 H 918.12 -3.83409 -0.626906 0
M  V30 9759 H 919.792 -4.17573 1.96037 0
M  V30 9760 H 918.035 -3.8968 1.9061 0
M  V30 9761 H 918.706 -5.38218 1.22576 0
M  V30 9762 H 921.182 -4.15299 -0.258126 0
M  V30 9763 H 920.058 -5.43291 -0.782659 0
M  V30 9764 H 920.319 -4.03302 -1.81108 0
M  V30 9765 N 919.378 -0.300708 -1.54705 0
M  V30 9766 C 920.603 0.314073 -2.05008 0
M  V30 9767 C 921.028 1.46759 -1.17657 0
M  V30 9768 O 920.386 1.80398 -0.180598 0
M  V30 9769 C 920.434 0.748243 -3.52752 0
M  V30 9770 O 919.538 1.85305 -3.68424 0
M  V30 9771 H 918.879 0.0610139 -0.661191 0
M  V30 9772 H 921.409 -0.442467 -1.99758 0
M  V30 9773 H 921.419 1.03713 -3.94598 0
M  V30 9774 H 920.094 -0.095573 -4.1579 0
M  V30 9775 H 918.671 1.56473 -3.38483 0
M  V30 9776 N 920.856 1.57574 -0.0284266 0
M  V30 9777 C 921.819 2.09096 0.938691 0
M  V30 9778 C 922.819 1.00588 1.25454 0
M  V30 9779 O 924.009 1.2675 1.19499 0
M  V30 9780 C 921.141 2.55624 2.25542 0
M  V30 9781 H 922.334 2.95829 0.49248 0
M  V30 9782 H 919.887 1.5475 0.219594 0
M  V30 9783 H 920.622 1.72218 2.74793 0
M  V30 9784 H 920.407 3.34896 2.03929 0
M  V30 9785 H 921.897 2.95712 2.94863 0
M  V30 9786 N 922.334 -0.244713 1.55689 0
M  V30 9787 C 923.75 -0.593331 1.48161 0
M  V30 9788 C 923.95 -1.88234 0.719047 0
M  V30 9789 O 923.006 -2.51266 0.249292 0
M  V30 9790 C 924.319 -0.694032 2.92581 0
M  V30 9791 C 925.867 -0.786213 3.02965 0
M  V30 9792 C 926.342 -0.918457 4.48696 0
M  V30 9793 N 927.833 -0.983272 4.52643 0
M  V30 9794 C 928.568 -1.1049 5.62654 0
M  V30 9795 N 928.064 -1.19193 6.8247 0
M  V30 9796 N 929.857 -1.13823 5.50455 0
M  V30 9797 H 922.008 0.601446 2.03707 0
M  V30 9798 H 924.271 0.207894 0.924924 0
M  V30 9799 H 923.977 0.183133 3.51223 0
M  V30 9800 H 923.851 -1.56525 3.4319 0
M  V30 9801 H 926.238 -1.65383 2.44402 0
M  V30 9802 H 926.319 0.110202 2.55563 0
M  V30 9803 H 925.963 -0.0553881 5.0787 0
M  V30 9804 H 925.893 -1.82994 4.93782 0
M  V30 9805 H 928.384 -0.927269 3.66347 0
M  V30 9806 H 928.697 -1.28387 7.62061 0
M  V30 9807 H 927.042 -1.16147 6.85226 0
M  V30 9808 H 930.233 -1.06673 4.55783 0
M  V30 9809 H 930.406 -1.22957 6.36228 0
M  V30 9810 N 923.813 -1.49104 -0.510467 0
M  V30 9811 C 924.745 -1.61183 -1.6295 0
M  V30 9812 C 925.758 -0.495003 -1.55092 0
M  V30 9813 O 926.947 -0.766671 -1.61197 0
M  V30 9814 C 924.047 -1.54373 -3.01699 0
M  V30 9815 C 923.22 -2.81428 -3.34838 0
M  V30 9816 C 922.279 -2.67802 -4.52956 0
M  V30 9817 O 921.305 -3.41723 -4.55208 0
M  V30 9818 N 922.507 -1.78715 -5.52305 0
M  V30 9819 H 925.272 -2.57693 -1.53018 0
M  V30 9820 H 922.833 -1.46073 -0.698152 0
M  V30 9821 H 924.825 -1.42924 -3.78622 0
M  V30 9822 H 923.395 -0.657597 -3.05605 0
M  V30 9823 H 922.615 -3.07299 -2.46903 0
M  V30 9824 H 923.903 -3.6568 -3.53773 0
M  V30 9825 H 923.301 -1.17897 -5.53278 0
M  V30 9826 H 921.858 -1.73194 -6.28369 0
M  V30 9827 N 925.291 0.760815 -1.38019 0
M  V30 9828 C 926.201 1.90526 -1.36884 0
M  V30 9829 C 927.217 1.71941 -0.266908 0
M  V30 9830 O 928.393 1.94988 -0.50413 0
M  V30 9831 C 925.458 3.25799 -1.18558 0
M  V30 9832 C 924.519 3.56961 -2.3849 0
M  V30 9833 C 923.752 4.8578 -2.21029 0
M  V30 9834 O 923.975 5.57629 -1.20023 0
M  V30 9835 O 922.909 5.16254 -3.0946 0
M  V30 9836 H 926.735 1.94437 -2.33298 0
M  V30 9837 H 924.32 0.905091 -1.18863 0
M  V30 9838 H 926.202 4.0669 -1.1037 0
M  V30 9839 H 924.877 3.22716 -0.252241 0
M  V30 9840 H 923.784 2.7626 -2.52252 0
M  V30 9841 H 925.117 3.64798 -3.30429 0
M  V30 9842 N 926.769 1.22769 0.988202 0
M  V30 9843 C 927.699 1.02627 2.09738 0
M  V30 9844 C 928.68 -0.0543211 1.70013 0
M  V30 9845 O 929.865 0.108811 1.93895 0
M  V30 9846 C 926.995 0.608302 3.41931 0
M  V30 9847 C 925.949 1.63536 3.95525 0
M  V30 9848 C 925.275 1.07308 5.23822 0
M  V30 9849 C 926.575 3.02649 4.25677 0
M  V30 9850 H 928.269 1.954 2.26847 0
M  V30 9851 H 925.815 0.940888 1.09011 0
M  V30 9852 H 927.768 0.454478 4.18942 0
M  V30 9853 H 926.492 -0.355095 3.24664 0
M  V30 9854 H 925.151 1.77704 3.20651 0
M  V30 9855 H 924.799 0.100894 5.02899 0
M  V30 9856 H 924.499 1.75925 5.60646 0
M  V30 9857 H 926.023 0.930938 6.03462 0
M  V30 9858 H 927.437 2.91828 4.93467 0
M  V30 9859 H 925.834 3.68434 4.73684 0
M  V30 9860 H 926.904 3.52228 3.33262 0
M  V30 9861 N 928.247 -1.18576 1.03814 0
M  V30 9862 C 929.194 -2.2212 0.626988 0
M  V30 9863 C 930.164 -1.62064 -0.363912 0
M  V30 9864 O 931.349 -1.89041 -0.258469 0
M  V30 9865 C 928.489 -3.45099 -0.00650133 0
M  V30 9866 C 927.602 -4.19503 1.03156 0
M  V30 9867 C 926.737 -5.29932 0.366852 0
M  V30 9868 C 925.776 -5.96104 1.39018 0
M  V30 9869 N 924.913 -6.98076 0.750625 0
M  V30 9870 H 929.753 -2.56646 1.51449 0
M  V30 9871 H 927.29 -1.26084 0.757702 0
M  V30 9872 H 929.248 -4.15363 -0.391108 0
M  V30 9873 H 927.878 -3.11201 -0.857536 0
M  V30 9874 H 926.93 -3.48092 1.53414 0
M  V30 9875 H 928.242 -4.64843 1.80893 0
M  V30 9876 H 927.396 -6.06657 -0.0720979 0
M  V30 9877 H 926.135 -4.85687 -0.442631 0
M  V30 9878 H 925.14 -5.18122 1.8393 0
M  V30 9879 H 926.365 -6.42432 2.20132 0
M  V30 9880 H 924.311 -6.55989 -0.0385981 0
M  V30 9881 H 924.228 -7.41655 1.46574 0
M  V30 9882 H 925.496 -7.78776 0.335986 0
M  V30 9883 N 929.725 -0.817259 -1.34754 0
M  V30 9884 C 930.657 -0.192695 -2.28389 0
M  V30 9885 C 931.67 0.614167 -1.50771 0
M  V30 9886 O 932.859 0.444776 -1.7287 0
M  V30 9887 C 929.959 0.748929 -3.30521 0
M  V30 9888 C 929.132 -0.0138762 -4.37398 0
M  V30 9889 C 928.191 0.847825 -5.19325 0
M  V30 9890 O 927.217 0.29487 -5.68436 0
M  V30 9891 N 928.419 2.16843 -5.38479 0
M  V30 9892 H 931.184 -0.997122 -2.82626 0
M  V30 9893 H 928.745 -0.673696 -1.47217 0
M  V30 9894 H 930.737 1.32987 -3.82226 0
M  V30 9895 H 929.307 1.45412 -2.7672 0
M  V30 9896 H 928.527 -0.776093 -3.86485 0
M  V30 9897 H 929.815 -0.539191 -5.05935 0
M  V30 9898 H 929.213 2.64148 -5.00242 0
M  V30 9899 H 927.77 2.69835 -5.93323 0
M  V30 9900 N 931.203 1.46865 -0.571711 0
M  V30 9901 C 932.619 1.57897 -0.23255 0
M  V30 9902 C 932.819 1.56836 1.26509 0
M  V30 9903 O 931.875 1.47947 2.04617 0
M  V30 9904 C 933.188 2.87778 -0.872036 0
M  V30 9905 C 934.736 3.01389 -0.844605 0
M  V30 9906 C 935.211 4.33991 -1.46343 0
M  V30 9907 N 936.702 4.40662 -1.42727 0
M  V30 9908 C 937.437 5.41858 -1.87557 0
M  V30 9909 N 936.933 6.49787 -2.4031 0
M  V30 9910 N 938.726 5.32992 -1.7854 0
M  V30 9911 H 930.877 1.45798 -1.54457 0
M  V30 9912 H 933.14 0.694785 -0.644964 0
M  V30 9913 H 932.846 2.94332 -1.92513 0
M  V30 9914 H 932.72 3.75345 -0.373677 0
M  V30 9915 H 935.107 2.94423 0.19984 0
M  V30 9916 H 935.188 2.15327 -1.38087 0
M  V30 9917 H 934.832 4.41714 -2.50701 0
M  V30 9918 H 934.762 5.18809 -0.902479 0
M  V30 9919 H 937.253 3.63263 -1.04155 0
M  V30 9920 H 937.566 7.23199 -2.72403 0
M  V30 9921 H 935.911 6.50637 -2.44329 0
M  V30 9922 H 939.102 4.47575 -1.37093 0
M  V30 9923 H 939.275 6.11716 -2.13794 0
M  V30 9924 N 932.681 0.308908 1.54543 0
M  V30 9925 C 933.644 -0.550857 2.22482 0
M  V30 9926 C 934.644 -1.0551 1.21344 0
M  V30 9927 O 935.834 -0.949866 1.46025 0
M  V30 9928 C 932.966 -1.76354 2.9174 0
M  V30 9929 H 934.159 0.0428395 2.99869 0
M  V30 9930 H 931.712 0.059825 1.56185 0
M  V30 9931 H 932.447 -2.39686 2.18451 0
M  V30 9932 H 932.232 -1.40954 3.65889 0
M  V30 9933 H 933.722 -2.37417 3.43545 0
M  V30 9934 N 934.159 -1.57557 0.0367827 0
M  V30 9935 C 935.575 -1.56366 -0.31967 0
M  V30 9936 C 935.775 -1.04313 -1.72398 0
M  V30 9937 O 934.831 -0.693278 -2.42796 0
M  V30 9938 C 936.144 -3.00267 -0.161274 0
M  V30 9939 C 937.692 -3.12128 -0.233464 0
M  V30 9940 C 938.167 -4.57882 -0.103767 0
M  V30 9941 N 939.658 -4.62922 -0.160506 0
M  V30 9942 C 940.393 -5.73338 -0.0840493 0
M  V30 9943 N 939.889 -6.92786 0.043933 0
M  V30 9944 N 941.682 -5.61929 -0.138592 0
M  V30 9945 H 933.833 -1.8972 0.954996 0
M  V30 9946 H 936.096 -0.87304 0.369467 0
M  V30 9947 H 935.802 -3.42331 0.80639 0
M  V30 9948 H 935.676 -3.65599 -0.928304 0
M  V30 9949 H 938.063 -2.69972 -1.19159 0
M  V30 9950 H 938.144 -2.49503 0.564075 0
M  V30 9951 H 937.788 -5.0072 0.850973 0
M  V30 9952 H 937.718 -5.18496 -0.920268 0
M  V30 9953 H 940.209 -3.7701 -0.259257 0
M  V30 9954 H 940.522 -7.72741 0.095372 0
M  V30 9955 H 938.867 -6.94955 0.0788211 0
M  V30 9956 H 942.058 -4.67499 -0.237031 0
M  V30 9957 H 942.231 -6.47956 -0.075546 0
M  V30 9958 N 935.637 0.236453 -1.55816 0
M  V30 9959 C 936.867 0.978873 -1.81939 0
M  V30 9960 C 937.275 1.79041 -0.611647 0
M  V30 9961 O 936.618 1.78616 0.429172 0
M  V30 9962 C 936.68 1.9569 -3.01572 0
M  V30 9963 C 936.344 1.33131 -4.37178 0
M  V30 9964 C 937.341 0.728585 -5.1477 0
M  V30 9965 C 935.026 1.34755 -4.83887 0
M  V30 9966 C 937.02 0.150427 -6.37222 0
M  V30 9967 C 934.707 0.765539 -6.06286 0
M  V30 9968 C 935.705 0.168017 -6.82793 0
M  V30 9969 O 935.393 -0.404976 -8.02879 0
M  V30 9970 H 935.125 0.293186 -0.609113 0
M  V30 9971 H 937.679 0.261384 -2.0373 0
M  V30 9972 H 935.909 2.71298 -2.75562 0
M  V30 9973 H 937.598 2.56362 -3.14695 0
M  V30 9974 H 938.364 0.708477 -4.79797 0
M  V30 9975 H 934.243 1.80202 -4.24321 0
M  V30 9976 H 937.787 -0.316586 -6.96881 0
M  V30 9977 H 933.684 0.78301 -6.40733 0
M  V30 9978 H 934.452 -0.29785 -8.17958 0
M  V30 9979 N 937.115 1.49373 0.502552 0
M  V30 9980 C 938.045 1.68839 1.61294 0
M  V30 9981 C 939.026 0.537096 1.61398 0
M  V30 9982 O 940.211 0.772764 1.78163 0
M  V30 9983 C 937.341 1.75347 2.99784 0
M  V30 9984 C 936.295 2.90251 3.14545 0
M  V30 9985 C 935.621 2.8187 4.54371 0
M  V30 9986 C 936.921 4.31207 2.94717 0
M  V30 9987 H 938.615 2.61803 1.45257 0
M  V30 9988 H 936.161 1.25987 0.697371 0
M  V30 9989 H 938.114 1.87552 3.77362 0
M  V30 9990 H 936.838 0.789814 3.16906 0
M  V30 9991 H 935.497 2.77646 2.39392 0
M  V30 9992 H 935.145 1.83416 4.68367 0
M  V30 9993 H 934.845 3.5899 4.65188 0
M  V30 9994 H 936.369 2.96081 5.34012 0
M  V30 9995 H 937.783 4.44501 3.62065 0
M  V30 9996 H 936.18 5.09536 3.17007 0
M  V30 9997 H 937.25 4.45759 1.90857 0
M  V30 9998 N 938.594 -0.753485 1.38421 0
M  V30 9999 C 939.557 -1.84888 1.35459 0
M  V30 10000 C 940.557 -1.58764 0.255083 0
M  V30 10001 O 941.747 -1.66507 0.511978 0
M  V30 10002 C 938.879 -3.22361 1.10888 0
M  V30 10003 H 940.072 -1.88922 2.32913 0
M  V30 10004 H 937.625 -0.955199 1.23716 0
M  V30 10005 H 938.36 -3.23996 0.1404 0
M  V30 10006 H 938.145 -3.42717 1.90492 0
M  V30 10007 H 939.635 -4.02437 1.1151 0
M  V30 10008 N 940.072 -1.23292 -0.981677 0
M  V30 10009 C 940.982 -1.02964 -2.10798 0
M  V30 10010 C 941.998 0.0254674 -1.73981 0
M  V30 10011 O 943.174 -0.169706 -2.00684 0
M  V30 10012 C 940.239 -0.621934 -3.41076 0
M  V30 10013 C 939.3 -1.75194 -3.91926 0
M  V30 10014 C 938.533 -1.36359 -5.15986 0
M  V30 10015 O 938.756 -0.247265 -5.69864 0
M  V30 10016 O 937.69 -2.18421 -5.60871 0
M  V30 10017 H 941.516 -1.97354 -2.30836 0
M  V30 10018 H 939.101 -1.01986 -1.09175 0
M  V30 10019 H 940.983 -0.405446 -4.19445 0
M  V30 10020 H 939.658 0.29299 -3.22371 0
M  V30 10021 H 938.565 -2.02305 -3.1468 0
M  V30 10022 H 939.898 -2.64513 -4.15083 0
M  V30 10023 N 941.55 1.18024 -1.04442 0
M  V30 10024 C 942.497 2.21785 -0.638759 0
M  V30 10025 C 943.467 1.62255 0.355312 0
M  V30 10026 O 944.652 1.89176 0.24844 0
M  V30 10027 C 941.792 3.45098 -0.0118002 0
M  V30 10028 C 940.905 4.1895 -1.05379 0
M  V30 10029 C 940.04 5.2973 -0.394951 0
M  V30 10030 C 939.079 5.95359 -1.42178 0
M  V30 10031 N 938.216 6.97668 -0.787635 0
M  V30 10032 H 943.056 2.55839 -1.52808 0
M  V30 10033 H 940.593 1.25681 -0.764378 0
M  V30 10034 H 942.551 4.15564 0.369075 0
M  V30 10035 H 941.181 3.11652 0.84102 0
M  V30 10036 H 940.233 3.47274 -1.55258 0
M  V30 10037 H 941.545 4.63877 -1.83355 0
M  V30 10038 H 940.699 6.06687 0.0399244 0
M  V30 10039 H 939.438 4.85915 0.416867 0
M  V30 10040 H 938.443 5.17139 -1.86675 0
M  V30 10041 H 939.668 6.41255 -2.23536 0
M  V30 10042 H 937.614 6.56 0.00380893 0
M  V30 10043 H 937.531 7.40867 -1.50505 0
M  V30 10044 H 938.799 7.78586 -0.377282 0
M  V30 10045 N 943.028 0.824394 1.34319 0
M  V30 10046 C 944.258 0.425576 2.02169 0
M  V30 10047 C 944.666 -0.973596 1.62227 0
M  V30 10048 O 944.009 -1.64173 0.824199 0
M  V30 10049 C 944.071 0.449902 3.56674 0
M  V30 10050 C 943.735 1.80266 4.19944 0
M  V30 10051 C 944.732 2.76373 4.40357 0
M  V30 10052 C 942.417 2.09155 4.56683 0
M  V30 10053 C 944.411 3.9954 4.96635 0
M  V30 10054 C 942.098 3.32581 5.12672 0
M  V30 10055 C 943.096 4.27591 5.32592 0
M  V30 10056 O 942.784 5.48837 5.87395 0
M  V30 10057 H 942.516 0.168866 0.654569 0
M  V30 10058 H 945.07 1.11441 1.7254 0
M  V30 10059 H 943.3 -0.295631 3.85568 0
M  V30 10060 H 944.989 0.0709302 4.05838 0
M  V30 10061 H 945.755 2.55351 4.12336 0
M  V30 10062 H 941.634 1.36004 4.40481 0
M  V30 10063 H 945.178 4.73709 5.12099 0
M  V30 10064 H 941.075 3.53466 5.40122 0
M  V30 10065 H 941.843 5.50377 6.05828 0
M  V30 10066 N 944.506 -1.46559 0.579492 0
M  V30 10067 C 945.416 -2.34066 -0.15816 0
M  V30 10068 C 946.432 -1.49556 -0.88932 0
M  V30 10069 O 947.608 -1.82434 -0.853226 0
M  V30 10070 C 944.673 -3.26683 -1.161 0
M  V30 10071 C 943.734 -4.27092 -0.434855 0
M  V30 10072 C 942.967 -5.15283 -1.38992 0
M  V30 10073 O 943.19 -5.06345 -2.62623 0
M  V30 10074 O 942.124 -5.95099 -0.902253 0
M  V30 10075 H 945.95 -2.98488 0.560234 0
M  V30 10076 H 943.535 -1.45482 0.339918 0
M  V30 10077 H 945.417 -3.8383 -1.73932 0
M  V30 10078 H 944.092 -2.64862 -1.86091 0
M  V30 10079 H 942.999 -3.73641 0.185224 0
M  V30 10080 H 944.332 -4.9169 0.224031 0
M  V30 10081 N 945.984 -0.3171 -1.54377 0
M  V30 10082 C 947.23 0.280631 -2.01455 0
M  V30 10083 C 947.585 1.50282 -1.20138 0
M  V30 10084 O 946.878 1.89634 -0.273785 0
M  V30 10085 C 947.072 0.672917 -3.51008 0
M  V30 10086 C 946.901 -0.509709 -4.46802 0
M  V30 10087 C 945.671 -1.00679 -4.95168 0
M  V30 10088 C 947.869 -1.35984 -4.95997 0
M  V30 10089 N 945.851 -2.1545 -5.74852 0
M  V30 10090 C 947.222 -2.35481 -5.73541 0
M  V30 10091 C 949.277 -1.38836 -4.78152 0
M  V30 10092 C 947.98 -3.37625 -6.35139 0
M  V30 10093 C 950.006 -2.39847 -5.40581 0
M  V30 10094 C 949.368 -3.38071 -6.1797 0
M  V30 10095 H 945.467 0.0667107 -0.779149 0
M  V30 10096 H 948.051 -0.450672 -1.89412 0
M  V30 10097 H 946.222 1.37336 -3.63309 0
M  V30 10098 H 947.954 1.25156 -3.84861 0
M  V30 10099 H 944.709 -0.579125 -4.70046 0
M  V30 10100 H 945.133 -2.73324 -6.19373 0
M  V30 10101 H 949.775 -0.642643 -4.17887 0
M  V30 10102 H 947.493 -4.13106 -6.94528 0
M  V30 10103 H 951.079 -2.42847 -5.28693 0
M  V30 10104 H 949.959 -4.14953 -6.6542 0
M  V30 10105 N 947.462 1.57535 -0.0451378 0
M  V30 10106 C 948.739 1.83785 0.669523 0
M  V30 10107 C 949.119 0.932331 1.89396 0
M  V30 10108 O 948.467 -0.00813229 2.28499 0
M  V30 10109 C 948.677 3.33376 1.03255 0
M  V30 10110 C 950.025 4.00243 1.41741 0
M  V30 10111 O 951.049 3.37965 1.12507 0
M  V30 10112 O 949.908 5.10038 1.96275 0
M  V30 10113 H 947.002 0.758342 0.329919 0
M  V30 10114 H 949.548 1.69538 -0.0740415 0
M  V30 10115 H 948.32 3.90965 0.161777 0
M  V30 10116 H 947.943 3.52787 1.83376 0
M  V30 10117 N 948.94 -0.228186 1.55939 0
M  V30 10118 C 950.186 -0.954964 1.78909 0
M  V30 10119 C 950.519 -1.8425 0.613648 0
M  V30 10120 O 949.794 -1.90604 -0.38737 0
M  V30 10121 C 950.077 -1.79957 3.1191 0
M  V30 10122 C 949.93 -0.938968 4.3989 0
M  V30 10123 C 951.249 -2.77859 3.41295 0
M  V30 10124 H 948.368 -0.345745 0.650868 0
M  V30 10125 H 951.01 -0.224244 1.88672 0
M  V30 10126 H 949.16 -2.42256 3.03717 0
M  V30 10127 H 950.832 -0.333225 4.60095 0
M  V30 10128 H 949.075 -0.244096 4.33113 0
M  V30 10129 H 949.746 -1.56416 5.29375 0
M  V30 10130 H 952.222 -2.25695 3.49572 0
M  V30 10131 H 951.098 -3.34062 4.35538 0
M  V30 10132 H 951.359 -3.55266 2.63132 0
M  V30 10133 N 950.418 -1.49637 -0.494624 0
M  V30 10134 C 951.381 -1.66252 -1.57775 0
M  V30 10135 C 952.381 -0.534054 -1.51672 0
M  V30 10136 O 953.571 -0.800637 -1.54711 0
M  V30 10137 C 950.703 -1.66584 -2.97426 0
M  V30 10138 H 951.896 -2.62864 -1.4437 0
M  V30 10139 H 949.449 -1.38764 -0.719323 0
M  V30 10140 H 950.184 -0.715798 -3.16302 0
M  V30 10141 H 949.969 -2.48543 -3.03264 0
M  V30 10142 H 951.459 -1.81474 -3.76108 0
M  V30 10143 N 951.896 0.746133 -1.38819 0
M  V30 10144 C 952.806 1.89063 -1.38897 0
M  V30 10145 C 953.822 1.71648 -0.28513 0
M  V30 10146 O 954.998 1.94443 -0.524783 0
M  V30 10147 C 952.063 3.24523 -1.22007 0
M  V30 10148 C 951.124 3.54411 -2.42263 0
M  V30 10149 C 950.357 4.83408 -2.26169 0
M  V30 10150 O 950.58 5.56325 -1.25931 0
M  V30 10151 O 949.514 5.12943 -3.14918 0
M  V30 10152 H 953.34 1.91951 -2.35347 0
M  V30 10153 H 950.925 0.892433 -1.19816 0
M  V30 10154 H 952.807 4.05496 -1.14677 0
M  V30 10155 H 951.482 3.2243 -0.286455 0
M  V30 10156 H 950.389 2.73569 -2.55168 0
M  V30 10157 H 951.722 3.61273 -3.3428 0
M  V30 10158 N 953.375 1.23811 0.975125 0
M  V30 10159 C 954.338 1.02505 2.05001 0
M  V30 10160 C 955.338 -0.0150084 1.60793 0
M  V30 10161 O 956.528 0.225246 1.72738 0
M  V30 10162 C 953.66 0.552087 3.364 0
M  V30 10163 H 954.853 1.979 2.25335 0
M  V30 10164 H 952.406 1.05929 1.1493 0
M  V30 10165 H 953.141 -0.405394 3.21756 0
M  V30 10166 H 952.926 1.30267 3.69828 0
M  V30 10167 H 954.416 0.423828 4.15444 0
M  V30 10168 N 954.853 -1.17469 1.05066 0
M  V30 10169 C 956.269 -1.39699 0.771769 0
M  V30 10170 C 956.469 -1.91253 -0.634382 0
M  V30 10171 O 955.525 -2.10334 -1.39699 0
M  V30 10172 C 956.838 -2.38886 1.82631 0
M  V30 10173 C 958.386 -2.52595 1.84838 0
M  V30 10174 C 958.861 -3.55054 2.89311 0
M  V30 10175 N 960.352 -3.6257 2.88266 0
M  V30 10176 C 961.087 -4.41603 3.65752 0
M  V30 10177 N 960.583 -5.24162 4.53019 0
M  V30 10178 N 962.376 -4.36464 3.54197 0
M  V30 10179 H 954.527 -0.823355 1.95792 0
M  V30 10180 H 956.79 -0.42432 0.847736 0
M  V30 10181 H 956.496 -2.08075 2.83545 0
M  V30 10182 H 956.37 -3.38371 1.66687 0
M  V30 10183 H 958.757 -2.82717 0.845888 0
M  V30 10184 H 958.838 -1.53188 2.04859 0
M  V30 10185 H 958.482 -3.2567 3.89745 0
M  V30 10186 H 958.412 -4.54162 2.66542 0
M  V30 10187 H 960.903 -3.03625 2.24989 0
M  V30 10188 H 961.216 -5.81646 5.0883 0
M  V30 10189 H 959.561 -5.23547 4.57081 0
M  V30 10190 H 962.752 -3.7102 2.85416 0
M  V30 10191 H 962.925 -4.97814 4.14832 0
M  V30 10192 N 956.331 -0.831506 -1.3388 0
M  V30 10193 C 957.278 -0.257449 -2.2936 0
M  V30 10194 C 958.248 0.622604 -1.5399 0
M  V30 10195 O 959.433 0.562432 -1.82322 0
M  V30 10196 C 956.573 0.567587 -3.404 0
M  V30 10197 C 955.686 -0.335666 -4.30694 0
M  V30 10198 C 954.821 0.499762 -5.28844 0
M  V30 10199 C 953.86 -0.402343 -6.10776 0
M  V30 10200 N 952.997 0.39452 -7.00991 0
M  V30 10201 H 957.837 -1.077 -2.77857 0
M  V30 10202 H 955.374 -0.542589 -1.36727 0
M  V30 10203 H 957.332 1.06133 -4.03474 0
M  V30 10204 H 955.962 1.35217 -2.93115 0
M  V30 10205 H 955.014 -0.94768 -3.68406 0
M  V30 10206 H 956.326 -1.02896 -4.88072 0
M  V30 10207 H 955.48 1.05763 -5.9741 0
M  V30 10208 H 954.219 1.22652 -4.72025 0
M  V30 10209 H 953.224 -0.972288 -5.41135 0
M  V30 10210 H 954.449 -1.12735 -6.69677 0
M  V30 10211 H 952.395 1.1048 -6.4663 0
M  V30 10212 H 952.312 -0.240209 -7.55618 0
M  V30 10213 H 953.58 0.934867 -7.73874 0
M  V30 10214 N 957.809 1.4625 -0.587256 0
M  V30 10215 C 959.058 2.01571 -0.0722643 0
M  V30 10216 C 959.371 1.46385 1.29733 0
M  V30 10217 O 960.577 1.93554 1.90392 0
M  V30 10218 C 959.033 3.59814 -0.078579 0
M  V30 10219 C 958.641 4.23996 -1.44678 0
M  V30 10220 C 960.385 4.22776 0.382231 0
M  V30 10221 C 958.292 5.74332 -1.41057 0
M  V30 10222 H 957.222 0.753642 -0.0232461 0
M  V30 10223 H 959.873 1.67936 -0.739577 0
M  V30 10224 H 958.255 3.90546 0.654988 0
M  V30 10225 H 959.429 4.04867 -2.20043 0
M  V30 10226 H 957.744 3.73147 -1.84799 0
M  V30 10227 H 960.341 5.32983 0.428182 0
M  V30 10228 H 960.684 3.92027 1.40072 0
M  V30 10229 H 961.217 3.96687 -0.297417 0
M  V30 10230 H 957.956 6.09747 -2.40601 0
M  V30 10231 H 957.476 5.95711 -0.699185 0
M  V30 10232 H 959.155 6.37137 -1.12543 0
M  V30 10233 N 959.287 0.325282 1.54207 0
M  V30 10234 C 960.533 -0.269944 2.01601 0
M  V30 10235 C 960.888 -1.49643 1.20933 0
M  V30 10236 O 960.181 -1.89486 0.283838 0
M  V30 10237 C 960.375 -0.654292 3.5136 0
M  V30 10238 C 960.204 0.533397 4.46525 0
M  V30 10239 C 958.974 1.03304 4.94628 0
M  V30 10240 C 961.172 1.38613 4.95269 0
M  V30 10241 N 959.154 2.18495 5.73701 0
M  V30 10242 C 960.525 2.38519 5.72284 0
M  V30 10243 C 962.58 1.41369 4.77409 0
M  V30 10244 C 961.283 3.40988 6.3334 0
M  V30 10245 C 963.309 2.4271 5.39301 0
M  V30 10246 C 962.671 3.41343 6.16169 0
M  V30 10247 H 958.77 -0.0625778 0.779492 0
M  V30 10248 H 961.354 0.460711 1.89171 0
M  V30 10249 H 959.525 -1.35408 3.64032 0
M  V30 10250 H 961.257 -1.23114 3.85519 0
M  V30 10251 H 958.012 0.604045 4.69732 0
M  V30 10252 H 958.436 2.76605 6.17915 0
M  V30 10253 H 963.078 0.664796 4.17541 0
M  V30 10254 H 960.796 4.16784 6.92327 0
M  V30 10255 H 964.382 2.45647 5.27398 0
M  V30 10256 H 963.262 4.18476 6.6321 0
M  V30 10257 N 960.765 -1.57509 0.0534917 0
M  V30 10258 C 962.005 -1.94654 -0.623641 0
M  V30 10259 C 962.369 -0.93184 -1.67871 0
M  V30 10260 O 963.57 -1.19031 -2.41009 0
M  V30 10261 C 961.841 -3.36575 -1.20216 0
M  V30 10262 S 963.4 -3.95677 -1.89697 0
M  V30 10263 H 960.218 -0.680893 -0.20471 0
M  V30 10264 H 962.82 -1.95113 0.122982 0
M  V30 10265 H 961.524 -4.08223 -0.422177 0
M  V30 10266 H 961.055 -3.39617 -1.98555 0
M  V30 10267 H 963.07 -3.81092 -3.17779 0
M  V30 10268 N 962.243 0.219913 -1.56058 0
M  V30 10269 C 963.49 0.944064 -1.79147 0
M  V30 10270 C 963.818 1.84268 -0.622531 0
M  V30 10271 O 963.073 1.91713 0.393013 0
M  V30 10272 C 963.372 1.81293 -3.08006 0
M  V30 10273 C 963.038 1.0674 -4.38084 0
M  V30 10274 C 961.7 0.86147 -4.73426 0
M  V30 10275 C 964.052 0.541049 -5.18384 0
M  V30 10276 C 961.38 0.117307 -5.86583 0
M  V30 10277 C 963.732 -0.189779 -6.32315 0
M  V30 10278 C 962.396 -0.406951 -6.66258 0
M  V30 10279 H 961.666 0.345458 -0.655546 0
M  V30 10280 H 964.313 0.212121 -1.90322 0
M  V30 10281 H 962.618 2.61278 -2.9196 0
M  V30 10282 H 964.315 2.3754 -3.23072 0
M  V30 10283 H 960.905 1.23789 -4.10334 0
M  V30 10284 H 965.089 0.687617 -4.91514 0
M  V30 10285 H 960.345 -0.0611651 -6.11369 0
M  V30 10286 H 964.519 -0.605134 -6.93766 0
M  V30 10287 H 962.146 -0.985511 -7.53785 0
M  V30 10288 N 963.721 1.49897 0.486681 0
M  V30 10289 C 964.969 1.59789 1.23742 0
M  V30 10290 C 965.29 0.293056 1.92785 0
M  V30 10291 O 964.56 -0.688534 1.83401 0
M  V30 10292 H 963.14 0.588775 0.459731 0
M  V30 10293 H 965.802 1.86597 0.562808 0
M  V30 10294 H 964.898 2.40121 1.9937 0
M  V30 10295 N 965.199 -0.738761 1.39212 0
M  V30 10296 C 966.61 -1.31684 1.32348 0
M  V30 10297 C 966.961 -1.96195 -0.0139041 0
M  V30 10298 O 966.086 -1.96056 -0.916025 0
M  V30 10299 C 966.681 -2.39444 2.39691 0
M  V30 10300 C 965.24 -2.92935 2.36359 0
M  V30 10301 C 964.387 -1.66465 2.21776 0
M  V30 10302 H 967.338 -0.536543 1.49355 0
M  V30 10303 H 967.359 -3.19744 2.06262 0
M  V30 10304 H 966.871 -1.92463 3.37016 0
M  V30 10305 H 964.972 -3.44207 1.42662 0
M  V30 10306 H 965.085 -3.46306 3.31073 0
M  V30 10307 H 963.449 -1.90657 1.68884 0
M  V30 10308 H 964.232 -1.21541 3.21065 0
M  V30 10309 N 966.677 -1.24326 -0.968545 0
M  V30 10310 C 967.954 -0.990459 -1.68669 0
M  V30 10311 C 968.334 0.487487 -2.05394 0
M  V30 10312 O 967.682 1.46158 -1.75642 0
M  V30 10313 C 967.892 -1.91251 -2.91931 0
M  V30 10314 C 969.24 -2.18291 -3.6419 0
M  V30 10315 O 970.264 -1.88897 -3.01987 0
M  V30 10316 O 969.123 -2.68204 -4.76161 0
M  V30 10317 H 966.217 -0.374515 -0.737338 0
M  V30 10318 H 968.763 -1.35421 -1.02271 0
M  V30 10319 H 967.535 -2.9111 -2.61478 0
M  V30 10320 H 967.158 -1.55188 -3.66064 0
M  V30 10321 N 968.156 1.1691 -1.05688 0
M  V30 10322 C 969.404 1.86922 -0.768409 0
M  V30 10323 C 969.725 1.81735 0.706921 0
M  V30 10324 O 968.995 1.24671 1.51109 0
M  V30 10325 H 967.575 0.69203 -0.281253 0
M  V30 10326 H 970.237 1.41803 -1.33708 0
M  V30 10327 H 969.333 2.92528 -1.08783 0
M  V30 10328 N 969.634 0.838594 1.33437 0
M  V30 10329 C 970.862 0.447644 2.01999 0
M  V30 10330 C 971.277 -0.951053 1.63096 0
M  V30 10331 O 970.634 -1.61802 0.844169 0
M  V30 10332 C 970.685 0.558378 3.57162 0
M  V30 10333 O 970.406 1.90196 3.94661 0
M  V30 10334 C 971.907 0.164348 4.42995 0
M  V30 10335 H 969.127 0.177736 0.647032 0
M  V30 10336 H 971.671 1.13109 1.70372 0
M  V30 10337 H 969.826 -0.0771563 3.87323 0
M  V30 10338 H 970.24 1.88729 4.89369 0
M  V30 10339 H 971.714 0.292876 5.51222 0
M  V30 10340 H 972.191 -0.893713 4.30011 0
M  V30 10341 H 972.797 0.774306 4.18192 0
M  V30 10342 N 971.112 -1.45937 0.595003 0
M  V30 10343 C 972.36 -2.01921 0.0851368 0
M  V30 10344 C 972.681 -1.46748 -1.28413 0
M  V30 10345 O 971.951 -0.656873 -1.84559 0
M  V30 10346 H 970.531 -0.746457 0.0284826 0
M  V30 10347 H 973.193 -1.78891 0.773561 0
M  V30 10348 H 972.289 -3.1209 0.0254002 0
M  V30 10349 N 972.59 -0.333456 -1.54032 0
M  V30 10350 C 974.001 0.15256 -1.86076 0
M  V30 10351 C 974.352 1.50819 -1.25492 0
M  V30 10352 O 973.477 2.08903 -0.564665 0
M  V30 10353 C 974.072 0.283599 -3.37611 0
M  V30 10354 C 972.631 0.713841 -3.69569 0
M  V30 10355 C 971.778 -0.158515 -2.76847 0
M  V30 10356 H 974.729 -0.553404 -1.48738 0
M  V30 10357 H 974.75 1.11284 -3.63863 0
M  V30 10358 H 974.262 -0.703193 -3.81676 0
M  V30 10359 H 972.363 1.71002 -3.31042 0
M  V30 10360 H 972.476 0.510731 -4.7637 0
M  V30 10361 H 970.84 0.367531 -2.52034 0
M  V30 10362 H 971.623 -1.14226 -3.2374 0
M  V30 10363 N 974.068 1.57479 -0.061844 0
M  V30 10364 C 975.016 2.13346 0.926629 0
M  V30 10365 C 976.01 1.06787 1.31502 0
M  V30 10366 O 977.216 1.25181 1.29343 0
M  V30 10367 H 973.591 0.682046 0.316729 0
M  V30 10368 H 975.562 2.95279 0.430424 0
M  V30 10369 C 974.311 2.70198 2.18834 0
M  V30 10370 H 973.634 3.51859 1.89829 0
M  V30 10371 H 975.074 3.12897 2.86132 0
M  V30 10372 C 973.533 1.64481 2.9402 0
M  V30 10373 O 974.063 1.0639 3.87355 0
M  V30 10374 N 972.269 1.35749 2.56944 0
M  V30 10375 H 971.816 1.83177 1.81119 0
M  V30 10376 H 971.774 0.652469 3.07555 0
M  V30 10377 N 975.546 -0.211634 1.56173 0
M  V30 10378 C 976.795 -0.932647 1.78842 0
M  V30 10379 C 977.108 -1.85103 0.63217 0
M  V30 10380 O 978.314 -2.61143 0.742746 0
M  V30 10381 C 976.77 -1.70866 3.16753 0
M  V30 10382 C 976.378 -0.835934 4.40132 0
M  V30 10383 C 978.122 -2.4203 3.48743 0
M  V30 10384 C 976.029 -1.60987 5.69067 0
M  V30 10385 H 974.959 -0.351983 0.666801 0
M  V30 10386 H 977.61 -0.186284 1.82552 0
M  V30 10387 H 975.992 -2.4983 3.07247 0
M  V30 10388 H 977.166 -0.0861298 4.60719 0
M  V30 10389 H 975.481 -0.235941 4.15731 0
M  V30 10390 H 978.078 -3.00453 4.42303 0
M  V30 10391 H 978.421 -3.15406 2.71707 0
M  V30 10392 H 978.954 -1.70048 3.59623 0
M  V30 10393 H 975.693 -0.9192 6.49023 0
M  V30 10394 H 975.213 -2.33403 5.52524 0
M  V30 10395 H 976.892 -2.16798 6.09596 0
M  V30 10396 N 977.024 -1.50153 -0.478725 0
M  V30 10397 C 977.954 -1.71384 -1.58587 0
M  V30 10398 C 978.935 -0.562705 -1.60523 0
M  V30 10399 O 980.12 -0.80101 -1.76911 0
M  V30 10400 C 977.25 -1.80094 -2.96957 0
M  V30 10401 C 976.204 -2.95218 -3.09888 0
M  V30 10402 C 975.53 -2.89063 -4.49829 0
M  V30 10403 C 976.83 -4.35841 -2.8782 0
M  V30 10404 H 978.524 -2.64081 -1.41073 0
M  V30 10405 H 976.07 -1.27081 -0.677239 0
M  V30 10406 H 978.023 -1.93531 -3.74331 0
M  V30 10407 H 976.747 -0.840131 -3.1561 0
M  V30 10408 H 975.406 -2.81419 -2.34944 0
M  V30 10409 H 975.054 -1.90844 -4.6539 0
M  V30 10410 H 974.754 -3.66345 -4.59418 0
M  V30 10411 H 976.278 -3.04539 -5.29234 0
M  V30 10412 H 977.692 -4.50205 -3.54948 0
M  V30 10413 H 976.089 -5.14515 -3.0886 0
M  V30 10414 H 977.159 -4.48739 -1.83742 0
M  V30 10415 N 978.502 0.731368 -1.39602 0
M  V30 10416 C 979.73 1.52059 -1.40305 0
M  V30 10417 C 980.145 1.888 0.00147921 0
M  V30 10418 O 979.502 1.54354 0.973715 0
M  V30 10419 C 979.553 2.80588 -2.27931 0
M  V30 10420 O 979.274 2.45406 -3.62915 0
M  V30 10421 C 980.775 3.74592 -2.37056 0
M  V30 10422 H 977.995 0.469787 -0.479104 0
M  V30 10423 H 980.539 0.903436 -1.83462 0
M  V30 10424 H 978.694 3.38626 -1.88178 0
M  V30 10425 H 979.108 3.27996 -4.09291 0
M  V30 10426 H 980.582 4.61662 -3.02609 0
M  V30 10427 H 981.059 4.16597 -1.39081 0
M  V30 10428 H 981.665 3.22471 -2.77295 0
M  V30 10429 N 979.98 1.24838 0.961938 0
M  V30 10430 C 981.257 0.99939 1.68141 0
M  V30 10431 C 981.637 -0.476588 2.0565 0
M  V30 10432 O 980.985 -1.45224 1.76415 0
M  V30 10433 C 981.195 1.92797 2.90913 0
M  V30 10434 C 982.543 2.20219 3.63027 0
M  V30 10435 O 983.567 1.90496 3.00981 0
M  V30 10436 O 982.426 2.70725 4.74731 0
M  V30 10437 H 979.52 0.37842 0.735342 0
M  V30 10438 H 982.066 1.35961 1.01551 0
M  V30 10439 H 980.838 2.92492 2.59931 0
M  V30 10440 H 980.461 1.57127 3.65235 0
M  V30 10441 N 981.458 -1.16348 1.06306 0
M  V30 10442 C 982.707 -1.8622 0.774909 0
M  V30 10443 C 983.02 -1.82598 -0.701245 0
M  V30 10444 O 984.226 -2.48051 -1.10377 0
M  V30 10445 C 982.682 -3.34182 1.33604 0
M  V30 10446 C 982.29 -3.46279 2.84245 0
M  V30 10447 C 984.034 -4.09309 1.12544 0
M  V30 10448 C 981.941 -4.88327 3.33602 0
M  V30 10449 H 980.871 -0.697574 0.286194 0
M  V30 10450 H 983.522 -1.31311 1.28179 0
M  V30 10451 H 981.904 -3.88698 0.756937 0
M  V30 10452 H 983.078 -3.01923 3.48108 0
M  V30 10453 H 981.393 -2.84585 3.03974 0
M  V30 10454 H 983.99 -5.14123 1.46909 0
M  V30 10455 H 984.333 -4.16251 0.0638129 0
M  V30 10456 H 984.866 -3.61032 1.67034 0
M  V30 10457 H 981.605 -4.86565 4.39244 0
M  V30 10458 H 981.125 -5.33307 2.74487 0
M  V30 10459 H 982.804 -5.57144 3.28937 0
M  V30 10460 N 982.937 -0.845659 -1.3299 0
M  V30 10461 C 984.165 -0.45835 -2.01759 0
M  V30 10462 C 984.58 0.94239 -1.63598 0
M  V30 10463 O 983.937 1.61353 -0.852738 0
M  V30 10464 C 983.988 -0.577311 -3.5686 0
M  V30 10465 O 983.709 -1.92287 -3.93646 0
M  V30 10466 C 985.21 -0.187839 -4.42902 0
M  V30 10467 H 982.43 -0.181165 -0.646081 0
M  V30 10468 H 984.974 -1.14011 -1.6977 0
M  V30 10469 H 983.129 0.0566146 -3.87359 0
M  V30 10470 H 983.543 -1.91322 -4.88361 0
M  V30 10471 H 985.017 -0.322105 -5.51059 0
M  V30 10472 H 985.494 0.870896 -4.30479 0
M  V30 10473 H 986.1 -0.796473 -4.17776 0
M  V30 10474 N 984.415 1.45619 -0.602734 0
M  V30 10475 C 985.362 2.30493 0.118944 0
M  V30 10476 C 986.332 1.41816 0.864723 0
M  V30 10477 O 987.517 1.7075 0.851424 0
M  V30 10478 C 984.657 3.2664 1.11356 0
M  V30 10479 C 983.77 4.3042 0.369161 0
M  V30 10480 C 982.905 5.13678 1.35307 0
M  V30 10481 C 981.944 6.09189 0.596207 0
M  V30 10482 N 981.081 6.85245 1.52916 0
M  V30 10483 H 985.921 2.91672 -0.610836 0
M  V30 10484 H 983.458 1.43731 -0.313032 0
M  V30 10485 H 985.416 3.80846 1.7033 0
M  V30 10486 H 984.046 2.67225 1.81081 0
M  V30 10487 H 983.098 3.78913 -0.335994 0
M  V30 10488 H 984.41 4.98307 -0.221603 0
M  V30 10489 H 983.564 5.7226 2.01502 0
M  V30 10490 H 982.303 4.45798 1.97777 0
M  V30 10491 H 981.308 5.49743 -0.0793984 0
M  V30 10492 H 982.533 6.79096 -0.0233734 0
M  V30 10493 H 980.479 6.20058 2.14159 0
M  V30 10494 H 980.396 7.49467 0.991713 0
M  V30 10495 H 981.664 7.48371 2.18083 0
M  V30 10496 N 985.893 0.34162 1.53853 0
M  V30 10497 C 987.141 -0.254979 2.00485 0
M  V30 10498 C 987.462 -1.51222 1.23114 0
M  V30 10499 O 986.732 -1.92966 0.337787 0
M  V30 10500 H 985.312 -0.0972084 0.740648 0
M  V30 10501 H 987.974 0.462332 1.89337 0
M  V30 10502 H 987.07 -0.498778 3.08089 0
M  V30 10503 N 987.371 -1.57444 0.0701946 0
M  V30 10504 C 988.617 -1.93716 -0.600178 0
M  V30 10505 C 988.95 -0.950329 -1.69359 0
M  V30 10506 O 988.225 0.0207123 -1.94489 0
M  V30 10507 C 988.508 -3.40266 -1.17861 0
M  V30 10508 C 988.361 -4.49706 -0.0919575 0
M  V30 10509 C 989.68 -3.87599 -2.08459 0
M  V30 10510 H 986.799 -0.704421 -0.216704 0
M  V30 10511 H 989.441 -1.89514 0.135838 0
M  V30 10512 H 987.591 -3.43977 -1.80587 0
M  V30 10513 H 989.263 -4.58116 0.541031 0
M  V30 10514 H 987.506 -4.29937 0.577639 0
M  V30 10515 H 988.177 -5.49381 -0.537048 0
M  V30 10516 H 990.653 -3.85883 -1.5567 0
M  V30 10517 H 989.529 -4.90755 -2.45867 0
M  V30 10518 H 989.79 -3.25448 -2.99226 0
M  V30 10519 N 988.849 0.203349 -1.56283 0
M  V30 10520 C 989.781 1.27592 -1.90402 0
M  V30 10521 C 990.794 1.4213 -0.79391 0
M  V30 10522 O 991.983 1.42703 -1.07229 0
M  V30 10523 C 989.083 2.64919 -2.11356 0
M  V30 10524 C 988.256 2.72095 -3.42466 0
M  V30 10525 C 987.315 3.9056 -3.52631 0
M  V30 10526 O 986.341 3.78048 -4.25521 0
M  V30 10527 N 987.543 5.0566 -2.85111 0
M  V30 10528 H 990.308 0.986423 -2.83001 0
M  V30 10529 H 987.869 0.39331 -1.5705 0
M  V30 10530 H 989.861 3.42581 -2.15453 0
M  V30 10531 H 988.431 2.86391 -1.25295 0
M  V30 10532 H 987.651 1.8077 -3.50308 0
M  V30 10533 H 988.939 2.73874 -4.28801 0
M  V30 10534 H 988.337 5.18723 -2.25705 0
M  V30 10535 H 986.894 5.81299 -2.94847 0
M  V30 10536 N 990.327 1.50405 0.470755 0
M  V30 10537 C 991.557 1.64928 1.24428 0
M  V30 10538 C 991.965 0.332139 1.86262 0
M  V30 10539 O 991.308 -0.695919 1.70008 0
M  V30 10540 C 991.37 2.6829 2.39293 0
M  V30 10541 C 991.034 4.11835 1.98093 0
M  V30 10542 C 992.031 4.97693 1.50326 0
M  V30 10543 C 989.716 4.57753 2.06803 0
M  V30 10544 C 991.71 6.27516 1.11813 0
M  V30 10545 C 989.397 5.87582 1.67902 0
M  V30 10546 C 990.395 6.72289 1.20485 0
M  V30 10547 O 990.083 7.99694 0.821219 0
M  V30 10548 H 989.815 0.557418 0.382442 0
M  V30 10549 H 992.369 1.97382 0.568292 0
M  V30 10550 H 990.599 2.31079 3.10063 0
M  V30 10551 H 992.288 2.7203 3.01255 0
M  V30 10552 H 993.054 4.63434 1.43018 0
M  V30 10553 H 988.933 3.91966 2.42659 0
M  V30 10554 H 992.477 6.93586 0.747317 0
M  V30 10555 H 988.374 6.21362 1.74869 0
M  V30 10556 H 989.142 8.12968 0.950038 0
M  V30 10557 N 991.805 -0.723954 1.39988 0
M  V30 10558 C 992.735 -1.85103 1.42335 0
M  V30 10559 C 993.716 -1.6769 0.285297 0
M  V30 10560 O 994.901 -1.87846 0.492716 0
M  V30 10561 C 992.031 -3.22972 1.27697 0
M  V30 10562 C 990.985 -3.55041 2.39018 0
M  V30 10563 C 990.311 -4.91965 2.09462 0
M  V30 10564 C 991.611 -3.56889 3.8135 0
M  V30 10565 H 993.305 -1.83396 2.36656 0
M  V30 10566 H 990.851 -0.880926 1.13911 0
M  V30 10567 H 992.804 -4.01503 1.27958 0
M  V30 10568 H 991.528 -3.25233 0.298487 0
M  V30 10569 H 990.187 -2.78845 2.37993 0
M  V30 10570 H 989.835 -4.90819 1.10025 0
M  V30 10571 H 989.535 -5.14389 2.84038 0
M  V30 10572 H 991.059 -5.7284 2.11391 0
M  V30 10573 H 992.473 -4.25476 3.84243 0
M  V30 10574 H 990.87 -3.90836 4.55376 0
M  V30 10575 H 991.94 -2.56452 4.11534 0
M  V30 10576 N 993.283 -1.25346 -0.955304 0
M  V30 10577 C 994.231 -1.05461 -2.07318 0
M  V30 10578 C 995.225 0.0142699 -1.69394 0
M  V30 10579 O 996.431 -0.141292 -1.79445 0
M  V30 10580 H 992.806 -0.324095 -0.678577 0
M  V30 10581 H 994.777 -2.00231 -2.21247 0
M  V30 10582 C 993.526 -0.689329 -3.40798 0
M  V30 10583 H 992.849 -1.50362 -3.70447 0
M  V30 10584 H 994.289 -0.589883 -4.19877 0
M  V30 10585 C 992.748 0.604556 -3.31431 0
M  V30 10586 O 993.278 1.64686 -3.6639 0
M  V30 10587 N 991.484 0.589927 -2.84549 0
M  V30 10588 H 991.031 -0.258647 -2.56298 0
M  V30 10589 H 990.989 1.4558 -2.78664 0
M  V30 10590 N 994.761 1.15782 -1.06922 0
M  V30 10591 C 995.671 2.24008 -0.696948 0
M  V30 10592 C 996.687 1.71569 0.289862 0
M  V30 10593 O 997.863 2.00929 0.137585 0
M  V30 10594 C 994.928 3.46568 -0.0957895 0
M  V30 10595 C 993.989 4.14017 -1.13528 0
M  V30 10596 C 993.222 5.30725 -0.562713 0
M  V30 10597 O 993.445 5.66992 0.62259 0
M  V30 10598 O 992.379 5.87572 -1.30549 0
M  V30 10599 H 996.205 2.58174 -1.59938 0
M  V30 10600 H 993.79 1.2342 -0.841889 0
M  V30 10601 H 995.672 4.20731 0.237407 0
M  V30 10602 H 994.347 3.14161 0.780027 0
M  V30 10603 H 993.254 3.41795 -1.52076 0
M  V30 10604 H 994.587 4.50493 -1.98285 0
M  V30 10605 N 996.239 0.8527 1.3254 0
M  V30 10606 C 997.488 0.45136 1.96585 0
M  V30 10607 C 997.801 -0.997773 1.68237 0
M  V30 10608 O 999.007 -1.50445 2.26006 0
M  V30 10609 C 997.463 0.75619 3.51866 0
M  V30 10610 C 997.071 2.22092 3.89075 0
M  V30 10611 C 998.815 0.422478 4.22392 0
M  V30 10612 C 996.722 2.46908 5.37392 0
M  V30 10613 H 995.652 0.165052 0.735713 0
M  V30 10614 H 998.303 1.04321 1.50962 0
M  V30 10615 H 996.685 0.0937988 3.95889 0
M  V30 10616 H 997.859 2.92494 3.56067 0
M  V30 10617 H 996.174 2.51896 3.31568 0
M  V30 10618 H 998.771 0.58533 5.31487 0
M  V30 10619 H 999.114 -0.635737 4.11417 0
M  V30 10620 H 999.647 1.04068 3.83946 0
M  V30 10621 H 996.386 3.51346 5.53386 0
M  V30 10622 H 995.906 1.81082 5.71812 0
M  V30 10623 H 997.585 2.30758 6.0445 0
M  V30 10624 N 997.718 -1.45297 0.610449 0
M  V30 10625 C 998.665 -2.30553 -0.106718 0
M  V30 10626 C 999.635 -1.42272 -0.85719 0
M  V30 10627 O 1000.82 -1.71199 -0.842357 0
M  V30 10628 C 997.96 -3.27226 -1.09623 0
M  V30 10629 C 997.073 -4.3061 -0.346329 0
M  V30 10630 C 996.208 -5.14389 -1.32581 0
M  V30 10631 C 995.247 -6.09497 -0.563892 0
M  V30 10632 N 994.384 -6.86047 -1.4928 0
M  V30 10633 H 999.224 -2.91344 0.626296 0
M  V30 10634 H 996.761 -1.43563 0.32065 0
M  V30 10635 H 998.719 -3.81744 -1.68308 0
M  V30 10636 H 997.349 -2.68182 -1.79662 0
M  V30 10637 H 996.401 -3.7873 0.356084 0
M  V30 10638 H 997.713 -4.98183 0.248026 0
M  V30 10639 H 996.867 -5.73321 -1.98464 0
M  V30 10640 H 995.606 -4.4684 -1.9541 0
M  V30 10641 H 994.611 -5.49693 0.108551 0
M  V30 10642 H 995.836 -6.79074 0.0593872 0
M  V30 10643 H 993.782 -6.21185 -2.10868 0
M  V30 10644 H 993.699 -7.49983 -0.951953 0
M  V30 10645 H 994.967 -7.49518 -2.14112 0
M  V30 10646 N 999.196 -0.349774 -1.5367 0
M  V30 10647 C 1000.47 0.300419 -1.93279 0
M  V30 10648 C 1000.85 1.67721 -1.28191 0
M  V30 10649 O 1000.2 2.24319 -0.435127 0
M  V30 10650 C 1000.41 0.366466 -3.47071 0
M  V30 10651 C 1001.76 0.614349 -4.20132 0
M  V30 10652 O 1002.78 0.448327 -3.53367 0
M  V30 10653 O 1001.64 0.936421 -5.38417 0
M  V30 10654 H 998.736 0.176599 -0.807924 0
M  V30 10655 H 1001.28 -0.401405 -1.64884 0
M  V30 10656 H 1000.05 -0.599455 -3.86681 0
M  V30 10657 H 999.677 1.11482 -3.81651 0
M  V30 10658 N 1000.67 1.57404 -0.0785433 0
M  V30 10659 C 1001.9 1.98492 0.601292 0
M  V30 10660 C 1002.32 0.956832 1.61945 0
M  V30 10661 O 1001.68 -0.0767502 1.81137 0
M  V30 10662 C 1001.73 3.38596 1.24036 0
M  V30 10663 O 1000.83 3.38461 2.35622 0
M  V30 10664 H 1000.17 0.645882 0.154054 0
M  V30 10665 H 1002.7 2.04012 -0.155056 0
M  V30 10666 H 1002.71 3.75929 1.5856 0
M  V30 10667 H 1001.39 4.12952 0.494341 0
M  V30 10668 H 999.967 3.12906 2.02841 0
M  V30 10669 N 1002.15 -0.195058 1.56388 0
M  V30 10670 C 1003.4 -0.9168 1.80894 0
M  V30 10671 C 1003.73 -1.82907 0.652592 0
M  V30 10672 O 1003.01 -1.91382 -0.346853 0
M  V30 10673 C 1003.29 -1.733 3.15657 0
M  V30 10674 C 1003.14 -0.845449 4.41783 0
M  V30 10675 C 1004.46 -2.70557 3.47112 0
M  V30 10676 H 1001.58 -0.331861 0.658056 0
M  V30 10677 H 1004.22 -0.184174 1.89105 0
M  V30 10678 H 1002.37 -2.3576 3.08787 0
M  V30 10679 H 1004.04 -0.235557 4.60698 0
M  V30 10680 H 1002.29 -0.152172 4.33533 0
M  V30 10681 H 1002.96 -1.45152 5.32574 0
M  V30 10682 H 1005.43 -2.1823 3.54281 0
M  V30 10683 H 1004.31 -3.24749 4.42526 0
M  V30 10684 H 1004.57 -3.49605 2.70608 0
M  V30 10685 N 1003.63 -1.50653 -0.462772 0
M  V30 10686 C 1004.88 -1.62297 -1.21603 0
M  V30 10687 C 1005.21 -0.326191 -1.91441 0
M  V30 10688 O 1004.48 0.67284 -1.82491 0
M  V30 10689 C 1004.77 -2.80901 -2.25315 0
M  V30 10690 C 1004.62 -4.20484 -1.59728 0
M  V30 10691 C 1005.94 -2.95049 -3.26549 0
M  V30 10692 H 1003.06 -0.590691 -0.440741 0
M  V30 10693 H 1005.7 -1.83064 -0.508675 0
M  V30 10694 H 1003.85 -2.63325 -2.85643 0
M  V30 10695 H 1005.52 -4.49669 -1.02932 0
M  V30 10696 H 1003.76 -4.24357 -0.900181 0
M  V30 10697 H 1004.44 -4.99416 -2.35133 0
M  V30 10698 H 1006.91 -3.11166 -2.76251 0
M  V30 10699 H 1005.79 -3.79645 -3.96435 0
M  V30 10700 H 1006.05 -2.06019 -3.91163 0
M  V30 10701 N 1005.11 0.71652 -1.4037 0
M  V30 10702 C 1006.07 1.81231 -1.40313 0
M  V30 10703 C 1007.07 1.58032 -0.297087 0
M  V30 10704 O 1008.26 1.65091 -0.555944 0
M  V30 10705 C 1005.39 3.19308 -1.19395 0
M  V30 10706 H 1006.59 1.8268 -2.3784 0
M  V30 10707 H 1004.14 0.922062 -1.26205 0
M  V30 10708 H 1004.87 3.2351 -0.226252 0
M  V30 10709 H 1004.66 3.37546 -1.99512 0
M  V30 10710 H 1006.15 3.99339 -1.22141 0
M  V30 10711 N 1006.59 1.25851 0.948643 0
M  V30 10712 C 1007.83 1.10735 1.69062 0
M  V30 10713 C 1008.16 -0.351257 1.9181 0
M  V30 10714 O 1007.43 -1.24867 1.50947 0
M  V30 10715 H 1006.01 0.406796 0.626519 0
M  V30 10716 H 1008.67 1.58066 1.14022 0
M  V30 10717 H 1007.76 1.62033 2.66743 0
M  V30 10718 N 1008.06 -1.15214 1.07534 0
M  V30 10719 C 1009.31 -1.86043 0.799629 0
M  V30 10720 C 1009.64 -1.82435 -0.674356 0
M  V30 10721 O 1008.89 -1.24379 -1.51091 0
M  V30 10722 C 1009.19 -3.34623 1.25547 0
M  V30 10723 C 1008.86 -3.58425 2.73573 0
M  V30 10724 C 1007.52 -3.6463 3.14004 0
M  V30 10725 C 1009.87 -3.67977 3.6911 0
M  V30 10726 C 1007.2 -3.779 4.48786 0
M  V30 10727 C 1009.55 -3.82771 5.03656 0
M  V30 10728 C 1008.22 -3.87222 5.43705 0
M  V30 10729 H 1007.49 -0.680781 0.292605 0
M  V30 10730 H 1010.13 -1.36149 1.34669 0
M  V30 10731 H 1008.44 -3.86737 0.627828 0
M  V30 10732 H 1010.14 -3.87836 1.01901 0
M  V30 10733 H 1006.73 -3.54238 2.41275 0
M  V30 10734 H 1010.91 -3.62482 3.39 0
M  V30 10735 H 1006.17 -3.79604 4.79281 0
M  V30 10736 H 1010.34 -3.89104 5.77556 0
M  V30 10737 H 1007.97 -3.97256 6.48145 0
M  V30 10738 N 1009.54 -0.859717 -1.32086 0
M  V30 10739 C 1010.47 -0.265258 -2.2766 0
M  V30 10740 C 1011.49 0.565889 -1.52648 0
M  V30 10741 O 1012.68 0.389554 -1.74197 0
M  V30 10742 C 1009.78 0.643397 -3.32737 0
M  V30 10743 C 1008.95 -0.153024 -4.37132 0
M  V30 10744 C 1008.01 0.682176 -5.21759 0
M  V30 10745 O 1007.03 0.113878 -5.69086 0
M  V30 10746 N 1008.24 1.99602 -5.45105 0
M  V30 10747 H 1011 -1.08653 -2.79311 0
M  V30 10748 H 1008.56 -0.720191 -1.45 0
M  V30 10749 H 1010.55 1.20759 -3.86263 0
M  V30 10750 H 1009.12 1.36535 -2.81206 0
M  V30 10751 H 1008.34 -0.898657 -3.8382 0
M  V30 10752 H 1009.63 -0.699877 -5.03963 0
M  V30 10753 H 1009.03 2.481 -5.08393 0
M  V30 10754 H 1007.59 2.50823 -6.01607 0
M  V30 10755 N 1011.02 1.44971 -0.618145 0
M  V30 10756 C 1012.27 2.03009 -0.126125 0
M  V30 10757 C 1012.62 1.47656 1.23351 0
M  V30 10758 O 1011.91 0.645901 1.80385 0
M  V30 10759 C 1012.11 3.57378 -0.0394861 0
M  V30 10760 C 1011.94 4.27706 -1.38918 0
M  V30 10761 C 1010.71 4.65206 -1.97261 0
M  V30 10762 C 1012.91 4.58987 -2.32024 0
M  V30 10763 N 1010.89 5.2044 -3.256 0
M  V30 10764 C 1012.26 5.15167 -3.44969 0
M  V30 10765 C 1014.31 4.40932 -2.31265 0
M  V30 10766 C 1013.02 5.55193 -4.57333 0
M  V30 10767 C 1015.04 4.81997 -3.42684 0
M  V30 10768 C 1014.4 5.38279 -4.54352 0
M  V30 10769 H 1010.5 0.77683 -0.0897695 0
M  V30 10770 H 1013.09 1.76646 -0.818805 0
M  V30 10771 H 1011.26 3.8338 0.622441 0
M  V30 10772 H 1012.99 4.02075 0.460165 0
M  V30 10773 H 1009.75 4.49102 -1.50348 0
M  V30 10774 H 1010.17 5.52546 -3.9118 0
M  V30 10775 H 1014.81 3.96723 -1.46187 0
M  V30 10776 H 1012.53 5.98362 -5.43128 0
M  V30 10777 H 1016.12 4.69751 -3.43257 0
M  V30 10778 H 1015 5.6947 -5.39142 0
M  V30 10779 N 1012.5 0.357919 1.53482 0
M  V30 10780 C 1013.46 -0.479797 2.24122 0
M  V30 10781 C 1014.46 -1.01596 1.24639 0
M  V30 10782 O 1015.65 -0.902928 1.48973 0
M  V30 10783 C 1012.78 -1.66983 2.97203 0
M  V30 10784 H 1013.98 0.138219 2.99581 0
M  V30 10785 H 1011.53 0.109484 1.55916 0
M  V30 10786 H 1012.26 -2.32615 2.25966 0
M  V30 10787 H 1012.05 -1.29242 3.70188 0
M  V30 10788 H 1013.54 -2.26367 3.50924 0
M  V30 10789 N 1013.98 -1.5736 0.0868897 0
M  V30 10790 C 1015.2 -1.98388 -0.587349 0
M  V30 10791 C 1015.62 -0.965757 -1.6223 0
M  V30 10792 O 1014.98 0.0456981 -1.82443 0
M  V30 10793 C 1015.03 -3.39479 -1.24242 0
M  V30 10794 O 1014.75 -4.37393 -0.248878 0
M  V30 10795 C 1016.25 -3.95465 -2.00305 0
M  V30 10796 H 1013.47 -0.652111 -0.15809 0
M  V30 10797 H 1016.01 -2.03843 0.163754 0
M  V30 10798 H 1014.17 -3.35063 -1.94451 0
M  V30 10799 H 1014.58 -5.19525 -0.720678 0
M  V30 10800 H 1016.06 -4.96363 -2.41511 0
M  V30 10801 H 1016.53 -3.32832 -2.86565 0
M  V30 10802 H 1017.14 -4.03328 -1.34931 0
M  V30 10803 N 1015.45 0.186762 -1.56489 0
M  V30 10804 C 1016.4 1.23141 -1.95205 0
M  V30 10805 C 1017.37 1.44799 -0.81378 0
M  V30 10806 O 1018.56 1.57795 -1.07263 0
M  V30 10807 C 1015.7 2.56926 -2.30397 0
M  V30 10808 C 1014.81 2.42777 -3.57328 0
M  V30 10809 C 1013.94 3.69323 -3.81804 0
M  V30 10810 C 1012.98 3.50041 -5.02133 0
M  V30 10811 N 1012.12 4.68619 -5.2282 0
M  V30 10812 H 1016.96 0.894256 -2.84266 0
M  V30 10813 H 1014.5 0.430187 -1.40669 0
M  V30 10814 H 1016.46 3.3488 -2.4882 0
M  V30 10815 H 1015.09 2.88668 -1.44466 0
M  V30 10816 H 1014.14 1.56078 -3.46906 0
M  V30 10817 H 1015.45 2.24468 -4.45439 0
M  V30 10818 H 1014.6 4.55715 -4.00511 0
M  V30 10819 H 1013.34 3.90595 -2.92039 0
M  V30 10820 H 1012.35 2.62034 -4.8334 0
M  V30 10821 H 1013.57 3.30206 -5.93414 0
M  V30 10822 H 1011.52 4.90139 -4.36005 0
M  V30 10823 H 1011.44 4.53165 -6.05126 0
M  V30 10824 H 1012.7 5.56338 -5.45993 0
M  V30 10825 N 1016.93 1.50896 0.454776 0
M  V30 10826 C 1017.84 1.73762 1.5762 0
M  V30 10827 C 1018.86 0.621206 1.62533 0
M  V30 10828 O 1020.03 0.901449 1.801 0
M  V30 10829 C 1017.1 1.84183 2.9373 0
M  V30 10830 C 1016.16 3.07982 2.99075 0
M  V30 10831 C 1015.39 3.17896 4.28693 0
M  V30 10832 O 1015.62 2.34184 5.20109 0
M  V30 10833 O 1014.55 4.10749 4.39964 0
M  V30 10834 H 1018.38 2.68856 1.41245 0
M  V30 10835 H 1015.96 1.35187 0.635984 0
M  V30 10836 H 1017.84 1.93123 3.74542 0
M  V30 10837 H 1016.52 0.922742 3.10269 0
M  V30 10838 H 1015.43 3.04531 2.17282 0
M  V30 10839 H 1016.76 3.99523 2.87476 0
M  V30 10840 N 1018.41 -0.709066 1.40748 0
M  V30 10841 C 1019.66 -1.46611 1.39103 0
M  V30 10842 C 1019.98 -1.95 -0.00365366 0
M  V30 10843 O 1019.25 -1.70791 -0.959541 0
M  V30 10844 H 1017.83 -0.543954 0.511979 0
M  V30 10845 H 1020.49 -0.840141 1.75863 0
M  V30 10846 H 1019.59 -2.33581 2.06994 0
M  V30 10847 N 1019.89 -1.26353 -0.941956 0
M  V30 10848 C 1020.85 -1.07904 -2.02211 0
M  V30 10849 C 1021.85 -0.0276283 -1.60776 0
M  V30 10850 O 1023.04 -0.270965 -1.7208 0
M  V30 10851 C 1020.17 -0.641084 -3.34818 0
M  V30 10852 H 1021.37 -2.03804 -2.20009 0
M  V30 10853 H 1018.92 -1.08939 -1.12081 0
M  V30 10854 H 1019.66 0.319943 -3.22718 0
M  V30 10855 H 1019.44 -1.40027 -3.66244 0
M  V30 10856 H 1020.93 -0.533826 -4.14174 0
M  V30 10857 N 1021.37 1.14642 -1.08144 0
M  V30 10858 C 1022.3 2.21775 -0.730609 0
M  V30 10859 C 1023.28 1.67683 0.285702 0
M  V30 10860 O 1024.46 1.93567 0.156667 0
M  V30 10861 C 1021.59 3.47033 -0.136242 0
M  V30 10862 C 1020.55 4.14134 -1.0806 0
M  V30 10863 C 1019.87 5.33563 -0.348585 0
M  V30 10864 C 1021.17 4.62978 -2.41761 0
M  V30 10865 H 1022.87 2.51378 -1.62633 0
M  V30 10866 H 1020.41 1.20825 -0.783411 0
M  V30 10867 H 1022.37 4.21226 0.121182 0
M  V30 10868 H 1021.09 3.16786 0.7946 0
M  V30 10869 H 1019.75 3.41892 -1.32308 0
M  V30 10870 H 1019.4 4.99575 0.585974 0
M  V30 10871 H 1019.1 5.79402 -0.978122 0
M  V30 10872 H 1020.62 6.10519 -0.0991508 0
M  V30 10873 H 1022.04 5.28659 -2.21795 0
M  V30 10874 H 1020.43 5.1951 -3.00383 0
M  V30 10875 H 1021.5 3.78189 -3.03482 0
M  V30 10876 N 1022.85 0.866709 1.31628 0
M  V30 10877 C 1024.09 0.482479 1.98624 0
M  V30 10878 C 1024.45 -0.946844 1.6703 0
M  V30 10879 O 1025.65 -1.43626 2.27212 0
M  V30 10880 C 1023.92 0.728582 3.49895 0
M  V30 10881 S 1025.48 0.443724 4.36551 0
M  V30 10882 H 1022.3 0.180238 0.687776 0
M  V30 10883 H 1024.9 1.12203 1.60096 0
M  V30 10884 H 1023.6 1.76769 3.70379 0
M  V30 10885 H 1023.14 0.075903 3.93327 0
M  V30 10886 H 1025.15 -0.72534 4.9087 0
M  V30 10887 N 1024.32 -1.44642 0.625825 0
M  V30 10888 C 1025.23 -2.34451 -0.0836134 0
M  V30 10889 C 1026.25 -1.5231 -0.841289 0
M  V30 10890 O 1027.43 -1.85056 -0.794754 0
M  V30 10891 C 1024.49 -3.30211 -1.05648 0
M  V30 10892 C 1023.55 -4.28259 -0.298759 0
M  V30 10893 C 1022.78 -5.19444 -1.22528 0
M  V30 10894 O 1023.01 -5.14444 -2.46382 0
M  V30 10895 O 1021.94 -5.97668 -0.71247 0
M  V30 10896 H 1025.77 -2.96555 0.654912 0
M  V30 10897 H 1023.35 -1.44327 0.386029 0
M  V30 10898 H 1025.23 -3.8917 -1.61632 0
M  V30 10899 H 1023.91 -2.70648 -1.77571 0
M  V30 10900 H 1022.82 -3.72863 0.304001 0
M  V30 10901 H 1024.15 -4.90728 0.380345 0
M  V30 10902 N 1025.8 -0.366053 -1.5329 0
M  V30 10903 C 1026.71 0.488111 -2.29466 0
M  V30 10904 C 1027.73 1.09219 -1.35452 0
M  V30 10905 O 1028.9 1.10303 -1.68509 0
M  V30 10906 C 1025.97 1.61202 -3.06944 0
M  V30 10907 C 1025.03 1.03543 -4.16626 0
M  V30 10908 C 1024.26 2.10578 -4.904 0
M  V30 10909 O 1024.49 3.31697 -4.6404 0
M  V30 10910 O 1023.42 1.73609 -5.76319 0
M  V30 10911 H 1027.25 -0.131789 -3.03414 0
M  V30 10912 H 1024.83 -0.130421 -1.4883 0
M  V30 10913 H 1026.71 2.26546 -3.55324 0
M  V30 10914 H 1025.39 2.21732 -2.35832 0
M  V30 10915 H 1024.29 0.345892 -3.72498 0
M  V30 10916 H 1025.63 0.474687 -4.89906 0
M  V30 10917 N 1027.28 1.57312 -0.0952337 0
M  V30 10918 C 1028.23 2.15263 0.881167 0
M  V30 10919 C 1029.22 1.09552 1.29208 0
M  V30 10920 O 1030.43 1.27897 1.26659 0
M  V30 10921 H 1026.8 0.688611 0.302191 0
M  V30 10922 H 1028.77 2.96126 0.367694 0
M  V30 10923 C 1027.52 2.74779 2.13053 0
M  V30 10924 H 1026.85 3.55807 1.82323 0
M  V30 10925 H 1028.29 3.18895 2.79431 0
M  V30 10926 C 1026.74 1.7068 2.90465 0
M  V30 10927 O 1027.27 1.14582 3.85011 0
M  V30 10928 N 1025.48 1.41169 2.54007 0
M  V30 10929 H 1025.03 1.86977 1.77193 0
M  V30 10930 H 1024.99 0.717559 3.06102 0
M  V30 10931 N 1028.76 -0.17846 1.56586 0
M  V30 10932 C 1029.69 -1.2496 1.90946 0
M  V30 10933 C 1030.67 -1.43136 0.771424 0
M  V30 10934 O 1031.85 -1.58258 1.02405 0
M  V30 10935 C 1028.98 -2.61368 2.15417 0
M  V30 10936 C 1028.03 -2.59969 3.3811 0
M  V30 10937 S 1028.86 -2.09756 4.9271 0
M  V30 10938 C 1030.01 -3.47956 5.20267 0
M  V30 10939 H 1030.25 -0.956287 2.815 0
M  V30 10940 H 1027.78 -0.382709 1.49582 0
M  V30 10941 H 1029.74 -3.39882 2.30197 0
M  V30 10942 H 1028.4 -2.87903 1.25582 0
M  V30 10943 H 1027.59 -3.60309 3.52411 0
M  V30 10944 H 1027.19 -1.89547 3.2241 0
M  V30 10945 H 1029.49 -4.43914 5.11807 0
M  V30 10946 H 1030.43 -3.38536 6.21932 0
M  V30 10947 H 1030.84 -3.43637 4.47855 0
M  V30 10948 N 1030.24 -1.51135 -0.446768 0
M  V30 10949 C 1031.65 -1.39101 -0.782504 0
M  V30 10950 C 1031.85 -0.46599 -1.96038 0
M  V30 10951 O 1030.91 0.0823679 -2.52366 0
M  V30 10952 C 1032.22 -2.80953 -1.07173 0
M  V30 10953 C 1033.77 -2.90038 -1.17673 0
M  V30 10954 C 1034.24 -4.32777 -1.49894 0
M  V30 10955 N 1035.73 -4.3584 -1.56837 0
M  V30 10956 C 1036.47 -5.43305 -1.83322 0
M  V30 10957 N 1035.97 -6.60945 -2.07662 0
M  V30 10958 N 1037.76 -5.30775 -1.85026 0
M  V30 10959 H 1029.91 -2.09835 0.329114 0
M  V30 10960 H 1032.17 -0.944199 0.0848054 0
M  V30 10961 H 1031.88 -3.50591 -0.279037 0
M  V30 10962 H 1031.75 -3.197 -2.00179 0
M  V30 10963 H 1034.14 -2.20603 -1.96005 0
M  V30 10964 H 1034.22 -2.54801 -0.225892 0
M  V30 10965 H 1033.86 -5.02757 -0.720924 0
M  V30 10966 H 1033.79 -4.6552 -2.46168 0
M  V30 10967 H 1036.29 -3.51023 -1.39968 0
M  V30 10968 H 1036.6 -7.38643 -2.27214 0
M  V30 10969 H 1034.94 -6.64077 -2.05003 0
M  V30 10970 H 1038.13 -4.37858 -1.65523 0
M  V30 10971 H 1038.31 -6.14609 -2.05329 0
M  V30 10972 N 1031.71 0.701592 -1.41122 0
M  V30 10973 C 1032.96 1.45871 -1.39879 0
M  V30 10974 C 1033.28 1.94999 -0.00668769 0
M  V30 10975 O 1032.55 1.71298 0.95047 0
M  V30 10976 H 1031.13 0.541231 -0.514857 0
M  V30 10977 H 1033.79 0.830803 -1.76306 0
M  V30 10978 H 1032.89 2.32479 -2.0823 0
M  V30 10979 N 1033.19 1.2685 0.935242 0
M  V30 10980 C 1034.44 1.12912 1.6846 0
M  V30 10981 C 1034.77 -0.325708 1.91449 0
M  V30 10982 O 1034.05 -1.23884 1.49944 0
M  V30 10983 C 1034.33 1.90513 3.05576 0
M  V30 10984 C 1034.18 3.43936 2.89876 0
M  V30 10985 C 1035.5 1.70363 4.05789 0
M  V30 10986 H 1032.62 0.411559 0.611382 0
M  V30 10987 H 1035.26 1.55917 1.08582 0
M  V30 10988 H 1033.41 1.53963 3.5669 0
M  V30 10989 H 1035.08 3.90272 2.45939 0
M  V30 10990 H 1033.33 3.70659 2.25376 0
M  V30 10991 H 1034 3.93467 3.87153 0
M  V30 10992 H 1036.47 2.02217 3.63659 0
M  V30 10993 H 1035.35 2.27066 4.99732 0
M  V30 10994 H 1035.61 0.649674 4.373 0
M  V30 10995 N 1034.67 -1.14067 1.0875 0
M  V30 10996 C 1036.09 -1.37173 0.815823 0
M  V30 10997 C 1036.29 -1.93175 -0.573215 0
M  V30 10998 O 1035.34 -2.14672 -1.32937 0
M  V30 10999 C 1036.66 -2.32955 1.90138 0
M  V30 11000 C 1038.2 -2.46586 1.9278 0
M  V30 11001 C 1038.68 -3.4567 3.0046 0
M  V30 11002 N 1040.17 -3.53216 2.99655 0
M  V30 11003 C 1040.9 -4.29743 3.79616 0
M  V30 11004 N 1040.4 -5.09484 4.69466 0
M  V30 11005 N 1042.19 -4.24975 3.67903 0
M  V30 11006 H 1034.34 -0.760648 1.98313 0
M  V30 11007 H 1036.61 -0.397135 0.860807 0
M  V30 11008 H 1036.31 -1.98949 2.90021 0
M  V30 11009 H 1036.19 -3.32897 1.77368 0
M  V30 11010 H 1038.57 -2.79882 0.935404 0
M  V30 11011 H 1038.66 -1.46593 2.09629 0
M  V30 11012 H 1038.3 -3.13106 3.99909 0
M  V30 11013 H 1038.23 -4.45452 2.80856 0
M  V30 11014 H 1040.72 -2.96314 2.34535 0
M  V30 11015 H 1041.03 -5.65163 5.27077 0
M  V30 11016 H 1039.38 -5.08741 4.73506 0
M  V30 11017 H 1042.57 -3.61751 2.97075 0
M  V30 11018 H 1042.74 -4.84364 4.30459 0
M  V30 11019 N 1036.15 -0.873678 -1.31166 0
M  V30 11020 C 1037.4 -0.486457 -1.9657 0
M  V30 11021 C 1037.72 0.962042 -1.69041 0
M  V30 11022 O 1036.98 1.69305 -0.981543 0
M  V30 11023 C 1037.28 -0.69462 -3.50585 0
M  V30 11024 C 1036.94 -2.11647 -3.98141 0
M  V30 11025 C 1035.61 -2.50531 -4.10838 0
M  V30 11026 C 1037.96 -3.0436 -4.23101 0
M  V30 11027 C 1035.29 -3.81361 -4.45848 0
M  V30 11028 C 1037.64 -4.34709 -4.59577 0
M  V30 11029 C 1036.3 -4.73502 -4.70481 0
M  V30 11030 H 1035.57 -0.178007 -0.719301 0
M  V30 11031 H 1038.22 -1.10737 -1.56235 0
M  V30 11032 H 1036.52 0.00940878 -3.91799 0
M  V30 11033 H 1038.22 -0.374782 -3.99245 0
M  V30 11034 H 1034.81 -1.8046 -3.88757 0
M  V30 11035 H 1038.99 -2.75544 -4.12782 0
M  V30 11036 H 1034.25 -4.11174 -4.52488 0
M  V30 11037 H 1038.42 -5.06596 -4.77842 0
M  V30 11038 H 1036.05 -5.74919 -4.97365 0
M  V30 11039 N 1037.63 1.44308 -0.633487 0
M  V30 11040 C 1038.9 1.95476 -0.0697262 0
M  V30 11041 C 1039.28 1.57539 1.40516 0
M  V30 11042 O 1038.63 0.850632 2.12077 0
M  V30 11043 C 1038.84 3.4775 -0.295093 0
M  V30 11044 C 1040.19 4.24177 -0.189542 0
M  V30 11045 O 1041.21 3.55479 -0.226586 0
M  V30 11046 O 1040.07 5.46415 -0.096479 0
M  V30 11047 H 1037.17 0.826734 0.0209582 0
M  V30 11048 H 1039.71 1.54347 -0.705354 0
M  V30 11049 H 1038.48 3.6842 -1.31841 0
M  V30 11050 H 1038.11 3.95832 0.37456 0
M  V30 11051 N 1039.1 0.374177 1.53094 0
M  V30 11052 C 1040.35 -0.213131 2.01677 0
M  V30 11053 C 1040.68 -1.47715 1.26071 0
M  V30 11054 O 1039.96 -1.91199 0.356834 0
M  V30 11055 C 1040.24 -0.496392 3.56662 0
M  V30 11056 C 1040.09 0.781859 4.42953 0
M  V30 11057 C 1041.41 -1.29339 4.20666 0
M  V30 11058 H 1038.53 -0.0759885 0.733072 0
M  V30 11059 H 1041.17 0.500765 1.83282 0
M  V30 11060 H 1039.32 -1.10455 3.72467 0
M  V30 11061 H 1041 1.41914 4.38928 0
M  V30 11062 H 1039.24 1.40041 4.10574 0
M  V30 11063 H 1039.91 0.538508 5.49367 0
M  V30 11064 H 1042.39 -0.778848 4.08746 0
M  V30 11065 H 1041.26 -1.46033 5.29118 0
M  V30 11066 H 1041.52 -2.30435 3.77296 0
M  V30 11067 N 1040.58 -1.57259 0.103575 0
M  V30 11068 C 1041.53 -2.11032 -0.863101 0
M  V30 11069 C 1042.52 -1.02737 -1.2383 0
M  V30 11070 O 1043.71 -1.28997 -1.21197 0
M  V30 11071 C 1040.84 -2.70099 -2.11899 0
M  V30 11072 C 1039.92 -3.85451 -1.76885 0
M  V30 11073 N 1040.31 -4.93137 -1.12469 0
M  V30 11074 C 1038.61 -3.95346 -2.06441 0
M  V30 11075 C 1039.31 -5.73681 -0.962527 0
M  V30 11076 N 1038.29 -5.22992 -1.48258 0
M  V30 11077 H 1042.09 -2.91671 -0.361264 0
M  V30 11078 H 1039.61 -1.62096 -0.0993794 0
M  V30 11079 H 1041.6 -3.06957 -2.82104 0
M  V30 11080 H 1040.26 -1.90918 -2.62641 0
M  V30 11081 H 1041.27 -5.11832 -0.790489 0
M  V30 11082 H 1037.95 -3.27185 -2.59338 0
M  V30 11083 H 1039.34 -6.70337 -0.458098 0
M  V30 11084 N 1042.06 0.170153 -1.56679 0
M  V30 11085 C 1043.34 0.913938 -1.72935 0
M  V30 11086 C 1043.72 2.00342 -0.665293 0
M  V30 11087 O 1043.07 2.26252 0.319715 0
M  V30 11088 C 1043.28 1.47761 -3.16177 0
M  V30 11089 C 1044.62 1.95007 -3.7717 0
M  V30 11090 O 1045.65 1.57552 -3.19462 0
M  V30 11091 O 1044.51 2.64007 -4.78501 0
M  V30 11092 H 1041.6 0.43027 -0.706256 0
M  V30 11093 H 1044.15 0.157891 -1.68964 0
M  V30 11094 H 1042.92 0.69352 -3.85105 0
M  V30 11095 H 1042.54 2.2978 -3.24479 0
M  V30 11096 N 1043.54 1.5137 0.438746 0
M  V30 11097 C 1044.78 1.64211 1.19006 0
M  V30 11098 C 1045.12 0.356607 1.90898 0
M  V30 11099 O 1044.39 -0.643722 1.83539 0
M  V30 11100 C 1044.68 2.8445 2.20817 0
M  V30 11101 C 1044.53 4.22972 1.53018 0
M  V30 11102 C 1045.85 3.00207 3.21813 0
M  V30 11103 H 1042.97 0.597628 0.431288 0
M  V30 11104 H 1045.61 1.8385 0.479487 0
M  V30 11105 H 1043.76 2.67836 2.81418 0
M  V30 11106 H 1045.43 4.5125 0.957654 0
M  V30 11107 H 1043.67 4.25736 0.832556 0
M  V30 11108 H 1044.34 5.03094 2.27158 0
M  V30 11109 H 1046.82 3.15522 2.71266 0
M  V30 11110 H 1045.7 3.85904 3.90345 0
M  V30 11111 H 1045.96 2.12216 3.87836 0
M  V30 11112 N 1045.02 -0.694098 1.41492 0
M  V30 11113 C 1046.24 -1.48286 1.44288 0
M  V30 11114 C 1046.66 -1.88737 0.0485783 0
M  V30 11115 O 1046.02 -1.56881 -0.932449 0
M  V30 11116 C 1046.07 -2.74446 2.3529 0
M  V30 11117 O 1045.79 -2.35698 3.69294 0
M  V30 11118 C 1047.29 -3.68175 2.46905 0
M  V30 11119 H 1044.51 -0.45692 0.491391 0
M  V30 11120 H 1047.05 -0.854477 1.85793 0
M  V30 11121 H 1045.21 -3.33518 1.9709 0
M  V30 11122 H 1045.62 -3.17029 4.17843 0
M  V30 11123 H 1047.1 -4.53476 3.14743 0
M  V30 11124 H 1047.57 -4.12763 1.50078 0
M  V30 11125 H 1048.18 -3.15006 2.85747 0
M  V30 11126 N 1046.49 -1.27344 -0.928501 0
M  V30 11127 C 1047.42 -1.12517 -2.04602 0
M  V30 11128 C 1048.41 -0.0268563 -1.70079 0
M  V30 11129 O 1049.59 -0.201197 -1.93155 0
M  V30 11130 C 1046.72 -0.770749 -3.3864 0
M  V30 11131 C 1045.67 -1.8222 -3.87272 0
M  V30 11132 C 1045 -1.32178 -5.18105 0
M  V30 11133 C 1046.3 -3.22614 -4.10752 0
M  V30 11134 H 1047.99 -2.06 -2.17265 0
M  V30 11135 H 1045.54 -0.991827 -1.04397 0
M  V30 11136 H 1047.49 -0.653843 -4.16297 0
M  V30 11137 H 1046.22 0.19979 -3.25988 0
M  V30 11138 H 1044.88 -1.928 -3.11807 0
M  V30 11139 H 1044.52 -0.340719 -5.01845 0
M  V30 11140 H 1044.22 -2.02474 -5.51614 0
M  V30 11141 H 1045.75 -1.2178 -5.98333 0
M  V30 11142 H 1047.16 -3.1504 -4.78981 0
M  V30 11143 H 1045.56 -3.90614 -4.55566 0
M  V30 11144 H 1046.63 -3.67727 -3.16077 0
M  V30 11145 N 1047.97 1.13488 -1.09353 0
M  V30 11146 C 1048.92 2.16933 -0.701709 0
M  V30 11147 C 1049.91 1.58382 0.283553 0
M  V30 11148 O 1051.1 1.7675 0.0940391 0
M  V30 11149 C 1048.23 3.43079 -0.123031 0
M  V30 11150 C 1047.31 4.08639 -1.13466 0
M  V30 11151 N 1047.7 4.49377 -2.32152 0
M  V30 11152 C 1046 4.35265 -0.972632 0
M  V30 11153 C 1046.7 5.00464 -2.96497 0
M  V30 11154 N 1045.68 4.95275 -2.24061 0
M  V30 11155 H 1049.48 2.46183 -1.60534 0
M  V30 11156 H 1047 1.30275 -0.969644 0
M  V30 11157 H 1048.99 4.1653 0.17569 0
M  V30 11158 H 1047.65 3.15304 0.775461 0
M  V30 11159 H 1048.66 4.42105 -2.69748 0
M  V30 11160 H 1045.34 4.17301 -0.12876 0
M  V30 11161 H 1046.73 5.41785 -3.9739 0
M  V30 11162 N 1049.45 0.880621 1.30701 0
M  V30 11163 C 1050.41 0.349087 2.26526 0
M  V30 11164 C 1051.41 -0.505973 1.52632 0
M  V30 11165 O 1052.6 -0.313751 1.71351 0
M  V30 11166 C 1049.74 -0.503023 3.37168 0
M  V30 11167 H 1050.93 1.19516 2.75056 0
M  V30 11168 H 1048.48 0.657107 1.41816 0
M  V30 11169 H 1049.22 -1.36986 2.93948 0
M  V30 11170 H 1049 0.109389 3.91947 0
M  V30 11171 H 1050.49 -0.866845 4.08504 0
M  V30 11172 N 1050.93 -1.4397 0.641131 0
M  V30 11173 C 1052.21 -1.95436 0.0800918 0
M  V30 11174 C 1052.59 -1.58282 -1.39678 0
M  V30 11175 O 1051.93 -0.861867 -2.11623 0
M  V30 11176 C 1052.14 -3.47589 0.313531 0
M  V30 11177 C 1053.49 -4.2407 0.212034 0
M  V30 11178 O 1054.52 -3.55353 0.245434 0
M  V30 11179 O 1053.38 -5.46356 0.125455 0
M  V30 11180 H 1050.47 -0.826834 -0.0165735 0
M  V30 11181 H 1053.02 -1.5397 0.71353 0
M  V30 11182 H 1051.79 -3.67716 1.33793 0
M  V30 11183 H 1051.41 -3.96025 -0.353563 0
M  V30 11184 N 1052.41 -0.382291 -1.52893 0
M  V30 11185 C 1053.37 0.44408 -2.24857 0
M  V30 11186 C 1054.37 0.996004 -1.26239 0
M  V30 11187 O 1055.56 0.879114 -1.5039 0
M  V30 11188 C 1052.69 1.62234 -2.99822 0
M  V30 11189 H 1053.89 -0.185862 -2.99324 0
M  V30 11190 H 1051.44 -0.134275 -1.55722 0
M  V30 11191 H 1052.17 2.28991 -2.29638 0
M  V30 11192 H 1051.96 1.23336 -3.72197 0
M  V30 11193 H 1053.45 2.20756 -3.54481 0
M  V30 11194 N 1053.89 1.57202 -0.111913 0
M  V30 11195 C 1055.13 1.94125 0.547573 0
M  V30 11196 C 1055.45 0.997026 1.68282 0
M  V30 11197 O 1056.65 1.26063 2.40459 0
M  V30 11198 C 1055.11 3.44982 1.02545 0
M  V30 11199 C 1054.72 4.47927 -0.0809529 0
M  V30 11200 C 1056.46 3.90837 1.65671 0
M  V30 11201 C 1054.37 5.89955 0.413224 0
M  V30 11202 H 1053.3 0.724651 0.208321 0
M  V30 11203 H 1055.95 1.82507 -0.190625 0
M  V30 11204 H 1054.33 3.5181 1.81785 0
M  V30 11205 H 1055.51 4.52761 -0.857003 0
M  V30 11206 H 1053.82 4.11782 -0.618434 0
M  V30 11207 H 1056.42 4.9436 2.03746 0
M  V30 11208 H 1056.76 3.30417 2.53239 0
M  V30 11209 H 1057.29 3.8678 0.929844 0
M  V30 11210 H 1054.03 6.54113 -0.426238 0
M  V30 11211 H 1053.55 5.88557 1.15591 0
M  V30 11212 H 1055.23 6.41032 0.876756 0
M  V30 11213 N 1055.36 -0.161842 1.56767 0
M  V30 11214 C 1056.31 -1.20506 1.93552 0
M  V30 11215 C 1057.3 -1.39317 0.804952 0
M  V30 11216 O 1058.49 -1.41129 1.06825 0
M  V30 11217 C 1055.62 -2.54227 2.30702 0
M  V30 11218 C 1054.7 -2.3907 3.50295 0
M  V30 11219 N 1055.1 -1.93642 4.67265 0
M  V30 11220 C 1053.39 -2.69868 3.55088 0
M  V30 11221 C 1054.09 -1.91175 5.49388 0
M  V30 11222 N 1053.07 -2.33935 4.90689 0
M  V30 11223 H 1056.87 -0.845687 2.8147 0
M  V30 11224 H 1054.39 -0.370034 1.58128 0
M  V30 11225 H 1056.38 -3.29623 2.55254 0
M  V30 11226 H 1055.04 -2.90959 1.44128 0
M  V30 11227 H 1056.05 -1.63834 4.91303 0
M  V30 11228 H 1052.73 -3.10574 2.79016 0
M  V30 11229 H 1054.12 -1.57671 6.53138 0
M  V30 11230 N 1056.84 -1.516 -0.430713 0
M  V30 11231 C 1058.26 -1.39923 -0.767706 0
M  V30 11232 C 1058.46 -0.486756 -1.95532 0
M  V30 11233 O 1057.51 0.0555965 -2.52439 0
M  V30 11234 C 1058.83 -2.82074 -1.04187 0
M  V30 11235 C 1060.37 -2.9127 -1.1459 0
M  V30 11236 C 1060.85 -4.34342 -1.45295 0
M  V30 11237 N 1062.34 -4.37479 -1.52206 0
M  V30 11238 C 1063.08 -5.45219 -1.77549 0
M  V30 11239 N 1062.57 -6.6311 -2.0064 0
M  V30 11240 N 1064.36 -5.32707 -1.79386 0
M  V30 11241 H 1056.52 -2.09474 0.351351 0
M  V30 11242 H 1058.78 -0.943247 0.0948151 0
M  V30 11243 H 1058.48 -3.50868 -0.241837 0
M  V30 11244 H 1058.36 -3.21805 -1.96777 0
M  V30 11245 H 1060.75 -2.2267 -1.93655 0
M  V30 11246 H 1060.83 -2.55026 -0.198854 0
M  V30 11247 H 1060.47 -5.03494 -0.667559 0
M  V30 11248 H 1060.4 -4.68105 -2.41217 0
M  V30 11249 H 1062.89 -3.52488 -1.36237 0
M  V30 11250 H 1063.2 -7.41012 -2.19366 0
M  V30 11251 H 1061.55 -6.66214 -1.97948 0
M  V30 11252 H 1064.74 -4.39589 -1.60869 0
M  V30 11253 H 1064.91 -6.16752 -1.98799 0
M  V30 11254 N 1058.32 0.686584 -1.41858 0
M  V30 11255 C 1059.57 1.44379 -1.41418 0
M  V30 11256 C 1059.89 1.94981 -0.0273696 0
M  V30 11257 O 1059.16 1.72296 0.932248 0
M  V30 11258 H 1057.74 0.53574 -0.520568 0
M  V30 11259 H 1060.4 0.812056 -1.77177 0
M  V30 11260 H 1059.5 2.30258 -2.10684 0
M  V30 11261 N 1059.8 1.27835 0.921735 0
M  V30 11262 C 1061.05 1.14296 1.66676 0
M  V30 11263 C 1061.37 -0.310493 1.92512 0
M  V30 11264 O 1060.64 -1.21637 1.53562 0
M  V30 11265 H 1059.22 0.419994 0.617749 0
M  V30 11266 H 1061.88 1.60449 1.10644 0
M  V30 11267 H 1060.97 1.67654 2.63246 0
M  V30 11268 N 1061.28 -1.12907 1.09954 0
M  V30 11269 C 1062.52 -1.83941 0.837255 0
M  V30 11270 C 1062.84 -1.84234 -0.638984 0
M  V30 11271 O 1062.11 -1.30193 -1.46378 0
M  V30 11272 H 1060.69 -0.681115 0.306743 0
M  V30 11273 H 1063.36 -1.36743 1.38879 0
M  V30 11274 H 1062.45 -2.88289 1.19565 0
M  V30 11275 N 1062.75 -0.88754 -1.30232 0
M  V30 11276 C 1063.69 -0.313488 -2.27046 0
M  V30 11277 C 1064.7 0.533383 -1.53814 0
M  V30 11278 O 1065.89 0.352516 -1.74984 0
M  V30 11279 C 1062.99 0.572674 -3.34026 0
M  V30 11280 C 1062.16 -0.245712 -4.36709 0
M  V30 11281 C 1061.22 0.57135 -5.23089 0
M  V30 11282 O 1060.25 -0.00685948 -5.692 0
M  V30 11283 N 1061.45 1.87994 -5.49216 0
M  V30 11284 H 1064.21 -1.14553 -2.76943 0
M  V30 11285 H 1061.77 -0.750785 -1.43439 0
M  V30 11286 H 1063.77 1.12539 -3.88738 0
M  V30 11287 H 1062.34 1.3054 -2.84039 0
M  V30 11288 H 1061.56 -0.979869 -3.81827 0
M  V30 11289 H 1062.84 -0.806618 -5.02366 0
M  V30 11290 H 1062.24 2.3726 -5.13541 0
M  V30 11291 H 1060.8 2.38005 -6.06792 0
M  V30 11292 N 1064.23 1.43628 -0.648757 0
M  V30 11293 C 1065.48 2.01083 -0.157692 0
M  V30 11294 C 1065.79 1.51756 1.23408 0
M  V30 11295 O 1067 2.01455 1.82012 0
M  V30 11296 C 1065.46 3.59157 -0.231118 0
M  V30 11297 C 1065.06 4.17478 -1.6253 0
M  V30 11298 C 1066.81 4.24016 0.202573 0
M  V30 11299 C 1064.72 5.67832 -1.6529 0
M  V30 11300 H 1063.65 0.751977 -0.0551897 0
M  V30 11301 H 1066.3 1.64648 -0.810139 0
M  V30 11302 H 1064.68 3.92972 0.488755 0
M  V30 11303 H 1065.85 3.9517 -2.37017 0
M  V30 11304 H 1064.17 3.64973 -2.00459 0
M  V30 11305 H 1066.76 5.34319 0.20174 0
M  V30 11306 H 1067.11 3.97616 1.23319 0
M  V30 11307 H 1067.64 3.95068 -0.465398 0
M  V30 11308 H 1064.38 5.98994 -2.66246 0
M  V30 11309 H 1063.9 5.92209 -0.951217 0
M  V30 11310 H 1065.58 6.3179 -1.39465 0
M  V30 11311 N 1065.71 0.390394 1.52688 0
M  V30 11312 C 1066.96 -0.192697 2.00777 0
M  V30 11313 C 1067.27 -1.4781 1.28108 0
M  V30 11314 O 1068.48 -2.1413 1.66914 0
M  V30 11315 C 1066.93 -0.393955 3.57737 0
M  V30 11316 C 1066.54 0.878259 4.39307 0
M  V30 11317 C 1068.29 -0.933352 4.14112 0
M  V30 11318 C 1066.19 0.645218 5.8787 0
M  V30 11319 H 1065.12 -0.0757862 0.750182 0
M  V30 11320 H 1067.77 0.512961 1.76184 0
M  V30 11321 H 1066.16 -1.16149 3.78583 0
M  V30 11322 H 1067.33 1.65049 4.30227 0
M  V30 11323 H 1065.65 1.34269 3.94158 0
M  V30 11324 H 1068.24 -1.12343 5.22765 0
M  V30 11325 H 1068.59 -1.90272 3.70273 0
M  V30 11326 H 1069.12 -0.225361 3.97161 0
M  V30 11327 H 1065.86 1.58562 6.36033 0
M  V30 11328 H 1065.38 -0.0880609 5.99735 0
M  V30 11329 H 1067.06 0.280178 6.46393 0
M  V30 11330 N 1067.19 -1.57141 0.120249 0
M  V30 11331 C 1068.6 -1.82256 -0.404931 0
M  V30 11332 C 1068.95 -1.03748 -1.66526 0
M  V30 11333 O 1068.08 -0.274456 -2.14653 0
M  V30 11334 C 1068.67 -3.30588 -0.741431 0
M  V30 11335 C 1067.23 -3.56379 -1.21124 0
M  V30 11336 C 1066.38 -2.76421 -0.220569 0
M  V30 11337 H 1069.33 -1.54897 0.345361 0
M  V30 11338 H 1069.35 -3.45284 -1.59872 0
M  V30 11339 H 1068.86 -3.87701 0.176036 0
M  V30 11340 H 1066.96 -3.04625 -2.14556 0
M  V30 11341 H 1067.07 -4.64952 -1.1557 0
M  V30 11342 H 1065.44 -2.44666 -0.707857 0
M  V30 11343 H 1066.22 -3.36294 0.690018 0
M  V30 11344 N 1068.67 0.153526 -1.5685 0
M  V30 11345 C 1069.89 0.882335 -1.87143 0
M  V30 11346 C 1070.31 1.75034 -0.707702 0
M  V30 11347 O 1069.67 1.79624 0.32273 0
M  V30 11348 C 1069.72 1.74444 -3.16625 0
M  V30 11349 O 1069.44 0.911419 -4.28515 0
M  V30 11350 C 1070.94 2.58139 -3.60388 0
M  V30 11351 H 1068.16 0.25546 -0.620469 0
M  V30 11352 H 1070.7 0.148275 -2.03962 0
M  V30 11353 H 1068.86 2.43163 -3.0158 0
M  V30 11354 H 1069.27 1.50268 -5.02513 0
M  V30 11355 H 1070.75 3.14215 -4.53842 0
M  V30 11356 H 1071.22 3.33865 -2.85361 0
M  V30 11357 H 1071.83 1.94721 -3.78105 0
M  V30 11358 N 1070.14 1.51827 0.422667 0
M  V30 11359 C 1071.11 1.7359 1.49663 0
M  V30 11360 C 1072.11 0.605811 1.48952 0
M  V30 11361 O 1073.3 0.87354 1.50715 0
M  V30 11362 C 1070.43 1.80585 2.8914 0
M  V30 11363 H 1071.62 2.69453 1.31664 0
M  V30 11364 H 1069.18 1.42038 0.652298 0
M  V30 11365 H 1069.91 0.865895 3.12526 0
M  V30 11366 H 1069.7 2.62729 2.9106 0
M  V30 11367 H 1071.19 1.99212 3.67021 0
M  V30 11368 N 1071.62 -0.679052 1.4222 0
M  V30 11369 C 1073.04 -0.991665 1.25053 0
M  V30 11370 C 1073.24 -2.00928 0.151665 0
M  V30 11371 O 1072.29 -2.47925 -0.478507 0
M  V30 11372 C 1073.61 -1.50053 2.60585 0
M  V30 11373 C 1075.16 -1.61852 2.67905 0
M  V30 11374 C 1075.63 -2.16135 4.03794 0
M  V30 11375 N 1077.12 -2.23474 4.05726 0
M  V30 11376 C 1077.86 -2.66541 5.07685 0
M  V30 11377 N 1077.35 -3.09092 6.20028 0
M  V30 11378 N 1079.15 -2.66252 4.95042 0
M  V30 11379 H 1071.3 -0.00521851 2.12399 0
M  V30 11380 H 1073.56 -0.0648465 0.94578 0
M  V30 11381 H 1073.27 -0.82731 3.41831 0
M  V30 11382 H 1073.14 -2.47998 2.84213 0
M  V30 11383 H 1075.53 -2.28281 1.87008 0
M  V30 11384 H 1075.61 -0.624074 2.4807 0
M  V30 11385 H 1075.25 -1.50316 4.85147 0
M  V30 11386 H 1075.18 -3.16363 4.20978 0
M  V30 11387 H 1077.67 -1.93467 3.24621 0
M  V30 11388 H 1077.99 -3.40627 6.93681 0
M  V30 11389 H 1076.33 -3.06959 6.23539 0
M  V30 11390 H 1079.52 -2.32369 4.06352 0
M  V30 11391 H 1079.69 -2.99496 5.74636 0
M  V30 11392 N 1073.1 -1.28322 -0.914942 0
M  V30 11393 C 1074.52 -1.06003 -1.19313 0
M  V30 11394 C 1074.72 0.198366 -2.00521 0
M  V30 11395 O 1073.77 0.900364 -2.35902 0
M  V30 11396 C 1075.09 -2.30684 -1.92887 0
M  V30 11397 C 1076.63 -2.35851 -2.05775 0
M  V30 11398 C 1077.11 -3.60295 -2.82757 0
M  V30 11399 N 1078.6 -3.60928 -2.9032 0
M  V30 11400 C 1079.33 -4.53894 -3.50383 0
M  V30 11401 N 1078.83 -5.57178 -4.11734 0
M  V30 11402 N 1080.62 -4.41492 -3.4791 0
M  V30 11403 H 1072.77 -2.09104 -0.372735 0
M  V30 11404 H 1075.04 -0.920285 -0.227552 0
M  V30 11405 H 1074.74 -3.22355 -1.40643 0
M  V30 11406 H 1074.62 -2.37003 -2.93444 0
M  V30 11407 H 1077 -1.44678 -2.57201 0
M  V30 11408 H 1077.09 -2.33526 -1.04399 0
M  V30 11409 H 1076.73 -4.51811 -2.32011 0
M  V30 11410 H 1076.66 -3.59873 -3.84446 0
M  V30 11411 H 1079.15 -2.8624 -2.46729 0
M  V30 11412 H 1079.46 -6.24261 -4.55541 0
M  V30 11413 H 1077.81 -5.61005 -4.10242 0
M  V30 11414 H 1081 -3.60005 -2.99189 0
M  V30 11415 H 1081.17 -5.14132 -3.94427 0
M  V30 11416 N 1074.58 1.12322 -1.10551 0
M  V30 11417 C 1075.82 1.85497 -0.858492 0
M  V30 11418 C 1076.18 1.8222 0.604966 0
M  V30 11419 O 1077.38 2.5075 0.968382 0
M  V30 11420 C 1075.65 3.29124 -1.39327 0
M  V30 11421 S 1077.21 4.19659 -1.28186 0
M  V30 11422 H 1074.03 0.639768 -0.31019 0
M  V30 11423 H 1076.63 1.35298 -1.41119 0
M  V30 11424 H 1075.34 3.29069 -2.45238 0
M  V30 11425 H 1074.87 3.84388 -0.837203 0
M  V30 11426 H 1076.88 4.95618 -0.240325 0
M  V30 11427 N 1076.06 0.894434 1.2976 0
M  V30 11428 C 1076.99 0.3847 2.30309 0
M  V30 11429 C 1077.97 -0.537486 1.61385 0
M  V30 11430 O 1079.15 -0.449332 1.8893 0
M  V30 11431 C 1076.28 -0.393311 3.45066 0
M  V30 11432 C 1075.24 0.437968 4.25753 0
M  V30 11433 C 1074.56 -0.467221 5.32655 0
M  V30 11434 C 1075.86 1.6851 4.9437 0
M  V30 11435 H 1077.56 1.22496 2.73194 0
M  V30 11436 H 1075.1 0.590471 1.31337 0
M  V30 11437 H 1077.06 -0.760614 4.14479 0
M  V30 11438 H 1075.78 -1.2673 3.0101 0
M  V30 11439 H 1074.44 0.787533 3.58041 0
M  V30 11440 H 1074.09 -1.33919 4.84845 0
M  V30 11441 H 1073.79 0.0852482 5.87538 0
M  V30 11442 H 1075.31 -0.830833 6.04921 0
M  V30 11443 H 1076.72 1.38784 5.56248 0
M  V30 11444 H 1075.12 2.17849 5.59162 0
M  V30 11445 H 1076.19 2.42412 4.19958 0
M  V30 11446 N 1077.53 -1.43282 0.656365 0
M  V30 11447 C 1078.76 -2.05826 0.178619 0
M  V30 11448 C 1079.17 -1.493 -1.16216 0
M  V30 11449 O 1078.52 -0.620163 -1.72915 0
M  V30 11450 C 1078.58 -3.59496 0.0164101 0
M  V30 11451 C 1078.24 -4.38621 1.28298 0
M  V30 11452 C 1079.24 -4.70477 2.21241 0
M  V30 11453 C 1076.92 -4.78577 1.52544 0
M  V30 11454 C 1078.92 -5.412 3.36721 0
M  V30 11455 C 1076.6 -5.49044 2.68316 0
M  V30 11456 C 1077.6 -5.80279 3.6023 0
M  V30 11457 O 1077.29 -6.49306 4.7398 0
M  V30 11458 H 1077.02 -0.670158 0.0886814 0
M  V30 11459 H 1079.58 -1.84722 0.89816 0
M  V30 11460 H 1077.81 -3.79188 -0.758532 0
M  V30 11461 H 1079.5 -4.03731 -0.419096 0
M  V30 11462 H 1080.26 -4.40125 2.03753 0
M  V30 11463 H 1076.14 -4.5367 0.818816 0
M  V30 11464 H 1079.68 -5.65497 4.08483 0
M  V30 11465 H 1075.58 -5.78813 2.85738 0
M  V30 11466 H 1076.35 -6.67789 4.73286 0
M  V30 11467 N 1079.01 -0.398486 -1.52479 0
M  V30 11468 C 1079.98 0.420206 -2.25315 0
M  V30 11469 C 1080.98 0.982559 -1.27289 0
M  V30 11470 O 1082.17 0.863113 -1.51314 0
M  V30 11471 C 1079.3 1.59045 -3.01525 0
M  V30 11472 H 1080.49 -0.217599 -2.9911 0
M  V30 11473 H 1078.04 -0.150784 -1.55571 0
M  V30 11474 H 1078.78 2.26542 -2.32054 0
M  V30 11475 H 1078.56 1.19382 -3.73484 0
M  V30 11476 H 1080.05 2.16984 -3.56802 0
M  V30 11477 N 1080.49 1.57075 -0.12858 0
M  V30 11478 C 1081.72 2.00305 0.537839 0
M  V30 11479 C 1082.14 1.00787 1.58819 0
M  V30 11480 O 1081.5 -0.0190839 1.8129 0
M  V30 11481 C 1081.55 3.42371 1.13201 0
M  V30 11482 O 1080.65 3.45786 2.24735 0
M  V30 11483 H 1079.99 0.650456 0.133428 0
M  V30 11484 H 1082.52 2.03415 -0.219882 0
M  V30 11485 H 1082.53 3.80783 1.4652 0
M  V30 11486 H 1081.21 4.14315 0.362713 0
M  V30 11487 H 1079.78 3.19201 1.92783 0
M  V30 11488 N 1081.97 -0.145205 1.5693 0
M  V30 11489 C 1083.22 -0.858786 1.83719 0
M  V30 11490 C 1083.55 -1.80738 0.710452 0
M  V30 11491 O 1082.82 -1.92389 -0.285791 0
M  V30 11492 C 1083.11 -1.6317 3.2101 0
M  V30 11493 C 1082.96 -0.704472 4.44249 0
M  V30 11494 C 1084.28 -2.59377 3.55544 0
M  V30 11495 H 1081.4 -0.310757 0.66828 0
M  V30 11496 H 1084.04 -0.123918 1.89595 0
M  V30 11497 H 1082.19 -2.25816 3.16132 0
M  V30 11498 H 1083.86 -0.08887 4.61214 0
M  V30 11499 H 1082.1 -0.0141693 4.33798 0
M  V30 11500 H 1082.78 -1.28135 5.36922 0
M  V30 11501 H 1085.25 -2.06848 3.61044 0
M  V30 11502 H 1084.13 -3.10506 4.52634 0
M  V30 11503 H 1084.39 -3.40819 2.81594 0
M  V30 11504 N 1083.45 -1.52049 -0.414609 0
M  V30 11505 C 1084.38 -1.77956 -1.51175 0
M  V30 11506 C 1085.36 -0.630282 -1.57992 0
M  V30 11507 O 1086.54 -0.875324 -1.73354 0
M  V30 11508 C 1083.67 -1.92527 -2.89051 0
M  V30 11509 C 1082.63 -3.08096 -2.97087 0
M  V30 11510 C 1081.95 -3.07882 -4.37164 0
M  V30 11511 C 1083.25 -4.47656 -2.69075 0
M  V30 11512 H 1084.95 -2.69827 -1.29746 0
M  V30 11513 H 1082.49 -1.29839 -0.62273 0
M  V30 11514 H 1084.45 -2.09234 -3.65786 0
M  V30 11515 H 1083.17 -0.973235 -3.11762 0
M  V30 11516 H 1081.83 -2.91131 -2.22797 0
M  V30 11517 H 1081.48 -2.10411 -4.56877 0
M  V30 11518 H 1081.18 -3.85501 -4.43467 0
M  V30 11519 H 1082.7 -3.26712 -5.15841 0
M  V30 11520 H 1084.12 -4.64855 -3.35534 0
M  V30 11521 H 1082.51 -5.27151 -2.8676 0
M  V30 11522 H 1083.58 -4.56129 -1.64544 0
M  V30 11523 N 1084.93 0.6715 -1.42579 0
M  V30 11524 C 1086.15 1.45972 -1.46628 0
M  V30 11525 C 1086.57 1.88636 -0.0785986 0
M  V30 11526 O 1085.93 1.58345 0.907372 0
M  V30 11527 C 1085.98 2.70668 -2.39627 0
M  V30 11528 O 1085.7 2.29793 -3.72997 0
M  V30 11529 C 1087.2 3.64201 -2.52731 0
M  V30 11530 H 1084.42 0.449044 -0.498598 0
M  V30 11531 H 1086.96 0.824811 -1.87129 0
M  V30 11532 H 1085.12 3.3034 -2.02371 0
M  V30 11533 H 1085.53 3.10341 -4.22834 0
M  V30 11534 H 1087.01 4.48412 -3.21918 0
M  V30 11535 H 1087.48 4.10323 -1.56626 0
M  V30 11536 H 1088.09 3.1042 -2.90722 0
M  V30 11537 N 1086.4 1.28806 0.908124 0
M  V30 11538 C 1087.37 1.13228 1.99279 0
M  V30 11539 C 1088.37 0.0702456 1.60646 0
M  V30 11540 O 1089.56 0.316494 1.71301 0
M  V30 11541 C 1086.69 0.729629 3.33 0
M  V30 11542 H 1087.88 2.09566 2.14528 0
M  V30 11543 H 1085.43 1.11872 1.09153 0
M  V30 11544 H 1086.17 -0.234268 3.23453 0
M  V30 11545 H 1085.95 1.49688 3.62403 0
M  V30 11546 H 1087.44 0.643449 4.12613 0
M  V30 11547 N 1087.88 -1.11734 1.11145 0
M  V30 11548 C 1088.81 -2.17438 0.724804 0
M  V30 11549 C 1089.83 -1.6099 -0.242069 0
M  V30 11550 O 1091.02 -1.78482 -0.0254259 0
M  V30 11551 C 1088.12 -3.38863 0.050004 0
M  V30 11552 C 1087.29 -4.24785 1.04292 0
M  V30 11553 C 1086.35 -5.24691 0.398243 0
M  V30 11554 O 1085.37 -5.59408 1.05125 0
M  V30 11555 N 1086.58 -5.74388 -0.840184 0
M  V30 11556 H 1089.34 -2.51219 1.63429 0
M  V30 11557 H 1086.9 -1.27226 1.00125 0
M  V30 11558 H 1088.89 -4.02788 -0.392929 0
M  V30 11559 H 1087.46 -3.0317 -0.762005 0
M  V30 11560 H 1086.68 -3.57363 1.6639 0
M  V30 11561 H 1087.97 -4.79033 1.71478 0
M  V30 11562 H 1087.37 -5.48359 -1.38994 0
M  V30 11563 H 1085.93 -6.40163 -1.22615 0
M  V30 11564 N 1089.36 -0.901303 -1.29284 0
M  V30 11565 C 1090.77 -0.576317 -1.77582 0
M  V30 11566 C 1091.12 0.908078 -1.73921 0
M  V30 11567 O 1090.25 1.71006 -1.32611 0
M  V30 11568 C 1090.84 -1.03938 -3.22463 0
M  V30 11569 C 1089.4 -0.765533 -3.68533 0
M  V30 11570 C 1088.55 -1.21318 -2.49354 0
M  V30 11571 H 1091.5 -1.08386 -1.15923 0
M  V30 11572 H 1091.52 -0.375367 -3.78644 0
M  V30 11573 H 1091.03 -2.11977 -3.25096 0
M  V30 11574 H 1089.13 0.302176 -3.71373 0
M  V30 11575 H 1089.25 -1.36454 -4.59257 0
M  V30 11576 H 1087.61 -0.632141 -2.46731 0
M  V30 11577 H 1088.39 -2.30165 -2.54714 0
M  V30 11578 N 1090.84 1.42931 -0.663954 0
M  V30 11579 C 1092.25 1.56098 -0.332496 0
M  V30 11580 C 1092.45 1.64564 1.16279 0
M  V30 11581 O 1091.51 1.6066 1.94794 0
M  V30 11582 C 1092.82 2.81649 -1.05329 0
M  V30 11583 C 1094.37 2.95408 -1.03457 0
M  V30 11584 C 1094.85 4.23805 -1.73647 0
M  V30 11585 N 1096.34 4.30693 -1.70462 0
M  V30 11586 C 1097.07 5.28833 -2.21637 0
M  V30 11587 N 1096.57 6.33189 -2.81147 0
M  V30 11588 N 1098.36 5.20558 -2.12075 0
M  V30 11589 H 1090.51 1.3568 -1.63416 0
M  V30 11590 H 1092.77 0.652361 -0.687844 0
M  V30 11591 H 1092.48 2.81494 -2.10842 0
M  V30 11592 H 1092.35 3.72208 -0.611626 0
M  V30 11593 H 1094.74 2.95097 0.0121936 0
M  V30 11594 H 1094.82 2.06109 -1.51502 0
M  V30 11595 H 1094.47 4.24876 -2.78285 0
M  V30 11596 H 1094.4 5.12019 -1.2306 0
M  V30 11597 H 1096.89 3.55904 -1.27046 0
M  V30 11598 H 1097.2 7.04411 -3.17844 0
M  V30 11599 H 1095.55 6.33781 -2.85212 0
M  V30 11600 H 1098.74 4.3795 -1.6528 0
M  V30 11601 H 1098.91 5.96881 -2.52264 0
M  V30 11602 N 1092.32 0.406567 1.52266 0
M  V30 11603 C 1093.25 -0.411314 2.29849 0
M  V30 11604 C 1094.23 -1.04838 1.33952 0
M  V30 11605 O 1095.41 -1.05788 1.62857 0
M  V30 11606 C 1092.54 -1.52961 3.11802 0
M  V30 11607 C 1091.5 -1.01768 4.15725 0
M  V30 11608 C 1090.82 -2.22938 4.86007 0
M  V30 11609 C 1092.12 -0.073515 5.22248 0
M  V30 11610 H 1093.82 0.236054 2.98468 0
M  V30 11611 H 1091.36 0.114968 1.4354 0
M  V30 11612 H 1093.31 -2.10874 3.64843 0
M  V30 11613 H 1092.04 -2.20482 2.40947 0
M  V30 11614 H 1090.7 -0.46097 3.6369 0
M  V30 11615 H 1090.35 -2.89007 4.11684 0
M  V30 11616 H 1090.05 -1.89338 5.5626 0
M  V30 11617 H 1091.57 -2.81462 5.41859 0
M  V30 11618 H 1092.98 -0.561367 5.70545 0
M  V30 11619 H 1091.38 0.173551 5.99849 0
M  V30 11620 H 1092.45 0.872524 4.76985 0
M  V30 11621 N 1093.79 -1.57004 0.136909 0
M  V30 11622 C 1094.73 -2.12004 -0.844362 0
M  V30 11623 C 1095.71 -1.04099 -1.24909 0
M  V30 11624 O 1096.89 -1.31866 -1.34698 0
M  V30 11625 C 1094.02 -2.63147 -2.13241 0
M  V30 11626 C 1093.06 -3.83105 -1.87438 0
M  V30 11627 S 1093.9 -5.2461 -1.07447 0
M  V30 11628 C 1095.05 -5.79134 -2.37392 0
M  V30 11629 H 1095.28 -2.94905 -0.376614 0
M  V30 11630 H 1092.82 -1.54207 -0.0771977 0
M  V30 11631 H 1094.78 -2.93264 -2.87239 0
M  V30 11632 H 1093.44 -1.80395 -2.57131 0
M  V30 11633 H 1092.63 -4.17099 -2.82922 0
M  V30 11634 H 1092.23 -3.53696 -1.21553 0
M  V30 11635 H 1094.52 -5.8995 -3.33114 0
M  V30 11636 H 1095.47 -6.76887 -2.07918 0
M  V30 11637 H 1095.87 -5.07311 -2.47579 0
M  V30 11638 N 1095.27 0.136881 -1.57004 0
M  V30 11639 C 1096.18 1.18793 -2.023 0
M  V30 11640 C 1097.2 1.46412 -0.94018 0
M  V30 11641 O 1098.37 1.57883 -1.2504 0
M  V30 11642 C 1095.44 2.49903 -2.40311 0
M  V30 11643 C 1094.5 2.29841 -3.6259 0
M  V30 11644 C 1093.73 3.54699 -3.98779 0
M  V30 11645 O 1093.96 4.61291 -3.3551 0
M  V30 11646 O 1092.89 3.46761 -4.91976 0
M  V30 11647 H 1096.72 0.833345 -2.92043 0
M  V30 11648 H 1094.3 0.346361 -1.4533 0
M  V30 11649 H 1096.18 3.27183 -2.65574 0
M  V30 11650 H 1094.86 2.84872 -1.5372 0
M  V30 11651 H 1093.77 1.50478 -3.42501 0
M  V30 11652 H 1095.1 1.99784 -4.4983 0
M  V30 11653 N 1096.75 1.52266 0.40654 0
M  V30 11654 C 1098.16 1.58587 0.985241 0
M  V30 11655 C 1098.51 0.427955 1.91476 0
M  V30 11656 O 1097.64 -0.451341 2.11641 0
M  V30 11657 C 1098.23 2.87426 1.79365 0
M  V30 11658 C 1096.79 2.96217 2.32233 0
M  V30 11659 C 1095.94 2.53548 1.12288 0
M  V30 11660 H 1098.89 1.57598 0.186685 0
M  V30 11661 H 1098.91 2.72925 2.65127 0
M  V30 11662 H 1098.42 3.71682 1.11687 0
M  V30 11663 H 1096.52 2.1646 3.03275 0
M  V30 11664 H 1096.64 4.00511 2.62922 0
M  V30 11665 H 1095 2.07457 1.47763 0
M  V30 11666 H 1095.78 3.40181 0.461731 0
M  V30 11667 N 1098.23 -0.663929 1.42933 0
M  V30 11668 C 1099.48 -1.41973 1.43271 0
M  V30 11669 C 1099.79 -1.95518 0.0566103 0
M  V30 11670 O 1101 -2.71428 -0.0625862 0
M  V30 11671 C 1099.45 -2.56882 2.52071 0
M  V30 11672 C 1099.06 -2.0999 3.95737 0
M  V30 11673 C 1100.8 -3.34322 2.61589 0
M  V30 11674 C 1098.71 -3.22046 4.96025 0
M  V30 11675 H 1097.64 -0.5334 0.532917 0
M  V30 11676 H 1100.29 -0.717709 1.68882 0
M  V30 11677 H 1098.67 -3.29504 2.19643 0
M  V30 11678 H 1099.85 -1.44449 4.37574 0
M  V30 11679 H 1098.16 -1.45459 3.90168 0
M  V30 11680 H 1100.76 -4.17796 3.33692 0
M  V30 11681 H 1101.1 -3.8164 1.66302 0
M  V30 11682 H 1101.64 -2.68775 2.93266 0
M  V30 11683 H 1098.38 -2.79708 5.92827 0
M  V30 11684 H 1097.9 -3.86333 4.5881 0
M  V30 11685 H 1099.57 -3.87345 5.1824 0
M  V30 11686 N 1099.71 -1.29285 -0.901281 0
M  V30 11687 C 1100.94 -1.19874 -1.68267 0
M  V30 11688 C 1101.34 0.243387 -1.87628 0
M  V30 11689 O 1100.69 1.17497 -1.41209 0
M  V30 11690 C 1100.75 -1.83907 -3.08899 0
M  V30 11691 C 1100.41 -3.33198 -3.12775 0
M  V30 11692 C 1101.41 -4.29446 -2.9304 0
M  V30 11693 C 1099.1 -3.7437 -3.34892 0
M  V30 11694 C 1101.09 -5.64842 -2.95352 0
M  V30 11695 C 1098.78 -5.09888 -3.36834 0
M  V30 11696 C 1099.77 -6.04934 -3.17087 0
M  V30 11697 O 1099.46 -7.37979 -3.18815 0
M  V30 11698 H 1099.19 -0.416601 -0.532372 0
M  V30 11699 H 1101.75 -1.71154 -1.13558 0
M  V30 11700 H 1099.98 -1.27136 -3.65203 0
M  V30 11701 H 1101.67 -1.6884 -3.69118 0
M  V30 11702 H 1102.43 -3.9897 -2.75767 0
M  V30 11703 H 1098.31 -3.00846 -3.49303 0
M  V30 11704 H 1101.86 -6.39004 -2.79856 0
M  V30 11705 H 1097.75 -5.40009 -3.53638 0
M  V30 11706 H 1098.52 -7.46763 -3.35092 0
M  V30 11707 N 1101.18 1.11143 -1.11736 0
M  V30 11708 C 1102.11 2.19339 -0.800795 0
M  V30 11709 C 1103.1 1.68508 0.23221 0
M  V30 11710 O 1104.28 1.93967 0.0950063 0
M  V30 11711 C 1101.41 3.46424 -0.246579 0
M  V30 11712 C 1100.36 4.10487 -1.21181 0
M  V30 11713 C 1099.69 5.32183 -0.518158 0
M  V30 11714 C 1100.99 4.55052 -2.56368 0
M  V30 11715 H 1102.68 2.46077 -1.70548 0
M  V30 11716 H 1100.23 1.18271 -0.821454 0
M  V30 11717 H 1102.18 4.21398 -0.0128889 0
M  V30 11718 H 1100.91 3.19154 0.693415 0
M  V30 11719 H 1099.57 3.3751 -1.43118 0
M  V30 11720 H 1099.21 5.01187 0.426742 0
M  V30 11721 H 1098.91 5.75997 -1.16196 0
M  V30 11722 H 1100.44 6.09895 -0.293333 0
M  V30 11723 H 1101.85 5.21335 -2.38501 0
M  V30 11724 H 1100.25 5.0969 -3.16758 0
M  V30 11725 H 1101.32 3.68343 -3.1536 0
M  V30 11726 N 1102.66 0.908147 1.28804 0
M  V30 11727 C 1103.91 0.539201 1.95501 0
M  V30 11728 C 1104.24 -0.913759 1.7136 0
M  V30 11729 O 1103.52 -1.64904 1.03136 0
M  V30 11730 C 1103.8 0.842372 3.50109 0
M  V30 11731 C 1103.65 2.34765 3.83673 0
M  V30 11732 C 1104.97 0.334658 4.38826 0
M  V30 11733 H 1102.09 0.197373 0.71008 0
M  V30 11734 H 1104.73 1.13637 1.52272 0
M  V30 11735 H 1102.88 0.334143 3.8706 0
M  V30 11736 H 1104.55 2.92607 3.56621 0
M  V30 11737 H 1102.8 2.80494 3.30916 0
M  V30 11738 H 1103.47 2.51034 4.91616 0
M  V30 11739 H 1105.94 0.769961 4.08914 0
M  V30 11740 H 1104.82 0.575914 5.4587 0
M  V30 11741 H 1105.08 -0.764878 4.35433 0
M  V30 11742 N 1104.14 -1.42577 0.671525 0
M  V30 11743 C 1105.05 -2.34598 -0.00898225 0
M  V30 11744 C 1106.07 -1.54909 -0.792407 0
M  V30 11745 O 1107.24 -1.87491 -0.735477 0
M  V30 11746 C 1104.31 -3.33405 -0.950888 0
M  V30 11747 C 1103.37 -4.28993 -0.16236 0
M  V30 11748 C 1102.6 -5.2308 -1.0594 0
M  V30 11749 O 1102.82 -5.22022 -2.2989 0
M  V30 11750 O 1101.76 -5.99632 -0.521966 0
M  V30 11751 H 1105.58 -2.94321 0.748927 0
M  V30 11752 H 1103.17 -1.43025 0.43175 0
M  V30 11753 H 1105.05 -3.94115 -1.49169 0
M  V30 11754 H 1103.73 -2.7616 -1.68871 0
M  V30 11755 H 1102.63 -3.71707 0.42247 0
M  V30 11756 H 1103.97 -4.8927 0.536274 0
M  V30 11757 N 1105.62 -0.414636 -1.52048 0
M  V30 11758 C 1106.87 0.16073 -2.01059 0
M  V30 11759 C 1107.18 1.45753 -1.30443 0
M  V30 11760 O 1108.39 2.11448 -1.703 0
M  V30 11761 C 1106.84 0.336993 -3.58319 0
M  V30 11762 C 1106.45 -0.948037 -4.37854 0
M  V30 11763 C 1108.19 0.867353 -4.15545 0
M  V30 11764 C 1106.1 -0.738662 -5.86769 0
M  V30 11765 H 1105.03 0.0638419 -0.751292 0
M  V30 11766 H 1107.68 -0.540925 -1.75346 0
M  V30 11767 H 1106.06 1.10111 -3.80383 0
M  V30 11768 H 1107.24 -1.71873 -4.27547 0
M  V30 11769 H 1105.55 -1.40522 -3.91972 0
M  V30 11770 H 1108.15 1.04012 -5.24486 0
M  V30 11771 H 1108.49 1.84358 -3.73253 0
M  V30 11772 H 1109.03 0.162148 -3.97469 0
M  V30 11773 H 1105.77 -1.6866 -6.3343 0
M  V30 11774 H 1105.29 -0.00736294 -5.998 0
M  V30 11775 H 1106.96 -0.382978 -6.45866 0
M  V30 11776 N 1107.1 1.56929 -0.145233 0
M  V30 11777 C 1108.03 2.13796 0.826078 0
M  V30 11778 C 1109.04 1.08697 1.21197 0
M  V30 11779 O 1110.23 1.3598 1.15635 0
M  V30 11780 C 1107.33 2.6443 2.11967 0
M  V30 11781 C 1106.5 3.9391 1.90142 0
M  V30 11782 C 1105.56 4.29872 3.03474 0
M  V30 11783 O 1104.59 4.98227 2.75242 0
M  V30 11784 N 1105.79 3.8931 4.30602 0
M  V30 11785 H 1108.56 2.97764 0.340073 0
M  V30 11786 H 1106.12 1.61854 0.0383928 0
M  V30 11787 H 1108.11 2.85502 2.86829 0
M  V30 11788 H 1106.68 1.85196 2.51836 0
M  V30 11789 H 1105.9 3.81481 0.993268 0
M  V30 11790 H 1107.19 4.78523 1.72896 0
M  V30 11791 H 1106.58 3.34229 4.56407 0
M  V30 11792 H 1105.14 4.15438 5.0225 0
M  V30 11793 N 1108.58 -0.128553 1.57075 0
M  V30 11794 C 1109.82 -0.844012 1.86161 0
M  V30 11795 C 1110.18 -1.77499 0.73198 0
M  V30 11796 O 1111.38 -2.5313 0.904357 0
M  V30 11797 C 1109.65 -1.58238 3.20462 0
M  V30 11798 S 1111.21 -2.34073 3.71154 0
M  V30 11799 H 1108.03 -0.281884 0.652734 0
M  V30 11800 H 1110.63 -0.102902 1.95229 0
M  V30 11801 H 1109.33 -0.890246 4.00628 0
M  V30 11802 H 1108.87 -2.36404 3.14446 0
M  V30 11803 H 1110.88 -3.59617 3.41892 0
M  V30 11804 N 1110.05 -1.5248 -0.398459 0
M  V30 11805 C 1111.46 -1.59107 -0.976817 0
M  V30 11806 C 1111.82 -0.438104 -1.91246 0
M  V30 11807 O 1110.94 0.440111 -2.11877 0
M  V30 11808 C 1111.54 -2.88373 -1.77838 0
M  V30 11809 C 1110.09 -2.97445 -2.30659 0
M  V30 11810 C 1109.24 -2.5414 -1.10942 0
M  V30 11811 H 1112.19 -1.57695 -0.178324 0
M  V30 11812 H 1112.21 -2.74327 -2.63676 0
M  V30 11813 H 1111.73 -3.72269 -1.09714 0
M  V30 11814 H 1109.83 -2.18066 -3.02123 0
M  V30 11815 H 1109.94 -4.019 -2.60794 0
M  V30 11816 H 1108.3 -2.08237 -1.46661 0
M  V30 11817 H 1109.09 -3.40421 -0.443684 0
M  V30 11818 N 1111.53 0.65634 -1.43283 0
M  V30 11819 C 1112.44 1.79847 -1.50639 0
M  V30 11820 C 1113.46 1.69487 -0.393714 0
M  V30 11821 O 1114.63 1.90712 -0.647379 0
M  V30 11822 C 1111.7 3.16107 -1.42398 0
M  V30 11823 C 1110.76 3.38287 -2.64312 0
M  V30 11824 C 1109.99 4.68046 -2.56454 0
M  V30 11825 O 1110.22 5.4719 -1.61056 0
M  V30 11826 O 1109.15 4.91877 -3.46902 0
M  V30 11827 H 1112.98 1.76596 -2.47078 0
M  V30 11828 H 1110.56 0.814428 -1.25249 0
M  V30 11829 H 1112.44 3.97382 -1.40233 0
M  V30 11830 H 1111.12 3.19956 -0.490929 0
M  V30 11831 H 1110.02 2.56788 -2.72049 0
M  V30 11832 H 1111.36 3.39282 -3.56579 0
M  V30 11833 N 1113.01 1.29761 0.894412 0
M  V30 11834 C 1113.94 1.1115 2.00445 0
M  V30 11835 C 1114.95 0.0574655 1.62699 0
M  V30 11836 O 1116.14 0.302528 1.75918 0
M  V30 11837 C 1113.24 0.670984 3.32191 0
M  V30 11838 C 1112.42 1.80471 3.98433 0
M  V30 11839 C 1111.48 1.35431 5.08473 0
M  V30 11840 O 1110.5 2.05994 5.30618 0
M  V30 11841 N 1111.7 0.22811 5.80052 0
M  V30 11842 H 1114.47 2.06753 2.16964 0
M  V30 11843 H 1112.03 1.21772 1.06692 0
M  V30 11844 H 1114.02 0.352877 4.03159 0
M  V30 11845 H 1112.59 -0.192735 3.12005 0
M  V30 11846 H 1111.81 2.29142 3.20761 0
M  V30 11847 H 1113.1 2.56471 4.39431 0
M  V30 11848 H 1112.5 -0.360076 5.64553 0
M  V30 11849 H 1111.05 -0.0305985 6.51793 0
M  V30 11850 N 1114.49 -1.10549 1.12324 0
M  V30 11851 C 1115.73 -1.82755 0.879117 0
M  V30 11852 C 1116.07 -1.84905 -0.593604 0
M  V30 11853 O 1115.34 -1.30884 -1.43873 0
M  V30 11854 C 1115.62 -3.29481 1.45308 0
M  V30 11855 C 1115.48 -3.3567 2.99408 0
M  V30 11856 C 1116.8 -4.25828 1.11167 0
M  V30 11857 H 1113.92 -0.663513 0.32081 0
M  V30 11858 H 1116.56 -1.29572 1.38965 0
M  V30 11859 H 1114.71 -3.74902 1.01887 0
M  V30 11860 H 1116.38 -2.98739 3.515 0
M  V30 11861 H 1114.62 -2.75606 3.34998 0
M  V30 11862 H 1115.29 -4.38983 3.34661 0
M  V30 11863 H 1117.77 -3.88635 1.48667 0
M  V30 11864 H 1116.65 -5.26857 1.53991 0
M  V30 11865 H 1116.91 -4.42094 0.0237046 0
M  V30 11866 N 1115.97 -0.914965 -1.28321 0
M  V30 11867 C 1117.21 -0.549562 -1.95212 0
M  V30 11868 C 1117.54 0.904658 -1.71842 0
M  V30 11869 O 1116.82 1.64354 -1.04009 0
M  V30 11870 C 1117.1 -0.860927 -3.49657 0
M  V30 11871 C 1116.96 -2.36797 -3.82423 0
M  V30 11872 C 1118.27 -0.357926 -4.38642 0
M  V30 11873 H 1115.39 -0.201136 -0.709023 0
M  V30 11874 H 1118.04 -1.14443 -1.51667 0
M  V30 11875 H 1116.19 -0.354665 -3.86878 0
M  V30 11876 H 1117.86 -2.94494 -3.55065 0
M  V30 11877 H 1116.1 -2.82245 -3.29424 0
M  V30 11878 H 1116.77 -2.53637 -4.90278 0
M  V30 11879 H 1119.25 -0.791636 -4.085 0
M  V30 11880 H 1118.12 -0.604855 -5.45557 0
M  V30 11881 H 1118.38 0.741775 -4.35833 0
M  V30 11882 N 1117.44 1.42219 -0.679077 0
M  V30 11883 C 1118.69 2.01081 -0.202718 0
M  V30 11884 C 1119.01 1.53986 1.19639 0
M  V30 11885 O 1118.28 0.763359 1.80415 0
M  V30 11886 H 1116.86 0.743526 -0.0719547 0
M  V30 11887 H 1119.52 1.74077 -0.876544 0
M  V30 11888 H 1118.62 3.11411 -0.207314 0
M  V30 11889 N 1118.92 0.422693 1.51826 0
M  V30 11890 C 1120.17 -0.148348 2.01555 0
M  V30 11891 C 1120.49 -1.44483 1.30956 0
M  V30 11892 O 1119.76 -1.90904 0.439599 0
M  V30 11893 H 1118.34 -0.0578116 0.74476 0
M  V30 11894 H 1121 0.562046 1.8662 0
M  V30 11895 H 1120.1 -0.334766 3.10299 0
M  V30 11896 N 1120.4 -1.5685 0.153553 0
M  V30 11897 C 1121.65 -1.95509 -0.495911 0
M  V30 11898 C 1121.96 -1.04129 -1.65579 0
M  V30 11899 O 1123.17 -1.32394 -2.37032 0
M  V30 11900 C 1121.62 -3.47579 -0.933622 0
M  V30 11901 C 1121.23 -4.47555 0.199684 0
M  V30 11902 C 1122.98 -3.95092 -1.55251 0
M  V30 11903 C 1120.88 -5.90843 -0.256663 0
M  V30 11904 H 1119.81 -0.729919 -0.189035 0
M  V30 11905 H 1122.46 -1.81938 0.238947 0
M  V30 11906 H 1120.85 -3.56506 -1.72394 0
M  V30 11907 H 1122.02 -4.50329 0.976744 0
M  V30 11908 H 1120.33 -4.09997 0.727394 0
M  V30 11909 H 1122.93 -4.99588 -1.90567 0
M  V30 11910 H 1123.27 -3.37015 -2.4439 0
M  V30 11911 H 1123.81 -3.89109 -0.826969 0
M  V30 11912 H 1120.55 -6.52753 0.599515 0
M  V30 11913 H 1120.07 -5.91414 -0.999458 0
M  V30 11914 H 1121.75 -6.43131 -0.70649 0
M  V30 11915 N 1121.88 0.120221 -1.57141 0
M  V30 11916 C 1123.11 0.841219 -1.88698 0
M  V30 11917 C 1123.52 1.7401 -0.74277 0
M  V30 11918 O 1122.86 1.81308 0.295497 0
M  V30 11919 C 1122.92 1.72781 -3.15257 0
M  V30 11920 C 1122.58 1.00336 -4.45849 0
M  V30 11921 C 1123.58 0.344734 -5.18756 0
M  V30 11922 C 1121.27 0.984899 -4.9255 0
M  V30 11923 C 1123.26 -0.322664 -6.36583 0
M  V30 11924 C 1120.95 0.313702 -6.10294 0
M  V30 11925 C 1121.95 -0.338926 -6.82159 0
M  V30 11926 O 1121.63 -0.999416 -7.97663 0
M  V30 11927 H 1121.37 0.247195 -0.629182 0
M  V30 11928 H 1123.92 0.109542 -2.05108 0
M  V30 11929 H 1122.15 2.5011 -2.94927 0
M  V30 11930 H 1123.84 2.32313 -3.32845 0
M  V30 11931 H 1124.6 0.350623 -4.83731 0
M  V30 11932 H 1120.48 1.4823 -4.36519 0
M  V30 11933 H 1124.03 -0.832643 -6.92613 0
M  V30 11934 H 1119.92 0.305572 -6.44776 0
M  V30 11935 H 1120.69 -0.90377 -8.13495 0
M  V30 11936 N 1123.36 1.52689 0.390367 0
M  V30 11937 C 1124.6 1.67335 1.13329 0
M  V30 11938 C 1124.93 0.415068 1.90531 0
M  V30 11939 O 1124.2 -0.570504 1.87409 0
M  V30 11940 H 1122.78 0.616821 0.421356 0
M  V30 11941 H 1125.44 1.89799 0.443 0
M  V30 11942 H 1124.53 2.52314 1.83696 0
M  V30 11943 N 1124.83 -0.648732 1.43629 0
M  V30 11944 C 1126.08 -1.41066 1.45699 0
M  V30 11945 C 1126.41 -1.94024 0.082612 0
M  V30 11946 O 1125.69 -1.7257 -0.897207 0
M  V30 11947 C 1125.97 -2.58882 2.50304 0
M  V30 11948 C 1125.82 -2.11387 3.97033 0
M  V30 11949 C 1127.14 -3.61092 2.51597 0
M  V30 11950 H 1124.26 -0.511591 0.530512 0
M  V30 11951 H 1126.9 -0.735069 1.75205 0
M  V30 11952 H 1125.05 -3.16518 2.25274 0
M  V30 11953 H 1126.73 -1.58718 4.33136 0
M  V30 11954 H 1124.97 -1.4272 4.0965 0
M  V30 11955 H 1125.64 -2.96129 4.65845 0
M  V30 11956 H 1128.12 -3.13223 2.73917 0
M  V30 11957 H 1126.99 -4.41071 3.26722 0
M  V30 11958 H 1127.25 -4.13985 1.55141 0
M  V30 11959 N 1126.31 -1.30234 -0.887518 0
M  V30 11960 C 1127.24 -1.18969 -2.00919 0
M  V30 11961 C 1128.22 -0.080952 -1.69907 0
M  V30 11962 O 1129.41 -0.262546 -1.92417 0
M  V30 11963 C 1126.54 -0.878094 -3.36016 0
M  V30 11964 C 1125.49 -1.94449 -3.81279 0
M  V30 11965 C 1124.82 -1.48594 -5.13638 0
M  V30 11966 C 1126.12 -3.35519 -4.00281 0
M  V30 11967 H 1127.81 -2.12808 -2.10602 0
M  V30 11968 H 1125.36 -1.02454 -1.01189 0
M  V30 11969 H 1127.31 -0.785954 -4.14006 0
M  V30 11970 H 1126.04 0.0959779 -3.26459 0
M  V30 11971 H 1124.69 -2.02622 -3.05516 0
M  V30 11972 H 1124.34 -0.500204 -5.00507 0
M  V30 11973 H 1124.04 -2.19921 -5.44893 0
M  V30 11974 H 1125.57 -1.40754 -5.94156 0
M  V30 11975 H 1126.98 -3.30119 -4.68716 0
M  V30 11976 H 1125.38 -4.0491 -4.42909 0
M  V30 11977 H 1126.45 -3.77597 -3.04218 0
M  V30 11978 N 1127.79 1.09952 -1.12909 0
M  V30 11979 C 1128.74 2.18525 -0.796849 0
M  V30 11980 C 1129.73 1.67985 0.218483 0
M  V30 11981 O 1130.94 1.79839 0.07618 0
M  V30 11982 H 1127.31 0.712714 -0.239882 0
M  V30 11983 H 1129.28 2.43783 -1.72083 0
M  V30 11984 C 1128.03 3.46625 -0.273237 0
M  V30 11985 H 1127.36 3.85879 -1.04582 0
M  V30 11986 H 1128.8 4.23926 -0.0791355 0
M  V30 11987 C 1127.26 3.2172 0.999903 0
M  V30 11988 O 1127.79 3.43851 2.07676 0
M  V30 11989 N 1125.99 2.75356 0.928833 0
M  V30 11990 H 1125.54 2.57547 0.052379 0
M  V30 11991 H 1125.5 2.5907 1.78129 0
M  V30 11992 N 1129.27 0.921757 1.27833 0
M  V30 11993 C 1130.68 0.621102 1.47019 0
M  V30 11994 C 1130.88 -0.831338 1.83551 0
M  V30 11995 O 1129.94 -1.60974 1.94534 0
M  V30 11996 C 1131.25 1.56588 2.56712 0
M  V30 11997 C 1132.8 1.57346 2.70576 0
M  V30 11998 C 1133.28 2.50505 3.8342 0
M  V30 11999 N 1134.77 2.48678 3.90786 0
M  V30 12000 C 1135.5 3.17454 4.77505 0
M  V30 12001 N 1135 3.95588 5.68755 0
M  V30 12002 N 1136.79 3.06501 4.71183 0
M  V30 12003 H 1128.94 1.86085 1.02403 0
M  V30 12004 H 1131.21 0.798595 0.510833 0
M  V30 12005 H 1130.91 2.60175 2.36647 0
M  V30 12006 H 1130.79 1.30305 3.53978 0
M  V30 12007 H 1133.17 0.544919 2.90025 0
M  V30 12008 H 1133.25 1.87675 1.73815 0
M  V30 12009 H 1132.9 3.53466 3.64725 0
M  V30 12010 H 1132.83 2.17474 4.79596 0
M  V30 12011 H 1135.32 1.91928 3.25534 0
M  V30 12012 H 1135.63 4.45066 6.31772 0
M  V30 12013 H 1133.98 3.99692 5.6857 0
M  V30 12014 H 1137.17 2.44958 3.9889 0
M  V30 12015 H 1137.34 3.60372 5.3855 0
M  V30 12016 N 1130.75 -1.41857 0.686609 0
M  V30 12017 C 1131.69 -2.30795 0.015643 0
M  V30 12018 C 1132.66 -1.46616 -0.780569 0
M  V30 12019 O 1133.85 -1.75423 -0.750424 0
M  V30 12020 C 1130.99 -3.32577 -0.921229 0
M  V30 12021 C 1130.1 -4.3184 -0.117585 0
M  V30 12022 C 1129.24 -5.20693 -1.05128 0
M  V30 12023 C 1128.28 -6.11629 -0.240018 0
M  V30 12024 N 1127.41 -6.92995 -1.12704 0
M  V30 12025 H 1132.25 -2.87615 0.77985 0
M  V30 12026 H 1129.79 -1.41661 0.396298 0
M  V30 12027 H 1131.75 -3.90129 -1.47836 0
M  V30 12028 H 1130.38 -2.77328 -1.65193 0
M  V30 12029 H 1129.43 -3.7631 0.55634 0
M  V30 12030 H 1130.74 -4.96168 0.511753 0
M  V30 12031 H 1129.9 -5.83035 -1.67795 0
M  V30 12032 H 1128.63 -4.5657 -1.71449 0
M  V30 12033 H 1127.64 -5.48345 0.399779 0
M  V30 12034 H 1128.86 -6.77805 0.419266 0
M  V30 12035 H 1126.81 -6.31489 -1.77644 0
M  V30 12036 H 1126.73 -7.53974 -0.553065 0
M  V30 12037 H 1128 -7.59813 -1.7408 0
M  V30 12038 N 1132.22 -0.430739 -1.51599 0
M  V30 12039 C 1133.64 -0.0826902 -1.59386 0
M  V30 12040 C 1133.84 1.40729 -1.44214 0
M  V30 12041 O 1132.9 2.1765 -1.28002 0
M  V30 12042 C 1134.21 -0.59691 -2.94716 0
M  V30 12043 C 1135.76 -0.556772 -3.08008 0
M  V30 12044 C 1136.23 -1.04786 -4.45852 0
M  V30 12045 N 1137.72 -1.00557 -4.52153 0
M  V30 12046 C 1138.46 -1.35649 -5.57124 0
M  V30 12047 N 1137.95 -1.77994 -6.69545 0
M  V30 12048 N 1139.75 -1.27508 -5.47447 0
M  V30 12049 H 1131.9 -1.40027 -1.59707 0
M  V30 12050 H 1134.16 -0.576606 -0.752482 0
M  V30 12051 H 1133.87 -1.63914 -3.11167 0
M  V30 12052 H 1133.74 -0.0182342 -3.77196 0
M  V30 12053 H 1136.13 0.476457 -2.91228 0
M  V30 12054 H 1136.21 -1.17177 -2.27383 0
M  V30 12055 H 1135.85 -2.07952 -4.63377 0
M  V30 12056 H 1135.78 -0.409461 -5.25006 0
M  V30 12057 H 1138.27 -0.694518 -3.71463 0
M  V30 12058 H 1138.59 -2.03026 -7.45654 0
M  V30 12059 H 1136.93 -1.81916 -6.70769 0
M  V30 12060 H 1140.12 -0.942969 -4.58504 0
M  V30 12061 H 1140.3 -1.55185 -6.29143 0
M  V30 12062 N 1133.7 1.56767 -0.161869 0
M  V30 12063 C 1134.95 1.96206 0.484537 0
M  V30 12064 C 1135.27 1.04848 1.64414 0
M  V30 12065 O 1134.54 0.112946 1.95574 0
M  V30 12066 H 1133.12 0.724491 0.181994 0
M  V30 12067 H 1135.78 1.93406 -0.240845 0
M  V30 12068 H 1134.88 3.00279 0.85083 0
M  V30 12069 N 1135.18 -0.111886 1.57202 0
M  V30 12070 C 1136.13 -1.14287 1.97288 0
M  V30 12071 C 1137.11 -1.36686 0.848868 0
M  V30 12072 O 1138.31 -1.37659 1.11261 0
M  V30 12073 C 1135.44 -2.46759 2.38673 0
M  V30 12074 C 1134.52 -2.27805 3.57723 0
M  V30 12075 N 1134.91 -1.78679 4.73189 0
M  V30 12076 C 1133.21 -2.58435 3.63494 0
M  V30 12077 C 1133.91 -1.736 5.55192 0
M  V30 12078 N 1132.89 -2.18205 4.97883 0
M  V30 12079 H 1136.69 -0.755711 2.84018 0
M  V30 12080 H 1134.2 -0.31954 1.59225 0
M  V30 12081 H 1136.2 -3.21335 2.65611 0
M  V30 12082 H 1134.86 -2.86227 1.53311 0
M  V30 12083 H 1135.87 -1.48121 4.96267 0
M  V30 12084 H 1132.55 -3.0154 2.88755 0
M  V30 12085 H 1133.94 -1.36812 6.57824 0
M  V30 12086 N 1136.66 -1.52894 -0.382264 0
M  V30 12087 C 1137.9 -1.68515 -1.12829 0
M  V30 12088 C 1138.24 -0.427211 -1.89443 0
M  V30 12089 O 1137.51 0.57516 -1.85801 0
M  V30 12090 C 1137.8 -2.92449 -2.10108 0
M  V30 12091 C 1137.65 -4.2836 -1.37214 0
M  V30 12092 C 1138.97 -3.11944 -3.1045 0
M  V30 12093 H 1136.09 -0.613223 -0.408811 0
M  V30 12094 H 1138.73 -1.85503 -0.410921 0
M  V30 12095 H 1136.88 -2.78097 -2.71283 0
M  V30 12096 H 1138.55 -4.54493 -0.789516 0
M  V30 12097 H 1136.79 -4.28532 -0.673973 0
M  V30 12098 H 1137.46 -5.11178 -2.0833 0
M  V30 12099 H 1139.94 -3.25372 -2.59369 0
M  V30 12100 H 1138.82 -4.00125 -3.75754 0
M  V30 12101 H 1139.08 -2.26465 -3.79692 0
M  V30 12102 N 1138.14 0.641106 -1.43971 0
M  V30 12103 C 1139.38 1.40084 -1.46228 0
M  V30 12104 C 1139.71 1.94287 -0.0911011 0
M  V30 12105 O 1138.97 1.73481 0.905688 0
M  V30 12106 C 1139.27 2.59092 -2.46183 0
M  V30 12107 C 1138.93 2.23237 -3.9176 0
M  V30 12108 C 1137.59 2.13171 -4.31407 0
M  V30 12109 C 1139.95 1.94746 -4.83449 0
M  V30 12110 C 1137.27 1.72788 -5.60679 0
M  V30 12111 C 1139.63 1.55858 -6.13099 0
M  V30 12112 C 1138.29 1.44326 -6.5171 0
M  V30 12113 H 1137.56 0.512603 -0.535088 0
M  V30 12114 H 1140.21 0.727956 -1.77124 0
M  V30 12115 H 1138.51 3.31568 -2.08734 0
M  V30 12116 H 1140.21 3.17313 -2.4518 0
M  V30 12117 H 1136.8 2.31986 -3.60389 0
M  V30 12118 H 1140.98 2.01438 -4.53582 0
M  V30 12119 H 1136.24 1.62455 -5.89422 0
M  V30 12120 H 1140.41 1.32848 -6.83611 0
M  V30 12121 H 1138.04 1.12806 -7.51784 0
M  V30 12122 N 1139.62 1.30703 0.880598 0
M  V30 12123 C 1140.53 1.19389 2.01949 0
M  V30 12124 C 1141.54 0.112868 1.73634 0
M  V30 12125 O 1142.72 0.328643 1.98701 0
M  V30 12126 C 1139.78 0.891004 3.35055 0
M  V30 12127 C 1138.84 2.05784 3.76764 0
M  V30 12128 C 1138.08 1.76931 5.03519 0
M  V30 12129 O 1138.3 0.699326 5.66097 0
M  V30 12130 O 1137.23 2.623 5.4174 0
M  V30 12131 H 1141.06 2.15073 2.14423 0
M  V30 12132 H 1138.64 1.10339 1.00726 0
M  V30 12133 H 1140.53 0.737476 4.14897 0
M  V30 12134 H 1139.2 -0.0358909 3.2368 0
M  V30 12135 H 1138.11 2.26672 2.97608 0
M  V30 12136 H 1139.44 2.96661 3.9275 0
M  V30 12137 N 1141.09 -1.09351 1.1349 0
M  V30 12138 C 1142 -2.19564 0.826366 0
M  V30 12139 C 1143.02 -1.72967 -0.189339 0
M  V30 12140 O 1144.2 -2.0139 -0.0202033 0
M  V30 12141 C 1141.26 -3.4542 0.297685 0
M  V30 12142 C 1140.32 -4.06694 1.37473 0
M  V30 12143 C 1139.55 -5.26542 0.871183 0
M  V30 12144 O 1139.78 -5.69657 -0.290958 0
M  V30 12145 O 1138.71 -5.78961 1.64584 0
M  V30 12146 H 1142.54 -2.4841 1.74718 0
M  V30 12147 H 1140.12 -1.18302 0.912414 0
M  V30 12148 H 1142 -4.21399 0.00829479 0
M  V30 12149 H 1140.68 -3.18175 -0.595536 0
M  V30 12150 H 1139.59 -3.32347 1.71745 0
M  V30 12151 H 1140.92 -4.38166 2.24212 0
M  V30 12152 N 1142.57 -0.928524 -1.27343 0
M  V30 12153 C 1143.8 -0.58516 -1.98974 0
M  V30 12154 C 1144.22 0.829964 -1.68799 0
M  V30 12155 O 1143.58 1.55705 -0.928738 0
M  V30 12156 C 1143.63 -0.818662 -3.51184 0
M  V30 12157 O 1142.73 0.115355 -4.12239 0
M  V30 12158 H 1142.07 -0.225203 -0.624644 0
M  V30 12159 H 1144.6 -1.248 -1.6213 0
M  V30 12160 H 1144.61 -0.734554 -4.01333 0
M  V30 12161 H 1143.29 -1.8502 -3.72479 0
M  V30 12162 H 1141.86 -0.0187371 -3.72895 0
M  V30 12163 N 1144.05 1.41491 -0.694123 0
M  V30 12164 C 1144.98 2.29197 0.0112742 0
M  V30 12165 C 1145.99 1.44708 0.745877 0
M  V30 12166 O 1147.18 1.68227 0.596821 0
M  V30 12167 C 1144.28 3.22547 1.04004 0
M  V30 12168 C 1143.46 4.35787 0.375347 0
M  V30 12169 C 1142.52 5.09722 1.30652 0
M  V30 12170 O 1141.54 5.63558 0.799459 0
M  V30 12171 N 1142.74 5.1705 2.63893 0
M  V30 12172 H 1145.51 2.90377 -0.741705 0
M  V30 12173 H 1143.07 1.52628 -0.540039 0
M  V30 12174 H 1145.06 3.68878 1.66468 0
M  V30 12175 H 1143.63 2.62685 1.69456 0
M  V30 12176 H 1142.85 3.91857 -0.429145 0
M  V30 12177 H 1144.14 5.08726 -0.0869041 0
M  V30 12178 H 1143.54 4.74756 3.07609 0
M  V30 12179 H 1142.09 5.66962 3.21555 0
M  V30 12180 N 1145.53 0.438773 1.51369 0
M  V30 12181 C 1146.77 -0.127401 2.02399 0
M  V30 12182 C 1147.11 -1.42235 1.32223 0
M  V30 12183 O 1146.38 -1.89513 0.437607 0
M  V30 12184 C 1146.66 -0.344673 3.58447 0
M  V30 12185 C 1146.52 0.969027 4.39238 0
M  V30 12186 C 1147.84 -1.11381 4.25773 0
M  V30 12187 H 1144.96 -0.0448281 0.735635 0
M  V30 12188 H 1147.6 0.57805 1.80993 0
M  V30 12189 H 1145.75 -0.945582 3.76817 0
M  V30 12190 H 1147.42 1.60403 4.32514 0
M  V30 12191 H 1145.66 1.57329 4.04265 0
M  V30 12192 H 1146.33 0.771029 5.46589 0
M  V30 12193 H 1148.81 -0.604785 4.11681 0
M  V30 12194 H 1147.69 -1.23459 5.34835 0
M  V30 12195 H 1147.95 -2.14225 3.8673 0
M  V30 12196 N 1147.01 -1.56678 0.170181 0
M  V30 12197 C 1147.97 -2.16698 -0.746622 0
M  V30 12198 C 1148.97 -1.11475 -1.15888 0
M  V30 12199 O 1150.16 -1.36994 -1.07602 0
M  V30 12200 C 1147.29 -2.74892 -2.01612 0
M  V30 12201 H 1148.48 -2.99061 -0.224135 0
M  V30 12202 H 1146.04 -1.56098 -0.0793761 0
M  V30 12203 H 1146.77 -1.96259 -2.58172 0
M  V30 12204 H 1146.56 -3.51896 -1.72949 0
M  V30 12205 H 1148.05 -3.21058 -2.67042 0
M  V30 12206 N 1148.48 0.103547 -1.57259 0
M  V30 12207 C 1149.73 0.806979 -1.8529 0
M  V30 12208 C 1150.05 1.79679 -0.757653 0
M  V30 12209 O 1149.32 1.94695 0.216913 0
M  V30 12210 H 1147.9 0.301012 -0.683667 0
M  V30 12211 H 1150.56 0.0871886 -1.94705 0
M  V30 12212 H 1149.66 1.34275 -2.81738 0
M  V30 12213 N 1149.96 1.53094 0.37415 0
M  V30 12214 C 1151.19 1.72758 1.13852 0
M  V30 12215 C 1151.6 0.452638 1.83294 0
M  V30 12216 O 1150.96 -0.573906 1.73241 0
M  V30 12217 C 1151.01 2.88724 2.17534 0
M  V30 12218 O 1150.73 4.11284 1.5092 0
M  V30 12219 C 1152.23 3.2019 3.06584 0
M  V30 12220 H 1149.45 0.578028 0.340771 0
M  V30 12221 H 1152 1.99805 0.435683 0
M  V30 12222 H 1150.15 2.64096 2.83429 0
M  V30 12223 H 1150.57 4.76162 2.19932 0
M  V30 12224 H 1152.04 4.04759 3.75332 0
M  V30 12225 H 1152.52 2.35193 3.70919 0
M  V30 12226 H 1153.12 3.46712 2.46315 0
M  V30 12227 N 1151.44 -0.633461 1.44309 0
M  V30 12228 C 1152.85 -1.21504 1.41752 0
M  V30 12229 C 1153.2 -1.95758 0.131667 0
M  V30 12230 O 1152.33 -2.02311 -0.768072 0
M  V30 12231 C 1152.92 -2.21005 2.56792 0
M  V30 12232 C 1151.48 -2.74596 2.57438 0
M  V30 12233 C 1150.63 -1.49555 2.33513 0
M  V30 12234 H 1153.58 -0.424277 1.52923 0
M  V30 12235 H 1153.6 -3.03563 2.29412 0
M  V30 12236 H 1153.11 -1.66934 3.50364 0
M  V30 12237 H 1151.21 -3.32676 1.67801 0
M  V30 12238 H 1151.33 -3.20794 3.55849 0
M  V30 12239 H 1149.69 -1.77605 1.82561 0
M  V30 12240 H 1150.47 -0.973899 3.29196 0
M  V30 12241 N 1152.92 -1.31168 -0.873655 0
M  V30 12242 C 1153.85 -1.12836 -1.98351 0
M  V30 12243 C 1154.83 -0.0328679 -1.62567 0
M  V30 12244 O 1156.01 -0.18859 -1.87554 0
M  V30 12245 C 1153.14 -0.72332 -3.30886 0
M  V30 12246 C 1152.19 -1.82132 -3.85656 0
M  V30 12247 S 1153.02 -3.42604 -4.11562 0
M  V30 12248 C 1154.18 -3.04028 -5.471 0
M  V30 12249 H 1154.41 -2.06793 -2.13597 0
M  V30 12250 H 1151.94 -1.15611 -1.0234 0
M  V30 12251 H 1153.9 -0.496371 -4.07488 0
M  V30 12252 H 1152.56 0.197077 -3.13481 0
M  V30 12253 H 1151.75 -1.49046 -4.81458 0
M  V30 12254 H 1151.36 -2.00314 -3.15833 0
M  V30 12255 H 1153.65 -2.52692 -6.28612 0
M  V30 12256 H 1154.59 -3.9878 -5.85133 0
M  V30 12257 H 1155 -2.41574 -5.10198 0
M  V30 12258 N 1154.4 1.08748 -1.14068 0
M  V30 12259 C 1155.64 1.81065 -0.906738 0
M  V30 12260 C 1155.97 1.86057 0.566844 0
M  V30 12261 O 1155.23 1.32976 1.43582 0
M  V30 12262 C 1155.53 3.26734 -1.44843 0
M  V30 12263 C 1155.19 3.41866 -2.94005 0
M  V30 12264 C 1153.85 3.45703 -3.34729 0
M  V30 12265 C 1156.21 3.45831 -3.89937 0
M  V30 12266 C 1153.53 3.51092 -4.70055 0
M  V30 12267 C 1155.89 3.52755 -5.25116 0
M  V30 12268 C 1154.55 3.54863 -5.65357 0
M  V30 12269 H 1153.82 0.662564 -0.331799 0
M  V30 12270 H 1156.47 1.28065 -1.42378 0
M  V30 12271 H 1154.77 3.82419 -0.852239 0
M  V30 12272 H 1156.47 3.81236 -1.2434 0
M  V30 12273 H 1153.06 3.39568 -2.61518 0
M  V30 12274 H 1157.24 3.421 -3.59557 0
M  V30 12275 H 1152.5 3.51015 -5.00598 0
M  V30 12276 H 1156.67 3.54768 -5.9926 0
M  V30 12277 H 1154.3 3.58792 -6.70203 0
M  V30 12278 N 1155.87 0.935264 1.26849 0
M  V30 12279 C 1157.12 0.580548 1.94313 0
M  V30 12280 C 1157.45 -0.877205 1.73259 0
M  V30 12281 O 1156.73 -1.62679 1.06611 0
M  V30 12282 C 1157.01 0.916445 3.48243 0
M  V30 12283 C 1156.86 2.42851 3.78607 0
M  V30 12284 C 1158.18 0.427665 4.38017 0
M  V30 12285 H 1155.3 0.21239 0.705733 0
M  V30 12286 H 1157.94 1.16841 1.49827 0
M  V30 12287 H 1156.09 0.416169 3.86265 0
M  V30 12288 H 1157.77 3.00106 3.50335 0
M  V30 12289 H 1156.01 2.8745 3.24892 0
M  V30 12290 H 1156.68 2.61405 4.8618 0
M  V30 12291 H 1159.16 0.856525 4.07189 0
M  V30 12292 H 1158.03 0.691571 5.44526 0
M  V30 12293 H 1158.29 -0.672344 4.36958 0
M  V30 12294 N 1157.35 -1.41121 0.701616 0
M  V30 12295 C 1158.6 -2.01428 0.235495 0
M  V30 12296 C 1158.93 -1.55463 -1.16382 0
M  V30 12297 O 1158.21 -0.768477 -1.78675 0
M  V30 12298 C 1158.49 -3.58849 0.299919 0
M  V30 12299 C 1158.34 -4.14924 1.73661 0
M  V30 12300 C 1159.66 -4.38809 -0.336856 0
M  V30 12301 H 1156.78 -0.731842 0.0870456 0
M  V30 12302 H 1159.42 -1.67787 0.891479 0
M  V30 12303 H 1157.57 -3.87638 -0.258611 0
M  V30 12304 H 1159.24 -3.96987 2.34945 0
M  V30 12305 H 1157.49 -3.69738 2.26884 0
M  V30 12306 H 1158.16 -5.24085 1.73318 0
M  V30 12307 H 1160.63 -4.15868 0.138886 0
M  V30 12308 H 1159.51 -5.48278 -0.261264 0
M  V30 12309 H 1159.77 -4.18728 -1.41843 0
M  V30 12310 N 1158.83 -0.446794 -1.51134 0
M  V30 12311 C 1159.78 0.359865 -2.27977 0
M  V30 12312 C 1160.75 1.0086 -1.31972 0
M  V30 12313 O 1161.93 1.02569 -1.60886 0
M  V30 12314 C 1159.07 1.44978 -3.1317 0
M  V30 12315 C 1158.19 0.818243 -4.2418 0
M  V30 12316 C 1157.32 1.884 -4.96668 0
M  V30 12317 C 1156.36 1.2314 -5.99586 0
M  V30 12318 N 1155.5 2.23894 -6.65444 0
M  V30 12319 H 1160.34 -0.301775 -2.96468 0
M  V30 12320 H 1157.87 -0.160666 -1.4622 0
M  V30 12321 H 1159.83 2.09308 -3.60896 0
M  V30 12322 H 1158.46 2.08092 -2.46775 0
M  V30 12323 H 1157.51 0.0629889 -3.80348 0
M  V30 12324 H 1158.83 0.301885 -4.97886 0
M  V30 12325 H 1157.98 2.6037 -5.4799 0
M  V30 12326 H 1156.72 2.43411 -4.22614 0
M  V30 12327 H 1155.72 0.497215 -5.47547 0
M  V30 12328 H 1156.95 0.688505 -6.75601 0
M  V30 12329 H 1154.89 2.77967 -5.94197 0
M  V30 12330 H 1154.81 1.77176 -7.34945 0
M  V30 12331 H 1156.08 2.95318 -7.21393 0
M  V30 12332 N 1160.31 1.56586 -0.178487 0
M  V30 12333 C 1161.27 2.17091 0.73512 0
M  V30 12334 C 1162.27 1.12088 1.15295 0
M  V30 12335 O 1163.46 1.37563 1.06874 0
M  V30 12336 C 1160.59 2.75957 2.00151 0
M  V30 12337 H 1161.79 2.99176 0.208272 0
M  V30 12338 H 1159.34 1.56138 0.0710967 0
M  V30 12339 H 1160.07 1.97626 2.57127 0
M  V30 12340 H 1159.86 3.52809 1.7108 0
M  V30 12341 H 1161.35 3.2247 2.65335 0
M  V30 12342 N 1161.79 -0.095206 1.57312 0
M  V30 12343 C 1163.02 -0.811092 1.90013 0
M  V30 12344 C 1163.42 -1.72807 0.770359 0
M  V30 12345 O 1162.77 -1.81755 -0.266615 0
M  V30 12346 C 1162.83 -1.67744 3.17966 0
M  V30 12347 C 1162.49 -0.932301 4.47389 0
M  V30 12348 C 1163.49 -0.262161 5.19239 0
M  V30 12349 C 1161.18 -0.906414 4.94054 0
M  V30 12350 C 1163.17 0.423898 6.35989 0
M  V30 12351 C 1160.86 -0.216569 6.10716 0
M  V30 12352 C 1161.85 0.447408 6.81533 0
M  V30 12353 O 1161.54 1.12619 7.95972 0
M  V30 12354 H 1161.27 -0.237154 0.633035 0
M  V30 12355 H 1163.83 -0.0768976 2.05256 0
M  V30 12356 H 1162.06 -2.45387 2.98868 0
M  V30 12357 H 1163.75 -2.26988 3.36498 0
M  V30 12358 H 1164.51 -0.273621 4.84228 0
M  V30 12359 H 1160.39 -1.41267 4.38822 0
M  V30 12360 H 1163.94 0.942727 6.91201 0
M  V30 12361 H 1159.83 -0.202955 6.45181 0
M  V30 12362 H 1160.6 1.03308 8.11954 0
M  V30 12363 N 1163.26 -1.53291 -0.366026 0
M  V30 12364 C 1164.19 -1.82675 -1.45437 0
M  V30 12365 C 1165.18 -0.680227 -1.55907 0
M  V30 12366 O 1166.36 -0.930032 -1.70482 0
M  V30 12367 C 1163.49 -2.01626 -2.8278 0
M  V30 12368 C 1162.44 -3.17391 -2.87135 0
M  V30 12369 C 1161.77 -3.21634 -4.27148 0
M  V30 12370 C 1163.07 -4.5599 -2.54697 0
M  V30 12371 H 1164.76 -2.73818 -1.21096 0
M  V30 12372 H 1162.31 -1.31754 -0.581108 0
M  V30 12373 H 1164.26 -2.20765 -3.58944 0
M  V30 12374 H 1162.99 -1.07193 -3.08508 0
M  V30 12375 H 1161.65 -2.98071 -2.13422 0
M  V30 12376 H 1161.29 -2.2484 -4.49951 0
M  V30 12377 H 1160.99 -3.99414 -4.30978 0
M  V30 12378 H 1162.52 -3.42957 -5.05186 0
M  V30 12379 H 1163.93 -4.75294 -3.20575 0
M  V30 12380 H 1162.33 -5.36008 -2.69844 0
M  V30 12381 H 1163.4 -4.61133 -1.49949 0
M  V30 12382 N 1164.74 0.6258 -1.44643 0
M  V30 12383 C 1166.15 1.20751 -1.42394 0
M  V30 12384 C 1166.5 1.95685 -0.142047 0
M  V30 12385 O 1165.63 2.02715 0.757332 0
M  V30 12386 C 1166.22 2.1964 -2.57961 0
M  V30 12387 C 1164.78 2.73227 -2.5889 0
M  V30 12388 C 1163.93 1.48315 -2.34303 0
M  V30 12389 H 1166.88 0.416162 -1.53146 0
M  V30 12390 H 1166.9 3.02342 -2.31019 0
M  V30 12391 H 1166.41 1.65073 -3.51244 0
M  V30 12392 H 1164.52 3.31782 -1.69563 0
M  V30 12393 H 1164.63 3.18902 -3.57545 0
M  V30 12394 H 1162.99 1.76634 -1.83501 0
M  V30 12395 H 1163.78 0.956427 -3.29708 0
M  V30 12396 N 1166.22 1.31629 0.866686 0
M  V30 12397 C 1167.47 1.21683 1.62238 0
M  V30 12398 C 1167.8 -0.223767 1.92907 0
M  V30 12399 O 1167.07 -1.15761 1.563 0
M  V30 12400 C 1167.36 2.06443 2.95048 0
M  V30 12401 C 1167.21 3.58818 2.71237 0
M  V30 12402 C 1168.53 1.91634 3.96187 0
M  V30 12403 H 1165.65 0.443389 0.588707 0
M  V30 12404 H 1168.29 1.61453 1.00164 0
M  V30 12405 H 1166.44 1.72654 3.48027 0
M  V30 12406 H 1168.11 4.0276 2.24905 0
M  V30 12407 H 1166.36 3.82085 2.05411 0
M  V30 12408 H 1167.03 4.13436 3.65752 0
M  V30 12409 H 1169.5 2.21209 3.52428 0
M  V30 12410 H 1168.38 2.53236 4.86993 0
M  V30 12411 H 1168.64 0.880564 4.33242 0
M  V30 12412 N 1167.7 -1.08142 1.14644 0
M  V30 12413 C 1168.65 -2.17229 0.831513 0
M  V30 12414 C 1169.64 -1.68311 -0.19173 0
M  V30 12415 O 1170.85 -1.79937 -0.0475596 0
M  V30 12416 H 1167.22 -0.708807 0.25119 0
M  V30 12417 H 1169.19 -2.41014 1.75939 0
M  V30 12418 C 1167.94 -3.46146 0.328347 0
M  V30 12419 H 1167.27 -3.84166 1.10708 0
M  V30 12420 H 1168.71 -4.23747 0.146568 0
M  V30 12421 C 1167.16 -3.2327 -0.948594 0
M  V30 12422 O 1167.69 -3.47111 -2.0218 0
M  V30 12423 N 1165.9 -2.76799 -0.884909 0
M  V30 12424 H 1165.45 -2.57597 -0.011399 0
M  V30 12425 H 1165.41 -2.61871 -1.73985 0
M  V30 12426 N 1169.18 -0.941978 -1.26351 0
M  V30 12427 C 1170.09 -0.45833 -2.30079 0
M  V30 12428 C 1171.1 0.468084 -1.67586 0
M  V30 12429 O 1172.28 0.347418 -1.98381 0
M  V30 12430 C 1169.34 0.26797 -3.45663 0
M  V30 12431 C 1168.41 -0.695102 -4.23635 0
M  V30 12432 C 1167.64 -0.003369 -5.337 0
M  V30 12433 O 1167.86 1.21342 -5.57344 0
M  V30 12434 O 1166.8 -0.682476 -5.98018 0
M  V30 12435 H 1170.62 -1.31998 -2.73514 0
M  V30 12436 H 1168.21 -0.707897 -1.31564 0
M  V30 12437 H 1170.09 0.677061 -4.15925 0
M  V30 12438 H 1168.76 1.105 -3.04256 0
M  V30 12439 H 1167.67 -1.15415 -3.55851 0
M  V30 12440 H 1169 -1.49977 -4.68794 0
M  V30 12441 N 1170.66 1.40747 -0.709091 0
M  V30 12442 C 1171.88 2.05841 -0.253816 0
M  V30 12443 C 1172.31 1.53056 1.09341 0
M  V30 12444 O 1171.66 0.663181 1.68735 0
M  V30 12445 C 1171.71 3.59822 -0.236699 0
M  V30 12446 O 1170.82 4.04876 0.784168 0
M  V30 12447 H 1170.16 0.65295 -0.120631 0
M  V30 12448 H 1172.69 1.80266 -0.967749 0
M  V30 12449 H 1172.7 4.07936 -0.0721616 0
M  V30 12450 H 1171.37 3.97608 -1.21988 0
M  V30 12451 H 1169.95 3.68237 0.587884 0
M  V30 12452 N 1172.13 0.454803 1.50895 0
M  V30 12453 C 1173.38 -0.10577 2.02224 0
M  V30 12454 C 1173.71 -1.41176 1.33789 0
M  V30 12455 O 1172.96 -1.90522 0.447181 0
M  V30 12456 C 1173.26 -0.354159 3.55641 0
M  V30 12457 C 1172.93 0.868136 4.42464 0
M  V30 12458 C 1171.59 1.2033 4.65912 0
M  V30 12459 C 1173.94 1.68272 4.93289 0
M  V30 12460 C 1171.27 2.3534 5.37431 0
M  V30 12461 C 1173.62 2.82396 5.6607 0
M  V30 12462 C 1172.29 3.16346 5.87777 0
M  V30 12463 H 1171.56 -0.0387041 0.739989 0
M  V30 12464 H 1174.2 0.605564 1.81673 0
M  V30 12465 H 1172.51 -1.14757 3.74617 0
M  V30 12466 H 1174.21 -0.8016 3.92906 0
M  V30 12467 H 1170.8 0.596995 4.24422 0
M  V30 12468 H 1174.98 1.43698 4.75042 0
M  V30 12469 H 1170.24 2.61936 5.52449 0
M  V30 12470 H 1174.41 3.45873 6.04438 0
M  V30 12471 H 1172.04 4.05574 6.42973 0
M  V30 12472 N 1173.61 -1.56489 0.186789 0
M  V30 12473 C 1174.86 -1.96952 -0.453261 0
M  V30 12474 C 1175.18 -1.07451 -1.62725 0
M  V30 12475 O 1174.45 -0.144046 -1.9537 0
M  V30 12476 H 1173.03 -0.727295 -0.170445 0
M  V30 12477 H 1175.69 -1.92999 0.271584 0
M  V30 12478 H 1174.79 -3.01594 -0.802951 0
M  V30 12479 N 1175.09 0.086862 -1.5736 0
M  V30 12480 C 1176.34 0.78884 -1.86504 0
M  V30 12481 C 1176.66 1.78329 -0.77646 0
M  V30 12482 O 1175.92 1.94354 0.229122 0
M  V30 12483 C 1176.22 1.54537 -3.22263 0
M  V30 12484 C 1175.88 0.692284 -4.45554 0
M  V30 12485 C 1174.55 0.45714 -4.79024 0
M  V30 12486 C 1176.9 0.0997695 -5.21105 0
M  V30 12487 C 1174.23 -0.380247 -5.85466 0
M  V30 12488 C 1176.58 -0.724986 -6.28432 0
M  V30 12489 C 1175.24 -0.970144 -6.60412 0
M  V30 12490 H 1174.51 0.288657 -0.682465 0
M  V30 12491 H 1177.16 0.050059 -1.91435 0
M  V30 12492 H 1175.46 2.35594 -3.13053 0
M  V30 12493 H 1177.16 2.09305 -3.42042 0
M  V30 12494 H 1173.75 0.885675 -4.19349 0
M  V30 12495 H 1177.94 0.268583 -4.95573 0
M  V30 12496 H 1173.19 -0.579084 -6.08651 0
M  V30 12497 H 1177.37 -1.19093 -6.86141 0
M  V30 12498 H 1174.99 -1.6208 -7.42721 0
M  V30 12499 N 1176.57 1.53483 0.357892 0
M  V30 12500 C 1177.8 1.73956 1.12013 0
M  V30 12501 C 1178.21 0.472053 1.82803 0
M  V30 12502 O 1177.57 -0.555499 1.7384 0
M  V30 12503 C 1177.62 2.91015 2.14459 0
M  V30 12504 O 1177.34 4.12862 1.4655 0
M  V30 12505 C 1178.84 3.23423 3.0317 0
M  V30 12506 H 1176.06 0.58161 0.334621 0
M  V30 12507 H 1178.6 2.00256 0.414467 0
M  V30 12508 H 1176.76 2.67087 2.80612 0
M  V30 12509 H 1177.17 4.78468 2.14869 0
M  V30 12510 H 1178.65 4.08717 3.71018 0
M  V30 12511 H 1179.12 2.39114 3.68404 0
M  V30 12512 H 1179.73 3.49305 2.42624 0
M  V30 12513 N 1178.05 -0.61812 1.44973 0
M  V30 12514 C 1179.01 -1.71135 1.52465 0
M  V30 12515 C 1180.01 -1.5561 0.405246 0
M  V30 12516 O 1181.2 -1.60869 0.668351 0
M  V30 12517 C 1178.33 -3.10324 1.41108 0
M  V30 12518 H 1179.52 -1.65862 2.49859 0
M  V30 12519 H 1177.08 -0.832932 1.32257 0
M  V30 12520 H 1177.81 -3.21183 0.448574 0
M  V30 12521 H 1177.6 -3.23001 2.2229 0
M  V30 12522 H 1179.09 -3.89976 1.49361 0
M  V30 12523 N 1179.52 -1.32087 -0.859693 0
M  V30 12524 C 1180.8 -1.12984 -1.59668 0
M  V30 12525 C 1181.18 0.311661 -2.08787 0
M  V30 12526 O 1180.53 1.30746 -1.87397 0
M  V30 12527 C 1180.74 -2.15305 -2.74672 0
M  V30 12528 C 1182.09 -2.48371 -3.44379 0
M  V30 12529 O 1183.11 -2.13811 -2.84891 0
M  V30 12530 O 1181.97 -3.07594 -4.51717 0
M  V30 12531 H 1179.06 -0.435657 -0.702945 0
M  V30 12532 H 1181.61 -1.43601 -0.90426 0
M  V30 12533 H 1180.38 -3.12223 -2.35866 0
M  V30 12534 H 1180 -1.85653 -3.51594 0
M  V30 12535 N 1181 1.07532 -1.15215 0
M  V30 12536 C 1181.93 2.1668 -0.870171 0
M  V30 12537 C 1182.91 1.69161 0.178483 0
M  V30 12538 O 1184.1 1.94172 0.0332489 0
M  V30 12539 C 1181.23 3.45464 -0.356666 0
M  V30 12540 C 1180.18 4.06424 -1.34179 0
M  V30 12541 C 1179.51 5.30266 -0.687206 0
M  V30 12542 C 1180.81 4.46666 -2.70715 0
M  V30 12543 H 1182.5 2.40526 -1.7829 0
M  V30 12544 H 1180.05 1.15598 -0.858665 0
M  V30 12545 H 1182 4.21144 -0.146947 0
M  V30 12546 H 1180.72 3.21199 0.591527 0
M  V30 12547 H 1179.38 3.32786 -1.53783 0
M  V30 12548 H 1179.03 5.0229 0.267077 0
M  V30 12549 H 1178.73 5.72009 -1.34462 0
M  V30 12550 H 1180.26 6.08653 -0.487218 0
M  V30 12551 H 1181.67 5.13483 -2.54966 0
M  V30 12552 H 1180.07 4.99355 -3.32813 0
M  V30 12553 H 1181.14 3.58123 -3.26919 0
M  V30 12554 N 1182.48 0.948665 1.2585 0
M  V30 12555 C 1183.9 0.652147 1.45668 0
M  V30 12556 C 1184.1 -0.792217 1.85273 0
M  V30 12557 O 1183.15 -1.56812 1.97905 0
M  V30 12558 C 1184.47 1.61998 2.53332 0
M  V30 12559 C 1186.01 1.6305 2.67178 0
M  V30 12560 C 1186.49 2.58582 3.78021 0
M  V30 12561 N 1187.98 2.56911 3.85423 0
M  V30 12562 C 1188.71 3.27511 4.70664 0
M  V30 12563 N 1188.21 4.07563 5.60236 0
M  V30 12564 N 1190 3.16427 4.64576 0
M  V30 12565 H 1182.15 1.88215 0.984325 0
M  V30 12566 H 1184.42 0.809251 0.493778 0
M  V30 12567 H 1184.12 2.65137 2.31075 0
M  V30 12568 H 1184 1.37784 3.51134 0
M  V30 12569 H 1186.38 0.606315 2.88804 0
M  V30 12570 H 1186.47 1.9132 1.69795 0
M  V30 12571 H 1186.11 3.61122 3.57146 0
M  V30 12572 H 1186.04 2.27598 4.74875 0
M  V30 12573 H 1188.53 1.9879 3.21389 0
M  V30 12574 H 1188.84 4.58367 6.22189 0
M  V30 12575 H 1187.19 4.11662 5.59964 0
M  V30 12576 H 1190.38 2.53364 3.93604 0
M  V30 12577 H 1190.55 3.71714 5.30785 0
M  V30 12578 N 1183.96 -1.40369 0.716545 0
M  V30 12579 C 1185.18 -2.05704 0.264729 0
M  V30 12580 C 1185.61 -1.53634 -1.08527 0
M  V30 12581 O 1184.97 -0.67212 -1.68381 0
M  V30 12582 C 1185.01 -3.59692 0.255778 0
M  V30 12583 O 1184.12 -4.05286 -0.762686 0
M  V30 12584 H 1183.46 -0.652301 0.124092 0
M  V30 12585 H 1185.99 -1.7975 0.977295 0
M  V30 12586 H 1186 -4.07892 0.0937944 0
M  V30 12587 H 1184.67 -3.96955 1.24095 0
M  V30 12588 H 1183.25 -3.68543 -0.568347 0
M  V30 12589 N 1185.44 -0.462799 -1.50652 0
M  V30 12590 C 1186.38 0.349784 -2.29955 0
M  V30 12591 C 1187.38 0.997947 -1.36885 0
M  V30 12592 O 1188.58 0.93 -1.54114 0
M  V30 12593 H 1184.96 0.131635 -0.740389 0
M  V30 12594 H 1186.93 -0.33958 -2.96461 0
M  V30 12595 C 1185.68 1.42398 -3.17204 0
M  V30 12596 H 1185 0.934611 -3.88722 0
M  V30 12597 H 1186.44 1.96528 -3.75703 0
M  V30 12598 C 1184.9 2.42135 -2.34248 0
M  V30 12599 O 1185.43 3.47229 -2.01978 0
M  V30 12600 N 1183.64 2.13647 -1.96985 0
M  V30 12601 H 1183.18 1.28209 -2.23428 0
M  V30 12602 H 1183.14 2.80615 -1.41783 0
M  V30 12603 N 1186.91 1.56388 -0.195085 0
M  V30 12604 C 1188.14 2.01963 0.449289 0
M  V30 12605 C 1188.56 1.07522 1.55192 0
M  V30 12606 O 1187.91 0.0800915 1.82324 0
M  V30 12607 C 1187.97 3.47231 1.00561 0
M  V30 12608 O 1187.69 4.38068 -0.0530241 0
M  V30 12609 C 1189.19 4.08324 1.72587 0
M  V30 12610 H 1186.41 0.661452 0.112792 0
M  V30 12611 H 1188.95 2.02231 -0.303788 0
M  V30 12612 H 1187.11 3.47663 1.70907 0
M  V30 12613 H 1187.52 5.23256 0.361076 0
M  V30 12614 H 1188.99 5.11821 2.06744 0
M  V30 12615 H 1189.47 3.51782 2.62956 0
M  V30 12616 H 1190.08 4.11665 1.06826 0
M  V30 12617 N 1188.39 -0.0785156 1.57404 0
M  V30 12618 C 1189.64 -0.777399 1.8655 0
M  V30 12619 C 1189.96 -1.78451 0.786142 0
M  V30 12620 O 1189.23 -1.95016 -0.185911 0
M  V30 12621 H 1187.81 -0.290097 0.688369 0
M  V30 12622 H 1190.47 -0.0562017 1.94819 0
M  V30 12623 H 1189.57 -1.29776 2.83839 0
M  V30 12624 N 1189.87 -1.5367 -0.349747 0
M  V30 12625 C 1191.12 -1.70281 -1.08853 0
M  V30 12626 C 1191.44 -0.465438 -1.89364 0
M  V30 12627 O 1190.71 0.520615 -1.88856 0
M  V30 12628 H 1189.29 -0.627775 -0.404854 0
M  V30 12629 H 1191.95 -1.90906 -0.392523 0
M  V30 12630 H 1191.05 -2.57096 -1.76941 0
M  V30 12631 N 1191.35 0.610423 -1.45298 0
M  V30 12632 C 1192.28 1.73507 -1.4976 0
M  V30 12633 C 1193.29 1.58092 -0.38867 0
M  V30 12634 O 1194.48 1.66026 -0.655571 0
M  V30 12635 C 1191.58 3.11475 -1.33554 0
M  V30 12636 C 1190.76 3.53156 -2.5807 0
M  V30 12637 C 1189.81 4.70076 -2.36463 0
M  V30 12638 O 1188.84 4.77337 -3.10061 0
M  V30 12639 N 1190.04 5.63155 -1.40843 0
M  V30 12640 H 1192.81 1.70144 -2.46721 0
M  V30 12641 H 1190.37 0.79562 -1.41002 0
M  V30 12642 H 1192.36 3.87444 -1.16914 0
M  V30 12643 H 1190.93 3.09361 -0.448803 0
M  V30 12644 H 1190.15 2.67178 -2.89844 0
M  V30 12645 H 1191.44 3.77761 -3.40843 0
M  V30 12646 H 1190.84 5.60001 -0.800982 0
M  V30 12647 H 1189.39 6.38669 -1.30175 0
M  V30 12648 N 1192.83 1.32541 0.852676 0
M  V30 12649 C 1193.79 1.21578 1.94297 0
M  V30 12650 C 1194.79 0.138318 1.60204 0
M  V30 12651 O 1195.98 0.388864 1.69804 0
M  V30 12652 C 1193.11 0.870209 3.29606 0
M  V30 12653 H 1194.3 2.18476 2.05446 0
M  V30 12654 H 1191.86 1.16401 1.0431 0
M  V30 12655 H 1192.59 -0.0968698 3.24155 0
M  V30 12656 H 1192.38 1.64924 3.55728 0
M  V30 12657 H 1193.87 0.817874 4.09513 0
M  V30 12658 N 1194.3 -1.0692 1.15784 0
M  V30 12659 C 1195.55 -1.796 0.935429 0
M  V30 12660 C 1195.88 -1.86935 -0.537173 0
M  V30 12661 O 1195.13 -1.35244 -1.41448 0
M  V30 12662 C 1195.43 -3.24389 1.50022 0
M  V30 12663 C 1195.1 -3.37145 2.99406 0
M  V30 12664 C 1193.76 -3.40334 3.40186 0
M  V30 12665 C 1196.11 -3.39584 3.95389 0
M  V30 12666 C 1193.44 -3.43569 4.75581 0
M  V30 12667 C 1195.79 -3.44356 5.30661 0
M  V30 12668 C 1194.46 -3.45824 5.70931 0
M  V30 12669 H 1193.73 -0.657201 0.342298 0
M  V30 12670 H 1196.37 -1.25784 1.44397 0
M  V30 12671 H 1194.68 -3.81015 0.91297 0
M  V30 12672 H 1196.38 -3.79209 1.30389 0
M  V30 12673 H 1192.97 -3.35365 2.66887 0
M  V30 12674 H 1197.15 -3.36337 3.64954 0
M  V30 12675 H 1192.41 -3.43006 5.06119 0
M  V30 12676 H 1196.58 -3.4519 6.04828 0
M  V30 12677 H 1194.21 -3.48084 6.75826 0
M  V30 12678 N 1195.78 -0.955326 -1.25345 0
M  V30 12679 C 1197.19 -0.651118 -1.74978 0
M  V30 12680 C 1197.54 0.833495 -1.77616 0
M  V30 12681 O 1196.67 1.65228 -1.39745 0
M  V30 12682 C 1197.26 -1.17521 -3.17764 0
M  V30 12683 C 1195.82 -0.921151 -3.64954 0
M  V30 12684 C 1194.97 -1.31784 -2.43984 0
M  V30 12685 H 1197.92 -1.13205 -1.11222 0
M  V30 12686 H 1197.94 -0.535625 -3.76711 0
M  V30 12687 H 1197.45 -2.25575 -3.15813 0
M  V30 12688 H 1195.56 0.144392 -3.7232 0
M  V30 12689 H 1195.67 -1.5581 -4.53056 0
M  V30 12690 H 1194.03 -0.736219 -2.43828 0
M  V30 12691 H 1194.82 -2.40761 -2.44723 0
M  V30 12692 N 1197.26 1.39987 -0.723979 0
M  V30 12693 C 1198.19 2.2917 -0.0373445 0
M  V30 12694 C 1199.21 1.46258 0.715015 0
M  V30 12695 O 1200.4 1.69455 0.561003 0
M  V30 12696 C 1197.5 3.2468 0.971384 0
M  V30 12697 C 1196.67 4.36485 0.282826 0
M  V30 12698 C 1195.73 5.12379 1.19811 0
M  V30 12699 O 1194.75 5.65127 0.67974 0
M  V30 12700 N 1195.96 5.22531 2.52866 0
M  V30 12701 H 1198.72 2.88738 -0.803131 0
M  V30 12702 H 1196.28 1.51448 -0.572292 0
M  V30 12703 H 1198.27 3.72326 1.58606 0
M  V30 12704 H 1196.84 2.6622 1.63846 0
M  V30 12705 H 1196.06 3.90859 -0.512167 0
M  V30 12706 H 1197.35 5.08427 -0.194793 0
M  V30 12707 H 1196.75 4.81174 2.97469 0
M  V30 12708 H 1195.31 5.73655 3.09457 0
M  V30 12709 N 1198.74 0.470782 1.50404 0
M  V30 12710 C 1199.98 -0.0830648 2.04231 0
M  V30 12711 C 1200.34 -1.37015 1.34503 0
M  V30 12712 O 1201.54 -2.00635 1.78883 0
M  V30 12713 C 1199.82 -0.262986 3.56431 0
M  V30 12714 S 1201.37 -0.775432 4.31894 0
M  V30 12715 H 1198.19 -0.0161025 0.710818 0
M  V30 12716 H 1200.79 0.63785 1.84802 0
M  V30 12717 H 1199.5 0.679558 4.04735 0
M  V30 12718 H 1199.03 -1.01002 3.80213 0
M  V30 12719 H 1201.04 -2.04887 4.51924 0
M  V30 12720 N 1200.22 -1.56282 0.203376 0
M  V30 12721 C 1201.46 -1.98105 -0.433844 0
M  V30 12722 C 1201.8 -1.09044 -1.60695 0
M  V30 12723 O 1201.07 -0.144193 -1.93965 0
M  V30 12724 C 1201.35 -3.4903 -0.885992 0
M  V30 12725 C 1201.21 -4.48867 0.289501 0
M  V30 12726 C 1202.53 -4.03871 -1.7486 0
M  V30 12727 H 1199.65 -0.720252 -0.156224 0
M  V30 12728 H 1202.29 -1.87681 0.295963 0
M  V30 12729 H 1200.44 -3.58045 -1.50785 0
M  V30 12730 H 1202.11 -4.51883 0.92734 0
M  V30 12731 H 1200.35 -4.23495 0.939934 0
M  V30 12732 H 1201.02 -5.51956 -0.0695128 0
M  V30 12733 H 1203.5 -3.97688 -1.22407 0
M  V30 12734 H 1202.38 -5.09827 -2.03391 0
M  V30 12735 H 1202.64 -3.49637 -2.70567 0
M  V30 12736 N 1201.7 0.070167 -1.57444 0
M  V30 12737 C 1202.94 0.769014 -1.8733 0
M  V30 12738 C 1203.27 1.77496 -0.79533 0
M  V30 12739 O 1202.53 1.94586 0.208495 0
M  V30 12740 C 1202.82 1.5111 -3.23883 0
M  V30 12741 C 1202.49 0.644988 -4.46263 0
M  V30 12742 C 1201.15 0.406307 -4.79482 0
M  V30 12743 C 1203.5 0.0444938 -5.21181 0
M  V30 12744 C 1200.83 -0.442322 -5.8503 0
M  V30 12745 C 1203.18 -0.791599 -6.27628 0
M  V30 12746 C 1201.85 -1.04014 -6.59346 0
M  V30 12747 H 1201.12 0.281402 -0.685488 0
M  V30 12748 H 1203.77 0.029752 -1.91477 0
M  V30 12749 H 1202.07 2.32261 -3.15535 0
M  V30 12750 H 1203.77 2.05665 -3.44242 0
M  V30 12751 H 1200.36 0.841148 -4.20265 0
M  V30 12752 H 1204.54 0.216005 -4.9583 0
M  V30 12753 H 1199.8 -0.643607 -6.08003 0
M  V30 12754 H 1203.97 -1.26363 -6.8484 0
M  V30 12755 H 1201.6 -1.69949 -7.4096 0
M  V30 12756 N 1203.17 1.53854 0.341593 0
M  V30 12757 C 1204.45 1.61823 1.09875 0
M  V30 12758 C 1204.83 0.440711 2.06448 0
M  V30 12759 O 1204.18 -0.566833 2.21358 0
M  V30 12760 C 1204.39 2.9799 1.81668 0
M  V30 12761 C 1205.74 3.53411 2.35341 0
M  V30 12762 O 1206.76 3.00177 1.91761 0
M  V30 12763 O 1205.62 4.4653 3.15076 0
M  V30 12764 H 1202.71 0.654599 0.5054 0
M  V30 12765 H 1205.26 1.66199 0.342929 0
M  V30 12766 H 1204.03 3.7513 1.11323 0
M  V30 12767 H 1203.65 2.97213 2.64103 0
M  V30 12768 N 1204.65 -0.602709 1.4562 0
M  V30 12769 C 1205.6 -1.70753 1.51088 0
M  V30 12770 C 1206.59 -1.56501 0.373662 0
M  V30 12771 O 1207.78 -1.65755 0.620828 0
M  V30 12772 C 1204.91 -3.09515 1.48511 0
M  V30 12773 C 1203.99 -3.29135 2.67453 0
M  V30 12774 N 1204.38 -3.18996 3.92524 0
M  V30 12775 C 1202.68 -3.60019 2.63253 0
M  V30 12776 C 1203.38 -3.40079 4.71933 0
M  V30 12777 N 1202.36 -3.64299 4.03469 0
M  V30 12778 H 1206.16 -1.61414 2.45607 0
M  V30 12779 H 1203.67 -0.806122 1.4098 0
M  V30 12780 H 1205.67 -3.88782 1.50513 0
M  V30 12781 H 1204.33 -3.19999 0.550526 0
M  V30 12782 H 1205.34 -2.97292 4.24073 0
M  V30 12783 H 1202.02 -3.77311 1.78725 0
M  V30 12784 H 1203.41 -3.37593 5.80931 0
M  V30 12785 N 1206.13 -1.32992 -0.845635 0
M  V30 12786 C 1207.38 -1.25258 -1.60256 0
M  V30 12787 C 1207.73 0.181685 -1.9154 0
M  V30 12788 O 1207.02 1.12193 -1.55316 0
M  V30 12789 C 1207.22 -2.05454 -2.92444 0
M  V30 12790 C 1207.05 -3.56533 -2.7407 0
M  V30 12791 C 1205.82 -4.25857 -2.71981 0
M  V30 12792 C 1208.01 -4.51003 -2.47186 0
M  V30 12793 N 1206 -5.6293 -2.44913 0
M  V30 12794 C 1207.37 -5.75917 -2.29607 0
M  V30 12795 C 1209.42 -4.40162 -2.32727 0
M  V30 12796 C 1208.13 -6.91214 -1.99037 0
M  V30 12797 C 1210.15 -5.55267 -2.0355 0
M  V30 12798 C 1209.51 -6.79186 -1.86777 0
M  V30 12799 H 1205.61 -0.513536 -0.58975 0
M  V30 12800 H 1208.2 -1.67458 -0.993277 0
M  V30 12801 H 1206.37 -1.65585 -3.51335 0
M  V30 12802 H 1208.1 -1.89543 -3.57569 0
M  V30 12803 H 1204.85 -3.78064 -2.85245 0
M  V30 12804 H 1205.28 -6.3517 -2.34282 0
M  V30 12805 H 1209.92 -3.44998 -2.4441 0
M  V30 12806 H 1207.64 -7.86381 -1.86091 0
M  V30 12807 H 1211.22 -5.48811 -1.93127 0
M  V30 12808 H 1210.1 -7.66748 -1.64523 0
M  V30 12809 N 1207.61 1.06304 -1.1635 0
M  V30 12810 C 1208.54 2.13732 -0.827721 0
M  V30 12811 C 1209.55 1.61962 0.164983 0
M  V30 12812 O 1210.74 1.784 -0.0597591 0
M  V30 12813 C 1207.84 3.38239 -0.211623 0
M  V30 12814 C 1207.01 4.19325 -1.2444 0
M  V30 12815 C 1206.07 5.22193 -0.648127 0
M  V30 12816 O 1205.1 5.53755 -1.31695 0
M  V30 12817 N 1206.3 5.77742 0.565179 0
M  V30 12818 H 1209.07 2.43136 -1.75228 0
M  V30 12819 H 1206.63 1.22304 -1.06081 0
M  V30 12820 H 1208.62 4.04204 0.200306 0
M  V30 12821 H 1207.19 3.06461 0.616491 0
M  V30 12822 H 1206.41 3.49017 -1.83251 0
M  V30 12823 H 1207.7 4.70306 -1.94138 0
M  V30 12824 H 1207.1 5.54366 1.12673 0
M  V30 12825 H 1205.65 6.45284 0.919321 0
M  V30 12826 N 1209.09 0.96196 1.24836 0
M  V30 12827 C 1210.33 0.616342 1.92052 0
M  V30 12828 C 1210.65 -0.851601 1.76088 0
M  V30 12829 O 1211.85 -1.3075 2.37943 0
M  V30 12830 C 1210.31 1.05168 3.44191 0
M  V30 12831 C 1209.92 2.54268 3.68852 0
M  V30 12832 C 1211.66 0.778938 4.17292 0
M  V30 12833 C 1209.57 2.91564 5.14533 0
M  V30 12834 H 1208.5 0.22681 0.719078 0
M  V30 12835 H 1211.15 1.1674 1.41577 0
M  V30 12836 H 1209.53 0.428979 3.9367 0
M  V30 12837 H 1210.71 3.21619 3.29997 0
M  V30 12838 H 1209.02 2.79091 3.09026 0
M  V30 12839 H 1211.62 1.03366 5.24614 0
M  V30 12840 H 1211.96 -0.284772 4.15325 0
M  V30 12841 H 1212.49 1.36233 3.73745 0
M  V30 12842 H 1209.23 3.96982 5.21618 0
M  V30 12843 H 1208.75 2.28892 5.54408 0
M  V30 12844 H 1210.43 2.81155 5.82718 0
M  V30 12845 N 1210.56 -1.39601 0.731392 0
M  V30 12846 C 1211.49 -2.33268 0.1041 0
M  V30 12847 C 1212.47 -1.53724 -0.728219 0
M  V30 12848 O 1213.66 -1.82131 -0.673933 0
M  V30 12849 C 1210.79 -3.37802 -0.806646 0
M  V30 12850 C 1209.74 -4.27928 -0.0787588 0
M  V30 12851 C 1209.07 -5.23131 -1.10628 0
M  V30 12852 C 1210.37 -5.11086 1.07651 0
M  V30 12853 H 1212.06 -2.85975 0.886496 0
M  V30 12854 H 1209.61 -1.375 0.427746 0
M  V30 12855 H 1211.56 -4.02278 -1.25499 0
M  V30 12856 H 1210.29 -2.83527 -1.62112 0
M  V30 12857 H 1208.95 -3.64926 0.349926 0
M  V30 12858 H 1208.59 -4.65152 -1.91422 0
M  V30 12859 H 1208.29 -5.84277 -0.624043 0
M  V30 12860 H 1209.82 -5.90483 -1.5544 0
M  V30 12861 H 1211.23 -5.68927 0.706781 0
M  V30 12862 H 1209.63 -5.81356 1.48814 0
M  V30 12863 H 1210.7 -4.46131 1.89988 0
M  V30 12864 N 1212.04 -0.478751 -1.50152 0
M  V30 12865 C 1213.45 -0.0254907 -1.86683 0
M  V30 12866 C 1213.8 1.38171 -1.39295 0
M  V30 12867 O 1212.93 2.0257 -0.761207 0
M  V30 12868 C 1213.52 -0.0394819 -3.38777 0
M  V30 12869 C 1212.08 0.35834 -3.7469 0
M  V30 12870 C 1211.23 -0.421667 -2.74075 0
M  V30 12871 H 1214.18 -0.692653 -1.42787 0
M  V30 12872 H 1214.2 0.760957 -3.72813 0
M  V30 12873 H 1213.71 -1.06378 -3.73236 0
M  V30 12874 H 1211.82 1.38671 -3.45834 0
M  V30 12875 H 1211.93 0.0543589 -4.79069 0
M  V30 12876 H 1210.29 0.125634 -2.5439 0
M  V30 12877 H 1211.08 -1.44562 -3.11379 0
M  V30 12878 N 1213.52 1.56172 -0.211661 0
M  V30 12879 C 1214.77 1.97648 0.421871 0
M  V30 12880 C 1215.09 1.10026 1.60995 0
M  V30 12881 O 1214.36 0.175109 1.95116 0
M  V30 12882 H 1212.94 0.729914 0.158852 0
M  V30 12883 H 1215.6 1.92542 -0.302254 0
M  V30 12884 H 1214.7 3.02834 0.754868 0
M  V30 12885 N 1215 -0.0618163 1.57479 0
M  V30 12886 C 1216.28 -0.792636 1.7882 0
M  V30 12887 C 1216.66 -1.95283 0.801724 0
M  V30 12888 O 1216 -2.27917 -0.163095 0
M  V30 12889 C 1216.21 -1.25629 3.25605 0
M  V30 12890 C 1217.56 -1.68561 3.89708 0
M  V30 12891 O 1218.59 -1.35171 3.29556 0
M  V30 12892 O 1217.44 -2.30417 4.95551 0
M  V30 12893 H 1214.54 -0.380595 0.734218 0
M  V30 12894 H 1217.08 -0.0411205 1.6965 0
M  V30 12895 H 1215.86 -0.426582 3.88968 0
M  V30 12896 H 1215.48 -2.06882 3.39537 0
M  V30 12897 N 1216.48 -1.54033 -0.333429 0
M  V30 12898 C 1217.89 -1.63107 -0.908455 0
M  V30 12899 C 1218.24 -0.518823 -1.89216 0
M  V30 12900 O 1217.36 0.34985 -2.13553 0
M  V30 12901 C 1217.96 -2.95657 -1.65447 0
M  V30 12902 C 1216.52 -3.0696 -2.17836 0
M  V30 12903 C 1215.66 -2.58617 -1.00063 0
M  V30 12904 H 1218.62 -1.58309 -0.11128 0
M  V30 12905 H 1218.64 -2.85263 -2.51804 0
M  V30 12906 H 1218.15 -3.76588 -0.938263 0
M  V30 12907 H 1216.25 -2.30683 -2.92602 0
M  V30 12908 H 1216.36 -4.12599 -2.43513 0
M  V30 12909 H 1214.73 -2.1427 -1.37697 0
M  V30 12910 H 1215.51 -3.41996 -0.298901 0
M  V30 12911 N 1217.95 0.594978 -1.45938 0
M  V30 12912 C 1219.2 1.35361 -1.50611 0
M  V30 12913 C 1219.53 1.93898 -0.152866 0
M  V30 12914 O 1218.78 1.76275 0.850037 0
M  V30 12915 C 1219.08 2.51129 -2.54301 0
M  V30 12916 C 1218.75 2.1066 -3.98664 0
M  V30 12917 C 1217.41 1.99338 -4.3797 0
M  V30 12918 C 1219.76 1.79267 -4.894 0
M  V30 12919 C 1217.09 1.54863 -5.65893 0
M  V30 12920 C 1219.44 1.36274 -6.17748 0
M  V30 12921 C 1218.11 1.2352 -6.55972 0
M  V30 12922 H 1217.38 0.49532 -0.551125 0
M  V30 12923 H 1220.02 0.671236 -1.79351 0
M  V30 12924 H 1218.33 3.24759 -2.19177 0
M  V30 12925 H 1220.03 3.09353 -2.55151 0
M  V30 12926 H 1216.62 2.20403 -3.67587 0
M  V30 12927 H 1220.8 1.86906 -4.59761 0
M  V30 12928 H 1216.06 1.43621 -5.94292 0
M  V30 12929 H 1220.23 1.11032 -6.87492 0
M  V30 12930 H 1217.86 0.88832 -7.54992 0
M  V30 12931 N 1219.43 1.33438 0.838571 0
M  V30 12932 C 1220.71 1.1551 1.5785 0
M  V30 12933 C 1221.09 -0.278405 2.09256 0
M  V30 12934 O 1220.44 -1.27748 1.89453 0
M  V30 12935 C 1220.65 2.19647 2.71212 0
M  V30 12936 C 1222 2.53818 3.40384 0
M  V30 12937 O 1223.02 2.18317 2.81454 0
M  V30 12938 O 1221.88 3.14741 4.46766 0
M  V30 12939 H 1218.97 0.446785 0.695925 0
M  V30 12940 H 1221.52 1.45021 0.8813 0
M  V30 12941 H 1220.29 3.15936 2.30869 0
M  V30 12942 H 1219.91 1.91224 3.48596 0
M  V30 12943 N 1220.91 -1.05686 1.16912 0
M  V30 12944 C 1221.86 -2.15417 0.877404 0
M  V30 12945 C 1222.85 -1.6868 -0.155986 0
M  V30 12946 O 1224.06 -1.79998 -0.00938156 0
M  V30 12947 H 1220.43 -0.70332 0.266168 0
M  V30 12948 H 1222.4 -2.37228 1.81012 0
M  V30 12949 C 1221.15 -3.45372 0.401696 0
M  V30 12950 H 1220.48 -3.81732 1.18832 0
M  V30 12951 H 1221.92 -4.2334 0.236418 0
M  V30 12952 C 1220.38 -3.25209 -0.87981 0
M  V30 12953 O 1220.91 -3.51322 -1.94771 0
M  V30 12954 N 1219.11 -2.78614 -0.825997 0
M  V30 12955 H 1218.66 -2.57564 0.0432439 0
M  V30 12956 H 1218.62 -2.65503 -1.68391 0
M  V30 12957 N 1222.39 -0.968567 -1.24324 0
M  V30 12958 C 1223.61 -0.648166 -1.97012 0
M  V30 12959 C 1224.04 0.775842 -1.71354 0
M  V30 12960 O 1223.4 1.52672 -0.977804 0
M  V30 12961 C 1223.44 -0.929974 -3.48402 0
M  V30 12962 O 1222.55 -0.015854 -4.12397 0
M  V30 12963 H 1221.89 -0.244961 -0.617163 0
M  V30 12964 H 1224.42 -1.29895 -1.58077 0
M  V30 12965 H 1224.43 -0.861863 -3.98793 0
M  V30 12966 H 1223.1 -1.96776 -3.66404 0
M  V30 12967 H 1221.68 -0.137361 -3.72647 0
M  V30 12968 N 1223.87 1.39211 -0.738786 0
M  V30 12969 C 1225.09 2.05256 -0.297421 0
M  V30 12970 C 1225.52 1.55341 1.06069 0
M  V30 12971 O 1224.87 0.698823 1.67291 0
M  V30 12972 C 1224.92 3.59239 -0.312969 0
M  V30 12973 O 1224.03 4.06448 0.698112 0
M  V30 12974 H 1223.37 0.650245 -0.134454 0
M  V30 12975 H 1225.9 1.78173 -1.00577 0
M  V30 12976 H 1225.91 4.07691 -0.158675 0
M  V30 12977 H 1224.58 3.94931 -1.30394 0
M  V30 12978 H 1223.16 3.69401 0.509643 0
M  V30 12979 N 1225.34 0.486708 1.49896 0
M  V30 12980 C 1226.76 0.141788 1.58969 0
M  V30 12981 C 1226.96 -1.35279 1.49338 0
M  V30 12982 O 1226.02 -2.1275 1.35992 0
M  V30 12983 C 1227.33 0.70588 2.92297 0
M  V30 12984 C 1228.88 0.670704 3.0573 0
M  V30 12985 C 1229.35 1.21261 4.41656 0
M  V30 12986 N 1230.84 1.17269 4.4811 0
M  V30 12987 C 1231.58 1.56233 5.51705 0
M  V30 12988 N 1231.07 2.02721 6.62477 0
M  V30 12989 N 1232.87 1.47738 5.42337 0
M  V30 12990 H 1225.02 1.45858 1.544 0
M  V30 12991 H 1227.28 0.604137 0.730563 0
M  V30 12992 H 1226.99 1.7535 3.04869 0
M  V30 12993 H 1226.86 0.158215 3.76868 0
M  V30 12994 H 1229.25 -0.368041 2.92796 0
M  V30 12995 H 1229.33 1.25535 2.22878 0
M  V30 12996 H 1228.97 2.25006 4.5534 0
M  V30 12997 H 1228.9 0.604031 5.23124 0
M  V30 12998 H 1231.39 0.831905 3.6863 0
M  V30 12999 H 1231.71 2.3056 7.37606 0
M  V30 13000 H 1230.05 2.06686 6.63556 0
M  V30 13001 H 1233.24 1.11249 4.54688 0
M  V30 13002 H 1233.42 1.78429 6.2295 0
M  V30 13003 N 1226.82 -1.56058 0.219941 0
M  V30 13004 C 1228.23 -1.84462 -0.288203 0
M  V30 13005 C 1228.59 -1.14128 -1.59591 0
M  V30 13006 O 1227.71 -0.410411 -2.12473 0
M  V30 13007 C 1228.31 -3.34634 -0.529689 0
M  V30 13008 C 1226.86 -3.63361 -0.982145 0
M  V30 13009 C 1226.01 -2.77265 -0.0443292 0
M  V30 13010 H 1228.96 -1.52387 0.44317 0
M  V30 13011 H 1228.98 -3.54752 -1.3759 0
M  V30 13012 H 1228.5 -3.85796 0.422243 0
M  V30 13013 H 1226.6 -3.17653 -1.94749 0
M  V30 13014 H 1226.71 -4.71361 -0.857668 0
M  V30 13015 H 1225.07 -2.48672 -0.550825 0
M  V30 13016 H 1225.86 -3.31225 0.902491 0
M  V30 13017 N 1228.3 0.053464 -1.57509 0
M  V30 13018 C 1229.53 0.765301 -1.92764 0
M  V30 13019 C 1229.95 1.69385 -0.817943 0
M  V30 13020 O 1229.31 1.7986 0.228075 0
M  V30 13021 C 1229.36 1.51938 -3.27028 0
M  V30 13022 O 1228.46 2.63121 -3.17555 0
M  V30 13023 H 1227.8 0.207567 -0.630723 0
M  V30 13024 H 1230.33 0.0162254 -2.04594 0
M  V30 13025 H 1230.34 1.89466 -3.6134 0
M  V30 13026 H 1229.02 0.838207 -4.07366 0
M  V30 13027 H 1227.59 2.28316 -2.94832 0
M  V30 13028 N 1229.78 1.54207 0.325255 0
M  V30 13029 C 1230.71 1.79812 1.42128 0
M  V30 13030 C 1231.72 0.68003 1.47917 0
M  V30 13031 O 1232.91 0.957107 1.50671 0
M  V30 13032 C 1230.01 1.89935 2.80674 0
M  V30 13033 C 1229.19 3.20078 2.98108 0
M  V30 13034 C 1228.25 3.20924 4.17006 0
M  V30 13035 O 1227.27 3.94571 4.10247 0
M  V30 13036 N 1228.47 2.44588 5.26457 0
M  V30 13037 H 1231.24 2.74396 1.20527 0
M  V30 13038 H 1228.8 1.53483 0.515233 0
M  V30 13039 H 1230.79 1.8793 3.58419 0
M  V30 13040 H 1229.36 1.02455 2.95333 0
M  V30 13041 H 1228.58 3.35057 2.07679 0
M  V30 13042 H 1229.87 4.06008 3.06651 0
M  V30 13043 H 1229.27 1.8434 5.34823 0
M  V30 13044 H 1227.82 2.48363 6.02627 0
M  V30 13045 N 1231.26 -0.58723 1.46251 0
M  V30 13046 C 1232.5 -1.3476 1.51551 0
M  V30 13047 C 1232.84 -1.93499 0.16483 0
M  V30 13048 O 1232.11 -1.7622 -0.823207 0
M  V30 13049 C 1232.39 -2.48033 2.61059 0
M  V30 13050 C 1232.25 -1.94358 4.05642 0
M  V30 13051 C 1233.57 -3.50096 2.66685 0
M  V30 13052 H 1230.69 -0.48863 0.551733 0
M  V30 13053 H 1233.33 -0.660097 1.78165 0
M  V30 13054 H 1231.48 -3.06679 2.38496 0
M  V30 13055 H 1233.15 -1.40204 4.39478 0
M  V30 13056 H 1231.39 -1.25217 4.15335 0
M  V30 13057 H 1232.06 -2.76105 4.77986 0
M  V30 13058 H 1234.54 -3.01324 2.86955 0
M  V30 13059 H 1233.42 -4.26817 3.45135 0
M  V30 13060 H 1233.68 -4.07032 1.7256 0
M  V30 13061 N 1232.74 -1.33881 -0.831482 0
M  V30 13062 C 1233.98 -1.25942 -1.58955 0
M  V30 13063 C 1234.31 0.172542 -1.93432 0
M  V30 13064 O 1233.59 1.11577 -1.59314 0
M  V30 13065 C 1233.87 -2.14193 -2.89471 0
M  V30 13066 C 1233.73 -3.65883 -2.61628 0
M  V30 13067 C 1235.04 -2.02071 -3.90967 0
M  V30 13068 H 1232.16 -0.458841 -0.576744 0
M  V30 13069 H 1234.81 -1.64052 -0.958482 0
M  V30 13070 H 1232.96 -1.81821 -3.43327 0
M  V30 13071 H 1234.63 -4.08581 -2.14148 0
M  V30 13072 H 1232.87 -3.87397 -1.95208 0
M  V30 13073 H 1233.54 -4.22988 -3.54662 0
M  V30 13074 H 1236.02 -2.30476 -3.46439 0
M  V30 13075 H 1234.89 -2.66059 -4.80108 0
M  V30 13076 H 1235.15 -0.995121 -4.30755 0
M  V30 13077 N 1234.21 1.05064 -1.1747 0
M  V30 13078 C 1235.18 2.1101 -0.89485 0
M  V30 13079 C 1236.18 1.60384 0.11553 0
M  V30 13080 O 1237.37 1.73808 -0.116785 0
M  V30 13081 C 1234.5 3.39194 -0.340642 0
M  V30 13082 H 1235.69 2.37269 -1.83421 0
M  V30 13083 H 1233.24 1.21329 -0.985343 0
M  V30 13084 H 1233.98 3.18591 0.605808 0
M  V30 13085 H 1233.76 3.77251 -1.06885 0
M  V30 13086 H 1235.25 4.17281 -0.163204 0
M  V30 13087 N 1235.69 0.975146 1.23809 0
M  V30 13088 C 1236.6 0.51917 2.28783 0
M  V30 13089 C 1237.62 -0.423487 1.68768 0
M  V30 13090 O 1238.79 -0.294699 1.99232 0
M  V30 13091 C 1235.86 -0.176229 3.46252 0
M  V30 13092 C 1234.92 0.807177 4.21643 0
M  V30 13093 C 1234.15 0.144869 5.33503 0
M  V30 13094 O 1234.38 -1.06522 5.60365 0
M  V30 13095 O 1233.31 0.84079 5.95999 0
M  V30 13096 H 1237.14 1.39204 2.69919 0
M  V30 13097 H 1234.72 0.74253 1.29641 0
M  V30 13098 H 1236.6 -0.566547 4.17574 0
M  V30 13099 H 1235.28 -1.02394 3.07078 0
M  V30 13100 H 1234.18 1.2481 3.52666 0
M  V30 13101 H 1235.52 1.62354 4.64653 0
M  V30 13102 N 1237.17 -1.38817 0.746158 0
M  V30 13103 C 1238.4 -2.0457 0.309605 0
M  V30 13104 C 1238.81 -1.5627 -1.05948 0
M  V30 13105 O 1238.17 -0.73248 -1.67156 0
M  V30 13106 C 1238.22 -3.60126 0.314843 0
M  V30 13107 O 1237.94 -4.06652 1.6299 0
M  V30 13108 C 1239.44 -4.4309 -0.136497 0
M  V30 13109 H 1236.66 -0.657597 0.133441 0
M  V30 13110 H 1239.21 -1.77651 1.01293 0
M  V30 13111 H 1237.36 -3.85908 -0.339685 0
M  V30 13112 H 1237.78 -5.01042 1.55103 0
M  V30 13113 H 1239.25 -5.5194 -0.0816714 0
M  V30 13114 H 1239.73 -4.22959 -1.18332 0
M  V30 13115 H 1240.33 -4.22481 0.488879 0
M  V30 13116 N 1238.65 -0.49465 -1.49636 0
M  V30 13117 C 1240.06 -0.150217 -1.58892 0
M  V30 13118 C 1240.26 1.34485 -1.50053 0
M  V30 13119 O 1239.32 2.12026 -1.37118 0
M  V30 13120 C 1240.63 -0.721372 -2.91919 0
M  V30 13121 C 1242.18 -0.686908 -3.0537 0
M  V30 13122 C 1242.66 -1.23601 -4.41006 0
M  V30 13123 N 1244.15 -1.19644 -4.47481 0
M  V30 13124 C 1244.88 -1.59157 -5.50869 0
M  V30 13125 N 1244.38 -2.06232 -6.61393 0
M  V30 13126 N 1246.17 -1.50612 -5.41546 0
M  V30 13127 H 1238.32 -1.46675 -1.53624 0
M  V30 13128 H 1240.58 -0.608003 -0.727349 0
M  V30 13129 H 1240.29 -1.76964 -3.03935 0
M  V30 13130 H 1240.16 -0.178199 -3.76779 0
M  V30 13131 H 1242.55 0.352508 -2.92987 0
M  V30 13132 H 1242.63 -1.26716 -2.22209 0
M  V30 13133 H 1242.28 -2.27418 -4.5414 0
M  V30 13134 H 1242.21 -0.631765 -5.22797 0
M  V30 13135 H 1244.7 -0.851443 -3.68183 0
M  V30 13136 H 1245.01 -2.34469 -7.36372 0
M  V30 13137 H 1243.36 -2.10202 -6.6245 0
M  V30 13138 H 1246.55 -1.13659 -4.54092 0
M  V30 13139 H 1246.72 -1.8173 -6.21995 0
M  V30 13140 N 1240.13 1.55939 -0.228214 0
M  V30 13141 C 1241.07 2.20581 0.679157 0
M  V30 13142 C 1242.04 1.16355 1.18536 0
M  V30 13143 O 1243.23 1.44735 1.24324 0
M  V30 13144 C 1240.37 2.89477 1.87875 0
M  V30 13145 C 1239.48 4.08313 1.41083 0
M  V30 13146 C 1238.62 4.64974 2.56851 0
M  V30 13147 C 1237.65 5.76098 2.06828 0
M  V30 13148 N 1236.79 6.27021 3.15894 0
M  V30 13149 H 1241.63 2.97753 0.121203 0
M  V30 13150 H 1239.17 1.47021 0.0480688 0
M  V30 13151 H 1241.13 3.2761 2.58317 0
M  V30 13152 H 1239.76 2.14811 2.40948 0
M  V30 13153 H 1238.81 3.75621 0.601102 0
M  V30 13154 H 1240.12 4.8859 1.00408 0
M  V30 13155 H 1239.27 5.05584 3.35365 0
M  V30 13156 H 1238.01 3.83875 3.00818 0
M  V30 13157 H 1237.02 5.34984 1.26778 0
M  V30 13158 H 1238.24 6.59037 1.63852 0
M  V30 13159 H 1236.19 5.48833 3.5933 0
M  V30 13160 H 1236.11 7.02439 2.79491 0
M  V30 13161 H 1237.37 6.72289 3.94523 0
M  V30 13162 N 1241.6 -0.0451101 1.57535 0
M  V30 13163 C 1243.02 -0.400463 1.54494 0
M  V30 13164 C 1243.22 -1.77584 0.952166 0
M  V30 13165 O 1242.28 -2.46069 0.566221 0
M  V30 13166 C 1243.59 -0.31703 2.99024 0
M  V30 13167 C 1245.14 -0.395284 3.10494 0
M  V30 13168 C 1245.61 -0.341475 4.56725 0
M  V30 13169 N 1247.1 -0.400755 4.61463 0
M  V30 13170 C 1247.84 -0.381757 5.72128 0
M  V30 13171 N 1247.33 -0.315995 6.92079 0
M  V30 13172 N 1249.13 -0.4303 5.60451 0
M  V30 13173 H 1241.28 0.855156 1.94424 0
M  V30 13174 H 1243.54 0.323618 0.891053 0
M  V30 13175 H 1243.25 0.627477 3.46057 0
M  V30 13176 H 1243.12 -1.11696 3.60283 0
M  V30 13177 H 1245.51 -1.33022 2.63418 0
M  V30 13178 H 1245.59 0.433709 2.52096 0
M  V30 13179 H 1245.23 0.589725 5.04465 0
M  V30 13180 H 1245.16 -1.18836 5.13016 0
M  V30 13181 H 1247.65 -0.454745 3.75154 0
M  V30 13182 H 1247.97 -0.306158 7.72193 0
M  V30 13183 H 1246.31 -0.282281 6.94427 0
M  V30 13184 H 1249.5 -0.479555 4.65637 0
M  V30 13185 H 1249.68 -0.412025 6.46689 0
M  V30 13186 N 1243.08 -1.54377 -0.317073 0
M  V30 13187 C 1244.03 -1.84214 -1.39046 0
M  V30 13188 C 1245 -0.689742 -1.51102 0
M  V30 13189 O 1246.18 -0.936809 -1.66218 0
M  V30 13190 C 1243.32 -2.08087 -2.75307 0
M  V30 13191 C 1242.44 -3.35756 -2.7183 0
M  V30 13192 C 1241.57 -3.49556 -3.9998 0
M  V30 13193 C 1240.61 -4.71076 -3.90837 0
M  V30 13194 N 1239.75 -4.81767 -5.10729 0
M  V30 13195 H 1244.59 -2.75785 -1.12902 0
M  V30 13196 H 1242.13 -1.36575 -0.546404 0
M  V30 13197 H 1244.08 -2.19921 -3.54529 0
M  V30 13198 H 1242.71 -1.19801 -2.99746 0
M  V30 13199 H 1241.77 -3.32627 -1.84563 0
M  V30 13200 H 1243.08 -4.2509 -2.60959 0
M  V30 13201 H 1242.23 -3.60967 -4.87635 0
M  V30 13202 H 1240.97 -2.58326 -4.13665 0
M  V30 13203 H 1239.98 -4.59715 -3.01566 0
M  V30 13204 H 1241.2 -5.63698 -3.78711 0
M  V30 13205 H 1239.15 -3.93455 -5.24908 0
M  V30 13206 H 1239.06 -5.65077 -5.02219 0
M  V30 13207 H 1240.33 -4.97517 -6.00081 0
M  V30 13208 N 1244.56 0.579466 -1.4656 0
M  V30 13209 C 1245.81 1.33492 -1.51738 0
M  V30 13210 C 1246.13 1.94241 -0.171926 0
M  V30 13211 O 1245.4 1.78737 0.801875 0
M  V30 13212 H 1243.98 0.49565 -0.558874 0
M  V30 13213 H 1246.64 0.678394 -1.82712 0
M  V30 13214 H 1245.74 2.13995 -2.27183 0
M  V30 13215 N 1246.04 1.3432 0.824371 0
M  V30 13216 C 1246.97 1.2842 1.95014 0
M  V30 13217 C 1247.95 0.161925 1.69328 0
M  V30 13218 O 1249.13 0.354052 1.90945 0
M  V30 13219 C 1246.26 1.03741 3.31444 0
M  V30 13220 C 1245.22 2.12419 3.71567 0
M  V30 13221 C 1244.54 1.72931 5.05963 0
M  V30 13222 C 1245.84 3.54235 3.83817 0
M  V30 13223 H 1247.54 2.22614 2.00209 0
M  V30 13224 H 1245.08 1.07165 0.961856 0
M  V30 13225 H 1247.04 0.982586 4.09784 0
M  V30 13226 H 1245.76 0.0598892 3.26545 0
M  V30 13227 H 1244.42 2.16968 2.955 0
M  V30 13228 H 1244.07 0.738433 4.9755 0
M  V30 13229 H 1243.77 2.45668 5.3378 0
M  V30 13230 H 1245.29 1.68941 5.86763 0
M  V30 13231 H 1246.71 3.52106 4.52432 0
M  V30 13232 H 1245.1 4.25581 4.23085 0
M  V30 13233 H 1246.17 3.91682 2.85856 0
M  V30 13234 N 1247.52 -1.0444 1.18026 0
M  V30 13235 C 1248.46 -2.12365 0.903865 0
M  V30 13236 C 1249.43 -1.65373 -0.155252 0
M  V30 13237 O 1250.62 -1.90793 -0.016419 0
M  V30 13238 C 1247.76 -3.4239 0.431603 0
M  V30 13239 C 1246.87 -4.03016 1.55571 0
M  V30 13240 C 1246.01 -5.20988 1.03655 0
M  V30 13241 C 1245.05 -5.73636 2.1356 0
M  V30 13242 N 1244.18 -6.82901 1.63066 0
M  V30 13243 H 1249.02 -2.35346 1.82802 0
M  V30 13244 H 1246.56 -1.15447 0.911618 0
M  V30 13245 H 1248.52 -4.16967 0.139296 0
M  V30 13246 H 1247.15 -3.19569 -0.455576 0
M  V30 13247 H 1246.2 -3.25803 1.96358 0
M  V30 13248 H 1247.51 -4.38122 2.38434 0
M  V30 13249 H 1246.67 -6.02665 0.698546 0
M  V30 13250 H 1245.4 -4.87377 0.177457 0
M  V30 13251 H 1244.41 -4.90583 2.4821 0
M  V30 13252 H 1245.63 -6.09293 2.99899 0
M  V30 13253 H 1243.58 -6.51172 0.794394 0
M  V30 13254 H 1243.5 -7.1705 2.3953 0
M  V30 13255 H 1244.77 -7.68211 1.32181 0
M  V30 13256 N 1248.99 -0.981699 -1.2329 0
M  V30 13257 C 1249.9 -0.531296 -2.28505 0
M  V30 13258 C 1250.92 0.414531 -1.6899 0
M  V30 13259 O 1252.1 0.284129 -1.99386 0
M  V30 13260 C 1249.16 0.157864 -3.4634 0
M  V30 13261 C 1248.22 -0.829527 -4.21209 0
M  V30 13262 C 1247.46 -0.17316 -5.33419 0
M  V30 13263 O 1247.68 1.03549 -5.60922 0
M  V30 13264 O 1246.61 -0.872385 -5.95544 0
M  V30 13265 H 1250.44 -1.40633 -2.69177 0
M  V30 13266 H 1248.02 -0.749395 -1.29246 0
M  V30 13267 H 1249.91 0.544394 -4.17869 0
M  V30 13268 H 1248.58 1.00764 -3.07617 0
M  V30 13269 H 1247.49 -1.26678 -3.51999 0
M  V30 13270 H 1248.82 -1.64815 -4.63785 0
M  V30 13271 N 1250.47 1.3842 -0.753509 0
M  V30 13272 C 1251.72 1.99723 -0.309021 0
M  V30 13273 C 1252.04 1.60111 1.11308 0
M  V30 13274 O 1251.31 0.85792 1.76115 0
M  V30 13275 H 1249.89 0.738667 -0.111266 0
M  V30 13276 H 1252.55 1.69186 -0.967586 0
M  V30 13277 H 1251.65 3.09874 -0.372095 0
M  V30 13278 N 1251.95 0.502579 1.49372 0
M  V30 13279 C 1253.2 -0.0432341 2.01654 0
M  V30 13280 C 1253.51 -1.379 1.38719 0
M  V30 13281 O 1254.72 -2.01159 1.82338 0
M  V30 13282 C 1253.17 -0.127509 3.59674 0
M  V30 13283 C 1252.78 1.20171 4.31582 0
M  V30 13284 C 1254.53 -0.623603 4.19895 0
M  V30 13285 C 1252.43 1.07951 5.81464 0
M  V30 13286 H 1251.36 -0.0199308 0.753737 0
M  V30 13287 H 1254.01 0.642237 1.71894 0
M  V30 13288 H 1252.4 -0.877465 3.86156 0
M  V30 13289 H 1253.57 1.96508 4.16799 0
M  V30 13290 H 1251.89 1.63136 3.83113 0
M  V30 13291 H 1254.48 -0.732562 5.29658 0
M  V30 13292 H 1254.83 -1.62282 3.83367 0
M  V30 13293 H 1255.36 0.0698641 3.97739 0
M  V30 13294 H 1252.1 2.05304 6.22519 0
M  V30 13295 H 1251.62 0.357051 5.98736 0
M  V30 13296 H 1253.3 0.758885 6.42534 0
M  V30 13297 N 1253.43 -1.55816 0.23648 0
M  V30 13298 C 1254.84 -1.84757 -0.268622 0
M  V30 13299 C 1255.19 -1.15815 -1.58371 0
M  V30 13300 O 1254.32 -0.432923 -2.12025 0
M  V30 13301 C 1254.91 -3.35177 -0.494167 0
M  V30 13302 C 1253.47 -3.64382 -0.943551 0
M  V30 13303 C 1252.62 -2.77296 -0.0149191 0
M  V30 13304 H 1255.57 -1.51908 0.459308 0
M  V30 13305 H 1255.59 -3.56192 -1.3382 0
M  V30 13306 H 1255.1 -3.85327 0.463138 0
M  V30 13307 H 1253.2 -3.19701 -1.91369 0
M  V30 13308 H 1253.31 -4.72244 -0.807626 0
M  V30 13309 H 1251.68 -2.49243 -0.524419 0
M  V30 13310 H 1252.46 -3.30249 0.937571 0
M  V30 13311 N 1254.91 0.036755 -1.57557 0
M  V30 13312 C 1255.87 1.02435 -2.05036 0
M  V30 13313 C 1256.87 1.29506 -0.953146 0
M  V30 13314 O 1258.06 1.24638 -1.217 0
M  V30 13315 C 1255.19 2.3592 -2.46079 0
M  V30 13316 H 1256.38 0.614384 -2.93539 0
M  V30 13317 H 1253.94 0.283396 -1.53709 0
M  V30 13318 H 1254.67 2.8168 -1.60708 0
M  V30 13319 H 1254.46 2.17603 -3.26177 0
M  V30 13320 H 1255.95 3.06839 -2.83266 0
M  V30 13321 N 1256.39 1.54543 0.308881 0
M  V30 13322 C 1257.32 1.87947 1.38557 0
M  V30 13323 C 1258.3 0.737622 1.53275 0
M  V30 13324 O 1259.48 0.992664 1.66913 0
M  V30 13325 C 1256.61 2.11982 2.75102 0
M  V30 13326 C 1255.57 3.2783 2.75158 0
M  V30 13327 C 1254.89 3.37266 4.14917 0
M  V30 13328 C 1256.19 4.65129 2.37598 0
M  V30 13329 H 1257.89 2.78123 1.1085 0
M  V30 13330 H 1255.43 1.3382 0.531808 0
M  V30 13331 H 1257.38 2.33935 3.50503 0
M  V30 13332 H 1256.11 1.18569 3.04317 0
M  V30 13333 H 1254.77 3.05787 2.02212 0
M  V30 13334 H 1254.42 2.41384 4.41296 0
M  V30 13335 H 1254.12 4.15135 4.15857 0
M  V30 13336 H 1255.64 3.61471 4.92109 0
M  V30 13337 H 1257.05 4.86865 3.02714 0
M  V30 13338 H 1255.45 5.45653 2.49765 0
M  V30 13339 H 1256.52 4.6638 1.32731 0
M  V30 13340 N 1257.86 -0.571685 1.46866 0
M  V30 13341 C 1259.14 -1.33216 1.43223 0
M  V30 13342 C 1259.52 -2.1075 0.121495 0
M  V30 13343 O 1258.87 -2.10157 -0.897003 0
M  V30 13344 C 1259.08 -2.24888 2.66882 0
M  V30 13345 C 1260.43 -2.86369 3.13493 0
M  V30 13346 O 1261.45 -2.35197 2.67509 0
M  V30 13347 O 1260.31 -3.79342 3.93398 0
M  V30 13348 H 1257.4 -0.599106 0.570089 0
M  V30 13349 H 1259.95 -0.591788 1.59047 0
M  V30 13350 H 1258.72 -1.67099 3.53827 0
M  V30 13351 H 1258.34 -3.06246 2.53573 0
M  V30 13352 N 1259.34 -1.34755 -0.817236 0
M  V30 13353 C 1260.29 -1.26816 -1.94988 0
M  V30 13354 C 1261.28 -0.165142 -1.68593 0
M  V30 13355 O 1262.49 -0.330469 -1.7694 0
M  V30 13356 H 1258.86 -0.394113 -0.640452 0
M  V30 13357 H 1260.84 -2.22528 -1.98806 0
M  V30 13358 C 1259.58 -1.04625 -3.31586 0
M  V30 13359 H 1258.91 -1.88735 -3.52447 0
M  V30 13360 H 1260.35 -1.03108 -4.11272 0
M  V30 13361 C 1258.81 0.250283 -3.35969 0
M  V30 13362 O 1259.34 1.24972 -3.81765 0
M  V30 13363 N 1257.54 0.285369 -2.89195 0
M  V30 13364 H 1257.09 -0.528528 -2.5212 0
M  V30 13365 H 1257.05 1.15261 -2.9251 0
M  V30 13366 N 1260.82 1.03812 -1.18578 0
M  V30 13367 C 1262.07 1.77056 -0.982718 0
M  V30 13368 C 1262.39 1.88294 0.487421 0
M  V30 13369 O 1261.65 1.38946 1.37813 0
M  V30 13370 C 1261.95 3.20297 -1.5857 0
M  V30 13371 C 1261.61 3.29088 -3.0824 0
M  V30 13372 C 1260.28 3.31194 -3.4909 0
M  V30 13373 C 1262.63 3.28981 -4.04253 0
M  V30 13374 C 1259.96 3.30839 -4.84523 0
M  V30 13375 C 1262.31 3.30166 -5.39605 0
M  V30 13376 C 1260.97 3.30565 -5.79899 0
M  V30 13377 H 1260.24 0.647895 -0.359602 0
M  V30 13378 H 1262.89 1.21911 -1.47682 0
M  V30 13379 H 1261.19 3.7846 -1.01367 0
M  V30 13380 H 1262.89 3.75619 -1.40398 0
M  V30 13381 H 1259.48 3.28171 -2.75685 0
M  V30 13382 H 1263.67 3.26543 -3.73743 0
M  V30 13383 H 1258.92 3.29467 -5.15035 0
M  V30 13384 H 1263.1 3.29033 -6.13767 0
M  V30 13385 H 1260.72 3.30044 -6.84818 0
M  V30 13386 N 1262.3 0.988223 1.22768 0
M  V30 13387 C 1263.23 0.554478 2.26821 0
M  V30 13388 C 1264.21 -0.416293 1.64927 0
M  V30 13389 O 1265.39 -0.30795 1.91743 0
M  V30 13390 C 1262.52 -0.136266 3.47033 0
M  V30 13391 C 1261.48 0.752575 4.21332 0
M  V30 13392 C 1260.8 -0.0708236 5.34653 0
M  V30 13393 C 1262.1 2.04717 4.80508 0
M  V30 13394 H 1263.8 1.42423 2.63355 0
M  V30 13395 H 1261.34 0.686267 1.26595 0
M  V30 13396 H 1263.3 -0.451068 4.18979 0
M  V30 13397 H 1262.02 -1.04053 3.09581 0
M  V30 13398 H 1260.68 1.05095 3.51213 0
M  V30 13399 H 1260.33 -0.975859 4.93443 0
M  V30 13400 H 1260.03 0.520835 5.85287 0
M  V30 13401 H 1261.55 -0.379828 6.09417 0
M  V30 13402 H 1262.97 1.79663 5.44421 0
M  V30 13403 H 1261.36 2.58726 5.41462 0
M  V30 13404 H 1262.43 2.72896 4.00819 0
M  V30 13405 N 1263.78 -1.38018 0.760839 0
M  V30 13406 C 1265.05 -1.94054 0.245437 0
M  V30 13407 C 1265.43 -1.6955 -1.25761 0
M  V30 13408 O 1264.78 -1.03812 -2.03557 0
M  V30 13409 C 1264.99 -3.43681 0.606986 0
M  V30 13410 C 1266.34 -4.20748 0.570673 0
M  V30 13411 O 1267.36 -3.51995 0.545715 0
M  V30 13412 O 1266.22 -5.43327 0.588043 0
M  V30 13413 H 1263.32 -0.825264 0.0535607 0
M  V30 13414 H 1265.86 -1.47369 0.841453 0
M  V30 13415 H 1264.63 -3.55054 1.64476 0
M  V30 13416 H 1264.26 -3.97597 -0.0166576 0
M  V30 13417 N 1265.25 -0.510493 -1.49103 0
M  V30 13418 C 1266.2 0.262848 -2.29298 0
M  V30 13419 C 1267.17 0.951714 -1.36131 0
M  V30 13420 O 1268.36 0.956534 -1.65091 0
M  V30 13421 C 1265.5 1.31565 -3.19037 0
M  V30 13422 C 1264.61 0.637598 -4.27269 0
M  V30 13423 C 1263.74 1.67165 -5.04212 0
M  V30 13424 C 1262.78 0.975992 -6.04269 0
M  V30 13425 N 1261.92 1.95468 -6.74342 0
M  V30 13426 H 1266.76 -0.427246 -2.94921 0
M  V30 13427 H 1264.3 -0.222538 -1.45407 0
M  V30 13428 H 1266.25 1.93813 -3.69449 0
M  V30 13429 H 1264.88 1.97438 -2.55379 0
M  V30 13430 H 1263.94 -0.0983863 -3.80273 0
M  V30 13431 H 1265.25 0.0904435 -4.98718 0
M  V30 13432 H 1264.4 2.36893 -5.5854 0
M  V30 13433 H 1263.14 2.25267 -4.32557 0
M  V30 13434 H 1262.15 0.264534 -5.49163 0
M  V30 13435 H 1263.37 0.40134 -6.77913 0
M  V30 13436 H 1261.32 2.52515 -6.05452 0
M  V30 13437 H 1261.23 1.45845 -7.41799 0
M  V30 13438 H 1262.5 2.64455 -7.33269 0
M  V30 13439 N 1266.73 1.55688 -0.24474 0
M  V30 13440 C 1267.66 2.24272 0.64995 0
M  V30 13441 C 1268.64 1.22226 1.183 0
M  V30 13442 O 1269.83 1.50873 1.22274 0
M  V30 13443 C 1266.96 2.94053 1.84798 0
M  V30 13444 C 1265.91 4.02769 1.44779 0
M  V30 13445 C 1265.24 4.59965 2.72647 0
M  V30 13446 C 1266.54 5.18601 0.62047 0
M  V30 13447 H 1268.23 2.99298 0.0780654 0
M  V30 13448 H 1265.78 1.43955 0.0361069 0
M  V30 13449 H 1267.73 3.40732 2.47951 0
M  V30 13450 H 1266.45 2.16511 2.44521 0
M  V30 13451 H 1265.11 3.56856 0.839609 0
M  V30 13452 H 1264.76 3.79126 3.30564 0
M  V30 13453 H 1264.46 5.33352 2.46596 0
M  V30 13454 H 1265.99 5.09376 3.36703 0
M  V30 13455 H 1267.4 5.61519 1.15625 0
M  V30 13456 H 1265.8 5.98364 0.456097 0
M  V30 13457 H 1266.87 4.83503 -0.367798 0
M  V30 13458 O 1268.25 0.109283 1.6113 0
M  V30 13459 H 1268.94 -0.490999 1.87374 0
M  V30 END ATOM
M  V30 BEGIN BOND
M  V30 END BOND
M  V30 END CTAB
M  END
$$$$
