drugbank_target|O95264 5-hydroxytryptamine receptor 3B (DB00715; DB01049; DB01239; DB09304; DB11273; DB12141; DB13025; DB13345)
 OpenBabel12092120593D

  0  0  0     0  0            999 V3000
M  V30 BEGIN CTAB
M  V30 COUNTS 7071 7164 0 0 0
M  V30 BEGIN ATOM
M  V30 1 H -0.908 1.98254 -0.117106 0
M  V30 2 N 0 1.576 0 0
M  V30 3 C 0.933 2.03868 1.02534 0
M  V30 4 C 1.911 0.928543 1.3348 0
M  V30 5 O 3.095 1.19667 1.45644 0
M  V30 6 C 0.222 2.43627 2.35294 0
M  V30 7 C -0.732 3.65373 2.2001 0
M  V30 8 S 0.101 5.13292 1.52614 0
M  V30 9 C 1.257 5.56322 2.86805 0
M  V30 10 H 1.49 2.90518 0.631377 0
M  V30 11 H -0.977 1.52953 0.210867 0
M  V30 12 H 0.981 2.67203 3.11629 0
M  V30 13 H -0.358 1.57376 2.7183 0
M  V30 14 H -1.165 3.90944 3.18086 0
M  V30 15 H -1.563 3.418 1.51819 0
M  V30 16 H 0.729 5.58782 3.83104 0
M  V30 17 H 1.672 6.56266 2.65933 0
M  V30 18 H 2.08 4.83886 2.90714 0
M  V30 19 N 1.4781 -0.272755 1.55222 0
M  V30 20 C 2.4081 -1.34136 1.91127 0
M  V30 21 C 3.3891 -1.51513 0.773168 0
M  V30 22 O 4.5741 -1.64552 1.03132 0
M  V30 23 C 1.7041 -2.70083 2.1834 0
M  V30 24 C 0.6581 -2.67437 3.34158 0
M  V30 25 C -0.0159 -4.06938 3.46851 0
M  V30 26 C 1.2841 -2.26686 4.70543 0
M  V30 27 H 2.9781 -1.04333 2.80633 0
M  V30 28 H 0.5241 -0.500454 1.35024 0
M  V30 29 H 2.4771 -3.44952 2.42046 0
M  V30 30 H 1.2011 -3.01469 1.25634 0
M  V30 31 H -0.1399 -1.95026 3.1042 0
M  V30 32 H -0.4919 -4.35547 2.51611 0
M  V30 33 H -0.7919 -4.06062 4.2472 0
M  V30 34 H 0.7321 -4.83545 3.72849 0
M  V30 35 H 2.1461 -2.91277 4.93792 0
M  V30 36 H 0.5431 -2.36971 5.5133 0
M  V30 37 H 1.6131 -1.21818 4.69349 0
M  V30 38 N 2.9562 -1.48159 -0.537278 0
M  V30 39 C 4.1812 -1.59707 -1.32319 0
M  V30 40 C 4.6062 -0.254859 -1.86365 0
M  V30 41 O 3.9642 0.772378 -1.64024 0
M  V30 42 C 4.0122 -2.6412 -2.45505 0
M  V30 43 O 3.1162 -2.20774 -3.48328 0
M  V30 44 H 2.4572 -0.535791 -0.392204 0
M  V30 45 H 4.9872 -1.94092 -0.647268 0
M  V30 46 H 4.9972 -2.85166 -2.91795 0
M  V30 47 H 3.6722 -3.61567 -2.05528 0
M  V30 48 H 2.2492 -2.09911 -3.08207 0
M  V30 49 N 4.4343 0.785586 -1.36625 0
M  V30 50 C 5.6593 1.57963 -1.34397 0
M  V30 51 C 6.0843 1.87964 0.071526 0
M  V30 52 O 5.4423 1.48182 1.0446 0
M  V30 53 C 5.4903 2.87511 -2.17646 0
M  V30 54 O 4.5943 3.81281 -1.57158 0
M  V30 55 H 3.9353 0.479014 -0.459828 0
M  V30 56 H 6.4653 0.973411 -1.79961 0
M  V30 57 H 6.4753 3.36745 -2.30362 0
M  V30 58 H 5.1503 2.65002 -3.20541 0
M  V30 59 H 3.7273 3.39885 -1.53403 0
M  V30 60 N 5.9124 1.20967 1.01018 0
M  V30 61 C 7.1584 1.02526 1.74975 0
M  V30 62 C 7.4914 -0.4408 1.89131 0
M  V30 63 O 6.7664 -1.32718 1.42184 0
M  V30 64 C 7.0494 1.71699 3.1653 0
M  V30 65 C 6.9024 3.25791 3.10129 0
M  V30 66 C 8.2214 1.45531 4.15342 0
M  V30 67 H 5.3404 0.373863 0.635134 0
M  V30 68 H 7.9824 1.49071 1.17805 0
M  V30 69 H 6.1324 1.32128 3.65341 0
M  V30 70 H 7.8044 3.74697 2.69072 0
M  V30 71 H 6.0474 3.56363 2.47362 0
M  V30 72 H 6.7184 3.69353 4.10222 0
M  V30 73 H 9.1944 1.79872 3.75213 0
M  V30 74 H 8.0704 1.96453 5.1254 0
M  V30 75 H 8.3314 0.384237 4.40427 0
M  V30 76 N 7.3905 -1.2043 1.01659 0
M  V30 77 C 8.3235 -2.21924 0.531521 0
M  V30 78 C 9.3015 -1.57054 -0.421032 0
M  V30 79 O 10.4855 -1.85389 -0.341035 0
M  V30 80 C 7.6125 -3.37942 -0.226496 0
M  V30 81 C 6.6585 -4.21115 0.67561 0
M  V30 82 S 7.4915 -4.90674 2.14475 0
M  V30 83 C 8.6475 -6.10113 1.3969 0
M  V30 84 H 8.8805 -2.62725 1.3915 0
M  V30 85 H 6.4135 -1.30481 0.825479 0
M  V30 86 H 8.3715 -4.05196 -0.657738 0
M  V30 87 H 7.0325 -2.956 -1.06205 0
M  V30 88 H 6.2255 -5.03918 0.091108 0
M  V30 89 H 5.8275 -3.59115 1.04463 0
M  V30 90 H 8.1195 -6.7411 0.676897 0
M  V30 91 H 9.0625 -6.73022 2.20107 0
M  V30 92 H 9.4705 -5.57283 0.899786 0
M  V30 93 N 8.8686 -0.792821 -1.36206 0
M  V30 94 C 9.8316 -0.199459 -2.2833 0
M  V30 95 C 10.8316 0.605189 -1.48977 0
M  V30 96 O 12.0216 0.425685 -1.68919 0
M  V30 97 C 9.1536 0.723523 -3.33134 0
M  V30 98 H 10.3466 -1.01181 -2.82316 0
M  V30 99 H 7.8996 -0.562485 -1.45828 0
M  V30 100 H 8.6346 1.56008 -2.84309 0
M  V30 101 H 8.4196 0.148436 -3.91819 0
M  V30 102 H 9.9096 1.13344 -4.01924 0
M  V30 103 N 10.3467 1.47872 -0.545128 0
M  V30 104 C 11.7577 1.86384 -0.108581 0
M  V30 105 C 12.1087 1.45309 1.31832 0
M  V30 106 O 11.2337 0.850641 1.9898 0
M  V30 107 C 11.8287 3.38265 -0.190274 0
M  V30 108 C 10.3877 3.75914 0.191164 0
M  V30 109 C 9.5347 2.71926 -0.543273 0
M  V30 110 H 12.4857 1.39561 -0.755537 0
M  V30 111 H 12.5067 3.75831 0.594217 0
M  V30 112 H 12.0187 3.6813 -1.2289 0
M  V30 113 H 10.1197 3.51665 1.23136 0
M  V30 114 H 10.2327 4.78836 -0.158987 0
M  V30 115 H 8.5967 2.54697 0.0122495 0
M  V30 116 H 9.3797 3.04634 -1.58282 0
M  V30 117 N 11.8248 0.280983 1.55075 0
M  V30 118 C 12.7548 -0.597469 2.25727 0
M  V30 119 C 13.7358 -1.15417 1.24952 0
M  V30 120 O 14.9208 -1.18722 1.53684 0
M  V30 121 C 12.0508 -1.7789 2.98283 0
M  V30 122 C 11.0048 -1.35347 4.06036 0
M  V30 123 C 10.3308 -2.61846 4.66198 0
M  V30 124 C 11.6308 -0.499354 5.19907 0
M  V30 125 H 13.3248 -0.00824265 2.99399 0
M  V30 126 H 10.8708 -0.0025244 1.44 0
M  V30 127 H 12.8238 -2.39937 3.46422 0
M  V30 128 H 11.5478 -2.39405 2.22155 0
M  V30 129 H 10.2068 -0.756156 3.58717 0
M  V30 130 H 9.8548 -3.21632 3.86732 0
M  V30 131 H 9.5548 -2.3409 5.38958 0
M  V30 132 H 11.0788 -3.24732 5.1709 0
M  V30 133 H 12.4928 -1.02498 5.64063 0
M  V30 134 H 10.8898 -0.316424 5.99265 0
M  V30 135 H 11.9598 0.480459 4.82514 0
M  V30 136 N 13.3029 -1.57598 0.00835791 0
M  V30 137 C 14.5489 -1.92046 -0.670055 0
M  V30 138 C 14.9039 -0.88351 -1.70915 0
M  V30 139 O 14.1969 0.103223 -1.91322 0
M  V30 140 C 14.3909 -3.3101 -1.34787 0
M  V30 141 C 14.2199 -4.48126 -0.375945 0
M  V30 142 C 12.9899 -5.05297 0.0166914 0
M  V30 143 C 15.1879 -5.1303 0.361272 0
M  V30 144 N 13.1699 -6.05931 0.985952 0
M  V30 145 C 14.5409 -6.08571 1.18495 0
M  V30 146 C 16.5959 -4.9609 0.42421 0
M  V30 147 C 15.2989 -6.88996 2.06584 0
M  V30 148 C 17.3249 -5.77107 1.29236 0
M  V30 149 C 16.6869 -6.72248 2.10386 0
M  V30 150 H 12.7859 -0.75096 -0.218136 0
M  V30 151 H 15.3699 -1.94572 0.0706669 0
M  V30 152 H 13.5409 -3.29342 -2.05884 0
M  V30 153 H 15.2729 -3.52864 -1.98164 0
M  V30 154 H 12.0279 -4.72279 -0.353435 0
M  V30 155 H 12.4519 -6.60932 1.4662 0
M  V30 156 H 17.0939 -4.22378 -0.188915 0
M  V30 157 H 14.8119 -7.62028 2.6896 0
M  V30 158 H 18.3979 -5.66038 1.34508 0
M  V30 159 H 17.2779 -7.33846 2.76476 0
M  V30 160 N 14.781 0.264519 -1.55364 0
M  V30 161 C 15.744 1.31046 -1.88042 0
M  V30 162 C 16.744 1.41943 -0.755569 0
M  V30 163 O 17.934 1.40947 -1.02369 0
M  V30 164 C 15.066 2.69067 -2.09323 0
M  V30 165 H 16.259 1.03297 -2.81549 0
M  V30 166 H 13.812 0.502989 -1.47986 0
M  V30 167 H 14.547 3.01982 -1.18226 0
M  V30 168 H 14.332 2.62542 -2.91229 0
M  V30 169 H 15.822 3.44623 -2.35848 0
M  V30 170 N 16.2591 1.48442 0.529413 0
M  V30 171 C 17.4991 1.58086 1.29569 0
M  V30 172 C 17.8631 0.249302 1.90375 0
M  V30 173 O 19.0641 0.220738 2.67892 0
M  V30 174 C 17.3351 2.68793 2.35552 0
M  V30 175 S 18.8941 2.98207 3.21898 0
M  V30 176 H 15.7121 0.557922 0.440732 0
M  V30 177 H 18.3141 1.85966 0.603059 0
M  V30 178 H 17.0181 3.64102 1.89363 0
M  V30 179 H 16.5491 2.42817 3.09522 0
M  V30 180 H 18.5641 2.37548 4.35644 0
M  V30 181 N 17.7372 -0.778329 1.37039 0
M  V30 182 C 18.9862 -1.53189 1.3121 0
M  V30 183 C 19.2992 -1.95328 -0.103095 0
M  V30 184 O 20.5052 -2.70012 -0.283826 0
M  V30 185 C 18.9612 -2.76591 2.30272 0
M  V30 186 C 18.5692 -2.41577 3.77286 0
M  V30 187 C 20.3132 -3.5455 2.33441 0
M  V30 188 C 18.2202 -3.61441 4.68096 0
M  V30 189 H 17.1502 -0.5751 0.487622 0
M  V30 190 H 19.8012 -0.853101 1.62464 0
M  V30 191 H 18.1832 -3.46326 1.92027 0
M  V30 192 H 19.3572 -1.79668 4.2433 0
M  V30 193 H 17.6722 -1.76806 3.76999 0
M  V30 194 H 20.2692 -4.43628 2.98493 0
M  V30 195 H 20.6122 -3.93936 1.34611 0
M  V30 196 H 21.1452 -2.91805 2.7036 0
M  V30 197 H 17.8842 -3.27142 5.6803 0
M  V30 198 H 17.4042 -4.22478 4.25761 0
M  V30 199 H 19.0832 -4.28335 4.8491 0
M  V30 200 N 19.2153 -1.21501 -1.00376 0
M  V30 201 C 20.1453 -0.999478 -2.11028 0
M  V30 202 C 21.1263 0.0759671 -1.6993 0
M  V30 203 O 22.3113 -0.0841106 -1.94018 0
M  V30 204 C 19.4413 -0.564709 -3.42678 0
M  V30 205 C 18.3953 -1.58486 -3.97576 0
M  V30 206 C 17.7213 -1.00628 -5.25146 0
M  V30 207 C 19.0213 -2.97204 -4.29496 0
M  V30 208 H 20.7153 -1.92495 -2.29317 0
M  V30 209 H 18.2613 -0.92693 -1.102 0
M  V30 210 H 20.2143 -0.401091 -4.19487 0
M  V30 211 H 18.9383 0.396411 -3.24185 0
M  V30 212 H 17.5973 -1.73606 -3.22888 0
M  V30 213 H 17.2453 -0.0368439 -5.02987 0
M  V30 214 H 16.9453 -1.68771 -5.62841 0
M  V30 215 H 18.4693 -0.854015 -6.04598 0
M  V30 216 H 19.8833 -2.8552 -4.97143 0
M  V30 217 H 18.2803 -3.62372 -4.78338 0
M  V30 218 H 19.3503 -3.47956 -3.3772 0
M  V30 219 N 20.6934 1.19889 -1.02296 0
M  V30 220 C 21.9394 1.89701 -0.717033 0
M  V30 221 C 22.2724 1.7905 0.751989 0
M  V30 222 O 21.5474 1.17891 1.547 0
M  V30 223 C 21.8304 3.40858 -1.16136 0
M  V30 224 C 21.6834 3.60411 -2.69117 0
M  V30 225 C 23.0024 4.33876 -0.737549 0
M  V30 226 H 20.1214 0.688874 -0.261957 0
M  V30 227 H 22.7634 1.41154 -1.27183 0
M  V30 228 H 20.9134 3.82335 -0.689342 0
M  V30 229 H 22.5854 3.28145 -3.2422 0
M  V30 230 H 20.8284 3.03665 -3.0979 0
M  V30 231 H 21.4994 4.66396 -2.95261 0
M  V30 232 H 23.9754 4.00081 -1.14344 0
M  V30 233 H 22.8514 5.38242 -1.0764 0
M  V30 234 H 23.1124 4.40628 0.360436 0
M  V30 235 N 22.1715 0.800033 1.35784 0
M  V30 236 C 23.1345 0.211565 2.28221 0
M  V30 237 C 24.1345 -0.59728 1.49296 0
M  V30 238 O 25.3245 -0.416721 1.69142 0
M  V30 239 C 22.4565 -0.705846 3.33513 0
M  V30 240 H 23.6495 1.02677 2.81776 0
M  V30 241 H 21.2025 0.570211 1.45528 0
M  V30 242 H 21.9375 -1.54498 2.85133 0
M  V30 243 H 21.7225 -0.127655 3.91892 0
M  V30 244 H 23.2125 -1.11211 4.02519 0
M  V30 245 N 23.6496 -1.47581 0.552962 0
M  V30 246 C 24.6126 -2.28439 -0.186605 0
M  V30 247 C 25.6126 -1.36706 -0.84665 0
M  V30 248 O 26.8026 -1.59378 -0.703164 0
M  V30 249 C 23.9346 -3.16264 -1.2724 0
M  V30 250 H 25.1276 -2.95294 0.523609 0
M  V30 251 H 22.6806 -1.532 0.309745 0
M  V30 252 H 23.4156 -2.54091 -2.01514 0
M  V30 253 H 23.2006 -3.83769 -0.803968 0
M  V30 254 H 24.6906 -3.77198 -1.79196 0
M  V30 255 N 25.1277 -0.289203 -1.54924 0
M  V30 256 C 26.3757 0.322879 -1.99504 0
M  V30 257 C 26.6967 1.55313 -1.1791 0
M  V30 258 O 25.9667 1.94001 -0.272097 0
M  V30 259 H 24.5467 0.122291 -0.736922 0
M  V30 260 H 27.2087 -0.397802 -1.90797 0
M  V30 261 H 26.3047 0.603061 -3.06218 0
M  V30 262 N 26.6058 1.57591 -0.0167156 0
M  V30 263 C 27.8548 1.90461 0.663877 0
M  V30 264 C 28.1678 0.893515 1.73999 0
M  V30 265 O 29.3738 1.11302 2.47637 0
M  V30 266 C 27.8298 3.38155 1.23204 0
M  V30 267 C 27.4378 4.47597 0.189866 0
M  V30 268 C 29.1818 3.80111 1.88986 0
M  V30 269 C 27.0888 5.86379 0.768964 0
M  V30 270 H 26.0188 0.710738 0.251729 0
M  V30 271 H 28.6698 1.83326 -0.0799926 0
M  V30 272 H 27.0518 3.40182 2.02712 0
M  V30 273 H 28.2258 4.57112 -0.581846 0
M  V30 274 H 26.5408 4.14766 -0.368475 0
M  V30 275 H 29.1378 4.81145 2.33247 0
M  V30 276 H 29.4808 3.14511 2.72743 0
M  V30 277 H 30.0138 3.80454 1.16187 0
M  V30 278 H 26.7528 6.55493 -0.0301957 0
M  V30 279 H 26.2728 5.80496 1.50945 0
M  V30 280 H 27.9518 6.34563 1.26251 0
M  V30 281 N 28.0839 -0.256276 1.55502 0
M  V30 282 C 29.0139 -1.32102 1.92539 0
M  V30 283 C 29.9949 -1.50684 0.789194 0
M  V30 284 O 31.1799 -1.63449 1.04872 0
M  V30 285 C 28.3099 -2.67752 2.21192 0
M  V30 286 C 27.2639 -2.63878 3.36975 0
M  V30 287 C 26.5899 -4.03236 3.51147 0
M  V30 288 C 27.8899 -2.21682 4.72921 0
M  V30 289 H 29.5839 -1.01351 2.81724 0
M  V30 290 H 27.1299 -0.486105 1.35547 0
M  V30 291 H 29.0829 -3.42365 2.45691 0
M  V30 292 H 27.8069 -3.0012 1.28824 0
M  V30 293 H 26.4659 -1.91722 3.12471 0
M  V30 294 H 26.1139 -4.32854 2.56216 0
M  V30 295 H 25.8139 -4.01535 4.29003 0
M  V30 296 H 27.3379 -4.79563 3.77957 0
M  V30 297 H 28.7519 -2.86023 4.96854 0
M  V30 298 H 27.1489 -2.3111 5.53812 0
M  V30 299 H 28.2189 -1.16833 4.70615 0
M  V30 300 N 29.562 -1.4872 -0.521534 0
M  V30 301 C 30.525 -1.63379 -1.60748 0
M  V30 302 C 31.525 -0.50661 -1.52611 0
M  V30 303 O 32.715 -0.772601 -1.5613 0
M  V30 304 C 29.847 -1.61192 -3.00383 0
M  V30 305 H 31.04 -2.60217 -1.49087 0
M  V30 306 H 28.593 -1.37444 -0.744235 0
M  V30 307 H 29.328 -0.65863 -3.17541 0
M  V30 308 H 29.113 -2.43032 -3.07698 0
M  V30 309 H 30.603 -1.7466 -3.7932 0
M  V30 310 N 31.0401 0.771051 -1.3745 0
M  V30 311 C 32.2681 1.56015 -1.35893 0
M  V30 312 C 32.6831 1.88718 0.0555523 0
M  V30 313 O 32.0401 1.51502 1.01752 0
M  V30 314 C 32.0911 2.87001 -2.19801 0
M  V30 315 O 31.8121 2.557 -3.55738 0
M  V30 316 C 33.3131 3.81228 -2.26231 0
M  V30 317 H 30.5331 0.483317 -0.465453 0
M  V30 318 H 33.0771 0.955611 -1.80799 0
M  V30 319 H 31.2321 3.43877 -1.78402 0
M  V30 320 H 31.6461 3.39584 -3.99729 0
M  V30 321 H 33.1201 4.70139 -2.89263 0
M  V30 322 H 33.5971 4.20409 -1.27093 0
M  V30 323 H 34.2031 3.30281 -2.67945 0
M  V30 324 N 32.5182 1.22032 0.997298 0
M  V30 325 C 33.7952 0.950823 1.70935 0
M  V30 326 C 34.1752 -0.535292 2.042 0
M  V30 327 O 33.5232 -1.50217 1.72183 0
M  V30 328 C 33.7332 1.84386 2.96315 0
M  V30 329 C 35.0812 2.09732 3.69185 0
M  V30 330 O 36.1052 1.81798 3.06314 0
M  V30 331 O 34.9642 2.57018 4.82291 0
M  V30 332 H 32.0582 0.357204 0.745878 0
M  V30 333 H 34.6042 1.32997 1.05404 0
M  V30 334 H 33.3762 2.84928 2.68201 0
M  V30 335 H 32.9992 1.46602 3.69586 0
M  V30 336 N 33.9963 -1.19345 1.0293 0
M  V30 337 C 35.2243 -1.92997 0.745644 0
M  V30 338 C 35.6393 -1.75519 -0.695589 0
M  V30 339 O 34.9963 -1.07737 -1.47306 0
M  V30 340 C 35.0473 -3.44741 1.08792 0
M  V30 341 O 34.7683 -3.61658 2.47256 0
M  V30 342 C 36.2693 -4.35515 0.827129 0
M  V30 343 H 33.4893 -0.613042 0.272801 0
M  V30 344 H 36.0333 -1.51473 1.3739 0
M  V30 345 H 34.1883 -3.84097 0.504832 0
M  V30 346 H 34.6023 -4.55514 2.60015 0
M  V30 347 H 36.0763 -5.40589 1.11658 0
M  V30 348 H 36.5533 -4.38552 -0.238436 0
M  V30 349 H 37.1593 -4.01841 1.39297 0
M  V30 350 N 35.4744 -0.807222 -1.35358 0
M  V30 351 C 36.4244 -0.190706 -2.27201 0
M  V30 352 C 37.4084 0.635838 -1.47804 0
M  V30 353 O 38.6004 0.492991 -1.69996 0
M  V30 354 C 35.7294 0.659337 -3.36909 0
M  V30 355 C 34.8154 -0.176971 -4.23731 0
M  V30 356 N 35.2064 -1.24029 -4.90357 0
M  V30 357 C 33.5044 0.0412953 -4.45981 0
M  V30 358 C 34.2054 -1.75092 -5.54723 0
M  V30 359 N 33.1814 -1.05727 -5.33219 0
M  V30 360 H 36.9834 -1.0043 -2.76208 0
M  V30 361 H 34.4974 -0.648445 -1.48892 0
M  V30 362 H 36.4944 1.11706 -4.01656 0
M  V30 363 H 35.1544 1.47127 -2.89454 0
M  V30 364 H 36.1654 -1.62295 -4.91814 0
M  V30 365 H 32.8424 0.82232 -4.09322 0
M  V30 366 H 34.2324 -2.63963 -6.17878 0
M  V30 367 N 36.9525 1.47285 -0.560781 0
M  V30 368 C 37.9025 2.27073 0.205384 0
M  V30 369 C 38.8865 1.34569 0.882044 0
M  V30 370 O 40.0785 1.58899 0.77976 0
M  V30 371 C 37.2075 3.20414 1.23247 0
M  V30 372 C 36.2935 4.20399 0.559041 0
M  V30 373 N 36.6845 5.04423 -0.372927 0
M  V30 374 C 34.9825 4.38536 0.812522 0
M  V30 375 C 35.6835 5.76655 -0.764446 0
M  V30 376 N 34.6595 5.43471 -0.11848 0
M  V30 377 H 38.4615 2.89422 -0.511117 0
M  V30 378 H 35.9755 1.57868 -0.380975 0
M  V30 379 H 37.9725 3.76262 1.79534 0
M  V30 380 H 36.6325 2.59623 1.95002 0
M  V30 381 H 37.6435 5.1248 -0.747287 0
M  V30 382 H 34.3205 3.88913 1.51832 0
M  V30 383 H 35.7105 6.54238 -1.53045 0
M  V30 384 N 38.4306 0.297415 1.54768 0
M  V30 385 C 39.8416 -0.195947 1.85669 0
M  V30 386 C 40.1926 -1.53707 1.21937 0
M  V30 387 O 39.3176 -2.10164 0.515754 0
M  V30 388 C 39.9126 -0.362318 3.36857 0
M  V30 389 C 38.4716 -0.799901 3.67802 0
M  V30 390 C 37.6186 0.0938578 2.77141 0
M  V30 391 H 40.5696 0.518538 1.4999 0
M  V30 392 H 40.5906 -1.19745 3.61167 0
M  V30 393 H 40.1026 0.613921 3.83214 0
M  V30 394 H 38.2036 -1.78682 3.26961 0
M  V30 395 H 38.3166 -0.621773 4.75048 0
M  V30 396 H 36.6806 -0.426254 2.51108 0
M  V30 397 H 37.4636 1.06639 3.26318 0
M  V30 398 N 39.9087 -1.5758 0.0250728 0
M  V30 399 C 40.8407 -2.06869 -0.986796 0
M  V30 400 C 41.8537 -0.991332 -1.29137 0
M  V30 401 O 43.0427 -1.26761 -1.25674 0
M  V30 402 C 40.1427 -2.47486 -2.31525 0
M  V30 403 C 39.3157 -3.78253 -2.19643 0
M  V30 404 C 38.3747 -4.05464 -3.35388 0
M  V30 405 O 37.4007 -4.75774 -3.12454 0
M  V30 406 N 38.6027 -3.55321 -4.59051 0
M  V30 407 H 41.3677 -2.94302 -0.566276 0
M  V30 408 H 38.9287 -1.6109 -0.161776 0
M  V30 409 H 40.9207 -2.62785 -3.07776 0
M  V30 410 H 39.4907 -1.65441 -2.65232 0
M  V30 411 H 38.7107 -3.7279 -1.28144 0
M  V30 412 H 39.9987 -4.63936 -2.08903 0
M  V30 413 H 39.3967 -2.98431 -4.80578 0
M  V30 414 H 37.9537 -3.75905 -5.32483 0
M  V30 415 N 41.3868 0.248026 -1.55636 0
M  V30 416 C 42.6638 0.998988 -1.68165 0
M  V30 417 C 43.0438 2.03409 -0.564621 0
M  V30 418 O 42.3918 2.24378 0.432076 0
M  V30 419 C 42.6018 1.63334 -3.0842 0
M  V30 420 C 43.9498 2.13562 -3.66983 0
M  V30 421 O 44.9738 1.73277 -3.11213 0
M  V30 422 O 43.8328 2.87526 -4.64749 0
M  V30 423 H 40.9268 0.464933 -0.683935 0
M  V30 424 H 43.4728 0.241902 -1.67967 0
M  V30 425 H 42.2448 0.884583 -3.8117 0
M  V30 426 H 41.8678 2.45666 -3.12624 0
M  V30 427 N 42.8649 1.48995 0.513639 0
M  V30 428 C 44.0899 1.61792 1.29762 0
M  V30 429 C 44.5149 0.284475 1.85936 0
M  V30 430 O 43.8729 -0.746185 1.65232 0
M  V30 431 C 43.9209 2.67993 2.41272 0
M  V30 432 O 43.0249 2.26287 3.44772 0
M  V30 433 H 42.3659 0.541963 0.38363 0
M  V30 434 H 44.8959 1.95097 0.616307 0
M  V30 435 H 44.9059 2.89772 2.87221 0
M  V30 436 H 43.5809 3.64791 1.9975 0
M  V30 437 H 42.1579 2.14788 3.04829 0
M  V30 438 N 44.343 -0.763751 1.37857 0
M  V30 439 C 45.306 -1.85889 1.34081 0
M  V30 440 C 46.306 -1.58949 0.243277 0
M  V30 441 O 47.496 -1.66882 0.499589 0
M  V30 442 C 44.628 -3.23176 1.08489 0
M  V30 443 H 45.821 -1.90648 2.31502 0
M  V30 444 H 43.374 -0.964367 1.23003 0
M  V30 445 H 44.109 -3.24091 0.116318 0
M  V30 446 H 43.894 -3.44124 1.8794 0
M  V30 447 H 45.384 -4.03254 1.08517 0
M  V30 448 N 45.8211 -1.22559 -0.990812 0
M  V30 449 C 46.7511 -1.0218 -2.09956 0
M  V30 450 C 47.7321 0.0579394 -1.70001 0
M  V30 451 O 48.9171 -0.104684 -1.93918 0
M  V30 452 C 46.0471 -0.601023 -3.4206 0
M  V30 453 C 45.0011 -1.62694 -3.95872 0
M  V30 454 C 44.3271 -1.06193 -5.24049 0
M  V30 455 C 45.6271 -3.01743 -4.2632 0
M  V30 456 H 47.3211 -1.94916 -2.27262 0
M  V30 457 H 44.8671 -0.938566 -1.09211 0
M  V30 458 H 46.8201 -0.445561 -4.19038 0
M  V30 459 H 45.5441 0.362005 -3.24588 0
M  V30 460 H 44.2031 -1.77021 -3.21028 0
M  V30 461 H 43.8511 -0.0901903 -5.02919 0
M  V30 462 H 43.5511 -1.74732 -5.61019 0
M  V30 463 H 45.0751 -0.918092 -6.03658 0
M  V30 464 H 46.4891 -2.90777 -4.94087 0
M  V30 465 H 44.8861 -3.67425 -4.74467 0
M  V30 466 H 45.9561 -3.51518 -3.34011 0
M  V30 467 N 47.2992 1.18797 -1.03562 0
M  V30 468 C 48.5292 1.92319 -0.754773 0
M  V30 469 C 48.9372 1.7612 0.691248 0
M  V30 470 O 48.2802 1.08491 1.48241 0
M  V30 471 C 48.3422 3.44284 -1.03484 0
M  V30 472 C 48.0062 3.84258 -2.47376 0
M  V30 473 C 49.0032 3.88459 -3.45537 0
M  V30 474 C 46.6882 4.15701 -2.81954 0
M  V30 475 C 48.6822 4.23545 -4.76328 0
M  V30 476 C 46.3692 4.50458 -4.12954 0
M  V30 477 C 47.3672 4.54356 -5.09951 0
M  V30 478 O 47.0552 4.88305 -6.38603 0
M  V30 479 H 46.7872 0.617527 -0.275021 0
M  V30 480 H 49.3412 1.51683 -1.38497 0
M  V30 481 H 47.5712 3.85135 -0.347513 0
M  V30 482 H 49.2602 3.99049 -0.7426 0
M  V30 483 H 50.0262 3.6431 -3.20162 0
M  V30 484 H 45.9052 4.11847 -2.0713 0
M  V30 485 H 49.4492 4.26502 -5.52035 0
M  V30 486 H 45.3462 4.74067 -4.38099 0
M  V30 487 H 46.1142 5.06227 -6.43177 0
M  V30 488 N 48.7773 0.814389 1.34928 0
M  V30 489 C 49.7273 0.202752 2.27097 0
M  V30 490 C 50.7113 -0.62799 1.48139 0
M  V30 491 O 51.9033 -0.483969 1.70255 0
M  V30 492 C 49.0323 -0.64146 3.37254 0
M  V30 493 C 48.1183 0.19944 4.23631 0
M  V30 494 N 48.5093 1.26628 4.89693 0
M  V30 495 C 46.8073 -0.0176433 4.45997 0
M  V30 496 C 47.5083 1.78031 5.53787 0
M  V30 497 N 46.4843 1.08553 5.32651 0
M  V30 498 H 50.2863 1.01893 2.75672 0
M  V30 499 H 47.8003 0.656332 1.48546 0
M  V30 500 H 49.7973 -1.09575 4.02243 0
M  V30 501 H 48.4573 -1.4559 2.9023 0
M  V30 502 H 49.4683 1.64901 4.90946 0
M  V30 503 H 46.1453 -0.800601 4.09752 0
M  V30 504 H 47.5353 2.67236 6.16469 0
M  V30 505 N 50.2554 -1.46986 0.568584 0
M  V30 506 C 51.1854 -2.32946 -0.160753 0
M  V30 507 C 52.1664 -1.44487 -0.897631 0
M  V30 508 O 53.3514 -1.73327 -0.875867 0
M  V30 509 C 50.4814 -3.26494 -1.18403 0
M  V30 510 C 49.4354 -4.24282 -0.562895 0
M  V30 511 C 48.7614 -5.07236 -1.69163 0
M  V30 512 C 50.0614 -5.19989 0.490761 0
M  V30 513 H 51.7554 -2.94175 0.556916 0
M  V30 514 H 49.3014 -1.4146 0.26927 0
M  V30 515 H 51.2544 -3.85477 -1.70251 0
M  V30 516 H 49.9784 -2.63343 -1.93179 0
M  V30 517 H 48.6374 -3.66541 -0.0656164 0
M  V30 518 H 48.2854 -4.4048 -2.42871 0
M  V30 519 H 47.9854 -5.7345 -1.28174 0
M  V30 520 H 49.5094 -5.6908 -2.21314 0
M  V30 521 H 50.9234 -5.73271 0.0579047 0
M  V30 522 H 49.3204 -5.94469 0.820165 0
M  V30 523 H 50.3904 -4.64777 1.3824 0
M  V30 524 N 51.7335 -0.305618 -1.54608 0
M  V30 525 C 52.9585 0.307562 -2.05107 0
M  V30 526 C 53.3835 1.46385 -1.18123 0
M  V30 527 O 52.7415 1.8034 -0.186324 0
M  V30 528 C 52.7895 0.73704 -3.52987 0
M  V30 529 O 51.8935 1.84134 -3.6901 0
M  V30 530 H 51.2345 0.0589143 -0.661381 0
M  V30 531 H 53.7645 -0.448807 -1.99617 0
M  V30 532 H 53.7745 1.02459 -3.94925 0
M  V30 533 H 52.4495 -0.108773 -4.15758 0
M  V30 534 H 51.0265 1.55398 -3.38978 0
M  V30 535 N 53.2116 1.57565 -0.0334293 0
M  V30 536 C 54.1586 2.10478 0.946981 0
M  V30 537 C 55.1286 1.00787 1.32027 0
M  V30 538 O 56.3136 1.28232 1.41284 0
M  V30 539 C 53.4536 2.63994 2.22263 0
M  V30 540 C 52.5666 3.87709 1.90541 0
M  V30 541 C 51.7016 4.29604 3.12433 0
M  V30 542 C 50.7406 5.46065 2.76549 0
M  V30 543 N 49.8776 5.83096 3.9108 0
M  V30 544 H 54.7176 2.93963 0.488846 0
M  V30 545 H 52.2546 1.45296 0.22969 0
M  V30 546 H 54.2126 2.93114 2.96884 0
M  V30 547 H 52.8426 1.83333 2.65685 0
M  V30 548 H 51.8946 3.65291 1.06144 0
M  V30 549 H 53.2066 4.72403 1.60116 0
M  V30 550 H 52.3606 4.60182 3.9537 0
M  V30 551 H 51.0996 3.43685 3.46023 0
M  V30 552 H 50.1046 5.15176 1.92026 0
M  V30 553 H 51.3296 6.33685 2.44171 0
M  V30 554 H 49.2756 5.00132 4.24504 0
M  V30 555 H 49.1926 6.6244 3.64293 0
M  V30 556 H 50.4606 6.18282 4.74708 0
M  V30 557 N 54.6897 -0.239769 1.55765 0
M  V30 558 C 55.6217 -1.32001 1.87372 0
M  V30 559 C 56.6347 -1.43944 0.760522 0
M  V30 560 O 57.8237 -1.45167 1.0387 0
M  V30 561 C 54.9237 -2.69779 2.05115 0
M  V30 562 C 54.0967 -2.80014 3.36022 0
M  V30 563 C 53.1557 -3.98684 3.4342 0
M  V30 564 O 52.1817 -3.87877 4.16582 0
M  V30 565 N 53.3837 -5.12176 2.73232 0
M  V30 566 H 56.1487 -1.0522 2.80622 0
M  V30 567 H 53.7097 -0.429857 1.56089 0
M  V30 568 H 55.7017 -3.47517 2.07399 0
M  V30 569 H 54.2717 -2.89237 1.18577 0
M  V30 570 H 53.4917 -1.88896 3.45994 0
M  V30 571 H 54.7797 -2.83808 4.22292 0
M  V30 572 H 54.1777 -5.2385 2.13536 0
M  V30 573 H 52.7347 -5.88022 2.81199 0
M  V30 574 N 56.1678 -1.49265 -0.50573 0
M  V30 575 C 57.0978 -1.68495 -1.61653 0
M  V30 576 C 58.0788 -0.53366 -1.61512 0
M  V30 577 O 59.2638 -0.76897 -1.78327 0
M  V30 578 C 56.3938 -1.74709 -3.00157 0
M  V30 579 C 55.3478 -2.89581 -3.15162 0
M  V30 580 C 54.6738 -2.80903 -4.5497 0
M  V30 581 C 55.9738 -4.30578 -2.95634 0
M  V30 582 H 57.6678 -2.61493 -1.45814 0
M  V30 583 H 55.2138 -1.25838 -0.70005 0
M  V30 584 H 57.1668 -1.86748 -3.77761 0
M  V30 585 H 55.8908 -0.783067 -3.17074 0
M  V30 586 H 54.5498 -2.77136 -2.39982 0
M  V30 587 H 54.1978 -1.82419 -4.68756 0
M  V30 588 H 53.8978 -3.57999 -4.65951 0
M  V30 589 H 55.4218 -2.94944 -5.34641 0
M  V30 590 H 56.8358 -4.4373 -3.63011 0
M  V30 591 H 55.2328 -5.0886 -3.18091 0
M  V30 592 H 56.3028 -4.45352 -1.91806 0
M  V30 593 N 57.6459 0.756429 -1.3826 0
M  V30 594 C 58.5759 1.88374 -1.37976 0
M  V30 595 C 59.5569 1.68311 -0.246082 0
M  V30 596 O 60.7419 1.88944 -0.44874 0
M  V30 597 C 57.8719 3.25864 -1.20125 0
M  V30 598 C 56.8259 3.60523 -2.30666 0
M  V30 599 C 56.1519 4.9672 -1.97923 0
M  V30 600 C 57.4519 3.65692 -3.72916 0
M  V30 601 H 59.1459 1.88869 -2.32312 0
M  V30 602 H 56.6919 0.907272 -1.11824 0
M  V30 603 H 58.6449 4.0438 -1.18552 0
M  V30 604 H 57.3689 3.25841 -0.222498 0
M  V30 605 H 56.0279 2.84324 -2.3142 0
M  V30 606 H 55.6759 4.93253 -0.985393 0
M  V30 607 H 55.3759 5.20878 -2.71955 0
M  V30 608 H 56.8999 5.77618 -1.97964 0
M  V30 609 H 58.3139 4.34328 -3.74208 0
M  V30 610 H 56.7109 4.01358 -4.4613 0
M  V30 611 H 57.7809 2.65987 -4.05436 0
M  V30 612 N 59.124 1.23083 0.984299 0
M  V30 613 C 60.056 0.96636 2.07832 0
M  V30 614 C 61.069 -0.0582135 1.62696 0
M  V30 615 O 62.258 0.176843 1.77622 0
M  V30 616 C 59.358 0.433397 3.36117 0
M  V30 617 C 58.531 1.51722 4.10243 0
M  V30 618 C 57.59 0.989821 5.16807 0
M  V30 619 O 56.616 1.67794 5.43906 0
M  V30 620 N 57.818 -0.184367 5.80207 0
M  V30 621 H 60.583 1.90824 2.31098 0
M  V30 622 H 58.144 1.13888 1.1507 0
M  V30 623 H 60.136 0.065699 4.04647 0
M  V30 624 H 58.706 -0.413806 3.09849 0
M  V30 625 H 57.926 2.05786 3.36223 0
M  V30 626 H 59.214 2.24619 4.56534 0
M  V30 627 H 58.612 -0.760062 5.60571 0
M  V30 628 H 57.169 -0.493366 6.4993 0
M  V30 629 N 60.6021 -1.18246 1.0419 0
M  V30 630 C 61.5491 -2.2192 0.634037 0
M  V30 631 C 62.5191 -1.62179 -0.358765 0
M  V30 632 O 63.7041 -1.89122 -0.252466 0
M  V30 633 C 60.8441 -3.451 0.00445535 0
M  V30 634 C 59.9571 -4.19174 1.04487 0
M  V30 635 C 59.0921 -5.29813 0.383676 0
M  V30 636 C 58.1311 -5.9566 1.4091 0
M  V30 637 N 57.2681 -6.97834 0.772784 0
M  V30 638 H 62.1081 -2.56164 1.52263 0
M  V30 639 H 59.6451 -1.25843 0.761701 0
M  V30 640 H 61.6031 -4.15485 -0.377919 0
M  V30 641 H 60.2331 -3.11472 -0.847652 0
M  V30 642 H 59.2851 -3.47604 1.54518 0
M  V30 643 H 60.5971 -4.64267 1.82368 0
M  V30 644 H 59.7511 -6.06677 -0.0528366 0
M  V30 645 H 58.4901 -4.85825 -0.427208 0
M  V30 646 H 57.4951 -5.17535 1.85574 0
M  V30 647 H 58.7201 -6.4173 2.22171 0
M  V30 648 H 56.6661 -6.55998 -0.0177708 0
M  V30 649 H 56.5831 -7.41186 1.48928 0
M  V30 650 H 57.8511 -7.78665 0.36071 0
M  V30 651 N 62.0802 -0.821533 -1.34494 0
M  V30 652 C 63.3102 -0.421272 -2.02259 0
M  V30 653 C 63.7182 0.977047 -1.6202 0
M  V30 654 O 63.0612 1.64348 -0.820703 0
M  V30 655 C 63.1232 -0.44231 -3.56769 0
M  V30 656 C 62.7872 -1.79372 -4.20327 0
M  V30 657 C 63.7842 -2.75435 -4.40944 0
M  V30 658 C 61.4692 -2.08182 -4.57127 0
M  V30 659 C 63.4632 -3.98482 -4.97484 0
M  V30 660 C 61.1502 -3.31489 -5.13379 0
M  V30 661 C 62.1482 -4.26457 -5.33501 0
M  V30 662 O 61.8362 -5.47585 -5.88562 0
M  V30 663 H 61.5682 -0.167473 -0.654927 0
M  V30 664 H 64.1222 -1.11073 -1.72777 0
M  V30 665 H 62.3522 0.303836 -3.85505 0
M  V30 666 H 64.0412 -0.0622925 -4.05852 0
M  V30 667 H 64.8072 -2.54473 -4.12878 0
M  V30 668 H 60.6862 -1.35066 -4.4077 0
M  V30 669 H 64.2302 -4.72618 -5.13106 0
M  V30 670 H 60.1272 -3.52316 -5.40873 0
M  V30 671 H 60.8952 -5.49086 -6.06998 0
M  V30 672 N 63.5583 1.46682 -0.576371 0
M  V30 673 C 64.5083 2.27278 0.181288 0
M  V30 674 C 65.4923 1.35497 0.867721 0
M  V30 675 O 66.6843 1.59717 0.762863 0
M  V30 676 C 63.8133 3.21703 1.19841 0
M  V30 677 C 62.8993 4.20969 0.51442 0
M  V30 678 N 63.2903 5.03999 -0.426407 0
M  V30 679 C 61.5883 4.39373 0.765963 0
M  V30 680 C 62.2893 5.75812 -0.825565 0
M  V30 681 N 61.2653 5.43315 -0.176116 0
M  V30 682 H 65.0673 2.88863 -0.541785 0
M  V30 683 H 62.5813 1.57455 -0.397697 0
M  V30 684 H 64.5783 3.78145 1.75533 0
M  V30 685 H 63.2383 2.61677 1.92238 0
M  V30 686 H 64.2493 5.11659 -0.8016 0
M  V30 687 H 60.9263 3.90502 1.47698 0
M  V30 688 H 62.3163 6.52577 -1.59976 0
M  V30 689 N 65.0364 0.313813 1.54444 0
M  V30 690 C 65.9834 -0.55655 2.23989 0
M  V30 691 C 66.9534 -1.11943 1.22711 0
M  V30 692 O 68.1384 -1.16158 1.51367 0
M  V30 693 C 65.2784 -1.71635 2.99392 0
M  V30 694 C 64.3914 -1.18364 4.15468 0
M  V30 695 C 63.5264 -2.30834 4.78424 0
M  V30 696 C 62.5654 -1.74762 5.86622 0
M  V30 697 N 61.7024 -2.80855 6.43479 0
M  V30 698 H 66.5424 0.0430893 2.97969 0
M  V30 699 H 64.0794 0.0330359 1.47063 0
M  V30 700 H 66.0374 -2.39868 3.41349 0
M  V30 701 H 64.6674 -2.28742 2.27765 0
M  V30 702 H 63.7194 -0.393163 3.78363 0
M  V30 703 H 65.0314 -0.733262 4.93381 0
M  V30 704 H 64.1854 -3.0699 5.23299 0
M  V30 705 H 62.9244 -2.79204 3.99871 0
M  V30 706 H 61.9294 -0.970995 5.41158 0
M  V30 707 H 63.1544 -1.2728 6.67066 0
M  V30 708 H 61.1004 -3.28535 5.67804 0
M  V30 709 H 61.0174 -2.40351 7.16776 0
M  V30 710 H 62.2854 -3.5687 6.93011 0
M  V30 711 N 66.5145 -1.57545 0.0417849 0
M  V30 712 C 67.4245 -2.14451 -0.951213 0
M  V30 713 C 68.4405 -1.09992 -1.34825 0
M  V30 714 O 69.6165 -1.42114 -1.42708 0
M  V30 715 C 66.6815 -2.67063 -2.21084 0
M  V30 716 C 65.7425 -3.86284 -1.87304 0
M  V30 717 C 64.9755 -4.36378 -3.07261 0
M  V30 718 O 65.1985 -3.85587 -4.20332 0
M  V30 719 O 64.1325 -5.28077 -2.88822 0
M  V30 720 H 67.9585 -2.99601 -0.497287 0
M  V30 721 H 65.5435 -1.48317 -0.179567 0
M  V30 722 H 67.4255 -3.00914 -2.95006 0
M  V30 723 H 66.1005 -1.84989 -2.65633 0
M  V30 724 H 65.0075 -3.57338 -1.10727 0
M  V30 725 H 66.3405 -4.6956 -1.47562 0
M  V30 726 N 67.9926 0.231505 -1.5589 0
M  V30 727 C 69.2386 0.95877 -1.78705 0
M  V30 728 C 69.5716 1.8438 -0.609725 0
M  V30 729 O 68.8466 1.90521 0.391426 0
M  V30 730 C 69.1296 1.8062 -3.11526 0
M  V30 731 C 68.9826 0.948328 -4.39689 0
M  V30 732 C 70.3016 2.78585 -3.40703 0
M  V30 733 H 67.4206 0.347129 -0.650131 0
M  V30 734 H 70.0626 0.228259 -1.88624 0
M  V30 735 H 68.2126 2.42902 -3.03201 0
M  V30 736 H 69.8846 0.343016 -4.60023 0
M  V30 737 H 68.1276 0.253314 -4.3306 0
M  V30 738 H 68.7986 1.57543 -5.29041 0
M  V30 739 H 71.2746 2.26439 -3.49091 0
M  V30 740 H 70.1506 3.34988 -4.34826 0
M  V30 741 H 70.4116 3.55825 -2.62375 0
M  V30 742 N 69.4707 1.49531 0.497807 0
M  V30 743 C 70.8867 1.36365 0.829266 0
M  V30 744 C 71.0867 0.399184 1.97506 0
M  V30 745 O 70.1427 -0.167977 2.51941 0
M  V30 746 C 71.4557 2.77153 1.16647 0
M  V30 747 C 73.0037 2.85877 1.27449 0
M  V30 748 C 73.4787 4.2744 1.64497 0
M  V30 749 N 74.9697 4.30265 1.7154 0
M  V30 750 C 75.7047 5.3677 2.01656 0
M  V30 751 N 75.2007 6.53516 2.29976 0
M  V30 752 N 76.9937 5.24189 2.02934 0
M  V30 753 H 69.1447 2.10831 -0.257703 0
M  V30 754 H 71.4077 0.946534 -0.0527091 0
M  V30 755 H 71.1137 3.49442 0.397872 0
M  V30 756 H 70.9877 3.12722 2.10915 0
M  V30 757 H 73.3747 2.13824 2.0338 0
M  V30 758 H 73.4557 2.53887 0.312244 0
M  V30 759 H 73.0997 5.00021 0.891151 0
M  V30 760 H 73.0297 4.56896 2.61827 0
M  V30 761 H 75.5207 3.4607 1.51802 0
M  V30 762 H 75.8337 7.30506 2.52153 0
M  V30 763 H 74.1787 6.56737 2.27425 0
M  V30 764 H 77.3697 4.31988 1.80289 0
M  V30 765 H 77.5427 6.07286 2.26071 0
M  V30 766 N 70.9488 -0.749086 1.3866 0
M  V30 767 C 72.3598 -1.32664 1.31366 0
M  V30 768 C 72.7108 -1.96179 -0.028484 0
M  V30 769 O 71.8358 -1.9537 -0.93057 0
M  V30 770 C 72.4308 -2.41219 2.37905 0
M  V30 771 C 70.9898 -2.94684 2.34176 0
M  V30 772 C 70.1368 -1.68108 2.20533 0
M  V30 773 H 73.0878 -0.547628 1.48952 0
M  V30 774 H 73.1088 -3.21268 2.0388 0
M  V30 775 H 72.6208 -1.94962 3.35576 0
M  V30 776 H 70.7218 -3.45258 1.401 0
M  V30 777 H 70.8348 -3.48757 3.2849 0
M  V30 778 H 69.1988 -1.91907 1.67463 0
M  V30 779 H 69.9818 -1.23923 3.20153 0
M  V30 780 N 72.4269 -1.23603 -0.977757 0
M  V30 781 C 73.6729 -1.07129 -1.72195 0
M  V30 782 C 74.0059 0.390501 -1.90233 0
M  V30 783 O 73.2809 1.28902 -1.45653 0
M  V30 784 C 73.5639 -1.80031 -3.11867 0
M  V30 785 C 73.4169 -3.33899 -3.01383 0
M  V30 786 C 74.7359 -1.56492 -4.11337 0
M  V30 787 H 71.8549 -0.390571 -0.624999 0
M  V30 788 H 74.4969 -1.52142 -1.13811 0
M  V30 789 H 72.6469 -1.41768 -3.6171 0
M  V30 790 H 74.3189 -3.81699 -2.59043 0
M  V30 791 H 72.5619 -3.62796 -2.37827 0
M  V30 792 H 73.2329 -3.801 -4.00285 0
M  V30 793 H 75.7089 -1.89757 -3.70313 0
M  V30 794 H 74.5849 -2.09973 -5.07151 0
M  V30 795 H 74.8459 -0.500874 -4.39254 0
M  V30 796 N 73.905 1.17692 -1.04816 0
M  V30 797 C 75.135 1.91508 -0.775128 0
M  V30 798 C 75.543 1.76844 0.67253 0
M  V30 799 O 74.886 1.10057 1.47082 0
M  V30 800 C 74.948 3.43167 -1.0713 0
M  V30 801 C 74.612 3.81612 -2.51438 0
M  V30 802 C 75.609 3.84772 -3.49638 0
M  V30 803 C 73.294 4.12687 -2.86348 0
M  V30 804 C 75.288 4.18469 -4.80794 0
M  V30 805 C 72.975 4.46053 -4.17708 0
M  V30 806 C 73.973 4.48921 -5.14741 0
M  V30 807 O 73.661 4.81504 -6.43746 0
M  V30 808 H 73.393 0.614575 -0.281555 0
M  V30 809 H 75.947 1.50206 -1.40098 0
M  V30 810 H 74.177 3.84745 -0.388342 0
M  V30 811 H 75.866 3.98239 -0.784883 0
M  V30 812 H 76.632 3.60893 -3.24008 0
M  V30 813 H 72.511 4.09627 -2.11486 0
M  V30 814 H 76.055 4.20623 -5.56527 0
M  V30 815 H 71.952 4.69393 -4.43103 0
M  V30 816 H 72.72 4.99377 -6.4851 0
M  V30 817 N 75.3831 0.828654 1.34056 0
M  V30 818 C 76.3311 0.242973 2.31327 0
M  V30 819 C 77.3251 -0.61944 1.57668 0
M  V30 820 O 78.5311 -0.51014 1.7262 0
M  V30 821 H 74.9061 0.059834 0.749616 0
M  V30 822 H 76.8771 1.07809 2.78244 0
M  V30 823 C 75.6261 -0.575733 3.429 0
M  V30 824 H 74.9491 0.0785582 3.99723 0
M  V30 825 H 76.3891 -0.951547 4.13185 0
M  V30 826 C 74.8481 -1.75044 2.87856 0
M  V30 827 O 75.3781 -2.84882 2.83205 0
M  V30 828 N 73.5841 -1.56903 2.44602 0
M  V30 829 H 73.1311 -0.675547 2.48584 0
M  V30 830 H 73.0891 -2.35652 2.08124 0
M  V30 831 N 76.8612 -1.46375 0.584142 0
M  V30 832 C 78.1072 -2.03248 0.0787103 0
M  V30 833 C 78.4622 -1.44737 -1.26763 0
M  V30 834 O 77.7552 -0.603625 -1.81843 0
M  V30 835 C 77.9492 -3.57373 -0.0439342 0
M  V30 836 C 77.7782 -4.30831 1.28897 0
M  V30 837 C 76.5482 -4.69683 1.8635 0
M  V30 838 C 78.7462 -4.64278 2.21248 0
M  V30 839 N 76.7282 -5.27898 3.13365 0
M  V30 840 C 78.0992 -5.23078 3.32851 0
M  V30 841 C 80.1542 -4.46209 2.20911 0
M  V30 842 C 78.8572 -5.65715 4.44251 0
M  V30 843 C 80.8832 -4.89864 3.31341 0
M  V30 844 C 80.2452 -5.48736 4.41665 0
M  V30 845 H 76.3442 -0.778714 0.0716144 0
M  V30 846 H 78.9282 -1.78509 0.777355 0
M  V30 847 H 77.0992 -3.81823 -0.711749 0
M  V30 848 H 78.8312 -4.00892 -0.553881 0
M  V30 849 H 75.5862 -4.52488 1.39826 0
M  V30 850 H 76.0102 -5.61525 3.78178 0
M  V30 851 H 80.6522 -4.00027 1.36888 0
M  V30 852 H 78.3702 -6.10875 5.29015 0
M  V30 853 H 81.9562 -4.77634 3.322 0
M  V30 854 H 80.8362 -5.81898 5.25704 0
M  V30 855 N 78.3393 -0.321999 -1.54275 0
M  V30 856 C 79.5673 0.283052 -2.04955 0
M  V30 857 C 79.9823 1.45904 -1.19823 0
M  V30 858 O 79.3393 1.81063 -0.228545 0
M  V30 859 C 79.3903 0.719028 -3.54277 0
M  V30 860 O 79.1113 -0.410175 -4.36176 0
M  V30 861 C 80.6123 1.38705 -4.21041 0
M  V30 862 H 77.8323 0.0584616 -0.668448 0
M  V30 863 H 80.3763 -0.467734 -1.99079 0
M  V30 864 H 78.5313 1.41979 -3.60445 0
M  V30 865 H 78.9453 -0.0669416 -5.24457 0
M  V30 866 H 80.4193 1.64306 -5.2698 0
M  V30 867 H 80.8963 2.33385 -3.72059 0
M  V30 868 H 81.5023 0.728906 -4.19007 0
M  V30 869 N 79.8174 1.5752 -0.0501392 0
M  V30 870 C 80.7644 2.1147 0.924603 0
M  V30 871 C 81.7344 1.02182 1.30951 0
M  V30 872 O 82.9194 1.29723 1.39916 0
M  V30 873 C 80.0594 2.66337 2.19451 0
M  V30 874 C 79.1724 3.89708 1.86418 0
M  V30 875 C 78.3074 4.32893 3.07859 0
M  V30 876 C 77.3464 5.48967 2.70742 0
M  V30 877 N 76.4834 5.87211 3.84874 0
M  V30 878 H 81.3234 2.94465 0.457639 0
M  V30 879 H 78.8604 1.45531 0.214266 0
M  V30 880 H 80.8184 2.96247 2.93758 0
M  V30 881 H 79.4484 1.86141 2.63726 0
M  V30 882 H 78.5004 3.66396 1.02264 0
M  V30 883 H 79.8124 4.74074 1.55096 0
M  V30 884 H 78.9664 4.6435 3.90466 0
M  V30 885 H 77.7054 3.47336 3.42358 0
M  V30 886 H 76.7104 5.17183 1.86551 0
M  V30 887 H 77.9354 6.3624 2.37436 0
M  V30 888 H 75.8814 5.04607 4.19175 0
M  V30 889 H 75.7984 6.66266 3.57247 0
M  V30 890 H 77.0664 6.23282 4.68123 0
M  V30 891 N 81.2955 -0.223234 1.56011 0
M  V30 892 C 82.2585 -1.26014 1.9145 0
M  V30 893 C 83.2585 -1.3989 0.792937 0
M  V30 894 O 84.4485 -1.38184 1.0607 0
M  V30 895 C 81.5805 -2.63422 2.16383 0
M  V30 896 H 82.7735 -0.95796 2.84189 0
M  V30 897 H 80.3265 -0.463576 1.49267 0
M  V30 898 H 81.0615 -2.98741 1.2619 0
M  V30 899 H 80.8465 -2.54728 2.98088 0
M  V30 900 H 82.3365 -3.38249 2.44903 0
M  V30 901 N 82.7736 -1.49793 -0.48987 0
M  V30 902 C 84.0016 -1.63568 -1.26701 0
M  V30 903 C 84.4166 -0.311465 -1.86213 0
M  V30 904 O 83.7736 0.704416 -1.68357 0
M  V30 905 C 83.8246 -2.71284 -2.38929 0
M  V30 906 O 83.5456 -3.9857 -1.81861 0
M  V30 907 C 85.0466 -2.95864 -3.3012 0
M  V30 908 H 82.2666 -0.550342 -0.383881 0
M  V30 909 H 84.8106 -1.95898 -0.586864 0
M  V30 910 H 82.9656 -2.417 -3.02753 0
M  V30 911 H 83.3796 -4.57993 -2.55622 0
M  V30 912 H 84.8536 -3.74941 -4.05121 0
M  V30 913 H 85.3306 -2.06206 -3.87783 0
M  V30 914 H 85.9366 -3.26907 -2.72051 0
M  V30 915 N 84.2517 0.741722 -1.39055 0
M  V30 916 C 85.4797 1.53098 -1.39171 0
M  V30 917 C 85.8947 1.88794 0.0155099 0
M  V30 918 O 85.2517 1.53626 0.985159 0
M  V30 919 C 85.3027 2.82274 -2.2584 0
M  V30 920 O 85.0237 2.48097 -3.61081 0
M  V30 921 C 86.5247 3.76343 -2.34266 0
M  V30 922 H 83.7447 0.473335 -0.4756 0
M  V30 923 H 86.2887 0.917045 -1.82785 0
M  V30 924 H 84.4437 3.40015 -1.85656 0
M  V30 925 H 84.8577 3.31029 -4.06842 0
M  V30 926 H 86.3317 4.63898 -2.9917 0
M  V30 927 H 86.8087 4.17619 -1.35982 0
M  V30 928 H 87.4147 3.24523 -2.74891 0
M  V30 929 N 85.7298 1.2412 0.971189 0
M  V30 930 C 86.9758 1.08041 1.71625 0
M  V30 931 C 87.3088 -0.380407 1.90438 0
M  V30 932 O 86.5838 -1.28127 1.46334 0
M  V30 933 C 86.8668 1.81682 3.10908 0
M  V30 934 C 86.7198 3.35493 2.99608 0
M  V30 935 C 88.0388 1.58671 4.10501 0
M  V30 936 H 85.1578 0.39388 0.622919 0
M  V30 937 H 87.7998 1.52743 1.13003 0
M  V30 938 H 85.9498 1.43684 3.60953 0
M  V30 939 H 87.6218 3.83068 2.57015 0
M  V30 940 H 85.8648 3.64052 2.35899 0
M  V30 941 H 86.5358 3.82217 3.98264 0
M  V30 942 H 89.0118 1.91719 3.69301 0
M  V30 943 H 87.8878 2.1266 5.06031 0
M  V30 944 H 88.1488 0.524161 4.38982 0
M  V30 945 N 87.2079 -1.17134 1.05439 0
M  V30 946 C 88.4379 -1.91094 0.785274 0
M  V30 947 C 88.8459 -1.77198 -0.663142 0
M  V30 948 O 88.1889 -1.10835 -1.46497 0
M  V30 949 C 88.2509 -3.42594 1.08949 0
M  V30 950 C 87.9149 -3.80274 2.53458 0
M  V30 951 C 88.9119 -3.82912 3.51673 0
M  V30 952 C 86.5969 -4.11162 2.88532 0
M  V30 953 C 88.5909 -4.15913 4.83006 0
M  V30 954 C 86.2779 -4.43831 4.20068 0
M  V30 955 C 87.2759 -4.46185 5.17115 0
M  V30 956 O 86.9639 -4.78083 6.46291 0
M  V30 957 H 86.6959 -0.613073 0.284811 0
M  V30 958 H 89.2499 -1.49461 1.40893 0
M  V30 959 H 87.4799 -3.84534 0.408741 0
M  V30 960 H 89.1689 -3.97817 0.805991 0
M  V30 961 H 89.9349 -3.5917 3.25917 0
M  V30 962 H 85.8139 -4.085 2.13656 0
M  V30 963 H 89.3579 -4.17665 5.5875 0
M  V30 964 H 85.2549 -4.67037 4.45586 0
M  V30 965 H 86.0229 -4.9593 6.51149 0
M  V30 966 N 88.686 -0.835752 -1.33615 0
M  V30 967 C 89.616 -0.281739 -2.31794 0
M  V30 968 C 90.597 0.608833 -1.58831 0
M  V30 969 O 91.782 0.533035 -1.86741 0
M  V30 970 C 88.912 0.546612 -3.42971 0
M  V30 971 C 87.866 -0.247904 -4.27281 0
M  V30 972 C 87.192 0.704001 -5.30045 0
M  V30 973 C 88.492 -1.46324 -5.01385 0
M  V30 974 H 90.186 -1.10206 -2.78379 0
M  V30 975 H 87.732 -0.531388 -1.33837 0
M  V30 976 H 89.685 0.944467 -4.1068 0
M  V30 977 H 88.409 1.40011 -2.95067 0
M  V30 978 H 87.068 -0.627281 -3.61194 0
M  V30 979 H 86.716 1.55381 -4.78399 0
M  V30 980 H 86.416 0.176524 -5.87335 0
M  V30 981 H 87.94 1.09944 -6.0062 0
M  V30 982 H 89.354 -1.13871 -5.61877 0
M  V30 983 H 87.751 -1.92728 -5.6831 0
M  V30 984 H 88.821 -2.23467 -4.30338 0
M  V30 985 N 90.1641 1.46063 -0.591896 0
M  V30 986 C 91.4411 1.95595 -0.0137119 0
M  V30 987 C 91.8211 1.5345 1.4497 0
M  V30 988 O 91.1691 0.789543 2.14426 0
M  V30 989 C 91.3791 3.48453 -0.195373 0
M  V30 990 C 92.7271 4.24546 -0.0679765 0
M  V30 991 O 93.7511 3.55982 -0.124681 0
M  V30 992 O 92.6101 5.46467 0.0600579 0
M  V30 993 H 89.7041 0.825795 0.0446279 0
M  V30 994 H 92.2501 1.56303 -0.660859 0
M  V30 995 H 91.0221 3.72045 -1.21235 0
M  V30 996 H 90.6451 3.94597 0.487775 0
M  V30 997 N 91.6422 0.330177 1.54103 0
M  V30 998 C 92.5722 -0.525353 2.27513 0
M  V30 999 C 93.5532 -1.11383 1.2856 0
M  V30 1000 O 94.7382 -1.13773 1.57383 0
M  V30 1001 C 91.8682 -1.6831 3.03791 0
M  V30 1002 C 90.8222 -1.2236 4.10137 0
M  V30 1003 C 90.1482 -2.46882 4.74293 0
M  V30 1004 C 91.4482 -0.333697 5.21233 0
M  V30 1005 H 93.1422 0.087013 2.99274 0
M  V30 1006 H 90.6882 0.0432893 1.43935 0
M  V30 1007 H 92.6412 -2.28795 3.5388 0
M  V30 1008 H 91.3652 -2.32216 2.29659 0
M  V30 1009 H 90.0242 -0.64165 3.60941 0
M  V30 1010 H 89.6722 -3.09165 3.96769 0
M  V30 1011 H 89.3722 -2.16825 5.46133 0
M  V30 1012 H 90.8962 -3.08117 5.27159 0
M  V30 1013 H 92.3102 -0.845013 5.67038 0
M  V30 1014 H 90.7072 -0.125612 5.99969 0
M  V30 1015 H 91.7772 0.633724 4.80741 0
M  V30 1016 N 93.1203 -1.57491 0.0584922 0
M  V30 1017 C 94.3673 -1.92978 -0.613648 0
M  V30 1018 C 94.6953 -0.937461 -1.70417 0
M  V30 1019 O 93.9503 0.049078 -1.95638 0
M  V30 1020 C 94.2493 -3.3513 -1.24188 0
M  V30 1021 C 93.9153 -4.50037 -0.278826 0
M  V30 1022 C 92.5773 -4.81198 -0.0138447 0
M  V30 1023 C 94.9293 -5.19807 0.380777 0
M  V30 1024 C 92.2573 -5.79473 0.918052 0
M  V30 1025 C 94.6093 -6.19079 1.30091 0
M  V30 1026 C 93.2733 -6.48665 1.57449 0
M  V30 1027 H 92.5433 -0.706157 -0.22455 0
M  V30 1028 H 95.1903 -1.91082 0.126533 0
M  V30 1029 H 93.4953 -3.33429 -2.05749 0
M  V30 1030 H 95.1923 -3.59871 -1.769 0
M  V30 1031 H 91.7823 -4.25726 -0.495539 0
M  V30 1032 H 95.9663 -4.95939 0.189158 0
M  V30 1033 H 91.2223 -6.00727 1.1374 0
M  V30 1034 H 95.3963 -6.7225 1.81804 0
M  V30 1035 H 93.0233 -7.24628 2.29822 0
M  V30 1036 N 94.5984 0.214957 -1.56127 0
M  V30 1037 C 95.8444 0.939762 -1.79712 0
M  V30 1038 C 96.1774 1.83723 -0.629247 0
M  V30 1039 O 95.4524 1.90925 0.371197 0
M  V30 1040 C 95.7354 1.77306 -3.13424 0
M  V30 1041 C 95.5884 0.90164 -4.40671 0
M  V30 1042 C 96.9074 2.74956 -3.43638 0
M  V30 1043 H 94.0264 0.340214 -0.653776 0
M  V30 1044 H 96.6684 0.20824 -1.88855 0
M  V30 1045 H 94.8184 2.39673 -3.0576 0
M  V30 1046 H 96.4904 0.294206 -4.60361 0
M  V30 1047 H 94.7334 0.207368 -4.33304 0
M  V30 1048 H 95.4044 1.51923 -5.30682 0
M  V30 1049 H 97.8804 2.22724 -3.51473 0
M  V30 1050 H 96.7564 3.30358 -4.38355 0
M  V30 1051 H 97.0174 3.53023 -2.66134 0
M  V30 1052 N 96.0765 1.50051 0.48192 0
M  V30 1053 C 97.0265 1.64512 1.5786 0
M  V30 1054 C 98.0105 0.500073 1.52932 0
M  V30 1055 O 99.2025 0.753964 1.60139 0
M  V30 1056 C 96.3315 1.73263 2.9637 0
M  V30 1057 C 95.4175 2.93409 3.06222 0
M  V30 1058 N 95.8085 4.17236 2.85915 0
M  V30 1059 C 94.1065 2.91742 3.37346 0
M  V30 1060 C 94.8075 4.981 3.00451 0
M  V30 1061 N 93.7835 4.3184 3.30174 0
M  V30 1062 H 97.5855 2.57955 1.40842 0
M  V30 1063 H 95.0995 1.47086 0.688439 0
M  V30 1064 H 97.0965 1.81724 3.75209 0
M  V30 1065 H 95.7565 0.809711 3.14442 0
M  V30 1066 H 96.7675 4.46909 2.6171 0
M  V30 1067 H 93.4445 2.08907 3.61475 0
M  V30 1068 H 94.8345 6.06532 2.89082 0
M  V30 1069 N 97.5546 -0.734337 1.39446 0
M  V30 1070 C 98.5176 -1.83004 1.37994 0
M  V30 1071 C 99.5176 -1.58397 0.276938 0
M  V30 1072 O 100.708 -1.65785 0.534875 0
M  V30 1073 C 97.8396 -3.20802 1.1532 0
M  V30 1074 H 99.0326 -1.85694 2.35494 0
M  V30 1075 H 96.5856 -0.938059 1.25021 0
M  V30 1076 H 97.3206 -3.23772 0.185036 0
M  V30 1077 H 97.1056 -3.4006 1.95197 0
M  V30 1078 H 98.5956 -4.00862 1.17046 0
M  V30 1079 N 99.0327 -1.24633 -0.964593 0
M  V30 1080 C 100.282 -1.08188 -1.7023 0
M  V30 1081 C 100.595 0.37873 -1.91898 0
M  V30 1082 O 101.801 0.663427 -2.6327 0
M  V30 1083 C 100.257 -1.88773 -3.06419 0
M  V30 1084 C 99.8647 -3.39263 -2.92582 0
M  V30 1085 C 101.609 -1.80867 -3.84041 0
M  V30 1086 C 99.5157 -4.1218 -4.24101 0
M  V30 1087 H 98.4457 -0.401245 -0.638372 0
M  V30 1088 H 101.097 -1.48742 -1.07462 0
M  V30 1089 H 99.4787 -1.41035 -3.70034 0
M  V30 1090 H 100.653 -3.94603 -2.37961 0
M  V30 1091 H 98.9677 -3.48154 -2.28424 0
M  V30 1092 H 101.565 -2.32646 -4.81435 0
M  V30 1093 H 101.908 -0.774543 -4.09031 0
M  V30 1094 H 102.441 -2.26301 -3.27159 0
M  V30 1095 H 99.1797 -5.15965 -4.04303 0
M  V30 1096 H 98.6997 -3.61626 -4.78526 0
M  V30 1097 H 100.379 -4.19349 -4.92702 0
M  V30 1098 N 100.511 1.16574 -1.06058 0
M  V30 1099 C 101.441 2.23057 -0.690488 0
M  V30 1100 C 102.422 1.67141 0.315901 0
M  V30 1101 O 103.607 1.93253 0.191556 0
M  V30 1102 C 100.737 3.47222 -0.073625 0
M  V30 1103 C 99.6908 4.16016 -1.00573 0
M  V30 1104 C 99.0168 5.34104 -0.252289 0
M  V30 1105 C 100.317 4.67264 -2.33371 0
M  V30 1106 H 102.011 2.54271 -1.58072 0
M  V30 1107 H 99.5568 1.22218 -0.76149 0
M  V30 1108 H 101.51 4.20939 0.19714 0
M  V30 1109 H 100.234 3.15302 0.85161 0
M  V30 1110 H 98.8928 3.44223 -1.2612 0
M  V30 1111 H 98.5408 4.98437 0.675988 0
M  V30 1112 H 98.2408 5.81072 -0.873455 0
M  V30 1113 H 99.7648 6.10599 0.0109857 0
M  V30 1114 H 101.179 5.32573 -2.12223 0
M  V30 1115 H 99.5758 5.24843 -2.90963 0
M  V30 1116 H 100.646 3.83602 -2.96611 0
M  V30 1117 N 101.989 0.842826 1.3317 0
M  V30 1118 C 103.266 0.362216 1.92217 0
M  V30 1119 C 103.646 -1.15289 1.76838 0
M  V30 1120 O 102.994 -1.96914 1.15919 0
M  V30 1121 C 103.204 0.813495 3.39387 0
M  V30 1122 C 104.552 0.823804 4.16532 0
M  V30 1123 O 105.576 0.757358 3.48055 0
M  V30 1124 O 104.435 0.915193 5.38782 0
M  V30 1125 H 101.529 0.103317 0.820521 0
M  V30 1126 H 104.075 0.928942 1.42017 0
M  V30 1127 H 102.847 1.85624 3.4447 0
M  V30 1128 H 102.47 0.223561 3.96971 0
M  V30 1129 N 103.467 -1.45747 0.599634 0
M  V30 1130 C 104.713 -2.02592 0.0918643 0
M  V30 1131 C 105.046 -1.46806 -1.27128 0
M  V30 1132 O 104.321 -0.639658 -1.83681 0
M  V30 1133 C 104.604 -3.60073 0.0443398 0
M  V30 1134 C 104.457 -4.26208 1.43759 0
M  V30 1135 C 105.776 -4.35309 -0.647608 0
M  V30 1136 H 102.895 -0.736175 0.034857 0
M  V30 1137 H 105.537 -1.73694 0.770081 0
M  V30 1138 H 103.687 -3.84823 -0.533224 0
M  V30 1139 H 105.359 -4.12668 2.06162 0
M  V30 1140 H 103.602 -3.84916 2.00056 0
M  V30 1141 H 104.273 -5.35069 1.35665 0
M  V30 1142 H 106.749 -4.15805 -0.156776 0
M  V30 1143 H 105.625 -5.45038 -0.649942 0
M  V30 1144 H 105.886 -4.07598 -1.71219 0
M  V30 1145 N 104.945 -0.338344 -1.53925 0
M  V30 1146 C 106.222 0.314774 -1.93051 0
M  V30 1147 C 106.602 1.68669 -1.26941 0
M  V30 1148 O 105.95 2.24636 -0.418445 0
M  V30 1149 C 106.16 0.392249 -3.46789 0
M  V30 1150 C 107.508 0.645554 -4.19664 0
M  V30 1151 O 108.532 0.474575 -3.53024 0
M  V30 1152 O 107.391 0.976408 -5.37707 0
M  V30 1153 H 104.485 0.182598 -0.80659 0
M  V30 1154 H 107.031 -0.389141 -1.65178 0
M  V30 1155 H 105.803 -0.570702 -3.87116 0
M  V30 1156 H 105.426 1.14316 -3.80812 0
M  V30 1157 N 106.423 1.57458 -0.0668435 0
M  V30 1158 C 107.386 2.11323 0.887422 0
M  V30 1159 C 108.386 1.03618 1.22964 0
M  V30 1160 O 109.576 1.29626 1.16373 0
M  V30 1161 C 106.708 2.61048 2.19242 0
M  V30 1162 H 107.901 2.96942 0.420194 0
M  V30 1163 H 105.454 1.55239 0.181793 0
M  V30 1164 H 106.189 1.78868 2.70512 0
M  V30 1165 H 105.974 3.39769 1.95702 0
M  V30 1166 H 107.464 3.02814 2.87565 0
M  V30 1167 N 107.901 -0.206675 1.56239 0
M  V30 1168 C 108.811 -1.27686 1.96808 0
M  V30 1169 C 109.827 -1.50455 0.874035 0
M  V30 1170 O 111.003 -1.63295 1.17884 0
M  V30 1171 C 108.068 -2.60358 2.28942 0
M  V30 1172 C 107.129 -2.45762 3.51994 0
M  V30 1173 C 106.362 -3.72108 3.82585 0
M  V30 1174 O 106.585 -4.75776 3.14631 0
M  V30 1175 O 105.519 -3.6833 4.76043 0
M  V30 1176 H 109.345 -0.962593 2.88041 0
M  V30 1177 H 106.93 -0.410746 1.43643 0
M  V30 1178 H 108.812 -3.38687 2.50737 0
M  V30 1179 H 107.487 -2.91435 1.4088 0
M  V30 1180 H 106.394 -1.65584 3.35459 0
M  V30 1181 H 107.727 -2.19621 4.40486 0
M  V30 1182 N 109.379 -1.50304 -0.473955 0
M  V30 1183 C 110.327 -1.69482 -1.59307 0
M  V30 1184 C 111.321 -0.560669 -1.59853 0
M  V30 1185 O 112.527 -0.741087 -1.64036 0
M  V30 1186 H 108.902 -0.534892 -0.528578 0
M  V30 1187 H 110.873 -2.63364 -1.40293 0
M  V30 1188 C 109.622 -1.80354 -2.97267 0
M  V30 1189 H 108.945 -2.67012 -2.97564 0
M  V30 1190 H 110.385 -1.97798 -3.75036 0
M  V30 1191 C 108.844 -0.55448 -3.32306 0
M  V30 1192 O 109.374 0.307661 -4.0052 0
M  V30 1193 N 107.58 -0.409354 -2.87702 0
M  V30 1194 H 107.127 -1.11196 -2.32364 0
M  V30 1195 H 107.085 0.425223 -3.11511 0
M  V30 1196 N 110.857 0.726932 -1.39834 0
M  V30 1197 C 111.789 1.85147 -1.35104 0
M  V30 1198 C 112.802 1.60736 -0.258392 0
M  V30 1199 O 113.991 1.70821 -0.517931 0
M  V30 1200 C 111.091 3.21332 -1.07697 0
M  V30 1201 C 110.264 3.73033 -2.28396 0
M  V30 1202 C 109.323 4.87802 -1.97322 0
M  V30 1203 O 108.349 5.01043 -2.70083 0
M  V30 1204 N 109.551 5.72768 -0.944273 0
M  V30 1205 H 112.316 1.89706 -2.32017 0
M  V30 1206 H 109.877 0.908006 -1.3404 0
M  V30 1207 H 111.869 3.95691 -0.849144 0
M  V30 1208 H 110.439 3.11992 -0.194909 0
M  V30 1209 H 109.659 2.89934 -2.6708 0
M  V30 1210 H 110.947 4.0431 -3.08887 0
M  V30 1211 H 110.345 5.64669 -0.341427 0
M  V30 1212 H 108.902 6.4716 -0.776346 0
M  V30 1213 N 112.336 1.25143 0.95797 0
M  V30 1214 C 113.585 1.0909 1.69654 0
M  V30 1215 C 113.898 -0.368548 1.92097 0
M  V30 1216 O 115.104 -0.649455 2.63618 0
M  V30 1217 C 113.56 1.90395 3.05414 0
M  V30 1218 C 113.168 3.4081 2.90779 0
M  V30 1219 C 114.912 1.82901 3.83076 0
M  V30 1220 C 112.819 4.14423 4.21909 0
M  V30 1221 H 111.749 0.404625 0.636235 0
M  V30 1222 H 114.4 1.4931 1.06672 0
M  V30 1223 H 112.782 1.42996 3.69281 0
M  V30 1224 H 113.956 3.95859 2.35865 0
M  V30 1225 H 112.271 3.49361 2.26575 0
M  V30 1226 H 114.868 2.35196 4.80195 0
M  V30 1227 H 115.211 0.796224 4.08615 0
M  V30 1228 H 115.744 2.28033 3.25954 0
M  V30 1229 H 112.483 5.18102 4.01561 0
M  V30 1230 H 112.003 3.64159 4.76601 0
M  V30 1231 H 113.682 4.21956 4.90471 0
M  V30 1232 N 113.814 -1.1601 1.06675 0
M  V30 1233 C 114.744 -2.22688 0.702307 0
M  V30 1234 C 115.725 -1.67306 -0.307032 0
M  V30 1235 O 116.91 -1.93352 -0.181305 0
M  V30 1236 C 114.04 -3.47178 0.092038 0
M  V30 1237 C 112.994 -4.15477 1.02777 0
M  V30 1238 C 112.32 -5.33963 0.28061 0
M  V30 1239 C 113.62 -4.66019 2.35846 0
M  V30 1240 H 115.314 -2.53429 1.59419 0
M  V30 1241 H 112.86 -1.21813 0.767961 0
M  V30 1242 H 114.813 -4.21037 -0.174814 0
M  V30 1243 H 113.537 -3.15749 -0.834877 0
M  V30 1244 H 112.196 -3.43549 1.27944 0
M  V30 1245 H 111.844 -4.98788 -0.649545 0
M  V30 1246 H 111.544 -5.806 0.904258 0
M  V30 1247 H 113.068 -6.10596 0.021396 0
M  V30 1248 H 114.482 -5.3144 2.15045 0
M  V30 1249 H 112.879 -5.23293 2.93743 0
M  V30 1250 H 113.949 -3.82023 2.98641 0
M  V30 1251 N 115.292 -0.849877 -1.32721 0
M  V30 1252 C 116.239 -0.289033 -2.28983 0
M  V30 1253 C 117.209 0.601324 -1.54833 0
M  V30 1254 O 118.394 0.537253 -1.8308 0
M  V30 1255 C 115.534 0.520623 -3.4115 0
M  V30 1256 C 114.647 -0.394989 -4.3019 0
M  V30 1257 C 113.782 0.426834 -5.29482 0
M  V30 1258 C 112.821 -0.486476 -6.10164 0
M  V30 1259 N 111.958 0.297879 -7.01468 0
M  V30 1260 H 116.798 -1.11519 -2.76347 0
M  V30 1261 H 114.335 -0.56138 -1.35967 0
M  V30 1262 H 116.293 1.00563 -4.04899 0
M  V30 1263 H 114.923 1.31165 -2.9495 0
M  V30 1264 H 113.975 -0.99836 -3.67065 0
M  V30 1265 H 115.287 -1.09612 -4.86607 0
M  V30 1266 H 114.441 0.975205 -5.98811 0
M  V30 1267 H 113.18 1.16136 -4.73671 0
M  V30 1268 H 112.185 -1.04677 -5.39743 0
M  V30 1269 H 113.41 -1.21953 -6.6806 0
M  V30 1270 H 111.356 1.01558 -6.48091 0
M  V30 1271 H 111.273 -0.344318 -7.55216 0
M  V30 1272 H 112.541 0.828131 -7.75089 0
M  V30 1273 N 116.77 1.45427 -0.607355 0
M  V30 1274 C 117.998 2.06614 -0.108814 0
M  V30 1275 C 118.413 1.45204 1.2067 0
M  V30 1276 O 117.77 0.566132 1.73497 0
M  V30 1277 C 117.821 3.61481 0.0375347 0
M  V30 1278 O 117.542 4.20598 -1.22593 0
M  V30 1279 C 119.043 4.39652 0.567561 0
M  V30 1280 H 116.263 0.66747 -0.0687351 0
M  V30 1281 H 118.807 1.86675 -0.835022 0
M  V30 1282 H 116.962 3.80762 0.714068 0
M  V30 1283 H 117.376 5.1377 -1.05547 0
M  V30 1284 H 118.85 5.48518 0.61905 0
M  V30 1285 H 119.327 4.09417 1.58978 0
M  V30 1286 H 119.933 4.25234 -0.0749202 0
M  V30 1287 N 118.248 0.346503 1.53744 0
M  V30 1288 C 119.473 -0.253074 2.0585 0
M  V30 1289 C 119.898 -1.43202 1.21962 0
M  V30 1290 O 119.256 -1.79783 0.234073 0
M  V30 1291 C 119.304 -0.643193 3.54817 0
M  V30 1292 O 118.408 -1.74286 3.73762 0
M  V30 1293 H 117.749 -0.0413583 0.662711 0
M  V30 1294 H 120.279 0.501574 1.98357 0
M  V30 1295 H 120.289 -0.919526 3.97503 0
M  V30 1296 H 118.964 0.218966 4.15323 0
M  V30 1297 H 117.541 -1.46356 3.42979 0
M  V30 1298 N 119.726 -1.57421 0.075193 0
M  V30 1299 C 120.972 -1.93905 -0.594025 0
M  V30 1300 C 121.305 -0.955701 -1.69056 0
M  V30 1301 O 120.58 0.0145373 -1.94495 0
M  V30 1302 C 120.863 -3.40638 -1.1678 0
M  V30 1303 C 120.716 -4.49733 -0.0776792 0
M  V30 1304 C 122.035 -3.88259 -2.07228 0
M  V30 1305 H 119.154 -0.705105 -0.214466 0
M  V30 1306 H 121.796 -1.8947 0.141854 0
M  V30 1307 H 119.946 -3.44549 -1.79494 0
M  V30 1308 H 121.618 -4.57942 0.555573 0
M  V30 1309 H 119.861 -4.29751 0.591286 0
M  V30 1310 H 120.532 -5.49549 -0.519603 0
M  V30 1311 H 123.008 -3.86376 -1.54445 0
M  V30 1312 H 121.884 -4.91533 -2.44308 0
M  V30 1313 H 122.145 -3.26396 -2.98191 0
M  V30 1314 N 121.204 0.198386 -1.56346 0
M  V30 1315 C 122.45 0.916115 -1.81601 0
M  V30 1316 C 122.805 1.81025 -0.651744 0
M  V30 1317 O 122.098 1.88316 0.353229 0
M  V30 1318 C 122.292 1.77031 -3.10475 0
M  V30 1319 C 122.121 0.960365 -4.39326 0
M  V30 1320 C 120.891 0.646093 -5.01152 0
M  V30 1321 C 123.089 0.314628 -5.13337 0
M  V30 1322 N 121.071 -0.182828 -6.13628 0
M  V30 1323 C 122.442 -0.37664 -6.18855 0
M  V30 1324 C 124.497 0.230019 -4.97368 0
M  V30 1325 C 123.2 -1.14445 -7.10137 0
M  V30 1326 C 125.226 -0.524389 -5.89071 0
M  V30 1327 C 124.588 -1.20412 -6.94032 0
M  V30 1328 H 120.687 0.314732 -0.715868 0
M  V30 1329 H 123.271 0.185102 -1.93818 0
M  V30 1330 H 121.442 2.47295 -2.99499 0
M  V30 1331 H 123.174 2.42727 -3.2383 0
M  V30 1332 H 119.929 0.969724 -4.63566 0
M  V30 1333 H 120.353 -0.586802 -6.74452 0
M  V30 1334 H 124.995 0.741184 -4.16253 0
M  V30 1335 H 122.713 -1.66706 -7.90718 0
M  V30 1336 H 126.299 -0.591167 -5.78789 0
M  V30 1337 H 125.179 -1.77853 -7.63766 0
M  V30 1338 N 122.682 1.50554 0.465978 0
M  V30 1339 C 123.912 1.65323 1.23903 0
M  V30 1340 C 124.32 0.338051 1.86155 0
M  V30 1341 O 123.663 -0.690518 1.70228 0
M  V30 1342 C 123.725 2.69048 2.3844 0
M  V30 1343 C 123.389 4.12462 1.96784 0
M  V30 1344 C 124.386 4.98168 1.48745 0
M  V30 1345 C 122.071 4.58407 2.05349 0
M  V30 1346 C 124.065 6.27868 1.0982 0
M  V30 1347 C 121.752 5.88112 1.66035 0
M  V30 1348 C 122.75 6.72668 1.18349 0
M  V30 1349 O 122.438 7.99951 0.795825 0
M  V30 1350 H 122.17 0.558629 0.38067 0
M  V30 1351 H 124.724 1.97561 0.562022 0
M  V30 1352 H 122.954 2.32062 3.09328 0
M  V30 1353 H 124.643 2.72985 3.0039 0
M  V30 1354 H 125.409 4.63885 1.41546 0
M  V30 1355 H 121.288 3.92735 2.41414 0
M  V30 1356 H 124.832 6.93819 0.725293 0
M  V30 1357 H 120.729 6.21914 1.72895 0
M  V30 1358 H 121.497 8.13265 0.924222 0
M  V30 1359 N 124.16 -0.719506 1.40217 0
M  V30 1360 C 125.092 -1.84428 1.36084 0
M  V30 1361 C 126.105 -1.60597 0.266913 0
M  V30 1362 O 127.294 -1.70544 0.526983 0
M  V30 1363 C 124.394 -3.20757 1.094 0
M  V30 1364 C 123.567 -3.71817 2.30372 0
M  V30 1365 C 122.626 -4.86748 1.99907 0
M  V30 1366 O 121.652 -4.99603 2.72737 0
M  V30 1367 N 122.854 -5.7226 0.974635 0
M  V30 1368 H 125.619 -1.88473 2.33019 0
M  V30 1369 H 123.18 -0.900885 1.3452 0
M  V30 1370 H 125.172 -3.95235 0.870116 0
M  V30 1371 H 123.742 -3.11884 0.211452 0
M  V30 1372 H 122.962 -2.88514 2.68614 0
M  V30 1373 H 124.25 -4.02666 3.11026 0
M  V30 1374 H 123.648 -5.6448 0.371368 0
M  V30 1375 H 122.205 -6.46739 0.810656 0
M  V30 1376 N 125.638 -1.25649 -0.95132 0
M  V30 1377 C 126.548 -1.08073 -2.08224 0
M  V30 1378 C 127.564 -0.0169666 -1.73992 0
M  V30 1379 O 128.74 -0.218593 -2.0021 0
M  V30 1380 C 125.805 -0.704922 -3.39458 0
M  V30 1381 C 124.866 -1.84699 -3.87537 0
M  V30 1382 C 124.099 -1.48902 -5.12508 0
M  V30 1383 O 124.322 -0.386156 -5.69091 0
M  V30 1384 O 123.256 -2.32033 -5.55378 0
M  V30 1385 H 127.082 -2.02924 -2.25954 0
M  V30 1386 H 124.667 -1.04618 -1.06656 0
M  V30 1387 H 126.549 -0.507609 -4.18332 0
M  V30 1388 H 125.224 0.214291 -3.2299 0
M  V30 1389 H 124.131 -2.09919 -3.09653 0
M  V30 1390 H 125.464 -2.74557 -4.08509 0
M  V30 1391 N 127.117 1.15442 -1.07289 0
M  V30 1392 C 128.363 1.86489 -0.796846 0
M  V30 1393 C 128.696 1.82078 0.675371 0
M  V30 1394 O 127.971 1.24346 1.4956 0
M  V30 1395 C 128.254 3.35626 -1.30489 0
M  V30 1396 C 128.107 3.48673 -2.84161 0
M  V30 1397 C 129.426 4.30357 -0.920907 0
M  V30 1398 H 126.545 0.677144 -0.290939 0
M  V30 1399 H 129.187 1.35633 -1.33056 0
M  V30 1400 H 127.337 3.79068 -0.850883 0
M  V30 1401 H 129.009 3.14099 -3.37846 0
M  V30 1402 H 127.252 2.90253 -3.22391 0
M  V30 1403 H 127.923 4.53453 -3.14777 0
M  V30 1404 H 130.399 3.94871 -1.3121 0
M  V30 1405 H 129.275 5.33193 -1.30372 0
M  V30 1406 H 129.536 4.4176 0.173226 0
M  V30 1407 N 128.595 0.856903 1.32268 0
M  V30 1408 C 129.841 0.471355 1.97863 0
M  V30 1409 C 130.196 -0.962896 1.66572 0
M  V30 1410 O 129.489 -1.66686 0.944797 0
M  V30 1411 C 129.683 0.649919 3.51441 0
M  V30 1412 C 129.512 2.09997 3.97657 0
M  V30 1413 C 128.282 2.73893 4.2463 0
M  V30 1414 C 130.48 3.07081 4.1256 0
M  V30 1415 N 128.462 4.09786 4.57109 0
M  V30 1416 C 129.833 4.27968 4.48602 0
M  V30 1417 C 131.888 3.03247 3.949 0
M  V30 1418 C 130.591 5.45521 4.68827 0
M  V30 1419 C 132.617 4.20046 4.16311 0
M  V30 1420 C 131.979 5.39692 4.52672 0
M  V30 1421 H 128.078 0.221263 0.750044 0
M  V30 1422 H 130.662 1.10876 1.60045 0
M  V30 1423 H 128.833 0.0421938 3.88377 0
M  V30 1424 H 130.565 0.234044 4.04023 0
M  V30 1425 H 127.32 2.24918 4.16784 0
M  V30 1426 H 127.744 4.7989 4.7753 0
M  V30 1427 H 132.386 2.11863 3.65888 0
M  V30 1428 H 130.104 6.37434 4.96693 0
M  V30 1429 H 133.69 4.18517 4.04147 0
M  V30 1430 H 132.57 6.28566 4.68907 0
M  V30 1431 N 130.073 -1.45103 0.615059 0
M  V30 1432 C 131.021 -2.32331 -0.111791 0
M  V30 1433 C 132.015 -1.46409 -0.852102 0
M  V30 1434 O 133.221 -1.62849 -0.766821 0
M  V30 1435 H 129.596 -0.749993 -0.0549072 0
M  V30 1436 H 131.567 -2.91407 0.642225 0
M  V30 1437 C 130.316 -3.3015 -1.09071 0
M  V30 1438 H 129.639 -3.96265 -0.530485 0
M  V30 1439 H 131.079 -3.93898 -1.56908 0
M  V30 1440 C 129.538 -2.57875 -2.168 0
M  V30 1441 O 130.068 -2.36567 -3.24652 0
M  V30 1442 N 128.274 -2.17884 -1.92289 0
M  V30 1443 H 127.821 -2.35413 -1.04587 0
M  V30 1444 H 127.779 -1.6985 -2.64572 0
M  V30 1445 N 131.551 -0.354651 -1.53558 0
M  V30 1446 C 132.828 0.294281 -1.93374 0
M  V30 1447 C 133.208 1.67313 -1.28723 0
M  V30 1448 O 132.556 2.24179 -0.442247 0
M  V30 1449 C 132.766 0.355445 -3.47185 0
M  V30 1450 C 134.114 0.601007 -4.20325 0
M  V30 1451 O 135.138 0.437106 -3.53508 0
M  V30 1452 O 133.997 0.919322 -5.38712 0
M  V30 1453 H 131.091 0.174033 -0.808481 0
M  V30 1454 H 133.637 -0.406638 -1.64756 0
M  V30 1455 H 132.409 -0.611729 -3.86489 0
M  V30 1456 H 132.032 1.1027 -3.82003 0
M  V30 1457 N 133.029 1.57378 -0.0835403 0
M  V30 1458 C 133.939 2.16897 0.894021 0
M  V30 1459 C 134.955 1.13528 1.31861 0
M  V30 1460 O 136.131 1.45848 1.3889 0
M  V30 1461 C 133.196 2.72831 2.13925 0
M  V30 1462 C 132.257 3.91115 1.76997 0
M  V30 1463 C 131.49 4.44371 2.95584 0
M  V30 1464 O 131.713 3.96596 4.09961 0
M  V30 1465 O 130.647 5.35549 2.74719 0
M  V30 1466 H 134.473 3.00814 0.417679 0
M  V30 1467 H 132.058 1.48741 0.140181 0
M  V30 1468 H 133.94 3.0863 2.86924 0
M  V30 1469 H 132.615 1.91967 2.60635 0
M  V30 1470 H 131.522 3.60148 1.01214 0
M  V30 1471 H 132.855 4.73307 1.3506 0
M  V30 1472 N 134.507 -0.190092 1.56449 0
M  V30 1473 C 135.754 -0.909705 1.80916 0
M  V30 1474 C 136.082 -1.83047 0.657583 0
M  V30 1475 O 135.337 -1.92428 -0.356356 0
M  V30 1476 C 135.636 -1.75382 3.1141 0
M  V30 1477 C 135.302 -0.983606 4.40041 0
M  V30 1478 C 133.964 -0.770967 4.74984 0
M  V30 1479 C 136.316 -0.442024 5.19322 0
M  V30 1480 C 133.644 -0.0053448 5.867 0
M  V30 1481 C 135.996 0.310412 6.31838 0
M  V30 1482 C 134.66 0.534023 6.6536 0
M  V30 1483 H 133.93 -0.332885 0.662019 0
M  V30 1484 H 136.577 -0.175762 1.90692 0
M  V30 1485 H 134.882 -2.55659 2.96893 0
M  V30 1486 H 136.579 -2.31331 3.27547 0
M  V30 1487 H 133.169 -1.15936 4.12622 0
M  V30 1488 H 137.353 -0.593693 4.92736 0
M  V30 1489 H 132.609 0.177825 6.11141 0
M  V30 1490 H 136.783 0.737419 6.92485 0
M  V30 1491 H 134.41 1.12918 7.51767 0
M  V30 1492 N 135.985 -1.50799 -0.457987 0
M  V30 1493 C 136.915 -1.73553 -1.5621 0
M  V30 1494 C 137.896 -0.584774 -1.59732 0
M  V30 1495 O 139.081 -0.825314 -1.7579 0
M  V30 1496 C 136.211 -1.84169 -2.94447 0
M  V30 1497 C 135.165 -2.99461 -3.0579 0
M  V30 1498 C 134.491 -2.95235 -4.45803 0
M  V30 1499 C 135.791 -4.39766 -2.81786 0
M  V30 1500 H 137.485 -2.66 -1.37421 0
M  V30 1501 H 135.031 -1.28002 -0.659662 0
M  V30 1502 H 136.984 -1.98672 -3.71628 0
M  V30 1503 H 135.708 -0.883545 -3.14422 0
M  V30 1504 H 134.367 -2.8463 -2.31044 0
M  V30 1505 H 134.015 -1.97239 -4.62715 0
M  V30 1506 H 133.715 -3.72642 -4.54326 0
M  V30 1507 H 135.239 -3.11803 -5.24987 0
M  V30 1508 H 136.653 -4.55054 -3.4871 0
M  V30 1509 H 135.05 -5.18722 -3.0174 0
M  V30 1510 H 136.12 -4.51229 -1.7754 0
M  V30 1511 N 137.463 0.71206 -1.40597 0
M  V30 1512 C 138.688 1.50617 -1.42581 0
M  V30 1513 C 139.113 1.88079 -0.0282102 0
M  V30 1514 O 138.471 1.53511 0.964579 0
M  V30 1515 C 138.519 2.7557 -2.3258 0
M  V30 1516 O 137.623 3.72414 -1.77148 0
M  V30 1517 H 136.964 0.453966 -0.484573 0
M  V30 1518 H 139.494 0.876649 -1.84868 0
M  V30 1519 H 139.504 3.2406 -2.47889 0
M  V30 1520 H 138.179 2.47639 -3.34138 0
M  V30 1521 H 136.756 3.31276 -1.71204 0
M  V30 1522 N 138.941 1.26152 0.944643 0
M  V30 1523 C 140.187 1.12665 1.69346 0
M  V30 1524 C 140.542 -0.3273 1.89596 0
M  V30 1525 O 139.835 -1.23717 1.46303 0
M  V30 1526 C 140.029 1.82541 3.07268 0
M  V30 1527 C 139.858 3.34582 3.00475 0
M  V30 1528 C 138.628 4.03863 3.03681 0
M  V30 1529 C 140.826 4.30828 2.80877 0
M  V30 1530 N 138.808 5.42603 2.87151 0
M  V30 1531 C 140.179 5.5672 2.7288 0
M  V30 1532 C 142.234 4.21122 2.65633 0
M  V30 1533 C 140.937 6.74013 2.51196 0
M  V30 1534 C 142.963 5.38118 2.45323 0
M  V30 1535 C 142.325 6.62955 2.38055 0
M  V30 1536 H 138.424 0.467041 0.627214 0
M  V30 1537 H 141.008 1.59391 1.11815 0
M  V30 1538 H 139.179 1.38296 3.62945 0
M  V30 1539 H 140.911 1.61708 3.70989 0
M  V30 1540 H 137.666 3.55198 3.1326 0
M  V30 1541 H 138.09 6.15443 2.82063 0
M  V30 1542 H 142.732 3.25344 2.70021 0
M  V30 1543 H 140.45 7.6989 2.4555 0
M  V30 1544 H 144.036 5.32475 2.34439 0
M  V30 1545 H 142.916 7.51959 2.22546 0
M  V30 1546 N 140.419 -1.14872 1.07899 0
M  V30 1547 C 141.367 -2.21857 0.698727 0
M  V30 1548 C 142.361 -1.66845 -0.293086 0
M  V30 1549 O 143.567 -1.79321 -0.156204 0
M  V30 1550 H 139.942 -0.722691 0.207899 0
M  V30 1551 H 141.913 -2.51205 1.61054 0
M  V30 1552 C 140.662 -3.47498 0.11858 0
M  V30 1553 H 139.985 -3.90154 0.872914 0
M  V30 1554 H 141.425 -4.23858 -0.109759 0
M  V30 1555 C 139.884 -3.16947 -1.1422 0
M  V30 1556 O 140.414 -3.3426 -2.22785 0
M  V30 1557 N 138.62 -2.70946 -1.05055 0
M  V30 1558 H 138.167 -2.57058 -0.167038 0
M  V30 1559 H 138.125 -2.50879 -1.89491 0
M  V30 1560 N 141.898 -0.863906 -1.31812 0
M  V30 1561 C 143.123 -0.48527 -2.01643 0
M  V30 1562 C 143.548 0.913058 -1.64453 0
M  V30 1563 O 142.906 1.6014 -0.849985 0
M  V30 1564 C 142.954 -0.642625 -3.54828 0
M  V30 1565 O 142.058 0.320659 -4.11151 0
M  V30 1566 H 141.399 -0.193793 -0.635091 0
M  V30 1567 H 143.929 -1.16565 -1.68148 0
M  V30 1568 H 143.939 -0.533628 -4.04495 0
M  V30 1569 H 142.614 -1.66227 -3.81237 0
M  V30 1570 H 141.191 0.167126 -3.72525 0
M  V30 1571 N 143.376 1.44774 -0.622745 0
M  V30 1572 C 144.601 2.06999 -0.128968 0
M  V30 1573 C 145.026 1.4617 1.1839 0
M  V30 1574 O 144.384 0.560007 1.72434 0
M  V30 1575 C 144.432 3.60595 -0.0188351 0
M  V30 1576 O 143.536 3.99398 1.02739 0
M  V30 1577 H 142.877 0.659047 -0.0809544 0
M  V30 1578 H 145.407 1.85784 -0.85705 0
M  V30 1579 H 145.417 4.07627 0.174476 0
M  V30 1580 H 144.092 4.04252 -0.977384 0
M  V30 1581 H 142.669 3.64011 0.809326 0
M  V30 1582 N 144.854 0.36279 1.53368 0
M  V30 1583 C 145.787 -0.528507 2.21996 0
M  V30 1584 C 146.765 -1.0852 1.21087 0
M  V30 1585 O 147.949 -1.14186 1.4998 0
M  V30 1586 C 145.076 -1.72893 2.91249 0
M  V30 1587 C 144.122 -1.29994 4.06207 0
M  V30 1588 S 144.955 -0.303575 5.34639 0
M  V30 1589 C 146.111 -1.51039 6.07403 0
M  V30 1590 H 146.344 0.0543423 2.9725 0
M  V30 1591 H 143.877 0.146889 1.537 0
M  V30 1592 H 145.835 -2.41751 3.31763 0
M  V30 1593 H 144.496 -2.28303 2.15724 0
M  V30 1594 H 143.689 -2.19549 4.53667 0
M  V30 1595 H 143.291 -0.690608 3.67569 0
M  V30 1596 H 145.583 -2.44186 6.31965 0
M  V30 1597 H 146.526 -1.07721 6.99858 0
M  V30 1598 H 146.934 -1.71518 5.37812 0
M  V30 1599 N 146.332 -1.57332 0.0918853 0
M  V30 1600 C 147.579 -1.94236 -0.572577 0
M  V30 1601 C 147.907 -0.973398 -1.6839 0
M  V30 1602 O 147.162 0.00756912 -1.95699 0
M  V30 1603 C 147.461 -3.37689 -1.17051 0
M  V30 1604 C 147.127 -4.50527 -0.183304 0
M  V30 1605 C 145.789 -4.81119 0.0882276 0
M  V30 1606 C 148.141 -5.18883 0.49095 0
M  V30 1607 C 145.469 -5.77395 1.04076 0
M  V30 1608 C 147.821 -6.1618 1.43193 0
M  V30 1609 C 146.485 -6.45179 1.71173 0
M  V30 1610 H 145.755 -0.710762 -0.209521 0
M  V30 1611 H 148.402 -1.9077 0.167036 0
M  V30 1612 H 146.707 -3.37718 -1.9863 0
M  V30 1613 H 148.404 -3.63543 -1.69227 0
M  V30 1614 H 144.994 -4.26681 -0.405124 0
M  V30 1615 H 149.178 -4.95427 0.294312 0
M  V30 1616 H 144.434 -5.98179 1.26457 0
M  V30 1617 H 148.608 -6.68243 1.96023 0
M  V30 1618 H 146.235 -7.1959 2.4514 0
M  V30 1619 N 147.81 0.181792 -1.56548 0
M  V30 1620 C 149.087 0.926765 -1.72251 0
M  V30 1621 C 149.467 2.00831 -0.650386 0
M  V30 1622 O 148.815 2.26008 0.336521 0
M  V30 1623 C 149.025 1.50106 -3.1507 0
M  V30 1624 C 150.373 1.97805 -3.75711 0
M  V30 1625 O 151.397 1.59922 -3.18282 0
M  V30 1626 O 150.256 2.67555 -4.76525 0
M  V30 1627 H 147.35 0.435506 -0.703039 0
M  V30 1628 H 149.896 0.170443 -1.68842 0
M  V30 1629 H 148.668 0.72212 -3.84579 0
M  V30 1630 H 148.291 2.32186 -3.22763 0
M  V30 1631 N 149.288 1.51039 0.449983 0
M  V30 1632 C 150.198 1.74261 1.57067 0
M  V30 1633 C 151.214 0.626363 1.62335 0
M  V30 1634 O 152.39 0.907162 1.79812 0
M  V30 1635 C 149.455 1.85114 2.93144 0
M  V30 1636 C 148.516 3.0893 2.98095 0
M  V30 1637 C 147.749 3.19256 4.27681 0
M  V30 1638 O 147.972 2.35835 5.19363 0
M  V30 1639 O 146.906 4.12144 4.38658 0
M  V30 1640 H 150.732 2.69303 1.40391 0
M  V30 1641 H 148.317 1.35389 0.631688 0
M  V30 1642 H 150.199 1.94311 3.73926 0
M  V30 1643 H 148.874 0.932588 3.09975 0
M  V30 1644 H 147.781 3.0522 2.16314 0
M  V30 1645 H 149.114 4.00433 2.86206 0
M  V30 1646 N 150.766 -0.704594 1.40972 0
M  V30 1647 C 152.015 -1.46018 1.39146 0
M  V30 1648 C 152.328 -1.956 0.000589254 0
M  V30 1649 O 153.534 -2.71137 -0.1403 0
M  V30 1650 C 151.99 -2.63996 2.4461 0
M  V30 1651 C 151.598 -2.21238 3.89561 0
M  V30 1652 C 153.342 -3.41677 2.51907 0
M  V30 1653 C 151.249 -3.3612 4.86598 0
M  V30 1654 H 150.179 -0.548444 0.517422 0
M  V30 1655 H 152.83 -0.765784 1.66757 0
M  V30 1656 H 151.212 -3.3566 2.10115 0
M  V30 1657 H 152.386 -1.56923 4.33257 0
M  V30 1658 H 150.701 -1.56574 3.85841 0
M  V30 1659 H 153.298 -4.27182 3.2159 0
M  V30 1660 H 153.641 -3.86247 1.55303 0
M  V30 1661 H 154.174 -2.77064 2.85448 0
M  V30 1662 H 150.913 -2.96572 5.84573 0
M  V30 1663 H 150.433 -3.99315 4.47557 0
M  V30 1664 H 152.112 -4.02029 5.06934 0
M  V30 1665 N 152.244 -1.26651 -0.937939 0
M  V30 1666 C 153.66 -1.03834 -1.21205 0
M  V30 1667 C 153.86 0.234502 -2.00131 0
M  V30 1668 O 152.916 0.942767 -2.3424 0
M  V30 1669 C 154.229 -2.27167 -1.97017 0
M  V30 1670 C 155.777 -2.32101 -2.09996 0
M  V30 1671 C 156.252 -3.55136 -2.8921 0
M  V30 1672 N 157.743 -3.55632 -2.96783 0
M  V30 1673 C 158.478 -4.475 -3.58512 0
M  V30 1674 N 157.974 -5.4966 -4.21717 0
M  V30 1675 N 159.767 -4.35145 -3.55816 0
M  V30 1676 H 151.918 -2.08398 -0.410391 0
M  V30 1677 H 154.181 -0.916031 -0.244114 0
M  V30 1678 H 153.887 -3.19765 -1.46434 0
M  V30 1679 H 153.761 -2.31672 -2.97671 0
M  V30 1680 H 156.148 -1.40015 -2.59769 0
M  V30 1681 H 156.229 -2.31605 -1.08594 0
M  V30 1682 H 155.873 -4.47553 -2.40123 0
M  V30 1683 H 155.803 -3.5288 -3.90875 0
M  V30 1684 H 158.294 -2.81743 -2.51852 0
M  V30 1685 H 158.607 -6.15943 -4.66727 0
M  V30 1686 H 156.952 -5.53514 -4.20294 0
M  V30 1687 H 160.143 -3.5455 -3.05634 0
M  V30 1688 H 160.316 -5.06934 -4.03636 0
M  V30 1689 N 153.722 1.14298 -1.08507 0
M  V30 1690 C 154.632 2.23027 -0.727753 0
M  V30 1691 C 155.648 1.71952 0.26619 0
M  V30 1692 O 156.824 2.011 0.109882 0
M  V30 1693 C 153.889 3.46403 -0.143541 0
M  V30 1694 C 152.95 4.12413 -1.19223 0
M  V30 1695 C 152.183 5.29899 -0.635798 0
M  V30 1696 O 152.406 5.67796 0.544393 0
M  V30 1697 O 151.34 5.85717 -1.38634 0
M  V30 1698 H 155.166 2.55945 -1.63481 0
M  V30 1699 H 152.751 1.22248 -0.858817 0
M  V30 1700 H 154.633 4.21018 0.179404 0
M  V30 1701 H 153.308 3.15206 0.736659 0
M  V30 1702 H 152.215 3.39667 -1.56772 0
M  V30 1703 H 153.548 4.47718 -2.04474 0
M  V30 1704 N 155.201 0.870884 1.31352 0
M  V30 1705 C 156.45 0.478408 1.95944 0
M  V30 1706 C 156.763 -0.974493 1.69597 0
M  V30 1707 O 157.969 -1.47316 2.28058 0
M  V30 1708 C 156.425 0.804609 3.50791 0
M  V30 1709 C 156.033 2.27433 3.85977 0
M  V30 1710 C 157.777 0.480648 4.2177 0
M  V30 1711 C 155.684 2.5429 5.33939 0
M  V30 1712 H 154.614 0.175175 0.733369 0
M  V30 1713 H 157.265 1.06391 1.4951 0
M  V30 1714 H 155.647 0.148347 3.95722 0
M  V30 1715 H 156.821 2.97373 3.52002 0
M  V30 1716 H 155.136 2.56442 3.28065 0
M  V30 1717 H 157.733 0.658519 5.30629 0
M  V30 1718 H 158.076 -0.578979 4.12254 0
M  V30 1719 H 158.609 1.09349 3.82476 0
M  V30 1720 H 155.348 3.58939 5.48491 0
M  V30 1721 H 154.868 1.88945 5.69263 0
M  V30 1722 H 156.547 2.39066 6.01212 0
M  V30 1723 N 156.679 -1.44442 0.630414 0
M  V30 1724 C 157.904 -2.06927 0.139944 0
M  V30 1725 C 158.329 -1.46795 -1.17613 0
M  V30 1726 O 157.687 -0.569144 -1.72135 0
M  V30 1727 C 157.735 -3.6058 0.0379581 0
M  V30 1728 O 156.839 -3.99937 -1.0062 0
M  V30 1729 H 156.18 -0.658608 0.0844483 0
M  V30 1730 H 158.71 -1.85327 0.866891 0
M  V30 1731 H 158.72 -4.07714 -0.152856 0
M  V30 1732 H 157.395 -4.03728 0.998809 0
M  V30 1733 H 155.972 -3.64436 -0.79001 0
M  V30 1734 N 158.157 -0.370918 -1.53173 0
M  V30 1735 C 159.087 0.464847 -2.28826 0
M  V30 1736 C 160.068 1.07936 -1.31468 0
M  V30 1737 O 161.253 1.0956 -1.60344 0
M  V30 1738 C 158.383 1.60196 -3.08147 0
M  V30 1739 C 157.337 1.11443 -4.13237 0
M  V30 1740 C 156.663 2.3422 -4.80672 0
M  V30 1741 C 157.963 0.195384 -5.21934 0
M  V30 1742 H 159.657 -0.166329 -2.98938 0
M  V30 1743 H 157.203 -0.0814359 -1.4377 0
M  V30 1744 H 159.156 2.19332 -3.59822 0
M  V30 1745 H 157.88 2.26045 -2.35735 0
M  V30 1746 H 156.539 0.545727 -3.62515 0
M  V30 1747 H 156.187 2.98537 -4.04827 0
M  V30 1748 H 155.887 2.02269 -5.51689 0
M  V30 1749 H 157.411 2.94032 -5.35143 0
M  V30 1750 H 158.825 0.694375 -5.69079 0
M  V30 1751 H 157.222 -0.0335027 -6.00091 0
M  V30 1752 H 158.292 -0.760961 -4.78892 0
M  V30 1753 N 159.635 1.57281 -0.100228 0
M  V30 1754 C 161.046 1.81725 0.428107 0
M  V30 1755 C 161.397 1.01619 1.67833 0
M  V30 1756 O 160.522 0.247098 2.14985 0
M  V30 1757 C 161.117 3.29617 0.78347 0
M  V30 1758 C 159.676 3.54808 1.25653 0
M  V30 1759 C 158.823 2.76118 0.255752 0
M  V30 1760 H 161.774 1.55324 -0.325608 0
M  V30 1761 H 161.795 3.4322 1.64256 0
M  V30 1762 H 161.307 3.87893 -0.12665 0
M  V30 1763 H 159.408 3.01868 2.18418 0
M  V30 1764 H 159.521 4.63443 1.21482 0
M  V30 1765 H 157.885 2.43745 0.738956 0
M  V30 1766 H 158.668 3.37145 -0.647136 0
M  V30 1767 N 161.113 -0.173488 1.56642 0
M  V30 1768 C 162.043 -1.2171 1.99271 0
M  V30 1769 C 163.024 -1.46289 0.867959 0
M  V30 1770 O 164.209 -1.5766 1.13388 0
M  V30 1771 C 161.339 -2.55651 2.35074 0
M  V30 1772 C 160.293 -2.45645 3.50489 0
M  V30 1773 C 159.619 -3.84056 3.72028 0
M  V30 1774 C 160.919 -1.96302 4.84007 0
M  V30 1775 H 162.613 -0.86275 2.867 0
M  V30 1776 H 160.159 -0.413571 1.37933 0
M  V30 1777 H 162.112 -3.2886 2.63494 0
M  V30 1778 H 160.836 -2.92869 1.44552 0
M  V30 1779 H 159.495 -1.7489 3.22194 0
M  V30 1780 H 159.143 -4.18664 2.788 0
M  V30 1781 H 158.843 -3.7823 4.49684 0
M  V30 1782 H 160.367 -4.58854 4.02846 0
M  V30 1783 H 161.781 -2.59284 5.11317 0
M  V30 1784 H 160.178 -2.01429 5.65284 0
M  V30 1785 H 161.248 -0.917226 4.76146 0
M  V30 1786 N 162.591 -1.51276 -0.441967 0
M  V30 1787 C 163.816 -1.67799 -1.21895 0
M  V30 1788 C 164.241 -0.372864 -1.84367 0
M  V30 1789 O 163.599 0.666501 -1.68604 0
M  V30 1790 C 163.647 -2.79199 -2.28211 0
M  V30 1791 O 162.751 -2.42479 -3.33583 0
M  V30 1792 H 162.092 -0.559649 -0.357336 0
M  V30 1793 H 164.622 -1.97815 -0.522522 0
M  V30 1794 H 164.632 -3.03146 -2.73069 0
M  V30 1795 H 163.307 -3.73906 -1.82118 0
M  V30 1796 H 161.884 -2.29087 -2.94234 0
M  V30 1797 N 164.069 0.697108 -1.41344 0
M  V30 1798 C 165.032 1.79281 -1.42797 0
M  V30 1799 C 166.032 1.57607 -0.318837 0
M  V30 1800 O 167.222 1.64309 -0.578642 0
M  V30 1801 C 164.354 3.17632 -1.23785 0
M  V30 1802 H 165.547 1.79385 -2.40335 0
M  V30 1803 H 163.1 0.904582 -1.27464 0
M  V30 1804 H 163.835 3.23167 -0.270814 0
M  V30 1805 H 163.62 3.34765 -2.04144 0
M  V30 1806 H 165.11 3.97617 -1.27633 0
M  V30 1807 N 165.547 1.27147 0.931209 0
M  V30 1808 C 166.796 1.12664 1.67302 0
M  V30 1809 C 167.109 -0.327718 1.92835 0
M  V30 1810 O 168.315 -0.593392 2.64936 0
M  V30 1811 C 166.771 1.9683 3.01307 0
M  V30 1812 C 166.379 3.46901 2.83485 0
M  V30 1813 C 168.123 1.90985 3.79111 0
M  V30 1814 C 166.03 4.23279 4.13024 0
M  V30 1815 H 164.96 0.41803 0.627509 0
M  V30 1816 H 167.611 1.51539 1.03481 0
M  V30 1817 H 165.993 1.50797 3.66164 0
M  V30 1818 H 167.167 4.00773 2.27415 0
M  V30 1819 H 165.482 3.54088 2.19113 0
M  V30 1820 H 168.079 2.45328 4.75098 0
M  V30 1821 H 168.422 0.882718 4.06834 0
M  V30 1822 H 168.955 2.34895 3.21044 0
M  V30 1823 H 165.694 5.26503 3.90481 0
M  V30 1824 H 165.214 3.74186 4.6877 0
M  V30 1825 H 166.893 4.32265 4.81411 0
M  V30 1826 N 167.025 -1.13721 1.09112 0
M  V30 1827 C 168.271 -1.85413 0.836283 0
M  V30 1828 C 168.626 -1.8175 -0.631249 0
M  V30 1829 O 167.919 -1.24238 -1.45861 0
M  V30 1830 C 168.113 -3.32861 1.30146 0
M  V30 1831 C 167.942 -3.50882 2.81268 0
M  V30 1832 C 166.712 -3.65312 3.49106 0
M  V30 1833 C 168.91 -3.47196 3.7942 0
M  V30 1834 N 166.892 -3.71563 4.88686 0
M  V30 1835 C 168.263 -3.59777 5.04936 0
M  V30 1836 C 170.318 -3.30577 3.72321 0
M  V30 1837 C 169.021 -3.57455 6.24194 0
M  V30 1838 C 171.047 -3.29562 4.91063 0
M  V30 1839 C 170.409 -3.42691 6.15421 0
M  V30 1840 H 166.508 -0.694812 0.358832 0
M  V30 1841 H 169.092 -1.36246 1.39087 0
M  V30 1842 H 167.263 -3.80602 0.774361 0
M  V30 1843 H 168.995 -3.92346 0.99229 0
M  V30 1844 H 165.75 -3.6685 2.9953 0
M  V30 1845 H 166.174 -3.78387 5.61384 0
M  V30 1846 H 170.816 -3.19332 2.77105 0
M  V30 1847 H 168.534 -3.67475 7.19714 0
M  V30 1848 H 172.12 -3.17905 4.87266 0
M  V30 1849 H 171 -3.41862 7.05762 0
M  V30 1850 N 168.503 -0.877838 -1.30888 0
M  V30 1851 C 169.466 -0.344265 -2.266 0
M  V30 1852 C 170.466 0.50922 -1.52524 0
M  V30 1853 O 171.656 0.317398 -1.71284 0
M  V30 1854 C 168.788 0.510198 -3.37061 0
M  V30 1855 H 169.981 -1.1893 -2.7531 0
M  V30 1856 H 167.534 -0.654088 -1.41956 0
M  V30 1857 H 168.269 1.37612 -2.93655 0
M  V30 1858 H 168.054 -0.101047 -3.9197 0
M  V30 1859 H 169.544 0.875537 -4.08319 0
M  V30 1860 N 169.982 1.44106 -0.638065 0
M  V30 1861 C 171.393 1.85316 -0.226894 0
M  V30 1862 C 171.744 1.53399 1.22324 0
M  V30 1863 O 170.869 0.975463 1.93167 0
M  V30 1864 C 171.464 3.3637 -0.405013 0
M  V30 1865 C 170.023 3.76369 -0.0482902 0
M  V30 1866 C 169.17 2.67921 -0.715108 0
M  V30 1867 H 172.121 1.34474 -0.842764 0
M  V30 1868 H 172.142 3.7885 0.354 0
M  V30 1869 H 171.654 3.59569 -1.46053 0
M  V30 1870 H 169.755 3.58784 1.00522 0
M  V30 1871 H 169.868 4.76856 -0.463187 0
M  V30 1872 H 168.232 2.54259 -0.149753 0
M  V30 1873 H 169.015 2.93951 -1.77335 0
M  V30 1874 N 171.46 0.379036 1.52974 0
M  V30 1875 C 172.737 -0.263479 1.93817 0
M  V30 1876 C 173.117 -1.65244 1.31368 0
M  V30 1877 O 172.465 -2.23448 0.477856 0
M  V30 1878 C 172.675 -0.300166 3.47707 0
M  V30 1879 C 174.023 -0.534061 4.21228 0
M  V30 1880 O 175.047 -0.38081 3.54159 0
M  V30 1881 O 173.906 -0.833501 5.40106 0
M  V30 1882 H 171 -0.161149 0.811147 0
M  V30 1883 H 173.546 0.432798 1.64088 0
M  V30 1884 H 172.318 0.673138 3.85467 0
M  V30 1885 H 171.941 -1.04179 3.83709 0
M  V30 1886 N 172.938 -1.57226 0.108567 0
M  V30 1887 C 174.187 -1.94008 -0.551703 0
M  V30 1888 C 174.5 -0.993442 -1.68494 0
M  V30 1889 O 175.706 -1.25551 -2.40726 0
M  V30 1890 C 174.162 -3.44763 -1.03279 0
M  V30 1891 C 173.77 -4.47943 0.0714193 0
M  V30 1892 C 175.514 -3.90483 -1.66503 0
M  V30 1893 C 173.421 -5.89865 -0.425779 0
M  V30 1894 H 172.351 -0.724206 -0.209863 0
M  V30 1895 H 175.002 -1.82547 0.186741 0
M  V30 1896 H 173.384 -3.51422 -1.82533 0
M  V30 1897 H 174.558 -4.52942 0.847365 0
M  V30 1898 H 172.873 -4.11913 0.609669 0
M  V30 1899 H 175.47 -4.93925 -2.04798 0
M  V30 1900 H 175.813 -3.29877 -2.53942 0
M  V30 1901 H 176.346 -3.86581 -0.938074 0
M  V30 1902 H 173.085 -6.54202 0.412316 0
M  V30 1903 H 172.605 -5.88309 -1.16843 0
M  V30 1904 H 174.284 -6.40844 -0.890397 0
M  V30 1905 N 174.416 0.165178 -1.56732 0
M  V30 1906 C 175.665 0.879143 -1.81532 0
M  V30 1907 C 175.978 1.83144 -0.686842 0
M  V30 1908 O 177.184 2.58823 -0.819944 0
M  V30 1909 C 175.64 1.61388 -3.21686 0
M  V30 1910 C 175.248 0.704904 -4.4242 0
M  V30 1911 C 176.992 2.3157 -3.55774 0
M  V30 1912 C 174.899 1.44022 -5.73595 0
M  V30 1913 H 173.829 0.332033 -0.676957 0
M  V30 1914 H 176.48 0.132008 -1.83025 0
M  V30 1915 H 174.862 2.40599 -3.14529 0
M  V30 1916 H 176.036 -0.0506815 -4.60772 0
M  V30 1917 H 174.351 0.112419 -4.16248 0
M  V30 1918 H 176.948 2.8719 -4.51028 0
M  V30 1919 H 177.291 3.07201 -2.8095 0
M  V30 1920 H 177.824 1.59297 -3.64513 0
M  V30 1921 H 174.563 0.72612 -6.51466 0
M  V30 1922 H 174.083 2.16898 -5.5921 0
M  V30 1923 H 175.762 1.98606 -6.15764 0
M  V30 1924 N 175.894 1.51508 0.433938 0
M  V30 1925 C 177.143 1.63578 1.18005 0
M  V30 1926 C 177.456 0.359514 1.92268 0
M  V30 1927 O 178.662 0.359632 2.69108 0
M  V30 1928 C 177.118 2.88901 2.14626 0
M  V30 1929 C 176.726 4.23544 1.45995 0
M  V30 1930 C 178.47 3.10328 2.89649 0
M  V30 1931 C 176.377 5.40014 2.4112 0
M  V30 1932 H 175.307 0.609277 0.444182 0
M  V30 1933 H 177.958 1.77978 0.446773 0
M  V30 1934 H 176.34 2.68142 2.91403 0
M  V30 1935 H 177.514 4.54696 0.747532 0
M  V30 1936 H 175.829 4.08021 0.831115 0
M  V30 1937 H 178.426 3.94518 3.60915 0
M  V30 1938 H 178.769 2.23544 3.51189 0
M  V30 1939 H 179.302 3.31443 2.19978 0
M  V30 1940 H 176.041 6.29068 1.84264 0
M  V30 1941 H 175.561 5.13233 3.10406 0
M  V30 1942 H 177.24 5.72099 3.02177 0
M  V30 1943 N 177.372 -0.689602 1.41712 0
M  V30 1944 C 178.32 -1.82475 1.44242 0
M  V30 1945 C 179.314 -1.66354 0.319774 0
M  V30 1946 O 180.52 -1.73143 0.492089 0
M  V30 1947 H 176.895 -0.601416 0.451445 0
M  V30 1948 H 178.866 -1.77458 2.39899 0
M  V30 1949 C 177.615 -3.20535 1.3473 0
M  V30 1950 H 176.938 -3.33559 2.20405 0
M  V30 1951 H 178.378 -4.00023 1.40562 0
M  V30 1952 C 176.837 -3.36846 0.0603281 0
M  V30 1953 O 177.367 -3.91656 -0.892663 0
M  V30 1954 N 175.573 -2.90595 -0.0177039 0
M  V30 1955 H 175.12 -2.46178 0.758572 0
M  V30 1956 H 175.078 -3.01886 -0.878201 0
M  V30 1957 N 178.85 -1.27639 -0.924453 0
M  V30 1958 C 179.76 -1.12466 -2.05885 0
M  V30 1959 C 180.776 -0.053869 -1.73917 0
M  V30 1960 O 181.952 -0.261012 -1.99702 0
M  V30 1961 C 179.017 -0.776768 -3.37886 0
M  V30 1962 C 178.078 -1.92878 -3.83532 0
M  V30 1963 C 177.311 -1.59739 -5.09234 0
M  V30 1964 O 177.534 -0.506782 -5.68144 0
M  V30 1965 O 176.468 -2.43761 -5.50331 0
M  V30 1966 H 180.294 -2.07671 -2.21599 0
M  V30 1967 H 177.879 -1.06857 -1.04413 0
M  V30 1968 H 179.761 -0.596229 -4.17161 0
M  V30 1969 H 178.436 0.145732 -3.23372 0
M  V30 1970 H 177.343 -2.1644 -3.0513 0
M  V30 1971 H 178.676 -2.8316 -4.02593 0
M  V30 1972 N 180.328 1.1314 -1.09713 0
M  V30 1973 C 181.575 1.84484 -0.834987 0
M  V30 1974 C 181.903 1.83689 0.639418 0
M  V30 1975 O 181.158 1.2724 1.4869 0
M  V30 1976 C 181.457 3.32167 -1.3191 0
M  V30 1977 C 181.123 3.53139 -2.80363 0
M  V30 1978 C 179.785 3.58571 -3.20905 0
M  V30 1979 C 182.137 3.60866 -3.76065 0
M  V30 1980 C 179.465 3.69267 -4.55916 0
M  V30 1981 C 181.817 3.73089 -5.10869 0
M  V30 1982 C 180.481 3.76775 -5.50996 0
M  V30 1983 H 179.751 0.675073 -0.305544 0
M  V30 1984 H 182.398 1.33554 -1.37243 0
M  V30 1985 H 180.703 3.85469 -0.701517 0
M  V30 1986 H 182.4 3.85821 -1.09284 0
M  V30 1987 H 178.99 3.49569 -2.47991 0
M  V30 1988 H 183.174 3.55946 -3.45855 0
M  V30 1989 H 178.43 3.70388 -4.86438 0
M  V30 1990 H 182.604 3.78011 -5.84877 0
M  V30 1991 H 180.231 3.84815 -6.55608 0
M  V30 1992 N 181.806 0.884767 1.30421 0
M  V30 1993 C 183.052 0.503851 1.96441 0
M  V30 1994 C 183.385 -0.944518 1.69684 0
M  V30 1995 O 182.66 -1.66737 1.00145 0
M  V30 1996 C 182.943 0.779085 3.51571 0
M  V30 1997 C 182.796 2.27807 3.87846 0
M  V30 1998 C 184.115 0.255452 4.39358 0
M  V30 1999 H 181.234 0.184533 0.713524 0
M  V30 2000 H 183.876 1.10872 1.54297 0
M  V30 2001 H 182.026 0.264274 3.876 0
M  V30 2002 H 183.698 2.86127 3.61841 0
M  V30 2003 H 181.941 2.74479 3.35922 0
M  V30 2004 H 182.612 2.42125 4.96064 0
M  V30 2005 H 185.088 0.696079 4.10236 0
M  V30 2006 H 183.964 0.477361 5.4682 0
M  V30 2007 H 184.225 -0.843293 4.33983 0
M  V30 2008 N 183.284 -1.43765 0.645699 0
M  V30 2009 C 184.561 -1.9541 0.0862963 0
M  V30 2010 C 184.941 -1.58725 -1.39175 0
M  V30 2011 O 184.289 -0.868581 -2.11348 0
M  V30 2012 C 184.499 -3.47488 0.324565 0
M  V30 2013 C 185.847 -4.24001 0.225497 0
M  V30 2014 O 186.871 -3.55274 0.256715 0
M  V30 2015 O 185.73 -5.46313 0.142801 0
M  V30 2016 H 182.824 -0.826882 -0.0139483 0
M  V30 2017 H 185.37 -1.53743 0.718415 0
M  V30 2018 H 184.142 -3.67289 1.3496 0
M  V30 2019 H 183.765 -3.96135 -0.340987 0
M  V30 2020 N 184.763 -0.387143 -1.52771 0
M  V30 2021 C 186.012 0.19697 -2.00736 0
M  V30 2022 C 186.325 1.48082 -1.27793 0
M  V30 2023 O 187.531 2.14485 -1.66458 0
M  V30 2024 C 185.987 0.401568 -3.57653 0
M  V30 2025 C 185.595 -0.868907 -4.39493 0
M  V30 2026 C 187.339 0.942164 -4.13912 0
M  V30 2027 C 185.246 -0.632705 -5.88006 0
M  V30 2028 H 184.176 0.0773827 -0.750019 0
M  V30 2029 H 186.827 -0.50921 -1.76293 0
M  V30 2030 H 185.209 1.16954 -3.78335 0
M  V30 2031 H 186.383 -1.64133 -4.30577 0
M  V30 2032 H 184.698 -1.33429 -3.94443 0
M  V30 2033 H 187.295 1.13455 -5.22525 0
M  V30 2034 H 187.638 1.9106 -3.69867 0
M  V30 2035 H 188.171 0.233814 -3.97112 0
M  V30 2036 H 184.91 -1.57208 -6.36369 0
M  V30 2037 H 184.43 0.100825 -5.99715 0
M  V30 2038 H 186.109 -0.26642 -6.46451 0
M  V30 2039 N 186.241 1.57166 -0.116904 0
M  V30 2040 C 187.151 2.18745 0.847812 0
M  V30 2041 C 188.167 1.163 1.29423 0
M  V30 2042 O 189.343 1.48761 1.35765 0
M  V30 2043 C 186.408 2.77307 2.0809 0
M  V30 2044 C 185.469 3.94781 1.68661 0
M  V30 2045 C 184.702 4.50541 2.86091 0
M  V30 2046 O 184.925 4.05202 4.01456 0
M  V30 2047 O 183.859 5.41256 2.63298 0
M  V30 2048 H 187.685 3.01632 0.353778 0
M  V30 2049 H 185.27 1.49005 0.108599 0
M  V30 2050 H 187.152 3.14647 2.80313 0
M  V30 2051 H 185.827 1.97452 2.56504 0
M  V30 2052 H 184.734 3.62214 0.935518 0
M  V30 2053 H 186.067 4.76065 1.24991 0
M  V30 2054 N 187.719 -0.156864 1.56817 0
M  V30 2055 C 189.135 -0.50916 1.5126 0
M  V30 2056 C 189.335 -1.83897 0.823658 0
M  V30 2057 O 188.391 -2.49469 0.390055 0
M  V30 2058 C 189.704 -0.52857 2.96018 0
M  V30 2059 C 191.252 -0.614771 3.06903 0
M  V30 2060 C 191.727 -0.664938 4.53147 0
M  V30 2061 N 193.218 -0.727433 4.57452 0
M  V30 2062 C 193.953 -0.787067 5.67973 0
M  V30 2063 N 193.449 -0.806649 6.88088 0
M  V30 2064 N 195.242 -0.827195 5.5598 0
M  V30 2065 H 187.393 0.714935 2.00006 0
M  V30 2066 H 189.656 0.259526 0.911784 0
M  V30 2067 H 189.362 0.380154 3.49639 0
M  V30 2068 H 189.236 -1.36998 3.51442 0
M  V30 2069 H 191.623 -1.51392 2.53307 0
M  V30 2070 H 191.704 0.253597 2.5454 0
M  V30 2071 H 191.348 0.230011 5.07379 0
M  V30 2072 H 191.278 -1.54966 5.03282 0
M  V30 2073 H 193.769 -0.719998 3.70978 0
M  V30 2074 H 194.082 -0.853727 7.6807 0
M  V30 2075 H 192.427 -0.774687 6.90669 0
M  V30 2076 H 195.618 -0.808998 4.61056 0
M  V30 2077 H 195.791 -0.870206 6.4213 0
M  V30 2078 N 189.197 -1.51736 -0.425897 0
M  V30 2079 C 190.427 -1.68549 -1.19476 0
M  V30 2080 C 190.835 -0.387288 -1.85194 0
M  V30 2081 O 190.178 0.645142 -1.71999 0
M  V30 2082 C 190.24 -2.75275 -2.31223 0
M  V30 2083 C 189.904 -4.17534 -1.8578 0
M  V30 2084 C 190.901 -5.01936 -1.35485 0
M  V30 2085 C 188.586 -4.6369 -1.93123 0
M  V30 2086 C 190.58 -6.30559 -0.931347 0
M  V30 2087 C 188.267 -5.92307 -1.50384 0
M  V30 2088 C 189.265 -6.75569 -1.00473 0
M  V30 2089 O 188.953 -8.0178 -0.583452 0
M  V30 2090 H 188.685 -0.568525 -0.365725 0
M  V30 2091 H 191.239 -1.98982 -0.509444 0
M  V30 2092 H 189.469 -2.40182 -3.03067 0
M  V30 2093 H 191.158 -2.80853 -2.93047 0
M  V30 2094 H 191.924 -4.67475 -1.29197 0
M  V30 2095 H 187.803 -3.98997 -2.30916 0
M  V30 2096 H 191.347 -6.95498 -0.541084 0
M  V30 2097 H 187.244 -6.2628 -1.56346 0
M  V30 2098 H 188.012 -8.1543 -0.708275 0
M  V30 2099 N 190.675 0.682077 -1.42076 0
M  V30 2100 C 192.086 1.26246 -1.37546 0
M  V30 2101 C 192.437 1.96092 -0.0651481 0
M  V30 2102 O 191.562 1.99587 0.836297 0
M  V30 2103 C 192.157 2.29594 -2.49143 0
M  V30 2104 C 190.716 2.83175 -2.47969 0
M  V30 2105 C 189.863 1.57395 -2.28303 0
M  V30 2106 H 192.814 0.475937 -1.51395 0
M  V30 2107 H 192.835 3.11175 -2.18976 0
M  V30 2108 H 192.347 1.78729 -3.44496 0
M  V30 2109 H 190.448 3.3818 -1.56413 0
M  V30 2110 H 190.561 3.32687 -3.44755 0
M  V30 2111 H 188.925 1.83699 -1.76428 0
M  V30 2112 H 189.708 1.08507 -3.25701 0
M  V30 2113 N 192.153 1.28127 0.917671 0
M  V30 2114 C 193.43 1.05761 1.64542 0
M  V30 2115 C 193.81 -0.404344 2.07191 0
M  V30 2116 O 193.158 -1.38963 1.81388 0
M  V30 2117 C 193.368 2.02857 2.83989 0
M  V30 2118 C 194.716 2.32786 3.551 0
M  V30 2119 O 195.74 2.0091 2.94132 0
M  V30 2120 O 194.599 2.87169 4.64969 0
M  V30 2121 H 191.693 0.403916 0.721652 0
M  V30 2122 H 194.239 1.39431 0.967322 0
M  V30 2123 H 193.011 3.01407 2.49538 0
M  V30 2124 H 192.634 1.69809 3.59514 0
M  V30 2125 N 193.631 -1.12557 1.10312 0
M  V30 2126 C 194.561 -2.20341 0.772798 0
M  V30 2127 C 195.542 -1.68198 -0.25365 0
M  V30 2128 O 196.727 -1.93831 -0.119699 0
M  V30 2129 C 193.857 -3.46709 0.202443 0
M  V30 2130 C 192.811 -4.11996 1.15943 0
M  V30 2131 C 192.137 -5.328 0.450345 0
M  V30 2132 C 193.437 -4.5828 2.50552 0
M  V30 2133 H 195.131 -2.48229 1.674 0
M  V30 2134 H 192.677 -1.19308 0.806326 0
M  V30 2135 H 194.63 -4.2138 -0.0407752 0
M  V30 2136 H 193.354 -3.18245 -0.734001 0
M  V30 2137 H 192.013 -3.39305 1.38808 0
M  V30 2138 H 191.661 -5.00602 -0.490531 0
M  V30 2139 H 191.361 -5.7743 1.08851 0
M  V30 2140 H 192.885 -6.10219 0.215642 0
M  V30 2141 H 194.299 -5.2433 2.31843 0
M  V30 2142 H 192.696 -5.13683 3.10242 0
M  V30 2143 H 193.766 -3.72329 3.10643 0
M  V30 2144 N 195.109 -0.891671 -1.2995 0
M  V30 2145 C 196.52 -0.563104 -1.78006 0
M  V30 2146 C 196.871 0.920978 -1.73241 0
M  V30 2147 O 195.996 1.71987 -1.31337 0
M  V30 2148 C 196.591 -1.01539 -3.23226 0
M  V30 2149 C 195.15 -0.738124 -3.69092 0
M  V30 2150 C 194.297 -1.19461 -2.50249 0
M  V30 2151 H 197.248 -1.07522 -1.16725 0
M  V30 2152 H 197.269 -0.347217 -3.78912 0
M  V30 2153 H 196.781 -2.09555 -3.26662 0
M  V30 2154 H 194.882 0.329766 -3.71138 0
M  V30 2155 H 194.995 -1.33037 -4.60259 0
M  V30 2156 H 193.359 -0.613787 -2.47194 0
M  V30 2157 H 194.142 -2.28265 -2.56417 0
M  V30 2158 N 196.587 1.43421 -0.653314 0
M  V30 2159 C 197.817 2.05864 -0.174238 0
M  V30 2160 C 198.225 1.49052 1.16534 0
M  V30 2161 O 197.568 0.616481 1.73047 0
M  V30 2162 C 197.63 3.59499 -0.00875873 0
M  V30 2163 C 197.294 4.38893 -1.27364 0
M  V30 2164 C 198.291 4.70947 -2.20239 0
M  V30 2165 C 195.976 4.789 -1.51525 0
M  V30 2166 C 197.97 5.41916 -3.35568 0
M  V30 2167 C 195.657 5.49614 -2.67147 0
M  V30 2168 C 196.655 5.81044 -3.58994 0
M  V30 2169 O 196.343 6.50313 -4.72597 0
M  V30 2170 H 196.075 0.670345 -0.0872549 0
M  V30 2171 H 198.629 1.84913 -0.894226 0
M  V30 2172 H 196.859 3.79025 0.7666 0
M  V30 2173 H 198.548 4.0364 0.427687 0
M  V30 2174 H 199.314 4.40558 -2.02815 0
M  V30 2175 H 195.193 4.53843 -0.809158 0
M  V30 2176 H 198.737 5.66365 -4.07279 0
M  V30 2177 H 194.634 5.79419 -2.84505 0
M  V30 2178 H 195.402 6.68795 -4.71864 0
M  V30 2179 N 198.065 0.39524 1.52563 0
M  V30 2180 C 199.311 -0.185318 2.01952 0
M  V30 2181 C 199.644 -1.45964 1.28095 0
M  V30 2182 O 198.919 -1.90689 0.38315 0
M  V30 2183 C 199.202 -0.447193 3.57312 0
M  V30 2184 C 199.055 0.842828 4.41833 0
M  V30 2185 C 200.374 -1.23529 4.22408 0
M  V30 2186 H 197.493 -0.0658788 0.73405 0
M  V30 2187 H 200.135 0.525975 1.82575 0
M  V30 2188 H 198.285 -1.05312 3.73954 0
M  V30 2189 H 199.957 1.4795 4.36931 0
M  V30 2190 H 198.2 1.45686 4.08605 0
M  V30 2191 H 198.871 0.614165 5.48573 0
M  V30 2192 H 201.347 -0.722445 4.0978 0
M  V30 2193 H 200.223 -1.38727 5.3108 0
M  V30 2194 H 200.484 -2.25213 3.80436 0
M  V30 2195 N 199.544 -1.57102 0.125237 0
M  V30 2196 C 200.774 -1.99472 -0.538015 0
M  V30 2197 C 201.182 -1.00395 -1.60366 0
M  V30 2198 O 200.525 0.0103875 -1.83697 0
M  V30 2199 C 200.587 -3.38262 -1.21734 0
M  V30 2200 C 200.251 -4.56021 -0.298897 0
M  V30 2201 C 201.248 -5.17817 0.464943 0
M  V30 2202 C 198.933 -5.01869 -0.208149 0
M  V30 2203 C 200.927 -6.23852 1.3072 0
M  V30 2204 C 198.614 -6.07763 0.637736 0
M  V30 2205 C 199.612 -6.68622 1.39403 0
M  V30 2206 O 199.3 -7.7247 2.22586 0
M  V30 2207 H 199.032 -0.659934 -0.146501 0
M  V30 2208 H 201.586 -2.04321 0.210267 0
M  V30 2209 H 199.816 -3.30185 -2.01282 0
M  V30 2210 H 201.505 -3.6488 -1.77813 0
M  V30 2211 H 202.271 -4.83308 0.404741 0
M  V30 2212 H 198.15 -4.54241 -0.786522 0
M  V30 2213 H 201.694 -6.71284 1.898 0
M  V30 2214 H 197.591 -6.41701 0.699309 0
M  V30 2215 H 198.359 -7.89595 2.15596 0
M  V30 2216 N 201.022 0.148545 -1.56898 0
M  V30 2217 C 202.268 0.862694 -1.83536 0
M  V30 2218 C 202.601 1.80889 -0.706604 0
M  V30 2219 O 201.876 1.92328 0.289885 0
M  V30 2220 C 202.159 1.63853 -3.20662 0
M  V30 2221 C 202.012 0.713925 -4.44098 0
M  V30 2222 C 203.331 2.60133 -3.54991 0
M  V30 2223 H 200.45 0.312179 -0.667618 0
M  V30 2224 H 203.092 0.127953 -1.89569 0
M  V30 2225 H 201.242 2.26489 -3.1565 0
M  V30 2226 H 202.914 0.098686 -4.61194 0
M  V30 2227 H 201.157 0.0234019 -4.33794 0
M  V30 2228 H 201.828 1.29278 -5.36648 0
M  V30 2229 H 204.304 2.07616 -3.60603 0
M  V30 2230 H 203.18 3.11468 -4.51972 0
M  V30 2231 H 203.441 3.41417 -2.80868 0
M  V30 2232 N 202.5 1.5196 0.417844 0
M  V30 2233 C 203.448 1.75278 1.52907 0
M  V30 2234 C 204.442 0.619611 1.57662 0
M  V30 2235 O 205.648 0.801457 1.61173 0
M  V30 2236 H 202.023 0.554141 0.508362 0
M  V30 2237 H 203.994 2.68389 1.30422 0
M  V30 2238 C 202.743 1.91262 2.90369 0
M  V30 2239 H 202.066 2.77872 2.8745 0
M  V30 2240 H 203.506 2.11581 3.67436 0
M  V30 2241 C 201.965 0.677431 3.30019 0
M  V30 2242 O 202.495 -0.158799 4.01386 0
M  V30 2243 N 200.701 0.515851 2.85985 0
M  V30 2244 H 200.248 1.19744 2.28077 0
M  V30 2245 H 200.206 -0.309315 3.12875 0
M  V30 2246 N 203.978 -0.674533 1.42435 0
M  V30 2247 C 205.203 -1.46784 1.46524 0
M  V30 2248 C 205.628 -1.87938 0.078066 0
M  V30 2249 O 204.986 -1.56014 -0.92354 0
M  V30 2250 C 205.034 -2.69307 2.39805 0
M  V30 2251 O 204.138 -3.67587 1.86959 0
M  V30 2252 H 203.479 -0.440959 0.496439 0
M  V30 2253 H 206.009 -0.827326 1.87127 0
M  V30 2254 H 206.019 -3.17374 2.56393 0
M  V30 2255 H 204.694 -2.38692 3.40586 0
M  V30 2256 H 203.271 -3.2662 1.79927 0
M  V30 2257 N 205.456 -1.28612 -0.910864 0
M  V30 2258 C 206.681 -1.1891 -1.69927 0
M  V30 2259 C 207.106 0.248372 -1.86453 0
M  V30 2260 O 206.464 1.17961 -1.37676 0
M  V30 2261 C 206.512 -1.89578 -3.06745 0
M  V30 2262 O 205.616 -1.20521 -3.94396 0
M  V30 2263 H 204.957 -0.412632 -0.520222 0
M  V30 2264 H 207.487 -1.69985 -1.1387 0
M  V30 2265 H 207.497 -1.97597 -3.56958 0
M  V30 2266 H 206.172 -2.94136 -2.94035 0
M  V30 2267 H 204.749 -1.20684 -3.52831 0
M  V30 2268 N 206.934 1.1197 -1.10907 0
M  V30 2269 C 208.182 1.83225 -0.852819 0
M  V30 2270 C 208.503 1.84769 0.623341 0
M  V30 2271 O 207.773 1.3143 1.45269 0
M  V30 2272 H 206.353 0.67849 -0.312507 0
M  V30 2273 H 209.015 1.3556 -1.40033 0
M  V30 2274 H 208.111 2.87265 -1.22005 0
M  V30 2275 N 208.412 0.89855 1.29475 0
M  V30 2276 C 209.64 0.539261 1.99749 0
M  V30 2277 C 210.055 -0.875716 1.67262 0
M  V30 2278 O 209.412 -1.57786 0.917049 0
M  V30 2279 C 209.463 0.72061 3.54245 0
M  V30 2280 O 209.184 2.07989 3.8558 0
M  V30 2281 C 210.685 0.366118 4.41786 0
M  V30 2282 H 207.905 0.207047 0.638258 0
M  V30 2283 H 210.449 1.20758 1.65039 0
M  V30 2284 H 208.604 0.0994862 3.87272 0
M  V30 2285 H 209.018 2.10841 4.80257 0
M  V30 2286 H 210.492 0.543848 5.49314 0
M  V30 2287 H 210.969 -0.696763 4.33638 0
M  V30 2288 H 211.575 0.964135 4.14228 0
M  V30 2289 N 209.89 -1.43072 0.660911 0
M  V30 2290 C 211.139 -2.00942 0.174735 0
M  V30 2291 C 211.452 -1.52797 -1.22117 0
M  V30 2292 O 212.658 -2.02991 -1.80297 0
M  V30 2293 C 211.114 -3.58948 0.261559 0
M  V30 2294 C 210.722 -4.16085 1.66064 0
M  V30 2295 C 212.466 -4.24173 -0.166617 0
M  V30 2296 C 210.373 -5.6641 1.70098 0
M  V30 2297 H 209.303 -0.751483 0.0615631 0
M  V30 2298 H 211.954 -1.63955 0.824069 0
M  V30 2299 H 210.336 -3.93372 -0.455421 0
M  V30 2300 H 211.51 -3.93147 2.40359 0
M  V30 2301 H 209.825 -3.6326 2.03546 0
M  V30 2302 H 212.422 -5.34471 -0.156433 0
M  V30 2303 H 212.765 -3.98647 -1.19943 0
M  V30 2304 H 213.298 -3.94659 0.498875 0
M  V30 2305 H 210.037 -5.96715 2.71315 0
M  V30 2306 H 209.557 -5.91382 1.00139 0
M  V30 2307 H 211.236 -6.30585 1.44816 0
M  V30 2308 N 211.368 -0.403325 -1.52352 0
M  V30 2309 C 212.278 0.432009 -2.30588 0
M  V30 2310 C 213.294 1.05884 -1.38075 0
M  V30 2311 O 214.47 1.06161 -1.71148 0
M  V30 2312 C 211.535 1.53669 -3.10784 0
M  V30 2313 C 210.596 0.933525 -4.19027 0
M  V30 2314 C 209.829 1.98557 -4.9539 0
M  V30 2315 O 210.052 3.20283 -4.71991 0
M  V30 2316 O 208.986 1.59504 -5.80381 0
M  V30 2317 H 212.812 -0.205739 -3.03002 0
M  V30 2318 H 210.397 -0.166675 -1.48467 0
M  V30 2319 H 212.279 2.17814 -3.60742 0
M  V30 2320 H 210.954 2.15915 -2.41169 0
M  V30 2321 H 209.861 0.254954 -3.7323 0
M  V30 2322 H 211.194 0.35508 -4.90918 0
M  V30 2323 N 212.846 1.57033 -0.133567 0
M  V30 2324 C 213.794 2.17348 0.828412 0
M  V30 2325 C 214.788 1.12671 1.26498 0
M  V30 2326 O 215.994 1.30947 1.23502 0
M  V30 2327 H 212.369 0.695775 0.285309 0
M  V30 2328 H 214.34 2.96935 0.295372 0
M  V30 2329 C 213.089 2.79893 2.06289 0
M  V30 2330 H 212.412 3.60147 1.73592 0
M  V30 2331 H 213.852 3.25615 2.71572 0
M  V30 2332 C 212.311 1.77713 2.86216 0
M  V30 2333 O 212.841 1.23937 3.82103 0
M  V30 2334 N 211.047 1.47321 2.50489 0
M  V30 2335 H 210.594 1.91243 1.7258 0
M  V30 2336 H 210.552 0.79199 3.04261 0
M  V30 2337 N 214.325 -0.140222 1.56975 0
M  V30 2338 C 215.555 -0.865181 1.87612 0
M  V30 2339 C 215.963 -1.74942 0.72055 0
M  V30 2340 O 215.306 -1.80917 -0.318561 0
M  V30 2341 C 215.368 -1.76782 3.13031 0
M  V30 2342 C 215.032 -1.06005 4.44536 0
M  V30 2343 C 216.029 -0.410768 5.18275 0
M  V30 2344 C 213.714 -1.04754 4.91255 0
M  V30 2345 C 215.708 0.241572 6.36942 0
M  V30 2346 C 213.395 -0.391394 6.09845 0
M  V30 2347 C 214.393 0.252029 6.82535 0
M  V30 2348 O 214.081 0.897757 7.98871 0
M  V30 2349 H 213.813 -0.255188 0.625983 0
M  V30 2350 H 216.367 -0.135653 2.04952 0
M  V30 2351 H 214.597 -2.53846 2.91718 0
M  V30 2352 H 216.286 -2.36533 3.29859 0
M  V30 2353 H 217.052 -0.412195 4.83245 0
M  V30 2354 H 212.931 -1.53777 4.34596 0
M  V30 2355 H 216.475 0.744375 6.93617 0
M  V30 2356 H 212.372 -0.387656 6.44335 0
M  V30 2357 H 213.14 0.800102 8.1458 0
M  V30 2358 N 215.803 -1.52179 -0.40978 0
M  V30 2359 C 216.75 -1.75475 -1.49924 0
M  V30 2360 C 217.72 -0.597175 -1.54994 0
M  V30 2361 O 218.905 -0.834655 -1.71575 0
M  V30 2362 C 216.045 -1.9107 -2.87378 0
M  V30 2363 C 215.158 -3.18717 -2.91622 0
M  V30 2364 C 214.293 -3.24747 -4.20372 0
M  V30 2365 C 213.332 -4.46598 -4.18588 0
M  V30 2366 N 212.469 -4.50025 -5.38908 0
M  V30 2367 H 217.309 -2.68458 -1.29361 0
M  V30 2368 H 214.846 -1.33024 -0.627934 0
M  V30 2369 H 216.804 -1.98096 -3.6717 0
M  V30 2370 H 215.434 -1.01469 -3.06437 0
M  V30 2371 H 214.486 -3.20866 -2.04326 0
M  V30 2372 H 215.798 -4.08544 -2.86169 0
M  V30 2373 H 214.952 -3.30841 -5.08556 0
M  V30 2374 H 213.691 -2.32857 -4.28519 0
M  V30 2375 H 212.696 -4.40652 -3.28794 0
M  V30 2376 H 213.921 -5.39783 -4.12081 0
M  V30 2377 H 211.867 -3.61017 -5.47725 0
M  V30 2378 H 211.784 -5.33697 -5.35447 0
M  V30 2379 H 213.052 -4.60347 -6.29048 0
M  V30 2380 N 217.281 0.66697 -1.42791 0
M  V30 2381 C 218.692 1.2478 -1.38877 0
M  V30 2382 C 219.043 1.96012 -0.0859426 0
M  V30 2383 O 218.168 2.00463 0.815081 0
M  V30 2384 C 218.763 2.26938 -2.51564 0
M  V30 2385 C 217.322 2.80529 -2.50959 0
M  V30 2386 C 216.469 1.54965 -2.29959 0
M  V30 2387 H 219.42 0.459853 -1.51892 0
M  V30 2388 H 219.441 3.08834 -2.22265 0
M  V30 2389 H 218.953 1.75065 -3.46372 0
M  V30 2390 H 217.054 3.36502 -1.59991 0
M  V30 2391 H 217.167 3.29012 -3.48265 0
M  V30 2392 H 215.531 1.81817 -1.78366 0
M  V30 2393 H 216.314 1.05047 -3.26833 0
M  V30 2394 N 218.759 1.29093 0.90403 0
M  V30 2395 C 220.008 1.16187 1.64874 0
M  V30 2396 C 220.321 -0.286742 1.93487 0
M  V30 2397 O 221.527 -0.537062 2.66135 0
M  V30 2398 C 219.983 2.03177 2.97064 0
M  V30 2399 C 219.591 3.52836 2.76062 0
M  V30 2400 C 221.335 1.98984 3.74974 0
M  V30 2401 C 219.242 4.31945 4.03952 0
M  V30 2402 H 218.172 0.431246 0.618501 0
M  V30 2403 H 220.823 1.53699 1.00243 0
M  V30 2404 H 219.205 1.5853 3.62883 0
M  V30 2405 H 220.379 4.05507 2.18863 0
M  V30 2406 H 218.694 3.58656 2.11553 0
M  V30 2407 H 221.291 2.55351 4.69787 0
M  V30 2408 H 221.634 0.968815 4.0487 0
M  V30 2409 H 222.167 2.41652 3.15989 0
M  V30 2410 H 218.906 5.34667 3.79225 0
M  V30 2411 H 218.426 3.84045 4.60727 0
M  V30 2412 H 220.105 4.42379 4.72133 0
M  V30 2413 N 220.237 -1.11381 1.11499 0
M  V30 2414 C 221.169 -2.17207 0.731704 0
M  V30 2415 C 222.182 -1.61066 -0.236957 0
M  V30 2416 O 223.371 -1.78489 -0.0197591 0
M  V30 2417 C 220.471 -3.38846 0.0607624 0
M  V30 2418 C 219.644 -4.24451 1.0564 0
M  V30 2419 C 218.703 -5.24562 0.4149 0
M  V30 2420 O 217.729 -5.59071 1.069 0
M  V30 2421 N 218.931 -5.74651 -0.821943 0
M  V30 2422 H 221.696 -2.50699 1.64225 0
M  V30 2423 H 219.257 -1.26908 1.00529 0
M  V30 2424 H 221.249 -4.02911 -0.380139 0
M  V30 2425 H 219.819 -3.03411 -0.752376 0
M  V30 2426 H 219.039 -3.56833 1.67524 0
M  V30 2427 H 220.327 -4.78486 1.72998 0
M  V30 2428 H 219.725 -5.48797 -1.37252 0
M  V30 2429 H 218.282 -6.40549 -1.20582 0
M  V30 2430 N 221.715 -0.905404 -1.28997 0
M  V30 2431 C 222.961 -0.535039 -1.95615 0
M  V30 2432 C 223.294 0.917404 -1.71165 0
M  V30 2433 O 222.569 1.65123 -1.02785 0
M  V30 2434 C 222.852 -0.834918 -3.50287 0
M  V30 2435 C 222.705 -2.33948 -3.84172 0
M  V30 2436 C 224.024 -0.325318 -4.38896 0
M  V30 2437 H 221.143 -0.195861 -0.710498 0
M  V30 2438 H 223.785 -1.13313 -1.52513 0
M  V30 2439 H 221.935 -0.325904 -3.87131 0
M  V30 2440 H 223.607 -2.91847 -3.57243 0
M  V30 2441 H 221.85 -2.79789 -3.31513 0
M  V30 2442 H 222.521 -2.49987 -4.92149 0
M  V30 2443 H 224.997 -0.761256 -4.09077 0
M  V30 2444 H 223.873 -0.564295 -5.45992 0
M  V30 2445 H 224.134 0.774144 -4.35269 0
M  V30 2446 N 223.193 1.4272 -0.668489 0
M  V30 2447 C 224.439 2.01923 -0.188419 0
M  V30 2448 C 224.772 1.52704 1.19979 0
M  V30 2449 O 224.047 0.726566 1.8042 0
M  V30 2450 C 224.33 3.59451 -0.216085 0
M  V30 2451 C 224.183 4.18864 -1.6393 0
M  V30 2452 C 225.502 4.37903 0.439179 0
M  V30 2453 H 222.621 0.733674 -0.0699412 0
M  V30 2454 H 225.263 1.69822 -0.852076 0
M  V30 2455 H 223.413 3.86929 0.349012 0
M  V30 2456 H 225.085 4.02362 -2.25616 0
M  V30 2457 H 223.328 3.74933 -2.18193 0
M  V30 2458 H 223.999 5.27987 -1.61039 0
M  V30 2459 H 226.475 4.16079 -0.0417878 0
M  V30 2460 H 225.351 5.47519 0.389157 0
M  V30 2461 H 225.612 4.15303 1.51577 0
M  V30 2462 N 224.671 0.411399 1.52136 0
M  V30 2463 C 225.896 -0.165538 2.06738 0
M  V30 2464 C 226.321 -1.379 1.27926 0
M  V30 2465 O 225.679 -1.78628 0.310114 0
M  V30 2466 C 225.727 -0.492124 3.57226 0
M  V30 2467 O 224.831 -1.58276 3.80818 0
M  V30 2468 H 224.172 -0.0132132 0.663869 0
M  V30 2469 H 226.702 0.585253 1.96051 0
M  V30 2470 H 226.712 -0.750104 4.01045 0
M  V30 2471 H 225.387 0.394922 4.14021 0
M  V30 2472 H 223.964 -1.31677 3.48877 0
M  V30 2473 N 226.149 -1.5696 0.141893 0
M  V30 2474 C 227.112 -2.15316 -0.785587 0
M  V30 2475 C 228.112 -1.09366 -1.1788 0
M  V30 2476 O 229.302 -1.35031 -1.10056 0
M  V30 2477 C 226.434 -2.71211 -2.06537 0
M  V30 2478 H 227.627 -2.98608 -0.278041 0
M  V30 2479 H 225.18 -1.5593 -0.107519 0
M  V30 2480 H 225.915 -1.91571 -2.6167 0
M  V30 2481 H 225.7 -3.4872 -1.79268 0
M  V30 2482 H 227.19 -3.16189 -2.72789 0
M  V30 2483 N 227.627 0.131896 -1.57047 0
M  V30 2484 C 228.867 0.847972 -1.85981 0
M  V30 2485 C 229.231 1.77655 -0.7282 0
M  V30 2486 O 230.432 2.53322 -0.898968 0
M  V30 2487 C 228.703 1.58919 -3.20124 0
M  V30 2488 S 230.262 2.34862 -3.70655 0
M  V30 2489 H 227.08 0.283273 -0.652133 0
M  V30 2490 H 229.682 0.107057 -1.95207 0
M  V30 2491 H 228.386 0.898771 -4.00438 0
M  V30 2492 H 227.917 2.37073 -3.13942 0
M  V30 2493 H 229.932 3.60344 -3.41126 0
M  V30 2494 N 229.106 1.52395 0.401703 0
M  V30 2495 C 230.331 1.70972 1.17403 0
M  V30 2496 C 230.756 0.421615 1.83314 0
M  V30 2497 O 230.114 -0.621564 1.70312 0
M  V30 2498 C 230.162 2.85151 2.20728 0
M  V30 2499 O 229.266 2.51238 3.27037 0
M  V30 2500 H 228.607 0.568927 0.342372 0
M  V30 2501 H 231.137 1.99131 0.469891 0
M  V30 2502 H 231.147 3.10279 2.64936 0
M  V30 2503 H 229.822 3.78603 1.7214 0
M  V30 2504 H 228.399 2.36808 2.88057 0
M  V30 2505 N 230.584 -0.659388 1.43143 0
M  V30 2506 C 231.514 -1.78422 1.50625 0
M  V30 2507 C 232.495 -1.66216 0.361443 0
M  V30 2508 O 233.68 -1.85404 0.577834 0
M  V30 2509 C 230.81 -3.16815 1.42287 0
M  V30 2510 C 229.764 -3.43777 2.54954 0
M  V30 2511 C 229.09 -4.81905 2.31671 0
M  V30 2512 C 230.39 -3.39134 3.97222 0
M  V30 2513 H 232.084 -1.72417 2.44771 0
M  V30 2514 H 229.63 -0.828084 1.17808 0
M  V30 2515 H 231.583 -3.95253 1.46127 0
M  V30 2516 H 230.307 -3.23534 0.446435 0
M  V30 2517 H 228.966 -2.67707 2.50457 0
M  V30 2518 H 228.614 -4.85294 1.32284 0
M  V30 2519 H 228.314 -5.00906 3.07192 0
M  V30 2520 H 229.838 -5.62609 2.37284 0
M  V30 2521 H 231.252 -4.07518 4.03239 0
M  V30 2522 H 229.649 -3.69671 4.72719 0
M  V30 2523 H 230.719 -2.37426 4.22797 0
M  V30 2524 N 232.062 -1.29571 -0.897171 0
M  V30 2525 C 232.972 -1.16808 -2.03453 0
M  V30 2526 C 233.988 -0.0907471 -1.73763 0
M  V30 2527 O 235.164 -0.303312 -1.99103 0
M  V30 2528 C 232.229 -0.848264 -3.36163 0
M  V30 2529 C 231.29 -2.0097 -3.79354 0
M  V30 2530 C 230.523 -1.70505 -5.05731 0
M  V30 2531 O 230.746 -0.62718 -5.66941 0
M  V30 2532 O 229.68 -2.5538 -5.45036 0
M  V30 2533 H 233.506 -2.12325 -2.17144 0
M  V30 2534 H 231.091 -1.09047 -1.02123 0
M  V30 2535 H 232.973 -0.684581 -4.15802 0
M  V30 2536 H 231.648 0.0771071 -3.23608 0
M  V30 2537 H 230.555 -2.22863 -3.00471 0
M  V30 2538 H 231.888 -2.91636 -3.96496 0
M  V30 2539 N 233.54 1.10788 -1.12088 0
M  V30 2540 C 234.768 1.86461 -0.896651 0
M  V30 2541 C 235.183 1.80492 0.553912 0
M  V30 2542 O 234.54 1.19102 1.38278 0
M  V30 2543 C 234.591 3.35006 -1.35843 0
M  V30 2544 O 234.312 3.40866 -2.75213 0
M  V30 2545 C 235.813 4.27565 -1.1706 0
M  V30 2546 H 233.033 0.589425 -0.320654 0
M  V30 2547 H 235.577 1.40076 -1.48993 0
M  V30 2548 H 233.732 3.7887 -0.808458 0
M  V30 2549 H 234.146 4.33411 -2.9539 0
M  V30 2550 H 235.62 5.30007 -1.54263 0
M  V30 2551 H 236.097 4.3906 -0.110814 0
M  V30 2552 H 236.703 3.89501 -1.70789 0
M  V30 2553 N 235.018 0.912232 1.28515 0
M  V30 2554 C 236.248 0.559604 1.98877 0
M  V30 2555 C 236.656 -0.863113 1.68366 0
M  V30 2556 O 235.999 -1.58304 0.931969 0
M  V30 2557 C 236.061 0.68703 3.52874 0
M  V30 2558 C 235.725 2.07901 4.06972 0
M  V30 2559 C 236.722 3.05157 4.20922 0
M  V30 2560 C 234.407 2.39178 4.417 0
M  V30 2561 C 236.401 4.31806 4.68852 0
M  V30 2562 C 234.088 3.66068 4.89324 0
M  V30 2563 C 235.086 4.62195 5.02856 0
M  V30 2564 O 234.774 5.86829 5.49442 0
M  V30 2565 H 234.506 0.212191 0.641834 0
M  V30 2566 H 237.06 1.22712 1.64715 0
M  V30 2567 H 235.29 -0.0375486 3.86682 0
M  V30 2568 H 236.979 0.341727 4.04459 0
M  V30 2569 H 237.745 2.82311 3.94367 0
M  V30 2570 H 233.624 1.65109 4.30418 0
M  V30 2571 H 237.168 5.06842 4.79329 0
M  V30 2572 H 233.065 3.88739 5.15318 0
M  V30 2573 H 233.833 5.89597 5.6773 0
M  V30 2574 N 236.496 -1.42363 0.676048 0
M  V30 2575 C 237.459 -2.29199 0.00766941 0
M  V30 2576 C 238.459 -1.43389 -0.727745 0
M  V30 2577 O 239.649 -1.64764 -0.56556 0
M  V30 2578 C 236.781 -3.2591 -0.999785 0
M  V30 2579 H 237.974 -2.89794 0.771988 0
M  V30 2580 H 235.527 -1.50024 0.438468 0
M  V30 2581 H 236.262 -2.70256 -1.79255 0
M  V30 2582 H 236.047 -3.89202 -0.475829 0
M  V30 2583 H 237.537 -3.91028 -1.46583 0
M  V30 2584 N 237.974 -0.419461 -1.51915 0
M  V30 2585 C 239.221 0.152939 -2.01922 0
M  V30 2586 C 239.549 1.4426 -1.30458 0
M  V30 2587 O 238.804 1.91514 -0.402593 0
M  V30 2588 C 239.103 0.437067 -3.54717 0
M  V30 2589 C 238.769 -0.764632 -4.44369 0
M  V30 2590 C 237.431 -1.09423 -4.68594 0
M  V30 2591 C 239.783 -1.56713 -4.97082 0
M  V30 2592 C 237.111 -2.22732 -5.42777 0
M  V30 2593 C 239.463 -2.69107 -5.72507 0
M  V30 2594 C 238.127 -3.02541 -5.95 0
M  V30 2595 H 237.397 0.0559644 -0.738884 0
M  V30 2596 H 240.044 -0.562998 -1.83037 0
M  V30 2597 H 238.349 1.23469 -3.71837 0
M  V30 2598 H 240.046 0.893083 -3.90928 0
M  V30 2599 H 236.636 -0.497775 -4.257 0
M  V30 2600 H 240.82 -1.32571 -4.78266 0
M  V30 2601 H 236.076 -2.48971 -5.58411 0
M  V30 2602 H 240.25 -3.31671 -6.12346 0
M  V30 2603 H 237.877 -3.90457 -6.52264 0
M  V30 2604 N 239.452 1.56882 -0.150215 0
M  V30 2605 C 240.863 1.82995 0.370076 0
M  V30 2606 C 241.214 1.06907 1.64515 0
M  V30 2607 O 240.339 0.315369 2.1409 0
M  V30 2608 C 240.934 3.31942 0.678208 0
M  V30 2609 C 239.493 3.58625 1.14301 0
M  V30 2610 C 238.64 2.76792 0.167778 0
M  V30 2611 H 241.591 1.54209 -0.374858 0
M  V30 2612 H 241.612 3.48272 1.53254 0
M  V30 2613 H 241.124 3.87294 -0.249991 0
M  V30 2614 H 239.225 3.08664 2.08704 0
M  V30 2615 H 239.338 4.67073 1.06676 0
M  V30 2616 H 237.702 2.45972 0.661037 0
M  V30 2617 H 238.485 3.34916 -0.754069 0
M  V30 2618 N 240.93 -0.123565 1.57115 0
M  V30 2619 C 242.177 -0.832153 1.84612 0
M  V30 2620 C 242.505 -1.80093 0.734627 0
M  V30 2621 O 241.76 -1.93766 -0.27442 0
M  V30 2622 C 242.059 -1.62016 3.18568 0
M  V30 2623 C 241.725 -0.796084 4.43817 0
M  V30 2624 C 240.387 -0.568816 4.77826 0
M  V30 2625 C 242.739 -0.221364 5.2073 0
M  V30 2626 C 240.067 0.243499 5.86194 0
M  V30 2627 C 242.419 0.578117 6.29953 0
M  V30 2628 C 241.083 0.815744 6.62497 0
M  V30 2629 H 240.353 -0.304507 0.675542 0
M  V30 2630 H 243 -0.0947248 1.91266 0
M  V30 2631 H 241.305 -2.42837 3.0747 0
M  V30 2632 H 243.002 -2.17231 3.37064 0
M  V30 2633 H 239.592 -0.983307 4.17168 0
M  V30 2634 H 243.776 -0.384173 4.94811 0
M  V30 2635 H 239.032 0.436871 6.09837 0
M  V30 2636 H 243.206 1.03046 6.88734 0
M  V30 2637 H 240.833 1.44701 7.46301 0
M  V30 2638 N 242.408 -1.52605 -0.393616 0
M  V30 2639 C 243.685 -1.58001 -1.15304 0
M  V30 2640 C 244.065 -0.370385 -2.07825 0
M  V30 2641 O 243.413 0.641638 -2.19306 0
M  V30 2642 C 243.623 -2.91652 -1.91677 0
M  V30 2643 C 244.971 -3.4522 -2.47201 0
M  V30 2644 O 245.995 -2.93495 -2.01839 0
M  V30 2645 O 244.854 -4.35579 -3.3005 0
M  V30 2646 H 241.948 -0.637068 -0.527327 0
M  V30 2647 H 244.494 -1.64939 -0.399141 0
M  V30 2648 H 243.266 -3.71136 -1.23992 0
M  V30 2649 H 242.889 -2.88077 -2.74039 0
M  V30 2650 N 243.887 0.651787 -1.4349 0
M  V30 2651 C 245.133 1.41376 -1.45398 0
M  V30 2652 C 245.466 1.94041 -0.0784823 0
M  V30 2653 O 244.741 1.72379 0.900878 0
M  V30 2654 C 245.024 2.59414 -2.49752 0
M  V30 2655 C 244.877 2.12232 -3.96582 0
M  V30 2656 C 246.196 3.61626 -2.50827 0
M  V30 2657 H 243.315 0.512719 -0.529422 0
M  V30 2658 H 245.957 0.738796 -1.75048 0
M  V30 2659 H 244.107 3.16997 -2.246 0
M  V30 2660 H 245.779 1.59639 -4.32797 0
M  V30 2661 H 244.022 1.43592 -4.09346 0
M  V30 2662 H 244.693 2.9712 -4.65214 0
M  V30 2663 H 247.169 3.13805 -2.7325 0
M  V30 2664 H 246.045 4.41766 -3.25783 0
M  V30 2665 H 246.306 4.14314 -1.5426 0
M  V30 2666 N 245.365 1.30045 0.890287 0
M  V30 2667 C 246.297 1.11786 2.00091 0
M  V30 2668 C 247.31 0.0626307 1.62679 0
M  V30 2669 O 248.499 0.308112 1.75821 0
M  V30 2670 C 245.599 0.681527 3.31977 0
M  V30 2671 C 244.772 1.81735 3.97858 0
M  V30 2672 C 243.831 1.37045 5.08041 0
M  V30 2673 O 242.857 2.07677 5.29961 0
M  V30 2674 N 244.059 0.246525 5.79976 0
M  V30 2675 H 246.824 2.07441 2.16306 0
M  V30 2676 H 244.385 1.2211 1.06305 0
M  V30 2677 H 246.377 0.365675 4.03045 0
M  V30 2678 H 244.947 -0.182828 3.12065 0
M  V30 2679 H 244.167 2.30159 3.20032 0
M  V30 2680 H 245.455 2.57865 4.38615 0
M  V30 2681 H 244.853 -0.34215 5.64664 0
M  V30 2682 H 243.41 -0.00990438 6.51799 0
M  V30 2683 N 246.843 -1.10192 1.12674 0
M  V30 2684 C 247.791 -2.18694 0.792196 0
M  V30 2685 C 248.785 -1.67938 -0.222058 0
M  V30 2686 O 249.991 -1.79822 -0.0800074 0
M  V30 2687 H 246.366 -0.713223 0.238364 0
M  V30 2688 H 248.337 -2.44149 1.71564 0
M  V30 2689 C 247.086 -3.46682 0.265859 0
M  V30 2690 H 246.409 -3.86101 1.03761 0
M  V30 2691 H 247.849 -4.23942 0.0701128 0
M  V30 2692 C 246.308 -3.21506 -1.00675 0
M  V30 2693 O 246.838 -3.43408 -2.08408 0
M  V30 2694 N 245.044 -2.75158 -0.934692 0
M  V30 2695 H 244.591 -2.57535 -0.0578604 0
M  V30 2696 H 244.549 -2.58691 -1.7868 0
M  V30 2697 N 248.321 -0.919034 -1.28029 0
M  V30 2698 C 249.561 -0.562107 -1.96519 0
M  V30 2699 C 249.925 0.878784 -1.70708 0
M  V30 2700 O 251.126 1.34355 -2.32813 0
M  V30 2701 C 249.397 -0.868953 -3.46676 0
M  V30 2702 S 250.956 -0.619237 -4.34409 0
M  V30 2703 H 247.774 -0.2078 -0.679956 0
M  V30 2704 H 250.376 -1.18562 -1.55446 0
M  V30 2705 H 249.08 -1.91547 -3.62957 0
M  V30 2706 H 248.611 -0.234301 -3.92702 0
M  V30 2707 H 250.626 0.526995 -4.93394 0
M  V30 2708 N 249.799 1.42003 -0.683588 0
M  V30 2709 C 251.024 2.06265 -0.216647 0
M  V30 2710 C 251.449 1.51059 1.12083 0
M  V30 2711 O 250.807 0.632638 1.69904 0
M  V30 2712 C 250.855 3.60191 -0.171759 0
M  V30 2713 O 249.959 4.03396 0.857069 0
M  V30 2714 H 249.3 0.65502 -0.108834 0
M  V30 2715 H 251.83 1.81982 -0.935077 0
M  V30 2716 H 251.84 4.08 0.0014303 0
M  V30 2717 H 250.515 3.99743 -1.14796 0
M  V30 2718 H 249.092 3.67117 0.654208 0
M  V30 2719 N 251.277 0.427512 1.51691 0
M  V30 2720 C 252.207 -0.3796 2.30394 0
M  V30 2721 C 253.188 -1.02982 1.35384 0
M  V30 2722 O 254.373 -1.03534 1.643 0
M  V30 2723 C 251.503 -1.48649 3.1388 0
M  V30 2724 C 250.457 -0.960294 4.17088 0
M  V30 2725 C 249.783 -2.16219 4.89033 0
M  V30 2726 C 251.083 -0.00153679 5.223 0
M  V30 2727 H 252.777 0.277164 2.98114 0
M  V30 2728 H 250.323 0.134739 1.43368 0
M  V30 2729 H 252.276 -2.05826 3.67714 0
M  V30 2730 H 251 -2.1714 2.43962 0
M  V30 2731 H 249.659 -0.410806 3.64291 0
M  V30 2732 H 249.307 -2.83307 4.15628 0
M  V30 2733 H 249.007 -1.81654 5.58816 0
M  V30 2734 H 250.531 -2.73968 5.45687 0
M  V30 2735 H 251.945 -0.482687 5.71264 0
M  V30 2736 H 250.342 0.256199 5.99553 0
M  V30 2737 H 251.412 0.938174 4.75738 0
M  V30 2738 N 252.755 -1.56801 0.158532 0
M  V30 2739 C 253.983 -2.00859 -0.496303 0
M  V30 2740 C 254.398 -1.03871 -1.57659 0
M  V30 2741 O 253.755 -0.0375165 -1.82461 0
M  V30 2742 C 253.806 -3.4479 -1.08638 0
M  V30 2743 O 253.527 -4.38072 -0.0492322 0
M  V30 2744 C 255.028 -4.04185 -1.8207 0
M  V30 2745 H 252.248 -0.65864 -0.128199 0
M  V30 2746 H 254.792 -2.02885 0.256506 0
M  V30 2747 H 252.947 -3.43579 -1.78975 0
M  V30 2748 H 253.361 -5.2227 -0.483102 0
M  V30 2749 H 254.835 -5.06857 -2.18633 0
M  V30 2750 H 255.312 -3.45549 -2.71095 0
M  V30 2751 H 255.918 -4.0906 -1.16405 0
M  V30 2752 N 254.233 0.115231 -1.57178 0
M  V30 2753 C 255.48 0.822351 -1.8505 0
M  V30 2754 C 255.808 1.79701 -0.744168 0
M  V30 2755 O 255.063 1.93909 0.26414 0
M  V30 2756 C 255.362 1.60324 -3.19423 0
M  V30 2757 C 255.028 0.772536 -4.44233 0
M  V30 2758 C 253.69 0.543468 -4.78121 0
M  V30 2759 C 256.042 0.193746 -5.2084 0
M  V30 2760 C 253.37 -0.274583 -5.86057 0
M  V30 2761 C 255.722 -0.611517 -6.29637 0
M  V30 2762 C 254.386 -0.850867 -6.62055 0
M  V30 2763 H 253.656 0.30092 -0.677147 0
M  V30 2764 H 256.303 0.0845802 -1.91313 0
M  V30 2765 H 254.608 2.41203 -3.08753 0
M  V30 2766 H 256.305 2.1544 -3.38211 0
M  V30 2767 H 252.895 0.96117 -4.17683 0
M  V30 2768 H 257.079 0.357926 -4.95008 0
M  V30 2769 H 252.335 -0.469206 -6.09597 0
M  V30 2770 H 256.509 -1.06697 -6.88178 0
M  V30 2771 H 254.136 -1.48657 -7.45523 0
M  V30 2772 N 255.711 1.52812 0.385517 0
M  V30 2773 C 256.658 1.77838 1.47113 0
M  V30 2774 C 257.628 0.621757 1.54024 0
M  V30 2775 O 258.813 0.861846 1.70226 0
M  V30 2776 C 255.953 1.95618 2.84302 0
M  V30 2777 C 255.066 3.23316 2.86515 0
M  V30 2778 C 254.201 3.31394 4.15152 0
M  V30 2779 C 253.24 4.53201 4.1143 0
M  V30 2780 N 252.377 4.58542 5.3168 0
M  V30 2781 H 257.217 2.70482 1.25073 0
M  V30 2782 H 254.754 1.34006 0.606692 0
M  V30 2783 H 256.712 2.03912 3.63972 0
M  V30 2784 H 255.342 1.06331 3.04784 0
M  V30 2785 H 254.394 3.24076 1.99195 0
M  V30 2786 H 255.706 4.13045 2.79634 0
M  V30 2787 H 254.86 3.3889 5.03228 0
M  V30 2788 H 253.599 2.39645 4.24761 0
M  V30 2789 H 252.604 4.45827 3.21742 0
M  V30 2790 H 253.829 5.46271 4.03442 0
M  V30 2791 H 251.775 3.69686 5.41912 0
M  V30 2792 H 251.692 5.42148 5.26889 0
M  V30 2793 H 252.96 4.70296 6.21644 0
M  V30 2794 N 257.189 -0.644168 1.43834 0
M  V30 2795 C 258.414 -1.43642 1.49605 0
M  V30 2796 C 258.839 -1.8773 0.117913 0
M  V30 2797 O 258.197 -1.57938 -0.890239 0
M  V30 2798 C 258.245 -2.6416 2.45463 0
M  V30 2799 O 257.349 -3.63538 1.94714 0
M  V30 2800 H 256.69 -0.430329 0.50568 0
M  V30 2801 H 259.22 -0.787448 1.8884 0
M  V30 2802 H 259.23 -3.11864 2.63068 0
M  V30 2803 H 257.905 -2.31414 3.45572 0
M  V30 2804 H 256.482 -3.2273 1.86814 0
M  V30 2805 N 258.668 -1.30515 -0.883378 0
M  V30 2806 C 259.917 -1.18795 -1.63005 0
M  V30 2807 C 260.23 0.255923 -1.93919 0
M  V30 2808 O 261.436 0.494654 -2.66956 0
M  V30 2809 C 259.892 -2.07878 -2.93794 0
M  V30 2810 C 259.5 -3.57184 -2.70414 0
M  V30 2811 C 261.244 -2.04924 -3.71761 0
M  V30 2812 C 259.151 -4.38317 -3.97029 0
M  V30 2813 H 258.081 -0.441031 -0.611562 0
M  V30 2814 H 260.732 -1.55275 -0.977854 0
M  V30 2815 H 259.114 -1.64283 -3.60315 0
M  V30 2816 H 260.288 -4.08937 -2.12384 0
M  V30 2817 H 258.603 -3.61976 -2.0582 0
M  V30 2818 H 261.2 -2.62792 -4.65665 0
M  V30 2819 H 261.543 -1.0331 -4.03277 0
M  V30 2820 H 262.076 -2.46649 -3.12104 0
M  V30 2821 H 258.815 -5.40632 -3.70671 0
M  V30 2822 H 258.335 -3.91326 -4.54559 0
M  V30 2823 H 260.014 -4.49834 -4.65036 0
M  V30 2824 N 260.146 1.09593 -1.13257 0
M  V30 2825 C 261.076 2.18214 -0.830946 0
M  V30 2826 C 262.057 1.68812 0.208966 0
M  V30 2827 O 263.242 1.9408 0.0682666 0
M  V30 2828 C 260.372 3.46051 -0.294296 0
M  V30 2829 C 259.326 4.08778 -1.26826 0
M  V30 2830 C 258.652 5.31419 -0.591449 0
M  V30 2831 C 259.952 4.51476 -2.62615 0
M  V30 2832 H 261.646 2.43703 -1.73923 0
M  V30 2833 H 259.192 1.17128 -0.837675 0
M  V30 2834 H 261.145 4.2134 -0.0709606 0
M  V30 2835 H 259.869 3.20079 0.649366 0
M  V30 2836 H 258.528 3.35505 -1.47756 0
M  V30 2837 H 258.176 5.01727 0.357633 0
M  V30 2838 H 257.876 5.74341 -1.24123 0
M  V30 2839 H 259.4 6.09433 -0.377355 0
M  V30 2840 H 260.814 5.17999 -2.45663 0
M  V30 2841 H 259.211 5.05277 -3.23752 0
M  V30 2842 H 260.281 3.63962 -3.20406 0
M  V30 2843 N 261.624 0.925811 1.2754 0
M  V30 2844 C 262.574 0.394488 2.24561 0
M  V30 2845 C 263.558 -0.500183 1.52928 0
M  V30 2846 O 264.75 -0.337936 1.73744 0
M  V30 2847 C 261.879 -0.353328 3.41477 0
M  V30 2848 C 260.965 0.557752 4.20416 0
M  V30 2849 N 261.356 1.67674 4.77199 0
M  V30 2850 C 259.654 0.360404 4.44541 0
M  V30 2851 C 260.355 2.24324 5.36706 0
M  V30 2852 N 259.331 1.53305 5.21535 0
M  V30 2853 H 263.133 1.2489 2.66045 0
M  V30 2854 H 260.647 0.779864 1.4245 0
M  V30 2855 H 262.644 -0.7509 4.10082 0
M  V30 2856 H 261.304 -1.20469 3.01525 0
M  V30 2857 H 262.315 2.05915 4.75204 0
M  V30 2858 H 258.992 -0.450454 4.15063 0
M  V30 2859 H 260.382 3.18521 5.91603 0
M  V30 2860 N 263.102 -1.41638 0.69111 0
M  V30 2861 C 264.33 -2.05628 0.22909 0
M  V30 2862 C 264.745 -1.51992 -1.11999 0
M  V30 2863 O 264.102 -0.666322 -1.69901 0
M  V30 2864 C 264.153 -3.61084 0.173283 0
M  V30 2865 O 263.874 -4.12735 1.46907 0
M  V30 2866 C 265.375 -4.42213 -0.310266 0
M  V30 2867 H 262.595 -0.662327 0.107534 0
M  V30 2868 H 265.139 -1.81489 0.942438 0
M  V30 2869 H 263.294 -3.84278 -0.490858 0
M  V30 2870 H 263.708 -5.06743 1.35322 0
M  V30 2871 H 265.182 -5.51194 -0.298196 0
M  V30 2872 H 265.659 -4.1799 -1.34838 0
M  V30 2873 H 266.265 -4.24074 0.322716 0
M  V30 2874 N 264.58 -0.43555 -1.51462 0
M  V30 2875 C 265.826 0.131709 -2.02372 0
M  V30 2876 C 266.159 1.42516 -1.3192 0
M  V30 2877 O 265.434 1.89606 -0.433573 0
M  V30 2878 C 265.717 0.352301 -3.58373 0
M  V30 2879 C 265.57 -0.959676 -4.39443 0
M  V30 2880 C 266.889 1.12286 -4.25535 0
M  V30 2881 H 264.008 0.0463936 -0.735538 0
M  V30 2882 H 266.65 -0.574197 -1.81116 0
M  V30 2883 H 264.8 0.9536 -3.76615 0
M  V30 2884 H 266.472 -1.59482 -4.32855 0
M  V30 2885 H 264.715 -1.56468 -4.04599 0
M  V30 2886 H 265.386 -0.759394 -5.46752 0
M  V30 2887 H 267.862 0.613545 -4.11552 0
M  V30 2888 H 266.738 1.24598 -5.34571 0
M  V30 2889 H 266.999 2.15048 -3.86273 0
M  V30 2890 N 266.058 1.56714 -0.166846 0
M  V30 2891 C 266.968 2.21331 0.777791 0
M  V30 2892 C 267.984 1.20358 1.25658 0
M  V30 2893 O 269.16 1.53005 1.30964 0
M  V30 2894 C 266.225 2.83787 1.99163 0
M  V30 2895 C 265.286 3.99947 1.56016 0
M  V30 2896 C 264.519 4.59415 2.71613 0
M  V30 2897 O 264.742 4.17769 3.88362 0
M  V30 2898 O 263.676 5.49359 2.45945 0
M  V30 2899 H 267.502 3.02605 0.257636 0
M  V30 2900 H 265.087 1.49275 0.0611393 0
M  V30 2901 H 266.969 3.23405 2.70161 0
M  V30 2902 H 265.644 2.05513 2.50092 0
M  V30 2903 H 264.551 3.65007 0.819809 0
M  V30 2904 H 265.884 4.79801 1.09782 0
M  V30 2905 N 267.536 -0.106894 1.57237 0
M  V30 2906 C 268.813 -0.843526 1.76477 0
M  V30 2907 C 269.193 -1.97499 0.745464 0
M  V30 2908 O 268.541 -2.27357 -0.228306 0
M  V30 2909 C 268.751 -1.34903 3.21873 0
M  V30 2910 C 270.099 -1.79654 3.8472 0
M  V30 2911 O 271.123 -1.44554 3.2555 0
M  V30 2912 O 269.982 -2.44515 4.88748 0
M  V30 2913 H 267.076 -0.401468 0.723016 0
M  V30 2914 H 269.622 -0.0896927 1.69463 0
M  V30 2915 H 268.394 -0.53781 3.87586 0
M  V30 2916 H 268.017 -2.16522 3.33473 0
M  V30 2917 N 269.014 -1.53014 -0.377408 0
M  V30 2918 C 270.26 -1.68872 -1.12294 0
M  V30 2919 C 270.593 -0.433224 -1.89306 0
M  V30 2920 O 269.868 0.569258 -1.85983 0
M  V30 2921 C 270.151 -2.93115 -2.09179 0
M  V30 2922 C 270.004 -4.28794 -1.35853 0
M  V30 2923 C 271.323 -3.12928 -3.09458 0
M  V30 2924 H 268.442 -0.614518 -0.406862 0
M  V30 2925 H 271.084 -1.85633 -0.40503 0
M  V30 2926 H 269.234 -2.78956 -2.70399 0
M  V30 2927 H 270.906 -4.54742 -0.775082 0
M  V30 2928 H 269.149 -4.28744 -0.660364 0
M  V30 2929 H 269.82 -5.11837 -2.06706 0
M  V30 2930 H 272.296 -3.26194 -2.58334 0
M  V30 2931 H 271.172 -4.01316 -3.74482 0
M  V30 2932 H 271.433 -2.27669 -3.78971 0
M  V30 2933 N 270.492 0.636531 -1.44174 0
M  V30 2934 C 271.769 1.39463 -1.37148 0
M  V30 2935 C 272.149 2.11082 -0.027507 0
M  V30 2936 O 271.497 2.05954 0.989716 0
M  V30 2937 C 271.707 2.36552 -2.56601 0
M  V30 2938 C 273.055 3.00048 -3.00427 0
M  V30 2939 O 274.079 2.46878 -2.56767 0
M  V30 2940 O 272.938 3.96488 -3.76111 0
M  V30 2941 H 270.032 0.623903 -0.542839 0
M  V30 2942 H 272.578 0.662039 -1.56253 0
M  V30 2943 H 271.35 1.82692 -3.46034 0
M  V30 2944 H 270.973 3.17236 -2.39681 0
M  V30 2945 N 271.97 1.30982 0.876444 0
M  V30 2946 C 272.9 1.20668 1.99903 0
M  V30 2947 C 273.881 0.095354 1.69833 0
M  V30 2948 O 275.066 0.27885 1.92188 0
M  V30 2949 C 272.196 0.90655 3.3526 0
M  V30 2950 C 271.15 1.97675 3.79617 0
M  V30 2951 C 270.476 1.52943 5.1236 0
M  V30 2952 C 271.776 3.389 3.97422 0
M  V30 2953 H 273.47 2.14586 2.0879 0
M  V30 2954 H 271.016 1.03308 1.00317 0
M  V30 2955 H 272.969 0.821025 4.13324 0
M  V30 2956 H 271.693 -0.0682969 3.26529 0
M  V30 2957 H 270.352 2.05205 3.03787 0
M  V30 2958 H 270 0.54262 5.00065 0
M  V30 2959 H 269.7 2.24532 5.43009 0
M  V30 2960 H 271.224 1.45786 5.92941 0
M  V30 2961 H 272.638 3.34081 4.659 0
M  V30 2962 H 271.035 4.0865 4.3946 0
M  V30 2963 H 272.105 3.80163 3.01006 0
M  V30 2964 N 273.449 -1.08991 1.13837 0
M  V30 2965 C 274.412 -2.13925 0.822715 0
M  V30 2966 C 275.412 -1.599 -0.1699 0
M  V30 2967 O 276.602 -1.74104 0.0577251 0
M  V30 2968 C 273.734 -3.40155 0.225318 0
M  V30 2969 H 274.927 -2.43358 1.75262 0
M  V30 2970 H 272.48 -1.24603 0.943594 0
M  V30 2971 H 273.215 -3.16352 -0.713594 0
M  V30 2972 H 273 -3.80661 0.940193 0
M  V30 2973 H 274.49 -4.17594 0.0214784 0
M  V30 2974 N 274.927 -0.932562 -1.27047 0
M  V30 2975 C 276.174 -0.575559 -1.94148 0
M  V30 2976 C 276.502 0.883984 -1.73251 0
M  V30 2977 O 275.757 1.64655 -1.0577 0
M  V30 2978 C 276.056 -0.853713 -3.47054 0
M  V30 2979 C 275.722 -2.29577 -3.88079 0
M  V30 2980 C 274.384 -2.68999 -3.9899 0
M  V30 2981 C 276.736 -3.23331 -4.08787 0
M  V30 2982 C 274.064 -4.01289 -4.28 0
M  V30 2983 C 276.416 -4.55207 -4.39282 0
M  V30 2984 C 275.08 -4.94457 -4.48407 0
M  V30 2985 H 274.35 -0.210612 -0.710439 0
M  V30 2986 H 276.997 -1.17744 -1.51025 0
M  V30 2987 H 275.302 -0.169204 -3.91434 0
M  V30 2988 H 276.999 -0.55639 -3.97121 0
M  V30 2989 H 273.589 -1.97994 -3.80127 0
M  V30 2990 H 277.773 -2.94074 -3.99793 0
M  V30 2991 H 273.029 -4.31374 -4.33275 0
M  V30 2992 H 277.203 -5.27852 -4.54252 0
M  V30 2993 H 274.83 -5.96994 -4.7064 0
M  V30 2994 N 276.405 1.4127 -0.698611 0
M  V30 2995 C 277.335 2.33447 -0.049629 0
M  V30 2996 C 278.316 1.51982 0.763898 0
M  V30 2997 O 279.501 1.80509 0.716257 0
M  V30 2998 C 276.631 3.35828 0.885267 0
M  V30 2999 C 275.585 4.27627 0.178613 0
M  V30 3000 C 274.911 5.20406 1.22807 0
M  V30 3001 C 276.211 5.13459 -0.956933 0
M  V30 3002 H 277.905 2.87966 -0.81951 0
M  V30 3003 H 275.451 1.38461 -0.395538 0
M  V30 3004 H 277.404 3.9924 1.34854 0
M  V30 3005 H 276.128 2.79666 1.68685 0
M  V30 3006 H 274.787 3.65643 -0.26466 0
M  V30 3007 H 274.435 4.60558 2.02226 0
M  V30 3008 H 274.135 5.82661 0.760239 0
M  V30 3009 H 275.659 5.86695 1.69179 0
M  V30 3010 H 277.073 5.70421 -0.573805 0
M  V30 3011 H 275.47 5.8467 -1.35205 0
M  V30 3012 H 276.54 4.50443 -1.79524 0
M  V30 3013 N 277.883 0.443576 1.51229 0
M  V30 3014 C 279.299 0.0962001 1.5931 0
M  V30 3015 C 279.499 -1.39501 1.45402 0
M  V30 3016 O 278.555 -2.16557 1.29843 0
M  V30 3017 C 279.868 0.621875 2.94199 0
M  V30 3018 C 281.416 0.582865 3.07525 0
M  V30 3019 C 281.891 1.08562 4.44948 0
M  V30 3020 N 283.382 1.04387 4.51284 0
M  V30 3021 C 284.117 1.40368 5.55954 0
M  V30 3022 N 283.613 1.83664 6.68011 0
M  V30 3023 N 285.406 1.32145 5.46346 0
M  V30 3024 H 277.557 1.41376 1.58514 0
M  V30 3025 H 279.82 0.582965 0.747567 0
M  V30 3026 H 279.526 1.66546 3.09767 0
M  V30 3027 H 279.4 0.0502125 3.77167 0
M  V30 3028 H 281.787 -0.451749 2.91622 0
M  V30 3029 H 281.868 1.191 2.26382 0
M  V30 3030 H 281.512 2.11873 4.61598 0
M  V30 3031 H 281.442 0.453956 5.2464 0
M  V30 3032 H 283.933 0.725986 3.70861 0
M  V30 3033 H 284.246 2.0934 7.43906 0
M  V30 3034 H 282.591 1.87596 6.69203 0
M  V30 3035 H 285.782 0.981808 4.57688 0
M  V30 3036 H 285.955 1.60514 6.27805 0
M  V30 3037 N 279.361 -1.56624 0.175154 0
M  V30 3038 C 280.586 -2.01813 -0.478137 0
M  V30 3039 C 281.011 -1.05457 -1.55757 0
M  V30 3040 O 280.369 -0.0347439 -1.81267 0
M  V30 3041 C 280.417 -3.45581 -1.02987 0
M  V30 3042 O 279.521 -3.52305 -2.14371 0
M  V30 3043 H 278.862 -0.65413 -0.114059 0
M  V30 3044 H 281.392 -2.02673 0.280173 0
M  V30 3045 H 281.402 -3.84965 -1.35151 0
M  V30 3046 H 280.077 -4.1521 -0.239556 0
M  V30 3047 H 278.654 -3.24783 -1.83222 0
M  V30 3048 N 280.839 0.0985539 -1.57292 0
M  V30 3049 C 282.25 0.653457 -1.74891 0
M  V30 3050 C 282.601 1.7929 -0.796838 0
M  V30 3051 O 281.726 2.16385 0.0254886 0
M  V30 3052 C 282.321 1.19216 -3.17133 0
M  V30 3053 C 280.88 1.69316 -3.36168 0
M  V30 3054 C 280.027 0.601294 -2.70702 0
M  V30 3055 H 282.978 -0.127497 -1.58187 0
M  V30 3056 H 282.999 2.06154 -3.19814 0
M  V30 3057 H 282.511 0.362635 -3.86402 0
M  V30 3058 H 280.612 2.5468 -2.71972 0
M  V30 3059 H 280.725 1.78853 -4.44464 0
M  V30 3060 H 279.089 1.0399 -2.32504 0
M  V30 3061 H 279.872 -0.217592 -3.4261 0
M  V30 3062 N 282.317 1.53212 0.369288 0
M  V30 3063 C 283.227 1.82342 1.47609 0
M  V30 3064 C 284.243 0.711532 1.58787 0
M  V30 3065 O 285.419 1.0012 1.74751 0
M  V30 3066 C 282.484 2.00393 2.8292 0
M  V30 3067 C 281.545 3.24297 2.81301 0
M  V30 3068 C 280.778 3.41478 4.10157 0
M  V30 3069 O 281.001 2.63033 5.06132 0
M  V30 3070 O 279.935 4.34817 4.16194 0
M  V30 3071 H 283.761 2.76366 1.25918 0
M  V30 3072 H 281.346 1.38547 0.559034 0
M  V30 3073 H 283.228 2.13859 3.63101 0
M  V30 3074 H 281.903 1.09559 3.04596 0
M  V30 3075 H 280.81 3.16257 1.99831 0
M  V30 3076 H 282.143 4.15041 2.64578 0
M  V30 3077 N 283.795 -0.628877 1.44509 0
M  V30 3078 C 285.072 -1.38733 1.37886 0
M  V30 3079 C 285.452 -2.11065 0.0387008 0
M  V30 3080 O 284.8 -2.06476 -0.97878 0
M  V30 3081 C 285.01 -2.35188 2.57852 0
M  V30 3082 C 286.358 -2.9845 3.02014 0
M  V30 3083 O 287.382 -2.45513 2.58073 0
M  V30 3084 O 286.241 -3.94487 3.78209 0
M  V30 3085 H 283.335 -0.621015 0.54614 0
M  V30 3086 H 285.881 -0.653744 1.56602 0
M  V30 3087 H 284.653 -1.80855 3.46998 0
M  V30 3088 H 284.276 -3.1596 2.4136 0
M  V30 3089 N 285.273 -1.31445 -0.869486 0
M  V30 3090 C 286.522 -1.20517 -1.61736 0
M  V30 3091 C 286.835 0.235341 -1.94179 0
M  V30 3092 O 288.041 0.466312 -2.67465 0
M  V30 3093 C 286.497 -2.10982 -2.91573 0
M  V30 3094 C 286.105 -3.60032 -2.66611 0
M  V30 3095 C 287.849 -2.08856 -3.69567 0
M  V30 3096 C 285.756 -4.42503 -3.92358 0
M  V30 3097 H 284.686 -0.447493 -0.606849 0
M  V30 3098 H 287.337 -1.56303 -0.96133 0
M  V30 3099 H 285.719 -1.68095 -3.58553 0
M  V30 3100 H 286.893 -4.11167 -2.08035 0
M  V30 3101 H 285.208 -3.64139 -2.0197 0
M  V30 3102 H 287.805 -2.67716 -4.62852 0
M  V30 3103 H 288.148 -1.07582 -4.02159 0
M  V30 3104 H 288.681 -2.49945 -3.09471 0
M  V30 3105 H 285.42 -5.44533 -3.64916 0
M  V30 3106 H 284.94 -3.96125 -4.50383 0
M  V30 3107 H 286.619 -4.54741 -4.60238 0
M  V30 3108 N 286.751 1.08385 -1.14413 0
M  V30 3109 C 287.683 2.1519 -0.789036 0
M  V30 3110 C 288.696 1.61638 0.19417 0
M  V30 3111 O 289.885 1.78479 -0.0275711 0
M  V30 3112 C 286.985 3.38565 -0.15058 0
M  V30 3113 C 286.158 4.21501 -1.16857 0
M  V30 3114 C 285.217 5.23277 -0.553832 0
M  V30 3115 O 284.243 5.56041 -1.21686 0
M  V30 3116 N 285.445 5.76629 0.669296 0
M  V30 3117 H 288.21 2.46257 -1.70814 0
M  V30 3118 H 285.771 1.24198 -1.03858 0
M  V30 3119 H 287.763 4.03777 0.273181 0
M  V30 3120 H 286.333 3.05299 0.671667 0
M  V30 3121 H 285.553 3.52265 -1.76926 0
M  V30 3122 H 286.841 4.73731 -1.85624 0
M  V30 3123 H 286.239 5.52243 1.22654 0
M  V30 3124 H 284.796 6.43521 1.03556 0
M  V30 3125 N 288.23 0.939286 1.26551 0
M  V30 3126 C 289.18 0.418284 2.2413 0
M  V30 3127 C 290.164 -0.483935 1.5345 0
M  V30 3128 O 291.356 -0.319489 1.74093 0
M  V30 3129 C 288.485 -0.31709 3.41832 0
M  V30 3130 C 287.571 0.602311 4.19801 0
M  V30 3131 N 287.962 1.72726 4.75394 0
M  V30 3132 C 286.26 0.407534 4.44134 0
M  V30 3133 C 286.961 2.30004 5.34297 0
M  V30 3134 N 285.937 1.58828 5.1988 0
M  V30 3135 H 289.739 1.27705 2.64705 0
M  V30 3136 H 287.253 0.794929 1.41614 0
M  V30 3137 H 289.25 -0.707364 4.10855 0
M  V30 3138 H 287.91 -1.17264 3.02786 0
M  V30 3139 H 288.921 2.10944 4.72994 0
M  V30 3140 H 285.598 -0.406406 4.15517 0
M  V30 3141 H 286.988 3.24778 5.88191 0
M  V30 3142 N 289.708 -1.40897 0.706093 0
M  V30 3143 C 290.985 -1.94868 0.169099 0
M  V30 3144 C 291.365 -1.64485 -1.32318 0
M  V30 3145 O 290.713 -0.95744 -2.07474 0
M  V30 3146 C 290.923 -3.45798 0.471654 0
M  V30 3147 C 292.271 -4.22663 0.405127 0
M  V30 3148 O 293.295 -3.53865 0.407168 0
M  V30 3149 O 292.154 -5.45216 0.374383 0
M  V30 3150 H 289.248 -0.82673 0.0211352 0
M  V30 3151 H 291.794 -1.50558 0.782976 0
M  V30 3152 H 290.566 -3.61235 1.50416 0
M  V30 3153 H 290.189 -3.97225 -0.172666 0
M  V30 3154 N 291.186 -0.45159 -1.50991 0
M  V30 3155 C 292.133 0.352625 -2.2809 0
M  V30 3156 C 293.103 1.0044 -1.32291 0
M  V30 3157 O 294.288 1.02058 -1.6121 0
M  V30 3158 C 291.428 1.43983 -3.13629 0
M  V30 3159 C 290.541 0.804772 -4.24438 0
M  V30 3160 C 289.676 1.86822 -4.97263 0
M  V30 3161 C 288.715 1.21236 -5.99973 0
M  V30 3162 N 287.852 2.2178 -6.66152 0
M  V30 3163 H 292.692 -0.311186 -2.96371 0
M  V30 3164 H 290.229 -0.165308 -1.46168 0
M  V30 3165 H 292.187 2.08161 -3.61559 0
M  V30 3166 H 290.817 2.07307 -2.47434 0
M  V30 3167 H 289.869 0.0509129 -3.80366 0
M  V30 3168 H 291.181 0.286076 -4.97979 0
M  V30 3169 H 290.335 2.58628 -5.48813 0
M  V30 3170 H 289.074 2.42068 -4.23385 0
M  V30 3171 H 288.079 0.479828 -5.47702 0
M  V30 3172 H 289.304 0.667051 -6.75816 0
M  V30 3173 H 287.25 2.76079 -5.95077 0
M  V30 3174 H 287.167 1.74841 -7.35504 0
M  V30 3175 H 288.435 2.93026 -7.22327 0
M  V30 3176 N 292.664 1.56529 -0.183458 0
M  V30 3177 C 293.611 2.18546 0.742055 0
M  V30 3178 C 294.581 1.12912 1.2182 0
M  V30 3179 O 295.766 1.41115 1.28418 0
M  V30 3180 C 292.906 2.83977 1.96089 0
M  V30 3181 C 292.019 4.04105 1.52719 0
M  V30 3182 C 291.154 4.57427 2.70063 0
M  V30 3183 C 290.193 5.69938 2.23243 0
M  V30 3184 N 289.33 6.17717 3.33722 0
M  V30 3185 H 294.17 2.97284 0.206432 0
M  V30 3186 H 291.707 1.46823 0.0901571 0
M  V30 3187 H 293.665 3.20077 2.67594 0
M  V30 3188 H 292.295 2.07822 2.47002 0
M  V30 3189 H 291.347 3.73745 0.708436 0
M  V30 3190 H 292.659 4.85513 1.1436 0
M  V30 3191 H 291.813 4.95772 3.49708 0
M  V30 3192 H 290.552 3.75101 3.11689 0
M  V30 3193 H 289.557 5.31133 1.42048 0
M  V30 3194 H 290.782 6.54073 1.82661 0
M  V30 3195 H 288.728 5.38317 3.74902 0
M  V30 3196 H 288.645 6.94146 2.99495 0
M  V30 3197 H 289.913 6.60713 4.13616 0
M  V30 3198 N 294.142 -0.090211 1.57342 0
M  V30 3199 C 295.105 -1.09335 2.01441 0
M  V30 3200 C 296.105 -1.32666 0.908641 0
M  V30 3201 O 297.295 -1.28697 1.174 0
M  V30 3202 C 294.427 -2.44136 2.3793 0
M  V30 3203 H 295.62 -0.713662 2.91285 0
M  V30 3204 H 293.173 -0.335404 1.52659 0
M  V30 3205 H 293.908 -2.86972 1.51055 0
M  V30 3206 H 293.693 -2.28548 3.18603 0
M  V30 3207 H 295.183 -3.16277 2.72688 0
M  V30 3208 N 295.62 -1.53406 -0.361157 0
M  V30 3209 C 296.867 -1.69802 -1.10333 0
M  V30 3210 C 297.195 -0.452087 -1.89173 0
M  V30 3211 O 296.45 0.566017 -1.87336 0
M  V30 3212 C 296.749 -2.90211 -2.08596 0
M  V30 3213 C 296.415 -4.26539 -1.46203 0
M  V30 3214 C 295.077 -4.6361 -1.28915 0
M  V30 3215 C 297.429 -5.113 -1.01101 0
M  V30 3216 C 294.757 -5.83075 -0.651157 0
M  V30 3217 C 297.109 -6.31415 -0.387007 0
M  V30 3218 C 295.773 -6.67195 -0.201657 0
M  V30 3219 H 295.043 -0.621351 -0.403737 0
M  V30 3220 H 297.69 -1.87598 -0.384609 0
M  V30 3221 H 295.995 -2.66946 -2.86788 0
M  V30 3222 H 297.692 -3.00091 -2.65982 0
M  V30 3223 H 294.282 -3.97352 -1.60653 0
M  V30 3224 H 298.466 -4.83206 -1.13249 0
M  V30 3225 H 293.722 -6.09385 -0.496006 0
M  V30 3226 H 297.896 -6.96394 -0.0293563 0
M  V30 3227 H 295.523 -7.59628 0.294766 0
M  V30 3228 N 297.098 0.621204 -1.44841 0
M  V30 3229 C 298.028 1.74366 -1.55303 0
M  V30 3230 C 299.009 1.65199 -0.405385 0
M  V30 3231 O 300.194 1.83807 -0.626787 0
M  V30 3232 C 297.324 3.12931 -1.50637 0
M  V30 3233 C 296.278 3.36896 -2.63979 0
M  V30 3234 C 295.604 4.75594 -2.44366 0
M  V30 3235 C 296.904 3.28483 -4.06074 0
M  V30 3236 H 298.598 1.65867 -2.49256 0
M  V30 3237 H 296.144 0.796558 -1.19962 0
M  V30 3238 H 298.097 3.9124 -1.56555 0
M  V30 3239 H 296.821 3.22237 -0.532057 0
M  V30 3240 H 295.48 2.60972 -2.57467 0
M  V30 3241 H 295.128 4.81616 -1.45105 0
M  V30 3242 H 294.828 4.92586 -3.20364 0
M  V30 3243 H 296.352 5.5612 -2.52117 0
M  V30 3244 H 297.766 3.96684 -4.13902 0
M  V30 3245 H 296.163 3.57008 -4.82354 0
M  V30 3246 H 297.233 2.26133 -4.28943 0
M  V30 3247 N 298.576 1.31904 0.862503 0
M  V30 3248 C 299.524 1.20125 1.9918 0
M  V30 3249 C 300.518 0.107824 1.69056 0
M  V30 3250 O 301.724 0.270223 1.7796 0
M  V30 3251 H 298.099 0.372148 0.65346 0
M  V30 3252 H 300.07 2.15652 2.06244 0
M  V30 3253 C 298.819 0.933099 3.34946 0
M  V30 3254 H 298.142 1.76664 3.5865 0
M  V30 3255 H 299.582 0.890892 4.14535 0
M  V30 3256 C 298.041 -0.364172 3.34926 0
M  V30 3257 O 298.571 -1.37858 3.77304 0
M  V30 3258 N 296.777 -0.383362 2.8806 0
M  V30 3259 H 296.324 0.442651 2.53768 0
M  V30 3260 H 296.282 -1.25123 2.8843 0
M  V30 3261 N 300.054 -1.07777 1.14986 0
M  V30 3262 C 301.331 -1.7699 0.832695 0
M  V30 3263 C 301.711 -2.001 -0.672561 0
M  V30 3264 O 301.059 -1.61598 -1.6155 0
M  V30 3265 C 301.269 -3.08139 1.63863 0
M  V30 3266 C 302.617 -3.8256 1.84208 0
M  V30 3267 O 303.641 -3.17939 1.60603 0
M  V30 3268 O 302.5 -4.98612 2.23714 0
M  V30 3269 H 299.594 -0.768389 0.305791 0
M  V30 3270 H 302.14 -1.14182 1.25541 0
M  V30 3271 H 300.912 -2.86909 2.6608 0
M  V30 3272 H 300.535 -3.78678 1.21197 0
M  V30 3273 N 301.532 -0.945985 -1.26051 0
M  V30 3274 C 302.757 -0.612525 -1.98149 0
M  V30 3275 C 303.182 0.806623 -1.69927 0
M  V30 3276 O 302.54 1.54411 -0.950108 0
M  V30 3277 C 302.588 -0.866981 -3.50023 0
M  V30 3278 O 301.692 0.0585333 -4.12358 0
M  V30 3279 H 301.033 -0.23379 -0.621481 0
M  V30 3280 H 303.563 -1.27023 -1.60395 0
M  V30 3281 H 303.573 -0.789792 -4.00283 0
M  V30 3282 H 302.248 -1.90135 -3.69894 0
M  V30 3283 H 300.825 -0.0701241 -3.72834 0
M  V30 3284 N 303.011 1.40521 -0.713556 0
M  V30 3285 C 303.921 2.34522 -0.0606667 0
M  V30 3286 C 304.937 1.57193 0.74607 0
M  V30 3287 O 306.113 1.89591 0.679493 0
M  V30 3288 C 303.178 3.36081 0.851491 0
M  V30 3289 C 302.239 4.29286 0.0349339 0
M  V30 3290 C 301.472 5.25994 0.903649 0
M  V30 3291 O 301.695 5.28616 2.14292 0
M  V30 3292 O 300.629 6.00918 0.343723 0
M  V30 3293 H 304.455 2.91968 -0.835972 0
M  V30 3294 H 302.04 1.41681 -0.47402 0
M  V30 3295 H 303.922 3.98369 1.37404 0
M  V30 3296 H 302.597 2.81052 1.60598 0
M  V30 3297 H 301.504 3.70289 -0.532633 0
M  V30 3298 H 302.837 4.87462 -0.681287 0
M  V30 3299 N 304.489 0.459591 1.5075 0
M  V30 3300 C 305.735 -0.091664 2.03193 0
M  V30 3301 C 306.09 -1.38432 1.3362 0
M  V30 3302 O 305.383 -1.86257 0.449322 0
M  V30 3303 C 305.577 -0.342866 3.55752 0
M  V30 3304 C 305.406 0.923888 4.40107 0
M  V30 3305 C 304.176 1.46388 4.83631 0
M  V30 3306 C 306.374 1.81617 4.81165 0
M  V30 3307 N 304.356 2.68086 5.52271 0
M  V30 3308 C 305.727 2.87907 5.49099 0
M  V30 3309 C 307.782 1.82793 4.63132 0
M  V30 3310 C 306.485 3.95347 6.0091 0
M  V30 3311 C 308.511 2.89182 5.15876 0
M  V30 3312 C 307.873 3.94191 5.83774 0
M  V30 3313 H 303.972 0.00619247 0.781975 0
M  V30 3314 H 306.556 0.625233 1.84388 0
M  V30 3315 H 304.727 -1.0288 3.74527 0
M  V30 3316 H 306.459 -0.887445 3.9485 0
M  V30 3317 H 303.214 1.01466 4.62603 0
M  V30 3318 H 303.638 3.29857 5.91205 0
M  V30 3319 H 308.28 1.0293 4.1008 0
M  V30 3320 H 305.998 4.76035 6.53006 0
M  V30 3321 H 309.584 2.91061 5.0376 0
M  V30 3322 H 308.464 4.75161 6.23853 0
M  V30 3323 N 305.967 -1.56429 0.191757 0
M  V30 3324 C 306.877 -2.22541 -0.742481 0
M  V30 3325 C 307.893 -1.22342 -1.23727 0
M  V30 3326 O 309.069 -1.55069 -1.28513 0
M  V30 3327 C 306.134 -2.8692 -1.94623 0
M  V30 3328 C 305.195 -4.02378 -1.49633 0
M  V30 3329 C 304.428 -4.63678 -2.6427 0
M  V30 3330 O 304.651 -4.23895 -3.81666 0
M  V30 3331 O 303.585 -5.53202 -2.37174 0
M  V30 3332 H 307.411 -3.02977 -0.209462 0
M  V30 3333 H 304.996 -1.49353 -0.0373832 0
M  V30 3334 H 306.878 -3.27663 -2.64982 0
M  V30 3335 H 305.553 -2.09466 -2.46791 0
M  V30 3336 H 304.46 -3.66265 -0.761636 0
M  V30 3337 H 305.793 -4.81487 -1.02134 0
M  V30 3338 N 307.445 0.0818655 -1.57387 0
M  V30 3339 C 308.375 1.09885 -2.06028 0
M  V30 3340 C 309.356 1.4098 -0.951774 0
M  V30 3341 O 310.541 1.50781 -1.22387 0
M  V30 3342 C 307.671 2.4151 -2.4958 0
M  V30 3343 C 306.625 2.24792 -3.64215 0
M  V30 3344 C 305.951 3.61712 -3.93787 0
M  V30 3345 C 307.251 1.67749 -4.94629 0
M  V30 3346 H 308.945 0.694128 -2.91243 0
M  V30 3347 H 306.491 0.332448 -1.4011 0
M  V30 3348 H 308.444 3.12939 -2.82219 0
M  V30 3349 H 307.168 2.83943 -1.61381 0
M  V30 3350 H 305.827 1.55807 -3.31843 0
M  V30 3351 H 305.475 4.01697 -3.02735 0
M  V30 3352 H 305.175 3.51368 -4.70971 0
M  V30 3353 H 306.699 4.34587 -4.28913 0
M  V30 3354 H 308.113 2.29032 -5.25564 0
M  V30 3355 H 306.51 1.68128 -5.76067 0
M  V30 3356 H 307.58 0.638059 -4.80684 0
M  V30 3357 N 308.923 1.53595 0.353017 0
M  V30 3358 C 309.853 1.83902 1.43883 0
M  V30 3359 C 310.834 0.693421 1.55324 0
M  V30 3360 O 312.019 0.944452 1.69687 0
M  V30 3361 C 309.149 2.04016 2.8106 0
M  V30 3362 C 308.103 3.19814 2.84434 0
M  V30 3363 C 307.429 3.25244 4.24406 0
M  V30 3364 C 308.729 4.58133 2.50822 0
M  V30 3365 H 310.423 2.74835 1.1877 0
M  V30 3366 H 307.969 1.32242 0.569917 0
M  V30 3367 H 309.922 2.238 3.57059 0
M  V30 3368 H 308.646 1.09804 3.07588 0
M  V30 3369 H 307.305 2.9987 2.10887 0
M  V30 3370 H 306.953 2.28646 4.48029 0
M  V30 3371 H 306.653 4.03054 4.27576 0
M  V30 3372 H 308.177 3.47228 5.0226 0
M  V30 3373 H 309.591 4.77995 3.16534 0
M  V30 3374 H 307.988 5.38276 2.6529 0
M  V30 3375 H 309.058 4.62387 1.46034 0
M  V30 3376 N 310.401 -0.613514 1.45168 0
M  V30 3377 C 311.626 -1.40437 1.52618 0
M  V30 3378 C 312.051 -1.87438 0.157707 0
M  V30 3379 O 311.409 -1.59791 -0.856537 0
M  V30 3380 C 311.457 -2.58894 2.51011 0
M  V30 3381 O 310.561 -3.59326 2.02382 0
M  V30 3382 H 309.902 -0.419506 0.514695 0
M  V30 3383 H 312.432 -0.747215 1.90467 0
M  V30 3384 H 312.442 -3.06214 2.69624 0
M  V30 3385 H 311.117 -2.24032 3.50403 0
M  V30 3386 H 309.694 -3.18695 1.93618 0
M  V30 3387 N 311.879 -1.3236 -0.855495 0
M  V30 3388 C 313.125 -1.23054 -1.612 0
M  V30 3389 C 313.458 0.207404 -1.93089 0
M  V30 3390 O 312.733 1.14432 -1.57275 0
M  V30 3391 C 313.016 -2.08937 -2.93287 0
M  V30 3392 C 312.869 -3.61105 -2.68185 0
M  V30 3393 C 314.188 -1.94986 -3.94549 0
M  V30 3394 H 311.307 -0.448364 -0.584926 0
M  V30 3395 H 313.949 -1.62297 -0.987917 0
M  V30 3396 H 312.099 -1.75599 -3.46551 0
M  V30 3397 H 313.771 -4.04652 -2.21483 0
M  V30 3398 H 312.014 -3.83813 -2.02164 0
M  V30 3399 H 312.685 -4.16522 -3.62234 0
M  V30 3400 H 315.161 -2.24189 -3.5054 0
M  V30 3401 H 314.037 -2.57356 -4.84829 0
M  V30 3402 H 314.298 -0.917263 -4.3248 0
M  V30 3403 N 313.357 1.07166 -1.15556 0
M  V30 3404 C 314.582 1.84053 -0.955988 0
M  V30 3405 C 315.007 1.81586 0.490739 0
M  V30 3406 O 314.365 1.21018 1.34997 0
M  V30 3407 C 314.413 3.28957 -1.47714 0
M  V30 3408 O 313.517 4.06795 -0.677593 0
M  V30 3409 H 312.858 0.569842 -0.340847 0
M  V30 3410 H 315.388 1.35178 -1.53584 0
M  V30 3411 H 315.398 3.79788 -1.4908 0
M  V30 3412 H 314.073 3.30068 -2.53037 0
M  V30 3413 H 312.65 3.6561 -0.733721 0
M  V30 3414 N 314.835 0.952656 1.25548 0
M  V30 3415 C 316.06 0.623025 1.97821 0
M  V30 3416 C 316.485 -0.7976 1.70352 0
M  V30 3417 O 315.843 -1.53905 0.958283 0
M  V30 3418 C 315.891 0.885532 3.49558 0
M  V30 3419 O 314.995 -0.0366641 4.12384 0
M  V30 3420 H 314.336 0.237082 0.620232 0
M  V30 3421 H 316.866 1.27871 1.59719 0
M  V30 3422 H 316.876 0.811009 3.99858 0
M  V30 3423 H 315.551 1.92094 3.6888 0
M  V30 3424 H 314.128 0.0898954 3.72792 0
M  V30 3425 N 316.313 -1.40141 0.720998 0
M  V30 3426 C 317.541 -2.05096 0.272656 0
M  V30 3427 C 317.956 -1.54334 -1.0875 0
M  V30 3428 O 317.313 -0.702211 -1.6845 0
M  V30 3429 C 317.364 -3.60636 0.249835 0
M  V30 3430 O 317.085 -4.09526 1.55629 0
M  V30 3431 C 318.586 -4.42772 -0.216396 0
M  V30 3432 H 315.806 -0.659897 0.121558 0
M  V30 3433 H 318.35 -1.79449 0.980723 0
M  V30 3434 H 316.505 -3.85232 -0.409237 0
M  V30 3435 H 316.919 -5.03758 1.4604 0
M  V30 3436 H 318.393 -5.51702 -0.181212 0
M  V30 3437 H 318.87 -4.20756 -1.25941 0
M  V30 3438 H 319.476 -4.23294 0.412596 0
M  V30 3439 N 317.792 -0.46758 -1.50504 0
M  V30 3440 C 319.022 0.086288 -2.0642 0
M  V30 3441 C 319.43 1.34369 -1.33197 0
M  V30 3442 O 318.773 1.79431 -0.393747 0
M  V30 3443 C 318.835 0.443846 -3.5675 0
M  V30 3444 C 318.499 -0.711035 -4.51435 0
M  V30 3445 C 319.496 -1.59205 -4.94924 0
M  V30 3446 C 317.181 -0.900363 -4.94165 0
M  V30 3447 C 319.175 -2.64683 -5.79846 0
M  V30 3448 C 316.862 -1.95837 -5.7887 0
M  V30 3449 C 317.86 -2.82997 -6.21612 0
M  V30 3450 O 317.548 -3.86977 -7.0463 0
M  V30 3451 H 317.28 -0.00217814 -0.675996 0
M  V30 3452 H 319.834 -0.654346 -1.94698 0
M  V30 3453 H 318.064 1.23762 -3.6636 0
M  V30 3454 H 319.753 0.932386 -3.95046 0
M  V30 3455 H 320.519 -1.45745 -4.62583 0
M  V30 3456 H 316.398 -0.231427 -4.60419 0
M  V30 3457 H 319.942 -3.32745 -6.13128 0
M  V30 3458 H 315.839 -2.09305 -6.10624 0
M  V30 3459 H 316.607 -3.83923 -7.22873 0
M  V30 3460 N 319.27 1.56325 -0.20005 0
M  V30 3461 C 320.495 2.02548 0.44597 0
M  V30 3462 C 320.92 1.07922 1.5406 0
M  V30 3463 O 320.278 0.0635775 1.81188 0
M  V30 3464 C 320.326 3.47175 0.974761 0
M  V30 3465 O 319.43 3.55671 2.08739 0
M  V30 3466 H 318.771 0.655862 0.103638 0
M  V30 3467 H 321.301 2.02201 -0.312381 0
M  V30 3468 H 321.311 3.87067 1.2901 0
M  V30 3469 H 319.986 4.15538 0.17347 0
M  V30 3470 H 318.563 3.27657 1.78032 0
M  V30 3471 N 320.748 -0.0735177 1.57428 0
M  V30 3472 C 321.997 -0.771809 1.86349 0
M  V30 3473 C 322.31 -1.78828 0.792452 0
M  V30 3474 O 323.516 -2.53602 0.96945 0
M  V30 3475 C 321.972 -1.42358 3.30548 0
M  V30 3476 C 321.58 -0.445761 4.45777 0
M  V30 3477 C 323.324 -2.10434 3.6867 0
M  V30 3478 C 321.231 -1.10335 5.81016 0
M  V30 3479 H 320.161 -0.291999 0.695164 0
M  V30 3480 H 322.812 -0.0250749 1.83483 0
M  V30 3481 H 321.194 -2.21852 3.28021 0
M  V30 3482 H 322.368 0.319239 4.59693 0
M  V30 3483 H 320.683 0.130457 4.16196 0
M  V30 3484 H 323.28 -2.60405 4.67004 0
M  V30 3485 H 323.623 -2.90298 2.98383 0
M  V30 3486 H 324.156 -1.37773 3.7318 0
M  V30 3487 H 320.895 -0.345061 6.54591 0
M  V30 3488 H 320.415 -1.83925 5.70904 0
M  V30 3489 H 322.094 -1.62367 6.26295 0
M  V30 3490 N 322.226 -1.5378 -0.344866 0
M  V30 3491 C 323.156 -1.84662 -1.42906 0
M  V30 3492 C 324.137 -0.701648 -1.54955 0
M  V30 3493 O 325.322 -0.953438 -1.69184 0
M  V30 3494 C 322.452 -2.05503 -2.79974 0
M  V30 3495 C 321.406 -3.21318 -2.82734 0
M  V30 3496 C 320.732 -3.2749 -4.22675 0
M  V30 3497 C 322.032 -4.59456 -2.48389 0
M  V30 3498 H 323.726 -2.75461 -1.17311 0
M  V30 3499 H 321.272 -1.32542 -0.562896 0
M  V30 3500 H 323.225 -2.25691 -3.55867 0
M  V30 3501 H 321.949 -1.11434 -3.07002 0
M  V30 3502 H 320.608 -3.00984 -2.09294 0
M  V30 3503 H 320.256 -2.31019 -4.4681 0
M  V30 3504 H 319.956 -4.05316 -4.25433 0
M  V30 3505 H 321.48 -3.49887 -5.00412 0
M  V30 3506 H 322.894 -4.79667 -3.13995 0
M  V30 3507 H 321.291 -5.39675 -2.62432 0
M  V30 3508 H 322.361 -4.63155 -1.4358 0
M  V30 3509 N 323.704 0.605807 -1.45491 0
M  V30 3510 C 324.636 1.73031 -1.5031 0
M  V30 3511 C 325.649 1.57968 -0.393687 0
M  V30 3512 O 326.838 1.65817 -0.660839 0
M  V30 3513 C 323.938 3.11049 -1.34543 0
M  V30 3514 C 323.111 3.52334 -2.59189 0
M  V30 3515 C 322.17 4.69323 -2.37954 0
M  V30 3516 O 321.196 4.7635 -3.11575 0
M  V30 3517 N 322.398 5.62705 -1.4263 0
M  V30 3518 H 325.163 1.6936 -2.4726 0
M  V30 3519 H 322.724 0.79114 -1.41254 0
M  V30 3520 H 324.716 3.87071 -1.18144 0
M  V30 3521 H 323.286 3.09217 -0.458623 0
M  V30 3522 H 322.506 2.66256 -2.90691 0
M  V30 3523 H 323.794 3.76677 -3.42041 0
M  V30 3524 H 323.192 5.59744 -0.818758 0
M  V30 3525 H 321.749 6.38252 -1.32202 0
M  V30 3526 N 325.182 1.32811 0.848464 0
M  V30 3527 C 326.407 1.26882 1.6406 0
M  V30 3528 C 326.832 -0.15913 1.87426 0
M  V30 3529 O 326.19 -1.11258 1.43148 0
M  V30 3530 C 326.238 2.03997 2.97351 0
M  V30 3531 O 325.342 1.39201 3.88197 0
M  V30 3532 H 324.683 0.436982 0.499943 0
M  V30 3533 H 327.213 1.75224 1.0563 0
M  V30 3534 H 327.223 2.14403 3.47124 0
M  V30 3535 H 325.898 3.0783 2.79666 0
M  V30 3536 H 324.475 1.37381 3.46671 0
M  V30 3537 N 326.66 -1.06551 1.16123 0
M  V30 3538 C 327.885 -1.83544 0.965735 0
M  V30 3539 C 328.31 -1.81843 -0.481102 0
M  V30 3540 O 327.668 -1.21732 -1.34354 0
M  V30 3541 C 327.716 -3.28169 1.49457 0
M  V30 3542 O 326.82 -4.0643 0.699157 0
M  V30 3543 H 326.161 -0.568026 0.343864 0
M  V30 3544 H 328.691 -1.34362 1.54299 0
M  V30 3545 H 328.701 -3.78992 1.51092 0
M  V30 3546 H 327.376 -3.28722 2.54784 0
M  V30 3547 H 325.953 -3.65216 0.7531 0
M  V30 3548 N 328.138 -0.959301 -1.25041 0
M  V30 3549 C 329.101 -0.487677 -2.23952 0
M  V30 3550 C 330.101 0.41119 -1.55454 0
M  V30 3551 O 331.291 0.207825 -1.72956 0
M  V30 3552 C 328.423 0.294807 -3.39623 0
M  V30 3553 H 329.616 -1.36198 -2.67189 0
M  V30 3554 H 327.169 -0.743042 -1.37508 0
M  V30 3555 H 327.904 1.18658 -3.01813 0
M  V30 3556 H 327.689 -0.35012 -3.90534 0
M  V30 3557 H 329.179 0.614089 -4.1306 0
M  V30 3558 N 329.616 1.39756 -0.72842 0
M  V30 3559 C 330.864 2.00248 -0.272946 0
M  V30 3560 C 331.185 1.58077 1.14178 0
M  V30 3561 O 330.455 0.826014 1.77634 0
M  V30 3562 H 329.035 0.740554 -0.0979247 0
M  V30 3563 H 331.697 1.70903 -0.936912 0
M  V30 3564 H 330.793 3.10495 -0.316142 0
M  V30 3565 N 331.094 0.475555 1.50254 0
M  V30 3566 C 332.342 -0.077738 2.0195 0
M  V30 3567 C 332.663 -1.39813 1.35931 0
M  V30 3568 O 331.933 -1.89249 0.506123 0
M  V30 3569 H 330.513 -0.031719 0.746326 0
M  V30 3570 H 333.175 0.626995 1.84539 0
M  V30 3571 H 332.271 -0.225995 3.11281 0
M  V30 3572 N 332.573 -1.56217 0.208337 0
M  V30 3573 C 333.82 -1.97949 -0.42692 0
M  V30 3574 C 334.148 -1.09562 -1.60706 0
M  V30 3575 O 333.403 -0.137616 -1.95216 0
M  V30 3576 C 333.702 -3.45441 -0.916797 0
M  V30 3577 C 333.368 -4.50646 0.151391 0
M  V30 3578 C 332.03 -4.79139 0.444867 0
M  V30 3579 C 334.382 -5.13811 0.874492 0
M  V30 3580 C 331.71 -5.68084 1.46619 0
M  V30 3581 C 334.062 -6.03861 1.88506 0
M  V30 3582 C 332.726 -6.30704 2.18559 0
M  V30 3583 H 331.996 -0.724345 -0.156221 0
M  V30 3584 H 334.643 -1.89006 0.308084 0
M  V30 3585 H 332.948 -3.51521 -1.73032 0
M  V30 3586 H 334.645 -3.75094 -1.41794 0
M  V30 3587 H 331.235 -4.28511 -0.0875068 0
M  V30 3588 H 335.419 -4.91879 0.660996 0
M  V30 3589 H 330.675 -5.87151 1.7048 0
M  V30 3590 H 334.849 -6.51861 2.45051 0
M  V30 3591 H 332.476 -6.99424 2.97843 0
M  V30 3592 N 334.051 0.0651679 -1.57465 0
M  V30 3593 C 335.014 1.06117 -2.03155 0
M  V30 3594 C 336.014 1.31204 -0.929632 0
M  V30 3595 O 337.204 1.26813 -1.19432 0
M  V30 3596 C 334.336 2.4032 -2.41783 0
M  V30 3597 H 335.529 0.667231 -2.92383 0
M  V30 3598 H 333.082 0.311075 -1.53173 0
M  V30 3599 H 333.817 2.84532 -1.55601 0
M  V30 3600 H 333.602 2.23451 -3.22199 0
M  V30 3601 H 335.092 3.11898 -2.77685 0
M  V30 3602 N 335.529 1.53961 0.336706 0
M  V30 3603 C 336.461 1.78751 1.4346 0
M  V30 3604 C 337.474 0.669019 1.48418 0
M  V30 3605 O 338.663 0.945884 1.51378 0
M  V30 3606 C 335.763 1.87844 2.82078 0
M  V30 3607 C 334.936 3.17854 3.00479 0
M  V30 3608 C 333.995 3.17816 4.19379 0
M  V30 3609 O 333.021 3.91511 4.13168 0
M  V30 3610 N 334.223 2.40669 5.2826 0
M  V30 3611 H 336.988 2.73493 1.22563 0
M  V30 3612 H 334.549 1.53096 0.526625 0
M  V30 3613 H 336.541 1.85261 3.59806 0
M  V30 3614 H 335.111 1.00257 2.96086 0
M  V30 3615 H 334.331 3.33504 2.10163 0
M  V30 3616 H 335.619 4.03718 3.0966 0
M  V30 3617 H 335.017 1.8036 5.36178 0
M  V30 3618 H 333.574 2.43877 6.04456 0
M  V30 3619 N 337.007 -0.598083 1.45811 0
M  V30 3620 C 338.256 -1.35295 1.49594 0
M  V30 3621 C 338.569 -1.95057 0.145679 0
M  V30 3622 O 339.775 -2.71431 0.0612099 0
M  V30 3623 C 338.231 -2.45124 2.63519 0
M  V30 3624 C 337.839 -1.91732 4.04899 0
M  V30 3625 C 339.583 -3.2205 2.76558 0
M  V30 3626 C 337.49 -2.991 5.1019 0
M  V30 3627 H 336.42 -0.508552 0.556679 0
M  V30 3628 H 339.071 -0.639977 1.71978 0
M  V30 3629 H 337.453 -3.19149 2.34435 0
M  V30 3630 H 338.627 -1.24352 4.43704 0
M  V30 3631 H 336.942 -1.27522 3.96393 0
M  V30 3632 H 339.539 -4.0215 3.52391 0
M  V30 3633 H 339.882 -3.73663 1.83526 0
M  V30 3634 H 340.415 -2.55127 3.05213 0
M  V30 3635 H 337.154 -2.52393 6.04961 0
M  V30 3636 H 336.674 -3.65017 4.75944 0
M  V30 3637 H 338.353 -3.63318 5.35359 0
M  V30 3638 N 338.485 -1.33259 -0.841409 0
M  V30 3639 C 339.417 -1.19136 -1.95804 0
M  V30 3640 C 340.43 -0.122965 -1.62335 0
M  V30 3641 O 341.619 -0.373154 -1.74556 0
M  V30 3642 C 338.719 -0.804268 -3.29218 0
M  V30 3643 C 337.892 -1.96376 -3.90839 0
M  V30 3644 C 336.951 -1.55806 -5.02604 0
M  V30 3645 O 335.977 -2.27203 -5.21888 0
M  V30 3646 N 337.179 -0.461609 -5.78662 0
M  V30 3647 H 339.944 -2.15326 -2.08458 0
M  V30 3648 H 337.505 -1.25971 -1.017 0
M  V30 3649 H 339.497 -0.51501 -4.0141 0
M  V30 3650 H 338.067 0.0668809 -3.12528 0
M  V30 3651 H 337.287 -2.41879 -3.11269 0
M  V30 3652 H 338.575 -2.73966 -4.28742 0
M  V30 3653 H 337.973 0.132343 -5.65545 0
M  V30 3654 H 336.53 -0.232013 -6.51387 0
M  V30 3655 N 339.963 1.05934 -1.16686 0
M  V30 3656 C 341.21 1.788 -0.950622 0
M  V30 3657 C 341.538 1.87384 0.521305 0
M  V30 3658 O 340.793 1.36438 1.40297 0
M  V30 3659 C 341.092 3.23105 -1.52767 0
M  V30 3660 C 340.758 3.34594 -3.02254 0
M  V30 3661 C 339.42 3.37437 -3.43059 0
M  V30 3662 C 341.772 3.36219 -3.98254 0
M  V30 3663 C 339.1 3.39525 -4.78477 0
M  V30 3664 C 341.452 3.39845 -5.33562 0
M  V30 3665 C 340.116 3.40971 -5.73842 0
M  V30 3666 H 339.386 0.654275 -0.347857 0
M  V30 3667 H 342.033 1.24555 -1.45459 0
M  V30 3668 H 340.338 3.80227 -0.94524 0
M  V30 3669 H 342.035 3.7809 -1.336 0
M  V30 3670 H 338.625 3.3309 -2.6972 0
M  V30 3671 H 342.809 3.33231 -3.67792 0
M  V30 3672 H 338.065 3.38703 -5.09009 0
M  V30 3673 H 342.239 3.4005 -6.07733 0
M  V30 3674 H 339.866 3.42342 -6.78753 0
M  V30 3675 N 341.441 0.965919 1.2453 0
M  V30 3676 C 342.389 0.486506 2.27455 0
M  V30 3677 C 343.383 -0.449041 1.6334 0
M  V30 3678 O 344.589 -0.324527 1.7705 0
M  V30 3679 H 340.964 0.138857 0.739069 0
M  V30 3680 H 342.935 1.3666 2.65267 0
M  V30 3681 C 341.684 -0.209481 3.47068 0
M  V30 3682 H 341.007 0.50129 3.96645 0
M  V30 3683 H 342.447 -0.508775 4.20936 0
M  V30 3684 C 340.906 -1.43586 3.0477 0
M  V30 3685 O 341.436 -2.53299 3.11773 0
M  V30 3686 N 339.642 -1.30126 2.59838 0
M  V30 3687 H 339.189 -0.408583 2.54339 0
M  V30 3688 H 339.147 -2.12294 2.31902 0
M  V30 3689 N 342.919 -1.39368 0.735821 0
M  V30 3690 C 344.165 -2.00794 0.284544 0
M  V30 3691 C 344.498 -1.58255 -1.12557 0
M  V30 3692 O 343.773 -0.811819 -1.76748 0
M  V30 3693 C 344.056 -3.58011 0.387337 0
M  V30 3694 C 343.909 -4.10566 1.83728 0
M  V30 3695 C 345.228 -4.395 -0.22975 0
M  V30 3696 H 342.347 -0.729501 0.104866 0
M  V30 3697 H 344.989 -1.65564 0.93213 0
M  V30 3698 H 343.139 -3.88154 -0.164006 0
M  V30 3699 H 344.811 -3.91139 2.44556 0
M  V30 3700 H 343.054 -3.64095 2.35833 0
M  V30 3701 H 343.725 -5.19702 1.86047 0
M  V30 3702 H 346.201 -4.15406 0.240257 0
M  V30 3703 H 345.077 -5.48752 -0.127485 0
M  V30 3704 H 345.338 -4.22062 -1.3159 0
M  V30 3705 N 344.397 -0.483516 -1.5 0
M  V30 3706 C 345.643 0.0672592 -2.02688 0
M  V30 3707 C 345.976 1.38247 -1.36387 0
M  V30 3708 O 345.251 1.88131 -0.493675 0
M  V30 3709 C 345.534 0.238109 -3.59312 0
M  V30 3710 C 345.387 -1.099 -4.36168 0
M  V30 3711 C 346.706 0.986916 -4.28892 0
M  V30 3712 H 343.825 0.0229696 -0.736642 0
M  V30 3713 H 346.467 -0.631527 -1.79197 0
M  V30 3714 H 344.617 0.8333 -3.79458 0
M  V30 3715 H 346.289 -1.73172 -4.27562 0
M  V30 3716 H 344.532 -1.69261 -3.99416 0
M  V30 3717 H 345.203 -0.932954 -5.44059 0
M  V30 3718 H 347.679 0.482302 -4.13295 0
M  V30 3719 H 346.555 1.07527 -5.38265 0
M  V30 3720 H 346.816 2.0265 -3.92919 0
M  V30 3721 N 345.875 1.56104 -0.216619 0
M  V30 3722 C 346.808 2.16026 0.735395 0
M  V30 3723 C 347.786 1.1032 1.1945 0
M  V30 3724 O 348.97 1.38549 1.27814 0
M  V30 3725 C 346.097 2.73656 1.99575 0
M  V30 3726 C 345.143 3.92146 1.67702 0
M  V30 3727 S 345.976 5.29397 0.806145 0
M  V30 3728 C 347.132 5.90463 2.07617 0
M  V30 3729 H 347.365 2.96439 0.226072 0
M  V30 3730 H 344.898 1.544 -0.00136639 0
M  V30 3731 H 346.856 3.075 2.71945 0
M  V30 3732 H 345.517 1.93245 2.47619 0
M  V30 3733 H 344.71 4.30954 2.61332 0
M  V30 3734 H 344.312 3.59423 1.03398 0
M  V30 3735 H 346.604 6.06136 3.02664 0
M  V30 3736 H 347.547 6.86589 1.73207 0
M  V30 3737 H 347.955 5.19252 2.21445 0
M  V30 3738 N 347.353 -0.0568162 1.57498 0
M  V30 3739 C 348.769 -0.411933 1.54192 0
M  V30 3740 C 348.969 -1.78287 0.938942 0
M  V30 3741 O 348.025 -2.46483 0.547919 0
M  V30 3742 C 349.338 -0.339244 2.9878 0
M  V30 3743 C 350.886 -0.418348 3.10192 0
M  V30 3744 C 351.361 -0.375407 4.56459 0
M  V30 3745 N 352.852 -0.435038 4.61153 0
M  V30 3746 C 353.587 -0.424265 5.71828 0
M  V30 3747 N 353.083 -0.367418 6.91825 0
M  V30 3748 N 354.876 -0.471938 5.60115 0
M  V30 3749 H 347.027 0.840684 1.95055 0
M  V30 3750 H 349.29 0.316987 0.893433 0
M  V30 3751 H 348.996 0.601742 3.46514 0
M  V30 3752 H 348.87 -1.14371 3.59443 0
M  V30 3753 H 351.257 -1.34976 2.62422 0
M  V30 3754 H 351.338 0.414962 2.52412 0
M  V30 3755 H 350.982 0.552219 5.04889 0
M  V30 3756 H 350.912 -1.22645 5.12119 0
M  V30 3757 H 353.403 -0.482612 3.74806 0
M  V30 3758 H 353.716 -0.363535 7.71944 0
M  V30 3759 H 352.061 -0.333879 6.94198 0
M  V30 3760 H 355.252 -0.514145 4.65268 0
M  V30 3761 H 355.425 -0.460073 6.46365 0
M  V30 3762 N 348.832 -1.54138 -0.328536 0
M  V30 3763 C 350.248 -1.44736 -0.672574 0
M  V30 3764 C 350.448 -0.616217 -1.91846 0
M  V30 3765 O 349.504 -0.113067 -2.52247 0
M  V30 3766 C 350.817 -2.884 -0.851217 0
M  V30 3767 C 352.365 -2.98271 -0.948877 0
M  V30 3768 C 352.84 -4.43074 -1.15973 0
M  V30 3769 N 354.331 -4.46665 -1.22658 0
M  V30 3770 C 355.066 -5.55857 -1.40751 0
M  V30 3771 N 354.562 -6.75026 -1.5592 0
M  V30 3772 N 356.355 -5.43495 -1.4342 0
M  V30 3773 H 348.506 -2.06661 0.490421 0
M  V30 3774 H 350.769 -0.934812 0.157579 0
M  V30 3775 H 350.475 -3.51699 -0.00704236 0
M  V30 3776 H 350.349 -3.34225 -1.74853 0
M  V30 3777 H 352.736 -2.35102 -1.78356 0
M  V30 3778 H 352.817 -2.55785 -0.0281435 0
M  V30 3779 H 352.461 -5.06827 -0.329915 0
M  V30 3780 H 352.391 -4.83165 -2.09426 0
M  V30 3781 H 354.882 -3.60797 -1.124 0
M  V30 3782 H 355.195 -7.54004 -1.69404 0
M  V30 3783 H 353.54 -6.77944 -1.53027 0
M  V30 3784 H 356.731 -4.49349 -1.31162 0
M  V30 3785 H 356.904 -6.28649 -1.57178 0
M  V30 3786 N 350.31 0.590341 -1.46126 0
M  V30 3787 C 351.26 1.69466 -1.5253 0
M  V30 3788 C 352.244 1.56179 -0.386917 0
M  V30 3789 O 353.436 1.65223 -0.634858 0
M  V30 3790 C 350.565 3.08245 -1.5113 0
M  V30 3791 C 349.651 3.26856 -2.70233 0
M  V30 3792 N 350.042 3.15657 -3.95214 0
M  V30 3793 C 348.34 3.57775 -2.66296 0
M  V30 3794 C 349.041 3.36066 -4.74799 0
M  V30 3795 N 348.017 3.60865 -4.06543 0
M  V30 3796 H 351.819 1.59326 -2.46966 0
M  V30 3797 H 349.333 0.79414 -1.41659 0
M  V30 3798 H 351.33 3.87492 -1.53804 0
M  V30 3799 H 349.99 3.19521 -0.577636 0
M  V30 3800 H 351.001 2.93686 -4.26578 0
M  V30 3801 H 347.678 3.75782 -1.81918 0
M  V30 3802 H 349.068 3.32655 -5.83772 0
M  V30 3803 N 351.788 1.33704 0.83433 0
M  V30 3804 C 353.199 1.22813 1.4062 0
M  V30 3805 C 353.55 -0.151107 1.95617 0
M  V30 3806 O 352.675 -1.05092 1.89168 0
M  V30 3807 C 353.27 2.22355 2.55624 0
M  V30 3808 C 351.829 2.1529 3.08751 0
M  V30 3809 C 350.976 2.09589 1.8157 0
M  V30 3810 H 353.927 1.45236 0.639702 0
M  V30 3811 H 353.948 1.83391 3.33389 0
M  V30 3812 H 353.46 3.22728 2.15566 0
M  V30 3813 H 351.561 1.18235 3.53343 0
M  V30 3814 H 351.674 3.06038 3.68616 0
M  V30 3815 H 350.038 1.55134 2.02004 0
M  V30 3816 H 350.821 3.11777 1.43701 0
M  V30 3817 N 353.266 -1.05314 1.17247 0
M  V30 3818 C 354.196 -2.1498 0.911362 0
M  V30 3819 C 355.177 -1.69471 -0.146169 0
M  V30 3820 O 356.362 -1.942 0.003812 0
M  V30 3821 C 353.492 -3.4472 0.422528 0
M  V30 3822 C 352.446 -4.03789 1.4191 0
M  V30 3823 C 351.772 -5.28858 0.788274 0
M  V30 3824 C 353.072 -4.41418 2.7919 0
M  V30 3825 H 354.766 -2.3708 1.82848 0
M  V30 3826 H 352.312 -1.13938 0.880569 0
M  V30 3827 H 354.265 -4.20787 0.227289 0
M  V30 3828 H 352.989 -3.22269 -0.530123 0
M  V30 3829 H 351.648 -3.2979 1.60106 0
M  V30 3830 H 351.296 -5.02709 -0.171173 0
M  V30 3831 H 350.996 -5.69338 1.45353 0
M  V30 3832 H 352.52 -6.07612 0.603282 0
M  V30 3833 H 353.934 -5.08524 2.64719 0
M  V30 3834 H 352.331 -4.92913 3.42282 0
M  V30 3835 H 353.401 -3.51819 3.33693 0
M  V30 3836 N 354.744 -0.972509 -1.24016 0
M  V30 3837 C 355.99 -0.637978 -1.92504 0
M  V30 3838 C 356.323 0.825383 -1.75787 0
M  V30 3839 O 355.598 1.59442 -1.11393 0
M  V30 3840 C 355.881 -1.01942 -3.45369 0
M  V30 3841 C 355.734 -2.53983 -3.71231 0
M  V30 3842 C 357.053 -0.55751 -4.36555 0
M  V30 3843 H 354.172 -0.233248 -0.699117 0
M  V30 3844 H 356.814 -1.21238 -1.46292 0
M  V30 3845 H 354.964 -0.530656 -3.84859 0
M  V30 3846 H 356.636 -3.10374 -3.41271 0
M  V30 3847 H 354.879 -2.96968 -3.16216 0
M  V30 3848 H 355.55 -2.75723 -4.78206 0
M  V30 3849 H 358.026 -0.977029 -4.04467 0
M  V30 3850 H 356.902 -0.85292 -5.42233 0
M  V30 3851 H 357.163 0.542328 -4.38761 0
M  V30 3852 N 356.222 1.38976 -0.743202 0
M  V30 3853 C 357.452 2.04339 -0.304807 0
M  V30 3854 C 357.86 1.56162 1.06819 0
M  V30 3855 O 357.203 0.725284 1.68776 0
M  V30 3856 C 357.265 3.58716 -0.237369 0
M  V30 3857 C 356.929 4.29905 -1.55018 0
M  V30 3858 C 357.926 4.55987 -2.49744 0
M  V30 3859 C 355.611 4.68294 -1.81675 0
M  V30 3860 C 357.605 5.19478 -3.69353 0
M  V30 3861 C 355.292 5.31512 -3.0156 0
M  V30 3862 C 356.29 5.57037 -3.9522 0
M  V30 3863 O 355.978 6.18941 -5.12998 0
M  V30 3864 H 355.71 0.663439 -0.12971 0
M  V30 3865 H 358.264 1.78852 -1.01001 0
M  V30 3866 H 356.494 3.83133 0.524003 0
M  V30 3867 H 358.183 4.05543 0.170121 0
M  V30 3868 H 358.949 4.26767 -2.30423 0
M  V30 3869 H 354.828 4.47779 -1.09615 0
M  V30 3870 H 358.372 5.39318 -4.42473 0
M  V30 3871 H 354.269 5.60153 -3.20778 0
M  V30 3872 H 355.037 6.37433 -5.13441 0
M  V30 3873 N 357.7 0.491464 1.49741 0
M  V30 3874 C 358.946 -0.0565092 2.02721 0
M  V30 3875 C 359.279 -1.37522 1.37118 0
M  V30 3876 O 358.554 -1.87866 0.503645 0
M  V30 3877 C 358.837 -0.219051 3.59433 0
M  V30 3878 C 358.69 1.12211 4.35579 0
M  V30 3879 C 360.009 -0.964157 4.29409 0
M  V30 3880 H 357.128 -0.0190627 0.736753 0
M  V30 3881 H 359.77 0.641021 1.7886 0
M  V30 3882 H 357.92 -0.813165 3.79895 0
M  V30 3883 H 359.592 1.75437 4.26637 0
M  V30 3884 H 357.835 1.71377 3.98513 0
M  V30 3885 H 358.506 0.961794 5.43556 0
M  V30 3886 H 360.982 -0.460378 4.13545 0
M  V30 3887 H 359.858 -1.04671 5.38828 0
M  V30 3888 H 360.119 -2.00563 3.93988 0
M  V30 3889 N 359.178 -1.55987 0.224894 0
M  V30 3890 C 360.424 -1.98684 -0.406502 0
M  V30 3891 C 360.757 -1.11248 -1.59177 0
M  V30 3892 O 360.032 -0.170909 -1.93748 0
M  V30 3893 C 360.315 -3.50218 -0.837808 0
M  V30 3894 C 360.168 -4.48426 0.351332 0
M  V30 3895 C 361.487 -4.06243 -1.69278 0
M  V30 3896 H 358.606 -0.722337 -0.146283 0
M  V30 3897 H 361.248 -1.87255 0.321799 0
M  V30 3898 H 359.398 -3.60089 -1.45837 0
M  V30 3899 H 361.07 -4.50562 0.989526 0
M  V30 3900 H 359.313 -4.22159 0.998207 0
M  V30 3901 H 359.984 -5.52 0.00655905 0
M  V30 3902 H 362.46 -3.99337 -1.16914 0
M  V30 3903 H 361.336 -5.12581 -1.96346 0
M  V30 3904 H 361.597 -3.53332 -2.65723 0
M  V30 3905 N 360.656 0.0484629 -1.57525 0
M  V30 3906 C 361.881 0.759177 -1.93006 0
M  V30 3907 C 362.306 1.69125 -0.823317 0
M  V30 3908 O 361.664 1.79931 0.222364 0
M  V30 3909 C 361.712 1.50899 -3.27509 0
M  V30 3910 O 360.816 2.62112 -3.18388 0
M  V30 3911 H 360.157 0.205564 -0.631379 0
M  V30 3912 H 362.687 0.00972959 -2.04598 0
M  V30 3913 H 362.697 1.88317 -3.6194 0
M  V30 3914 H 361.372 0.825269 -4.0763 0
M  V30 3915 H 359.949 2.27379 -2.95556 0
M  V30 3916 N 362.134 1.5431 0.320358 0
M  V30 3917 C 363.064 1.86912 1.3995 0
M  V30 3918 C 364.045 0.726211 1.53819 0
M  V30 3919 O 365.23 0.980233 1.67646 0
M  V30 3920 C 362.36 2.09932 2.7667 0
M  V30 3921 C 361.314 3.25776 2.77586 0
M  V30 3922 C 360.64 3.34173 4.17412 0
M  V30 3923 C 361.94 4.6335 2.41048 0
M  V30 3924 H 363.634 2.77292 1.12914 0
M  V30 3925 H 361.18 1.33421 0.541738 0
M  V30 3926 H 363.133 2.31324 3.52232 0
M  V30 3927 H 361.857 1.16304 3.0519 0
M  V30 3928 H 360.516 3.04276 2.04479 0
M  V30 3929 H 360.164 2.38098 4.43078 0
M  V30 3930 H 359.864 4.12033 4.18931 0
M  V30 3931 H 361.388 3.57803 4.94782 0
M  V30 3932 H 362.802 4.84602 3.06324 0
M  V30 3933 H 361.199 5.43782 2.53813 0
M  V30 3934 H 362.269 4.65381 1.36193 0
M  V30 3935 N 363.613 -0.582584 1.46437 0
M  V30 3936 C 364.543 -1.70187 1.59871 0
M  V30 3937 C 365.524 -1.64066 0.449042 0
M  V30 3938 O 366.709 -1.82081 0.6753 0
M  V30 3939 C 363.839 -3.08827 1.58881 0
M  V30 3940 C 362.793 -3.29779 2.72819 0
M  V30 3941 C 362.119 -4.68947 2.5689 0
M  V30 3942 C 363.419 -3.17601 4.1464 0
M  V30 3943 H 365.113 -1.592 2.53566 0
M  V30 3944 H 362.659 -0.764472 1.22032 0
M  V30 3945 H 364.612 -3.86951 1.66873 0
M  V30 3946 H 363.336 -3.20713 0.617306 0
M  V30 3947 H 361.995 -2.54054 2.64296 0
M  V30 3948 H 361.643 -4.77599 1.57823 0
M  V30 3949 H 361.343 -4.83919 3.33312 0
M  V30 3950 H 362.867 -5.4924 2.66773 0
M  V30 3951 H 364.281 -3.8557 4.24274 0
M  V30 3952 H 362.678 -3.44094 4.9165 0
M  V30 3953 H 363.748 -2.14681 4.34788 0
M  V30 3954 N 365.091 -1.34144 -0.827227 0
M  V30 3955 C 366.34 -1.25602 -1.5782 0
M  V30 3956 C 366.653 0.173445 -1.94829 0
M  V30 3957 O 367.859 0.380984 -2.68814 0
M  V30 3958 C 366.315 -2.20151 -2.84713 0
M  V30 3959 C 365.923 -3.68331 -2.55021 0
M  V30 3960 C 367.667 -2.20508 -3.62735 0
M  V30 3961 C 365.574 -4.54762 -3.78082 0
M  V30 3962 H 364.504 -0.466573 -0.592306 0
M  V30 3963 H 367.155 -1.59283 -0.911116 0
M  V30 3964 H 365.537 -1.79417 -3.53023 0
M  V30 3965 H 366.711 -4.17577 -1.94849 0
M  V30 3966 H 365.026 -3.7038 -1.90283 0
M  V30 3967 H 367.623 -2.82306 -4.54101 0
M  V30 3968 H 367.966 -1.20322 -3.98533 0
M  V30 3969 H 368.499 -2.59664 -3.01362 0
M  V30 3970 H 365.238 -5.55867 -3.47407 0
M  V30 3971 H 364.758 -4.10254 -4.37552 0
M  V30 3972 H 366.437 -4.69153 -4.45538 0
M  V30 3973 N 366.569 1.04691 -1.17803 0
M  V30 3974 C 367.98 1.59238 -0.974689 0
M  V30 3975 C 368.331 1.90306 0.477292 0
M  V30 3976 O 367.456 1.68846 1.35352 0
M  V30 3977 C 368.051 2.89318 -1.76296 0
M  V30 3978 C 366.61 3.40506 -1.60414 0
M  V30 3979 C 365.757 2.14172 -1.76141 0
M  V30 3980 H 368.708 0.874395 -1.32439 0
M  V30 3981 H 368.729 3.5944 -1.24833 0
M  V30 3982 H 368.241 2.66675 -2.81968 0
M  V30 3983 H 366.342 3.68175 -0.572519 0
M  V30 3984 H 366.455 4.14753 -2.39827 0
M  V30 3985 H 364.819 2.25176 -1.19028 0
M  V30 3986 H 365.602 1.93992 -2.83235 0
M  V30 3987 N 368.047 0.979072 1.23499 0
M  V30 3988 C 369.272 0.664845 1.96455 0
M  V30 3989 C 369.697 -0.761287 1.72006 0
M  V30 3990 O 369.055 -1.51837 0.990713 0
M  V30 3991 C 369.103 0.959479 3.47601 0
M  V30 3992 O 368.207 0.0508168 4.12369 0
M  V30 3993 H 367.548 0.250185 0.615064 0
M  V30 3994 H 370.078 1.31231 1.5697 0
M  V30 3995 H 370.088 0.895642 3.98048 0
M  V30 3996 H 368.763 1.99876 3.64723 0
M  V30 3997 H 367.34 0.16895 3.72517 0
M  V30 3998 N 369.525 -1.3858 0.750561 0
M  V30 3999 C 370.774 -1.99424 0.302172 0
M  V30 4000 C 371.087 -1.60254 -1.12152 0
M  V30 4001 O 372.293 -2.14046 -1.67023 0
M  V30 4002 C 370.749 -3.56558 0.489307 0
M  V30 4003 C 370.357 -4.04682 1.92189 0
M  V30 4004 C 372.101 -4.24374 0.103478 0
M  V30 4005 C 370.008 -5.54446 2.05775 0
M  V30 4006 H 368.938 -0.746046 0.10923 0
M  V30 4007 H 371.589 -1.58383 0.92667 0
M  V30 4008 H 369.971 -3.95472 -0.204329 0
M  V30 4009 H 371.145 -3.77065 2.64875 0
M  V30 4010 H 369.46 -3.4958 2.26236 0
M  V30 4011 H 372.057 -5.34384 0.183787 0
M  V30 4012 H 372.4 -4.05468 -0.943481 0
M  V30 4013 H 372.933 -3.90688 0.748854 0
M  V30 4014 H 369.672 -5.78252 3.08714 0
M  V30 4015 H 369.192 -5.83816 1.37546 0
M  V30 4016 H 370.871 -6.20099 1.84626 0
M  V30 4017 N 371.003 -0.499398 -1.49478 0
M  V30 4018 C 372.25 0.0456899 -2.02448 0
M  V30 4019 C 372.578 1.37142 -1.37921 0
M  V30 4020 O 371.833 1.89111 -0.503544 0
M  V30 4021 C 372.132 0.248424 -3.56536 0
M  V30 4022 C 371.798 -0.999107 -4.39692 0
M  V30 4023 C 370.46 -1.34108 -4.62135 0
M  V30 4024 C 372.812 -1.82842 -4.88076 0
M  V30 4025 C 370.14 -2.51191 -5.30208 0
M  V30 4026 C 372.492 -2.99076 -5.57437 0
M  V30 4027 C 371.156 -3.33655 -5.78127 0
M  V30 4028 H 370.426 0.0167191 -0.740811 0
M  V30 4029 H 373.073 -0.65923 -1.79795 0
M  V30 4030 H 371.378 1.03586 -3.77859 0
M  V30 4031 H 373.075 0.684605 -3.95113 0
M  V30 4032 H 369.665 -0.722729 -4.22463 0
M  V30 4033 H 373.849 -1.57737 -4.70566 0
M  V30 4034 H 369.105 -2.78221 -5.44429 0
M  V30 4035 H 373.279 -3.63664 -5.93904 0
M  V30 4036 H 370.906 -4.24483 -6.30649 0
M  V30 4037 N 372.481 1.55866 -0.233164 0
M  V30 4038 C 373.411 2.23783 0.666599 0
M  V30 4039 C 374.392 1.21343 1.19205 0
M  V30 4040 O 375.577 1.4996 1.23392 0
M  V30 4041 C 372.707 2.92671 1.86978 0
M  V30 4042 C 371.661 4.01682 1.47768 0
M  V30 4043 C 370.987 4.57926 2.76058 0
M  V30 4044 C 372.287 5.18126 0.658993 0
M  V30 4045 H 373.981 2.99232 0.100306 0
M  V30 4046 H 371.527 1.43924 0.046804 0
M  V30 4047 H 373.48 3.3888 2.50476 0
M  V30 4048 H 372.204 2.14688 2.46123 0
M  V30 4049 H 370.863 3.56222 0.866106 0
M  V30 4050 H 370.511 3.76659 3.33372 0
M  V30 4051 H 370.211 5.31505 2.50552 0
M  V30 4052 H 371.735 5.06859 3.40479 0
M  V30 4053 H 373.149 5.60644 1.19795 0
M  V30 4054 H 371.546 5.98009 0.500552 0
M  V30 4055 H 372.616 4.83763 -0.331856 0
M  V30 4056 N 373.959 -0.0401083 1.57549 0
M  V30 4057 C 374.892 -1.07689 2.01192 0
M  V30 4058 C 375.87 -1.358 0.894273 0
M  V30 4059 O 377.054 -1.48642 1.15921 0
M  V30 4060 C 374.181 -2.41418 2.3756 0
M  V30 4061 C 373.227 -2.29237 3.59656 0
M  V30 4062 S 374.06 -1.65628 5.09242 0
M  V30 4063 C 375.216 -3.0087 5.48843 0
M  V30 4064 H 375.449 -0.705108 2.88817 0
M  V30 4065 H 372.982 -0.249724 1.52367 0
M  V30 4066 H 374.94 -3.18329 2.59186 0
M  V30 4067 H 373.601 -2.75747 1.50407 0
M  V30 4068 H 372.794 -3.27932 3.82722 0
M  V30 4069 H 372.396 -1.60469 3.37825 0
M  V30 4070 H 374.688 -3.97201 5.48851 0
M  V30 4071 H 375.631 -2.82549 6.49286 0
M  V30 4072 H 376.039 -3.02934 4.76331 0
M  V30 4073 N 375.437 -1.54477 -0.31217 0
M  V30 4074 C 376.367 -1.87652 -1.38957 0
M  V30 4075 C 377.348 -0.734358 -1.53431 0
M  V30 4076 O 378.533 -0.98911 -1.67123 0
M  V30 4077 C 375.663 -2.11396 -2.75552 0
M  V30 4078 C 374.617 -3.27243 -2.75855 0
M  V30 4079 C 373.943 -3.36382 -4.15633 0
M  V30 4080 C 375.243 -4.64622 -2.38587 0
M  V30 4081 H 376.937 -2.77887 -1.11442 0
M  V30 4082 H 374.483 -1.33707 -0.534655 0
M  V30 4083 H 376.436 -2.33189 -3.51 0
M  V30 4084 H 375.16 -1.17921 -3.04569 0
M  V30 4085 H 373.819 -3.05356 -2.02863 0
M  V30 4086 H 373.467 -2.40445 -4.41809 0
M  V30 4087 H 373.167 -4.14249 -4.1674 0
M  V30 4088 H 374.691 -3.60422 -4.92877 0
M  V30 4089 H 376.105 -4.86219 -3.03749 0
M  V30 4090 H 374.502 -5.45121 -2.50925 0
M  V30 4091 H 375.572 -4.66097 -1.33723 0
M  V30 4092 N 376.915 0.57481 -1.46744 0
M  V30 4093 C 378.161 1.3347 -1.52688 0
M  V30 4094 C 378.494 1.93353 -0.181229 0
M  V30 4095 O 377.769 1.76912 0.808237 0
M  V30 4096 C 378.052 2.45811 -2.63152 0
M  V30 4097 C 377.905 1.90912 -4.07275 0
M  V30 4098 C 379.224 3.47822 -2.69644 0
M  V30 4099 H 376.343 0.483935 -0.555856 0
M  V30 4100 H 378.985 0.644968 -1.78718 0
M  V30 4101 H 377.135 3.04646 -2.41088 0
M  V30 4102 H 378.807 1.36473 -4.4065 0
M  V30 4103 H 377.05 1.21691 -4.16382 0
M  V30 4104 H 377.721 2.72042 -4.80309 0
M  V30 4105 H 380.197 2.9888 -2.895 0
M  V30 4106 H 379.073 4.23876 -3.48742 0
M  V30 4107 H 379.334 4.05555 -1.76005 0
M  V30 4108 N 378.394 1.34581 0.820102 0
M  V30 4109 C 379.671 1.17675 1.56244 0
M  V30 4110 C 380.051 -0.249541 2.0962 0
M  V30 4111 O 379.399 -1.25125 1.91196 0
M  V30 4112 C 379.609 2.23364 2.6816 0
M  V30 4113 C 380.957 2.58485 3.36854 0
M  V30 4114 O 381.981 2.22175 2.78418 0
M  V30 4115 O 380.84 3.20868 4.42386 0
M  V30 4116 H 377.934 0.456333 0.689702 0
M  V30 4117 H 380.48 1.46222 0.861231 0
M  V30 4118 H 379.252 3.19087 2.26493 0
M  V30 4119 H 378.875 1.96009 3.45928 0
M  V30 4120 N 379.872 -1.04064 1.18357 0
M  V30 4121 C 380.802 -2.14001 0.934113 0
M  V30 4122 C 381.783 -1.69616 -0.128186 0
M  V30 4123 O 382.968 -1.94185 0.0244093 0
M  V30 4124 C 380.098 -3.44253 0.459066 0
M  V30 4125 C 379.052 -4.02261 1.46185 0
M  V30 4126 C 378.378 -5.27992 0.844322 0
M  V30 4127 C 379.678 -4.38432 2.83856 0
M  V30 4128 H 381.372 -2.35127 1.85352 0
M  V30 4129 H 378.918 -1.12998 0.892604 0
M  V30 4130 H 380.871 -4.20522 0.271907 0
M  V30 4131 H 379.595 -3.22813 -0.495912 0
M  V30 4132 H 378.254 -3.28074 1.63595 0
M  V30 4133 H 377.902 -5.02862 -0.117845 0
M  V30 4134 H 377.602 -5.67765 1.51384 0
M  V30 4135 H 379.126 -6.06938 0.667693 0
M  V30 4136 H 380.54 -5.05688 2.70098 0
M  V30 4137 H 378.937 -4.89254 3.47491 0
M  V30 4138 H 380.007 -3.4826 3.37406 0
M  V30 4139 N 381.35 -0.985608 -1.22978 0
M  V30 4140 C 382.598 -0.656087 -1.91154 0
M  V30 4141 C 382.919 0.813561 -1.77218 0
M  V30 4142 O 382.189 1.58244 -1.1548 0
M  V30 4143 H 380.769 -0.239674 -0.707506 0
M  V30 4144 H 383.431 -1.25054 -1.49491 0
M  V30 4145 H 382.527 -0.912253 -2.9847 0
M  V30 4146 N 382.828 1.3818 -0.7579 0
M  V30 4147 C 384.053 2.04827 -0.325679 0
M  V30 4148 C 384.478 1.56788 1.03919 0
M  V30 4149 O 383.836 0.721811 1.66312 0
M  V30 4150 C 383.884 3.58774 -0.362447 0
M  V30 4151 O 382.988 4.07372 0.642033 0
M  V30 4152 H 382.329 0.64833 -0.143402 0
M  V30 4153 H 384.859 1.7677 -1.03023 0
M  V30 4154 H 384.869 4.07434 -0.214844 0
M  V30 4155 H 383.544 3.93096 -1.35824 0
M  V30 4156 H 382.121 3.70068 0.458688 0
M  V30 4157 N 384.306 0.507319 1.49211 0
M  V30 4158 C 385.553 -0.0349529 2.0247 0
M  V30 4159 C 385.881 -1.36409 1.38647 0
M  V30 4160 O 385.136 -1.88841 0.513566 0
M  V30 4161 C 385.435 -0.229513 3.56662 0
M  V30 4162 C 385.101 1.02241 4.39156 0
M  V30 4163 C 383.763 1.36557 4.61417 0
M  V30 4164 C 386.115 1.85428 4.871 0
M  V30 4165 C 383.443 2.53999 5.28868 0
M  V30 4166 C 385.795 3.02028 5.55843 0
M  V30 4167 C 384.459 3.36717 5.76349 0
M  V30 4168 H 383.729 -0.0127902 0.74089 0
M  V30 4169 H 386.376 0.668756 1.79443 0
M  V30 4170 H 384.681 -1.0158 3.78403 0
M  V30 4171 H 386.378 -0.663641 3.9547 0
M  V30 4172 H 382.968 0.745124 4.22073 0
M  V30 4173 H 387.152 1.6023 4.69723 0
M  V30 4174 H 382.408 2.81105 5.42946 0
M  V30 4175 H 386.582 3.66808 5.91967 0
M  V30 4176 H 384.209 4.27821 6.28389 0
M  V30 4177 N 385.784 -1.5574 0.241426 0
M  V30 4178 C 387.014 -2.02913 -0.38857 0
M  V30 4179 C 387.422 -1.12014 -1.52478 0
M  V30 4180 O 386.765 -0.125903 -1.83268 0
M  V30 4181 C 386.827 -3.4636 -0.963075 0
M  V30 4182 C 386.491 -4.56982 0.0401916 0
M  V30 4183 C 387.488 -5.12941 0.847766 0
M  V30 4184 C 385.173 -5.0203 0.164699 0
M  V30 4185 C 387.167 -6.12437 1.76636 0
M  V30 4186 C 384.854 -6.01358 1.0868 0
M  V30 4187 C 385.852 -6.5644 1.88616 0
M  V30 4188 O 385.54 -7.53831 2.79273 0
M  V30 4189 H 385.272 -0.668983 -0.0971452 0
M  V30 4190 H 387.826 -2.02198 0.361248 0
M  V30 4191 H 386.056 -3.44206 -1.76235 0
M  V30 4192 H 387.745 -3.77065 -1.50257 0
M  V30 4193 H 388.511 -4.78974 0.762133 0
M  V30 4194 H 384.39 -4.58824 -0.447411 0
M  V30 4195 H 387.934 -6.55355 2.39071 0
M  V30 4196 H 383.831 -6.34746 1.17338 0
M  V30 4197 H 384.599 -7.71428 2.73572 0
M  V30 4198 N 387.262 0.0317525 -1.57568 0
M  V30 4199 C 388.192 1.03274 -2.0942 0
M  V30 4200 C 389.173 1.3788 -0.996143 0
M  V30 4201 O 390.358 1.46811 -1.27122 0
M  V30 4202 C 387.488 2.33448 -2.57137 0
M  V30 4203 C 386.442 2.13091 -3.71182 0
M  V30 4204 C 385.768 3.49001 -4.05095 0
M  V30 4205 C 387.068 1.51928 -4.99715 0
M  V30 4206 H 388.762 0.60112 -2.93303 0
M  V30 4207 H 386.308 0.287705 -1.41097 0
M  V30 4208 H 388.261 3.03802 -2.92032 0
M  V30 4209 H 386.985 2.78665 -1.70333 0
M  V30 4210 H 385.644 1.45171 -3.36632 0
M  V30 4211 H 385.292 3.91862 -3.15362 0
M  V30 4212 H 384.992 3.36207 -4.81911 0
M  V30 4213 H 386.516 4.20721 -4.42522 0
M  V30 4214 H 387.93 2.12196 -5.32584 0
M  V30 4215 H 386.327 1.49716 -5.81124 0
M  V30 4216 H 387.397 0.484811 -4.8247 0
M  V30 4217 N 388.74 1.54641 0.303973 0
M  V30 4218 C 390.151 1.64811 0.877163 0
M  V30 4219 C 390.502 0.554838 1.88191 0
M  V30 4220 O 389.627 -0.309033 2.14182 0
M  V30 4221 C 390.222 2.9876 1.59775 0
M  V30 4222 C 388.781 3.11061 2.11938 0
M  V30 4223 C 387.928 2.60479 0.951097 0
M  V30 4224 H 390.879 1.58493 0.0810486 0
M  V30 4225 H 390.9 2.90017 2.46314 0
M  V30 4226 H 390.412 3.7831 0.866226 0
M  V30 4227 H 388.513 2.36225 2.88146 0
M  V30 4228 H 388.626 4.17171 2.35595 0
M  V30 4229 H 386.99 2.16859 1.33583 0
M  V30 4230 H 387.773 3.42504 0.233581 0
M  V30 4231 N 390.218 -0.567019 1.47046 0
M  V30 4232 C 391.629 -1.14916 1.47143 0
M  V30 4233 C 391.98 -1.94954 0.220767 0
M  V30 4234 O 391.105 -2.05602 -0.67505 0
M  V30 4235 C 391.7 -2.09069 2.666 0
M  V30 4236 C 390.259 -2.62575 2.69687 0
M  V30 4237 C 389.406 -1.38755 2.40088 0
M  V30 4238 H 392.357 -0.354126 1.54699 0
M  V30 4239 H 392.378 -2.92789 2.43011 0
M  V30 4240 H 391.89 -1.50789 3.57609 0
M  V30 4241 H 389.991 -3.24681 1.82792 0
M  V30 4242 H 390.104 -3.04239 3.70102 0
M  V30 4243 H 388.468 -1.69098 1.90468 0
M  V30 4244 H 389.251 -0.822822 3.33293 0
M  V30 4245 N 391.696 -1.35014 -0.812953 0
M  V30 4246 C 392.644 -1.27435 -1.94585 0
M  V30 4247 C 393.638 -0.170494 -1.6854 0
M  V30 4248 O 394.844 -0.336085 -1.76835 0
M  V30 4249 H 391.219 -0.396144 -0.639198 0
M  V30 4250 H 393.19 -2.23158 -1.98098 0
M  V30 4251 C 391.939 -1.05677 -3.31252 0
M  V30 4252 H 391.262 -1.89853 -3.51846 0
M  V30 4253 H 392.702 -1.04413 -4.10943 0
M  V30 4254 C 391.161 0.239615 -3.36047 0
M  V30 4255 O 391.691 1.23759 -3.8216 0
M  V30 4256 N 389.897 0.276186 -2.89285 0
M  V30 4257 H 389.444 -0.53653 -2.51951 0
M  V30 4258 H 389.402 1.14332 -2.92875 0
M  V30 4259 N 393.175 1.03435 -1.18907 0
M  V30 4260 C 394.415 1.78302 -0.999391 0
M  V30 4261 C 394.779 1.86353 0.462219 0
M  V30 4262 O 395.98 2.57489 0.771543 0
M  V30 4263 C 394.251 3.17362 -1.64365 0
M  V30 4264 S 395.81 4.08488 -1.6026 0
M  V30 4265 H 392.628 0.613861 -0.358742 0
M  V30 4266 H 395.23 1.23979 -1.51161 0
M  V30 4267 H 393.934 3.09116 -2.69955 0
M  V30 4268 H 393.465 3.76762 -1.13199 0
M  V30 4269 H 395.48 4.92274 -0.622932 0
M  V30 4270 N 394.653 0.992116 1.22453 0
M  V30 4271 C 396.069 0.702713 1.43297 0
M  V30 4272 C 396.269 -0.726909 1.87932 0
M  V30 4273 O 395.325 -1.49792 2.0327 0
M  V30 4274 C 396.638 1.70762 2.47509 0
M  V30 4275 C 398.186 1.72298 2.61309 0
M  V30 4276 C 398.661 2.71649 3.68742 0
M  V30 4277 N 400.152 2.70239 3.76199 0
M  V30 4278 C 400.887 3.43778 4.58917 0
M  V30 4279 N 400.383 4.26914 5.45633 0
M  V30 4280 N 402.176 3.32487 4.5322 0
M  V30 4281 H 394.327 1.91543 0.917871 0
M  V30 4282 H 396.59 0.826031 0.465162 0
M  V30 4283 H 396.296 2.73059 2.21657 0
M  V30 4284 H 396.17 1.49985 3.46099 0
M  V30 4285 H 398.557 0.706989 2.86506 0
M  V30 4286 H 398.638 1.97143 1.62997 0
M  V30 4287 H 398.282 3.73397 3.44292 0
M  V30 4288 H 398.212 2.44074 4.66622 0
M  V30 4289 H 400.703 2.09912 3.14237 0
M  V30 4290 H 401.016 4.79855 6.05771 0
M  V30 4291 H 399.361 4.31002 5.45218 0
M  V30 4292 H 402.552 2.6698 3.84499 0
M  V30 4293 H 402.725 3.90058 5.17454 0
M  V30 4294 N 396.131 -1.37776 0.765217 0
M  V30 4295 C 397.094 -2.28686 0.153416 0
M  V30 4296 C 398.094 -1.47727 -0.635081 0
M  V30 4297 O 399.284 -1.68027 -0.459632 0
M  V30 4298 C 396.416 -3.31608 -0.790495 0
M  V30 4299 H 397.609 -2.84297 0.954723 0
M  V30 4300 H 395.162 -1.46932 0.53299 0
M  V30 4301 H 395.897 -2.81109 -1.61705 0
M  V30 4302 H 395.682 -3.9144 -0.227348 0
M  V30 4303 H 397.172 -3.99559 -1.21419 0
M  V30 4304 N 397.609 -0.515225 -1.4894 0
M  V30 4305 C 399.025 -0.172099 -1.58669 0
M  V30 4306 C 399.225 1.32405 -1.51892 0
M  V30 4307 O 398.281 2.10116 -1.40027 0
M  V30 4308 C 399.594 -0.761533 -2.90897 0
M  V30 4309 C 401.142 -0.728926 -3.04394 0
M  V30 4310 C 401.617 -1.29667 -4.39261 0
M  V30 4311 N 403.108 -1.25799 -4.4579 0
M  V30 4312 C 403.843 -1.66733 -5.48623 0
M  V30 4313 N 403.339 -2.15327 -6.58488 0
M  V30 4314 N 405.132 -1.58061 -5.39419 0
M  V30 4315 H 397.283 -1.48778 -1.51588 0
M  V30 4316 H 399.546 -0.617968 -0.718901 0
M  V30 4317 H 399.252 -1.81136 -3.01468 0
M  V30 4318 H 399.126 -0.230106 -3.76497 0
M  V30 4319 H 401.513 0.312098 -2.93445 0
M  V30 4320 H 401.594 -1.29766 -2.20442 0
M  V30 4321 H 401.238 -2.33655 -4.50963 0
M  V30 4322 H 401.168 -0.703752 -5.21876 0
M  V30 4323 H 403.659 -0.902102 -3.66975 0
M  V30 4324 H 403.972 -2.44594 -7.33071 0
M  V30 4325 H 402.317 -2.19311 -6.59491 0
M  V30 4326 H 405.508 -1.19906 -4.52482 0
M  V30 4327 H 405.681 -1.90284 -6.19432 0
M  V30 4328 N 399.087 1.5561 -0.249682 0
M  V30 4329 C 400.336 1.98187 0.37479 0
M  V30 4330 C 400.649 1.14111 1.58865 0
M  V30 4331 O 401.855 1.46714 2.28445 0
M  V30 4332 C 400.311 3.52661 0.718192 0
M  V30 4333 C 399.919 4.45481 -0.474428 0
M  V30 4334 C 401.663 4.03888 1.3067 0
M  V30 4335 C 399.57 5.91303 -0.107026 0
M  V30 4336 H 398.5 0.740159 0.143808 0
M  V30 4337 H 401.151 1.80125 -0.350336 0
M  V30 4338 H 399.533 3.66429 1.50152 0
M  V30 4339 H 400.707 4.43473 -1.25172 0
M  V30 4340 H 399.022 4.04751 -0.978052 0
M  V30 4341 H 401.619 5.10358 1.59496 0
M  V30 4342 H 401.962 3.51401 2.23211 0
M  V30 4343 H 402.495 3.93457 0.586211 0
M  V30 4344 H 399.234 6.47833 -0.999642 0
M  V30 4345 H 398.754 5.9644 0.634013 0
M  V30 4346 H 400.433 6.46258 0.309807 0
M  V30 4347 N 400.565 -0.0233959 1.57583 0
M  V30 4348 C 401.811 -0.714119 1.89811 0
M  V30 4349 C 402.144 -1.74702 0.848113 0
M  V30 4350 O 401.419 -1.94023 -0.136135 0
M  V30 4351 C 401.702 -1.37853 3.32669 0
M  V30 4352 C 401.555 -0.358764 4.48367 0
M  V30 4353 C 402.874 -2.31101 3.7454 0
M  V30 4354 H 399.993 -0.25814 0.690314 0
M  V30 4355 H 402.635 0.0230927 1.89986 0
M  V30 4356 H 400.785 -2.00689 3.3265 0
M  V30 4357 H 402.457 0.268115 4.6052 0
M  V30 4358 H 400.7 0.321387 4.32608 0
M  V30 4359 H 401.371 -0.862242 5.45224 0
M  V30 4360 H 403.847 -1.78304 3.75961 0
M  V30 4361 H 402.723 -2.74567 4.75294 0
M  V30 4362 H 402.984 -3.18018 3.0711 0
M  V30 4363 N 402.043 -1.548 -0.295768 0
M  V30 4364 C 403.29 -1.74329 -1.03032 0
M  V30 4365 C 403.618 -0.531915 -1.87085 0
M  V30 4366 O 402.873 0.486052 -1.89568 0
M  V30 4367 C 403.172 -2.98797 -1.961 0
M  V30 4368 C 402.838 -4.32356 -1.2798 0
M  V30 4369 C 401.5 -4.68661 -1.09135 0
M  V30 4370 C 403.852 -5.15128 -0.793243 0
M  V30 4371 C 401.18 -5.85312 -0.403269 0
M  V30 4372 C 403.532 -6.32488 -0.118854 0
M  V30 4373 C 402.196 -6.6745 0.0815043 0
M  V30 4374 H 401.466 -0.637916 -0.37702 0
M  V30 4375 H 404.113 -1.8906 -0.304696 0
M  V30 4376 H 402.418 -2.78869 -2.75207 0
M  V30 4377 H 404.115 -3.11102 -2.53015 0
M  V30 4378 H 400.705 -4.03808 -1.43655 0
M  V30 4379 H 404.889 -4.87575 -0.92653 0
M  V30 4380 H 400.145 -6.1094 -0.237098 0
M  V30 4381 H 404.319 -6.95892 0.266035 0
M  V30 4382 H 401.946 -7.57695 0.616685 0
M  V30 4383 N 403.521 0.559213 -1.47345 0
M  V30 4384 C 404.468 1.66645 -1.59682 0
M  V30 4385 C 405.438 1.60168 -0.43994 0
M  V30 4386 O 406.623 1.79031 -0.659736 0
M  V30 4387 C 403.763 3.04969 -1.61518 0
M  V30 4388 C 402.876 3.21897 -2.88108 0
M  V30 4389 C 402.011 4.50608 -2.81294 0
M  V30 4390 C 401.05 4.60961 -4.02717 0
M  V30 4391 N 400.187 5.81024 -3.94151 0
M  V30 4392 H 405.027 1.55439 -2.54249 0
M  V30 4393 H 402.564 0.757219 -1.26113 0
M  V30 4394 H 404.522 3.85064 -1.60566 0
M  V30 4395 H 403.152 3.15015 -0.704645 0
M  V30 4396 H 402.204 2.35248 -2.98936 0
M  V30 4397 H 403.516 3.25412 -3.78032 0
M  V30 4398 H 402.67 5.3896 -2.7858 0
M  V30 4399 H 401.409 4.49568 -1.89049 0
M  V30 4400 H 400.414 3.71021 -4.05738 0
M  V30 4401 H 401.639 4.63761 -4.96087 0
M  V30 4402 H 399.585 5.80938 -3.04708 0
M  V30 4403 H 399.502 5.85909 -4.77752 0
M  V30 4404 H 400.77 6.71744 -3.9545 0
M  V30 4405 N 404.999 1.35443 0.805782 0
M  V30 4406 C 406.227 1.31878 1.59423 0
M  V30 4407 C 406.642 -0.103562 1.88516 0
M  V30 4408 O 405.999 -1.05575 1.48863 0
M  V30 4409 C 406.05 2.12426 2.92502 0
M  V30 4410 O 405.771 3.49115 2.6467 0
M  V30 4411 C 407.272 2.16455 3.86862 0
M  V30 4412 H 404.492 0.453002 0.495005 0
M  V30 4413 H 407.036 1.78309 1.00131 0
M  V30 4414 H 405.191 1.69593 3.48306 0
M  V30 4415 H 405.605 3.90957 3.49647 0
M  V30 4416 H 407.079 2.77204 4.77349 0
M  V30 4417 H 407.556 1.16352 4.23508 0
M  V30 4418 H 408.162 2.59453 3.36993 0
M  V30 4419 N 406.477 -1.02803 1.19454 0
M  V30 4420 C 407.702 -1.80378 1.02364 0
M  V30 4421 C 408.127 -1.83282 -0.423007 0
M  V30 4422 O 407.485 -1.25945 -1.30413 0
M  V30 4423 C 407.533 -3.23248 1.59821 0
M  V30 4424 O 406.637 -4.04 0.828105 0
M  V30 4425 H 405.978 -0.556799 0.361761 0
M  V30 4426 H 408.508 -1.29385 1.58495 0
M  V30 4427 H 408.518 -3.73994 1.63073 0
M  V30 4428 H 407.193 -3.2045 2.65113 0
M  V30 4429 H 405.77 -3.62635 0.86891 0
M  V30 4430 N 407.956 -0.998596 -1.21925 0
M  V30 4431 C 409.202 -0.678667 -1.91107 0
M  V30 4432 C 409.535 0.78791 -1.77498 0
M  V30 4433 O 408.81 1.57043 -1.1475 0
M  V30 4434 C 409.093 -1.09245 -3.43129 0
M  V30 4435 C 408.946 -2.61801 -3.6576 0
M  V30 4436 C 410.265 -0.649984 -4.35274 0
M  V30 4437 H 407.384 -0.248025 -0.694012 0
M  V30 4438 H 410.026 -1.24314 -1.43688 0
M  V30 4439 H 408.176 -0.612171 -3.83647 0
M  V30 4440 H 409.848 -3.17543 -3.34611 0
M  V30 4441 H 408.091 -3.03609 -3.09845 0
M  V30 4442 H 408.762 -2.85804 -4.7225 0
M  V30 4443 H 411.238 -1.0626 -4.02303 0
M  V30 4444 H 410.114 -0.967743 -5.40302 0
M  V30 4445 H 410.375 0.449139 -4.39813 0
M  V30 4446 N 409.434 1.37368 -0.772513 0
M  V30 4447 C 410.364 2.32856 -0.173304 0
M  V30 4448 C 411.345 1.55818 0.682262 0
M  V30 4449 O 412.53 1.84052 0.619566 0
M  V30 4450 C 409.66 3.40048 0.706007 0
M  V30 4451 C 408.614 4.27973 -0.0483144 0
M  V30 4452 C 407.94 5.26184 0.950491 0
M  V30 4453 C 409.24 5.07665 -1.22776 0
M  V30 4454 H 410.934 2.83217 -0.971002 0
M  V30 4455 H 408.48 1.3617 -0.468377 0
M  V30 4456 H 410.433 4.05827 1.13501 0
M  V30 4457 H 409.157 2.88214 1.53623 0
M  V30 4458 H 407.816 3.63726 -0.458107 0
M  V30 4459 H 407.464 4.7063 1.77529 0
M  V30 4460 H 407.164 5.85872 0.450314 0
M  V30 4461 H 408.688 5.94838 1.37842 0
M  V30 4462 H 410.102 5.66578 -0.875366 0
M  V30 4463 H 408.499 5.76681 -1.66007 0
M  V30 4464 H 409.569 4.40294 -2.03149 0
M  V30 4465 N 410.912 0.523116 1.48665 0
M  V30 4466 C 412.158 -0.0134963 2.02796 0
M  V30 4467 C 412.491 -1.34582 1.40004 0
M  V30 4468 O 411.766 -1.86756 0.543381 0
M  V30 4469 C 412.049 -0.14276 3.59817 0
M  V30 4470 C 411.902 1.21425 4.331 0
M  V30 4471 C 413.221 -0.872856 4.31357 0
M  V30 4472 H 410.34 -0.00343074 0.736992 0
M  V30 4473 H 412.982 0.678816 1.7746 0
M  V30 4474 H 411.132 -0.732401 3.81534 0
M  V30 4475 H 412.804 1.84447 4.2282 0
M  V30 4476 H 411.047 1.79791 3.94788 0
M  V30 4477 H 411.718 1.07687 5.41394 0
M  V30 4478 H 414.194 -0.372555 4.14429 0
M  V30 4479 H 413.07 -0.932185 5.40927 0
M  V30 4480 H 413.331 -1.92161 3.98154 0
M  V30 4481 N 412.39 -1.55475 0.257931 0
M  V30 4482 C 413.638 -1.98813 -0.363009 0
M  V30 4483 C 413.959 -1.14757 -1.57657 0
M  V30 4484 O 413.229 -0.232956 -1.9451 0
M  V30 4485 H 411.809 -0.734308 -0.137113 0
M  V30 4486 H 414.471 -1.9156 0.359281 0
M  V30 4487 H 413.567 -3.04941 -0.664634 0
M  V30 4488 N 413.868 0.0150385 -1.57593 0
M  V30 4489 C 415.098 0.713359 -1.93894 0
M  V30 4490 C 415.506 1.68663 -0.857289 0
M  V30 4491 O 414.849 1.82876 0.173788 0
M  V30 4492 C 414.911 1.51348 -3.26089 0
M  V30 4493 C 414.575 0.703451 -4.51554 0
M  V30 4494 C 415.572 -0.00237924 -5.199 0
M  V30 4495 C 413.257 0.653854 -4.98026 0
M  V30 4496 C 415.251 -0.746955 -6.33008 0
M  V30 4497 C 412.938 -0.0944578 -6.11027 0
M  V30 4498 C 413.936 -0.793609 -6.78374 0
M  V30 4499 O 413.624 -1.52974 -7.89211 0
M  V30 4500 H 413.356 0.204637 -0.644282 0
M  V30 4501 H 415.91 -0.0276411 -2.05381 0
M  V30 4502 H 414.14 2.29862 -3.10967 0
M  V30 4503 H 415.829 2.09572 -3.47612 0
M  V30 4504 H 416.595 0.0268803 -4.84993 0
M  V30 4505 H 412.474 1.18756 -4.45441 0
M  V30 4506 H 416.018 -1.2932 -6.85509 0
M  V30 4507 H 411.915 -0.125591 -6.45378 0
M  V30 4508 H 412.683 -1.44488 -8.05646 0
M  V30 4509 N 415.346 1.54954 0.287554 0
M  V30 4510 C 416.574 1.78881 1.03967 0
M  V30 4511 C 416.989 0.554894 1.80462 0
M  V30 4512 O 416.346 -0.475676 1.76192 0
M  V30 4513 C 416.397 3.00488 2.0097 0
M  V30 4514 O 416.118 4.19113 1.27577 0
M  V30 4515 C 417.619 3.36907 2.88112 0
M  V30 4516 H 414.839 0.596259 0.307761 0
M  V30 4517 H 417.383 2.01937 0.322749 0
M  V30 4518 H 415.538 2.79601 2.68145 0
M  V30 4519 H 415.952 4.87765 1.92835 0
M  V30 4520 H 417.426 4.25205 3.52001 0
M  V30 4521 H 417.903 2.55659 3.57121 0
M  V30 4522 H 418.509 3.60001 2.26449 0
M  V30 4523 N 416.824 -0.551391 1.4764 0
M  V30 4524 C 418.07 -1.31024 1.54792 0
M  V30 4525 C 418.403 -1.9304 0.211967 0
M  V30 4526 O 417.678 -1.78175 -0.77999 0
M  V30 4527 C 417.961 -2.41593 2.67029 0
M  V30 4528 C 417.814 -1.84408 4.10261 0
M  V30 4529 C 419.133 -3.43488 2.75143 0
M  V30 4530 H 416.252 -0.475031 0.563485 0
M  V30 4531 H 418.894 -0.616454 1.79722 0
M  V30 4532 H 417.044 -3.00772 2.45904 0
M  V30 4533 H 418.716 -1.29445 4.42766 0
M  V30 4534 H 416.959 -1.15051 4.18265 0
M  V30 4535 H 417.63 -2.64367 4.84576 0
M  V30 4536 H 420.106 -2.94236 2.94218 0
M  V30 4537 H 418.982 -4.18274 3.55441 0
M  V30 4538 H 419.243 -4.02703 1.82435 0
M  V30 4539 N 418.302 -1.35869 -0.798587 0
M  V30 4540 C 419.549 -1.29588 -1.55606 0
M  V30 4541 C 419.877 0.127456 -1.94082 0
M  V30 4542 O 419.132 1.09461 -1.62225 0
M  V30 4543 C 419.431 -2.1556 -2.85077 0
M  V30 4544 C 419.097 -3.6424 -2.65781 0
M  V30 4545 C 417.759 -4.04766 -2.60227 0
M  V30 4546 C 420.111 -4.58547 -2.47758 0
M  V30 4547 C 417.439 -5.37753 -2.34603 0
M  V30 4548 C 419.791 -5.91742 -2.23662 0
M  V30 4549 C 418.455 -6.31402 -2.16534 0
M  V30 4550 H 417.725 -0.474197 -0.569402 0
M  V30 4551 H 420.372 -1.67839 -0.922086 0
M  V30 4552 H 418.677 -1.70216 -3.52893 0
M  V30 4553 H 420.374 -2.08031 -3.42818 0
M  V30 4554 H 416.964 -3.32086 -2.70956 0
M  V30 4555 H 421.148 -4.28117 -2.51056 0
M  V30 4556 H 416.404 -5.67474 -2.2756 0
M  V30 4557 H 420.578 -6.6439 -2.08708 0
M  V30 4558 H 418.205 -7.34381 -1.96441 0
M  V30 4559 N 419.78 1.02168 -1.19998 0
M  V30 4560 C 421.196 1.27969 -0.953737 0
M  V30 4561 C 421.396 1.98079 0.369703 0
M  V30 4562 O 420.452 2.27306 1.09947 0
M  V30 4563 C 421.765 2.11971 -2.13281 0
M  V30 4564 C 423.313 2.25255 -2.17323 0
M  V30 4565 C 423.788 3.12632 -3.34702 0
M  V30 4566 N 425.279 3.2022 -3.34684 0
M  V30 4567 C 426.014 3.88039 -4.22153 0
M  V30 4568 N 425.51 4.58027 -5.19791 0
M  V30 4569 N 427.303 3.84511 -4.10009 0
M  V30 4570 H 419.454 0.550794 -2.05134 0
M  V30 4571 H 421.717 0.305683 -0.897364 0
M  V30 4572 H 421.423 1.67785 -3.09097 0
M  V30 4573 H 421.297 3.12699 -2.10949 0
M  V30 4574 H 423.684 2.68667 -1.22073 0
M  V30 4575 H 423.765 1.24053 -2.23706 0
M  V30 4576 H 423.409 2.69926 -4.30235 0
M  V30 4577 H 423.339 4.13909 -3.25556 0
M  V30 4578 H 425.83 2.70382 -2.64012 0
M  V30 4579 H 426.143 5.07429 -5.82868 0
M  V30 4580 H 424.488 4.56869 -5.23733 0
M  V30 4581 H 427.679 3.28978 -3.33003 0
M  V30 4582 H 427.852 4.3709 -4.78389 0
M  V30 4583 N 421.258 1.00505 1.21394 0
M  V30 4584 C 422.504 0.688793 1.90745 0
M  V30 4585 C 422.837 -0.778486 1.77914 0
M  V30 4586 O 422.112 -1.56433 1.15581 0
M  V30 4587 C 422.395 1.11063 3.42545 0
M  V30 4588 C 422.248 2.63737 3.64367 0
M  V30 4589 C 423.567 0.673059 4.34923 0
M  V30 4590 H 420.686 0.251702 0.692687 0
M  V30 4591 H 423.328 1.25074 1.43026 0
M  V30 4592 H 421.478 0.632508 3.83317 0
M  V30 4593 H 423.15 3.19313 3.32922 0
M  V30 4594 H 421.393 3.05248 3.08231 0
M  V30 4595 H 422.064 2.88305 4.70727 0
M  V30 4596 H 424.54 1.08392 4.01734 0
M  V30 4597 H 423.416 0.996383 5.39781 0
M  V30 4598 H 423.677 -0.425808 4.40045 0
M  V30 4599 N 422.737 -1.36956 0.779787 0
M  V30 4600 C 423.685 -2.32053 0.15942 0
M  V30 4601 C 424.679 -1.55333 -0.675878 0
M  V30 4602 O 425.885 -1.70668 -0.57204 0
M  V30 4603 H 422.26 -0.751286 0.0327707 0
M  V30 4604 H 424.231 -2.8195 0.977078 0
M  V30 4605 C 422.98 -3.40602 -0.698977 0
M  V30 4606 H 422.303 -3.99746 -0.0655966 0
M  V30 4607 H 423.743 -4.09486 -1.09989 0
M  V30 4608 C 422.202 -2.81359 -1.85307 0
M  V30 4609 O 422.732 -2.72751 -2.94906 0
M  V30 4610 N 420.938 -2.38786 -1.65619 0
M  V30 4611 H 420.485 -2.45987 -0.764725 0
M  V30 4612 H 420.443 -1.99493 -2.43002 0
M  V30 4613 N 424.215 -0.530993 -1.48385 0
M  V30 4614 C 425.148 0.278511 -2.26494 0
M  V30 4615 C 426.126 0.943905 -1.32398 0
M  V30 4616 O 427.31 0.968098 -1.61741 0
M  V30 4617 C 424.437 1.39453 -3.08659 0
M  V30 4618 C 423.483 0.840434 -4.18137 0
M  V30 4619 S 424.316 -0.292496 -5.34701 0
M  V30 4620 C 425.472 0.825973 -6.20426 0
M  V30 4621 H 425.705 -0.384365 -2.94805 0
M  V30 4622 H 423.238 -0.316799 -1.51115 0
M  V30 4623 H 425.196 2.03382 -3.56575 0
M  V30 4624 H 423.857 2.02913 -2.3976 0
M  V30 4625 H 423.05 1.67769 -4.75257 0
M  V30 4626 H 422.652 0.277819 -3.72967 0
M  V30 4627 H 424.944 1.72438 -6.55188 0
M  V30 4628 H 425.887 0.292728 -7.07495 0
M  V30 4629 H 426.295 1.10683 -5.53543 0
M  V30 4630 N 425.693 1.55336 -0.266172 0
M  V30 4631 C 426.918 2.04258 0.359661 0
M  V30 4632 C 427.343 1.14359 1.49344 0
M  V30 4633 O 426.701 0.140369 1.80756 0
M  V30 4634 C 426.749 3.50997 0.826635 0
M  V30 4635 O 425.853 3.64204 1.93466 0
M  V30 4636 H 425.194 0.659668 0.075727 0
M  V30 4637 H 427.724 2.00694 -0.39786 0
M  V30 4638 H 427.734 3.9219 1.12477 0
M  V30 4639 H 426.409 4.159 -0.00293032 0
M  V30 4640 H 424.986 3.34913 1.63974 0
M  V30 4641 N 427.171 -0.0066808 1.57599 0
M  V30 4642 C 428.119 -1.01851 2.09115 0
M  V30 4643 C 429.113 -1.36021 1.00969 0
M  V30 4644 O 430.319 -1.34663 1.19439 0
M  V30 4645 H 426.694 -0.346083 0.667631 0
M  V30 4646 H 428.665 -0.558394 2.93129 0
M  V30 4647 C 427.414 -2.30374 2.60429 0
M  V30 4648 H 426.737 -2.04947 3.43273 0
M  V30 4649 H 428.177 -2.99466 3.00161 0
M  V30 4650 C 426.636 -3.00893 1.51542 0
M  V30 4651 O 427.166 -3.91614 0.894484 0
M  V30 4652 N 425.372 -2.62603 1.2445 0
M  V30 4653 H 424.919 -1.88911 1.75129 0
M  V30 4654 H 424.877 -3.10101 0.518137 0
M  V30 4655 N 428.649 -1.55105 -0.279332 0
M  V30 4656 C 429.581 -1.83952 -1.36727 0
M  V30 4657 C 430.594 -0.723642 -1.45833 0
M  V30 4658 O 431.783 -1.00141 -1.47763 0
M  V30 4659 C 428.883 -1.98183 -2.74912 0
M  V30 4660 C 428.056 -3.28787 -2.88475 0
M  V30 4661 C 427.115 -3.33162 -4.07295 0
M  V30 4662 O 426.141 -4.06576 -3.98353 0
M  V30 4663 N 427.343 -2.60109 -5.18964 0
M  V30 4664 H 430.108 -2.77853 -1.12328 0
M  V30 4665 H 427.669 -1.54945 -0.469442 0
M  V30 4666 H 429.661 -1.98488 -3.52682 0
M  V30 4667 H 428.231 -1.11177 -2.92162 0
M  V30 4668 H 427.451 -3.41075 -1.97641 0
M  V30 4669 H 428.739 -4.14933 -2.94463 0
M  V30 4670 H 428.137 -2.00136 -5.29115 0
M  V30 4671 H 426.694 -2.66143 -5.94988 0
M  V30 4672 N 430.127 0.543554 -1.4793 0
M  V30 4673 C 431.373 1.30201 -1.55485 0
M  V30 4674 C 431.706 1.92925 -0.222201 0
M  V30 4675 O 430.981 1.78586 0.77053 0
M  V30 4676 C 431.264 2.40174 -2.68307 0
M  V30 4677 C 431.117 1.8223 -4.11233 0
M  V30 4678 C 432.436 3.42024 -2.76961 0
M  V30 4679 H 429.555 0.472036 -0.565996 0
M  V30 4680 H 432.197 0.606914 -1.80046 0
M  V30 4681 H 430.347 2.99463 -2.47495 0
M  V30 4682 H 432.019 1.27096 -4.43446 0
M  V30 4683 H 430.262 1.12832 -4.18869 0
M  V30 4684 H 430.933 2.61793 -4.85972 0
M  V30 4685 H 433.409 2.92672 -2.95774 0
M  V30 4686 H 432.285 4.16383 -3.57654 0
M  V30 4687 H 432.546 4.0173 -1.84568 0
M  V30 4688 N 431.605 1.3629 0.791371 0
M  V30 4689 C 433.016 1.27225 1.36641 0
M  V30 4690 C 433.367 -0.0887968 1.95999 0
M  V30 4691 O 432.492 -0.990207 1.92416 0
M  V30 4692 C 433.087 2.30375 2.48421 0
M  V30 4693 C 431.646 2.25004 3.01746 0
M  V30 4694 C 430.793 2.15259 1.7481 0
M  V30 4695 H 433.744 1.47198 0.593173 0
M  V30 4696 H 433.765 1.93905 3.27385 0
M  V30 4697 H 433.277 3.29422 2.05189 0
M  V30 4698 H 431.378 1.29417 3.49403 0
M  V30 4699 H 431.491 3.1761 3.58693 0
M  V30 4700 H 429.855 1.61482 1.96966 0
M  V30 4701 H 430.638 3.16191 1.33709 0
M  V30 4702 N 433.083 -1.0153 1.20538 0
M  V30 4703 C 434.499 -1.27461 0.96051 0
M  V30 4704 C 434.699 -1.98273 -0.359193 0
M  V30 4705 O 433.755 -2.27886 -1.0874 0
M  V30 4706 C 435.068 -2.10837 2.14402 0
M  V30 4707 C 436.616 -2.24099 2.18515 0
M  V30 4708 C 437.091 -3.10852 3.36355 0
M  V30 4709 N 438.582 -3.18441 3.36377 0
M  V30 4710 C 439.317 -3.85795 4.24205 0
M  V30 4711 N 438.813 -4.55264 5.22213 0
M  V30 4712 N 440.606 -3.82331 4.12043 0
M  V30 4713 H 432.757 -0.539907 2.05423 0
M  V30 4714 H 435.02 -0.30092 0.898972 0
M  V30 4715 H 434.726 -1.66144 3.09983 0
M  V30 4716 H 434.6 -3.11576 2.12604 0
M  V30 4717 H 436.987 -2.68016 1.23497 0
M  V30 4718 H 437.068 -1.22865 2.24361 0
M  V30 4719 H 436.712 -2.6764 4.31661 0
M  V30 4720 H 436.642 -4.12177 3.27746 0
M  V30 4721 H 439.133 -2.68978 2.65442 0
M  V30 4722 H 439.446 -5.04331 5.85551 0
M  V30 4723 H 437.791 -4.54085 5.26148 0
M  V30 4724 H 440.982 -3.27207 3.34743 0
M  V30 4725 H 441.155 -4.34547 4.807 0
M  V30 4726 N 434.561 -1.01147 -1.20859 0
M  V30 4727 C 435.786 -0.716698 -1.94623 0
M  V30 4728 C 436.211 0.715415 -1.73964 0
M  V30 4729 O 435.569 1.49157 -1.03062 0
M  V30 4730 C 435.617 -1.0513 -3.44935 0
M  V30 4731 O 434.721 -0.160131 -4.12089 0
M  V30 4732 H 434.062 -0.266404 -0.608214 0
M  V30 4733 H 436.592 -1.35346 -1.53436 0
M  V30 4734 H 436.602 -1.00086 -3.95533 0
M  V30 4735 H 435.277 -2.09475 -3.59295 0
M  V30 4736 H 433.854 -0.267657 -3.71938 0
M  V30 4737 N 436.039 1.36541 -0.78704 0
M  V30 4738 C 437.285 1.99599 -0.358872 0
M  V30 4739 C 437.618 1.62323 1.06606 0
M  V30 4740 O 436.893 0.876858 1.73613 0
M  V30 4741 C 437.176 3.56327 -0.519944 0
M  V30 4742 C 437.029 4.03464 -1.98839 0
M  V30 4743 C 438.348 4.4005 0.0664737 0
M  V30 4744 H 435.467 0.725107 -0.131869 0
M  V30 4745 H 438.109 1.6199 -0.992936 0
M  V30 4746 H 436.259 3.88495 0.0198321 0
M  V30 4747 H 437.931 3.81793 -2.58905 0
M  V30 4748 H 436.174 3.55092 -2.49183 0
M  V30 4749 H 436.845 5.12439 -2.05207 0
M  V30 4750 H 439.321 4.14228 -0.394267 0
M  V30 4751 H 438.197 5.48847 -0.0762682 0
M  V30 4752 H 438.458 4.26655 1.15835 0
M  V30 4753 N 437.518 0.538854 1.48102 0
M  V30 4754 C 438.766 0.00798599 2.02098 0
M  V30 4755 C 439.087 -1.33922 1.41739 0
M  V30 4756 O 438.357 -1.86932 0.585934 0
M  V30 4757 H 436.937 -3.62179e-05 0.747 0
M  V30 4758 H 439.599 0.7047 1.81714 0
M  V30 4759 H 438.695 -0.0937672 3.11959 0
M  V30 4760 N 438.996 -1.55193 0.274407 0
M  V30 4761 C 440.221 -2.04446 -0.348824 0
M  V30 4762 C 440.646 -1.15149 -1.48735 0
M  V30 4763 O 440.004 -0.149952 -1.80679 0
M  V30 4764 C 440.052 -3.51431 -0.808009 0
M  V30 4765 O 439.156 -3.65225 -1.91531 0
M  V30 4766 H 438.497 -0.66006 -0.0722276 0
M  V30 4767 H 441.027 -2.00481 0.408498 0
M  V30 4768 H 441.037 -3.92781 -1.10395 0
M  V30 4769 H 439.712 -4.15892 0.0249865 0
M  V30 4770 H 438.289 -3.35778 -1.62196 0
M  V30 4771 N 440.474 -0.00167713 -1.576 0
M  V30 4772 C 441.702 0.693759 -1.94922 0
M  V30 4773 C 442.117 1.67215 -0.876626 0
M  V30 4774 O 441.474 1.81929 0.144279 0
M  V30 4775 C 441.525 1.42416 -3.32265 0
M  V30 4776 O 441.246 0.485014 -4.35407 0
M  V30 4777 C 442.747 2.21395 -3.84056 0
M  V30 4778 H 439.967 0.193118 -0.642609 0
M  V30 4779 H 442.511 -0.0532952 -2.04431 0
M  V30 4780 H 440.666 2.12284 -3.24059 0
M  V30 4781 H 441.08 1.00053 -5.14868 0
M  V30 4782 H 442.554 2.67996 -4.82578 0
M  V30 4783 H 443.031 3.04142 -3.16851 0
M  V30 4784 H 443.637 1.56542 -3.95443 0
M  V30 4785 N 441.952 1.55251 0.271103 0
M  V30 4786 C 443.363 1.66635 0.842007 0
M  V30 4787 C 443.714 0.594631 1.86972 0
M  V30 4788 O 442.839 -0.263532 2.14789 0
M  V30 4789 C 443.434 3.02082 1.53401 0
M  V30 4790 C 441.993 3.15487 2.05293 0
M  V30 4791 C 441.14 2.62438 0.895631 0
M  V30 4792 H 444.091 1.58629 0.0474117 0
M  V30 4793 H 444.112 2.95176 2.40107 0
M  V30 4794 H 443.624 3.80062 0.785786 0
M  V30 4795 H 441.725 2.42284 2.83071 0
M  V30 4796 H 441.838 4.22075 2.26693 0
M  V30 4797 H 440.202 2.19644 1.28953 0
M  V30 4798 H 440.985 3.42923 0.160878 0
M  V30 4799 N 443.43 -0.535701 1.48216 0
M  V30 4800 C 444.36 -1.65014 1.65204 0
M  V30 4801 C 445.341 -1.62554 0.501011 0
M  V30 4802 O 446.526 -1.7984 0.732886 0
M  V30 4803 C 443.656 -3.03616 1.68626 0
M  V30 4804 C 442.61 -3.20932 2.83172 0
M  V30 4805 C 441.936 -4.60537 2.71679 0
M  V30 4806 C 443.236 -3.04249 4.24535 0
M  V30 4807 H 444.93 -1.51053 2.58502 0
M  V30 4808 H 442.476 -0.725262 1.24402 0
M  V30 4809 H 444.429 -3.81446 1.79099 0
M  V30 4810 H 443.153 -3.18587 0.719026 0
M  V30 4811 H 441.812 -2.45517 2.72244 0
M  V30 4812 H 441.46 -4.72336 1.72937 0
M  V30 4813 H 441.16 -4.73069 3.48538 0
M  V30 4814 H 442.684 -5.40475 2.84112 0
M  V30 4815 H 444.098 -3.71877 4.36326 0
M  V30 4816 H 442.495 -3.28278 5.02348 0
M  V30 4817 H 443.565 -2.00739 4.41397 0
M  V30 4818 N 444.908 -1.36708 -0.784132 0
M  V30 4819 C 446.157 -1.30559 -1.53744 0
M  V30 4820 C 446.47 0.111374 -1.95283 0
M  V30 4821 O 447.676 0.29527 -2.6989 0
M  V30 4822 C 446.132 -2.29098 -2.77565 0
M  V30 4823 C 445.74 -3.76258 -2.43174 0
M  V30 4824 C 447.484 -2.31936 -3.55536 0
M  V30 4825 C 445.391 -4.6656 -3.63422 0
M  V30 4826 H 444.321 -0.48518 -0.577162 0
M  V30 4827 H 446.972 -1.62101 -0.859981 0
M  V30 4828 H 445.354 -1.90557 -3.47137 0
M  V30 4829 H 446.528 -4.23565 -1.81465 0
M  V30 4830 H 444.843 -3.76246 -1.78403 0
M  V30 4831 H 447.44 -2.9661 -4.44889 0
M  V30 4832 H 447.783 -1.3294 -3.94503 0
M  V30 4833 H 448.316 -2.6912 -2.92949 0
M  V30 4834 H 445.055 -5.66638 -3.29547 0
M  V30 4835 H 444.575 -4.23966 -4.24279 0
M  V30 4836 H 446.254 -4.8309 -4.30387 0
M  V30 4837 N 446.386 1.0089 -1.21074 0
M  V30 4838 C 447.634 1.74262 -1.02358 0
M  V30 4839 C 447.955 1.89869 0.444393 0
M  V30 4840 O 447.225 1.44677 1.32081 0
M  V30 4841 H 445.805 0.645615 -0.375754 0
M  V30 4842 H 448.467 1.21596 -1.52317 0
M  V30 4843 H 447.563 2.74328 -1.4883 0
M  V30 4844 N 447.864 1.01787 1.20321 0
M  V30 4845 C 448.814 0.559976 2.21016 0
M  V30 4846 C 449.798 -0.385366 1.56217 0
M  V30 4847 O 450.99 -0.208126 1.75772 0
M  V30 4848 C 448.119 -0.0990553 3.43157 0
M  V30 4849 C 447.205 0.86807 4.15121 0
M  V30 4850 N 447.596 2.0261 4.63447 0
M  V30 4851 C 445.894 0.689162 4.40643 0
M  V30 4852 C 446.595 2.63518 5.18588 0
M  V30 4853 N 445.571 1.91569 5.08726 0
M  V30 4854 H 449.373 1.44281 2.56048 0
M  V30 4855 H 446.887 0.883381 1.36272 0
M  V30 4856 H 448.884 -0.444643 4.14522 0
M  V30 4857 H 447.544 -0.977709 3.0963 0
M  V30 4858 H 448.555 2.40598 4.58621 0
M  V30 4859 H 445.232 -0.14133 4.17261 0
M  V30 4860 H 446.622 3.61527 5.66346 0
M  V30 4861 N 449.342 -1.36122 0.79427 0
M  V30 4862 C 450.589 -1.99111 0.368905 0
M  V30 4863 C 450.917 -1.63032 -1.0607 0
M  V30 4864 O 450.172 -0.879303 -1.74833 0
M  V30 4865 C 450.471 -3.5409 0.48527 0
M  V30 4866 C 450.137 -4.10003 1.87638 0
M  V30 4867 C 448.799 -4.24986 2.257 0
M  V30 4868 C 451.151 -4.40423 2.78706 0
M  V30 4869 C 448.479 -4.67701 3.54221 0
M  V30 4870 C 450.831 -4.84573 4.0666 0
M  V30 4871 C 449.495 -4.97761 4.44737 0
M  V30 4872 H 448.765 -0.7286 0.134992 0
M  V30 4873 H 451.412 -1.62534 1.01267 0
M  V30 4874 H 449.717 -3.91052 -0.241984 0
M  V30 4875 H 451.414 -4.00766 0.137109 0
M  V30 4876 H 448.004 -3.98784 1.57064 0
M  V30 4877 H 452.188 -4.28412 2.50553 0
M  V30 4878 H 447.444 -4.761 3.83587 0
M  V30 4879 H 451.618 -5.07074 4.77336 0
M  V30 4880 H 449.245 -5.30618 5.44379 0
M  V30 4881 N 450.82 -0.546701 -1.47814 0
M  V30 4882 C 452.067 -0.0187407 -2.02491 0
M  V30 4883 C 452.395 1.32685 -1.42215 0
M  V30 4884 O 451.65 1.87413 -0.563454 0
M  V30 4885 C 451.949 0.134869 -3.57145 0
M  V30 4886 C 451.615 -1.13849 -4.3629 0
M  V30 4887 C 450.277 -1.48743 -4.57634 0
M  V30 4888 C 452.629 -1.98277 -4.82012 0
M  V30 4889 C 449.957 -2.67932 -5.21948 0
M  V30 4890 C 452.309 -3.16659 -5.4764 0
M  V30 4891 C 450.973 -3.51879 -5.67219 0
M  V30 4892 H 450.243 -0.0068577 -0.740968 0
M  V30 4893 H 452.89 -0.716097 -1.77607 0
M  V30 4894 H 451.195 0.915118 -3.80963 0
M  V30 4895 H 452.892 0.558556 -3.97091 0
M  V30 4896 H 449.482 -0.856767 -4.19949 0
M  V30 4897 H 453.666 -1.72628 -4.6531 0
M  V30 4898 H 448.922 -2.95401 -5.35302 0
M  V30 4899 H 453.096 -3.82374 -5.82033 0
M  V30 4900 H 450.723 -4.44331 -6.16825 0
M  V30 4901 N 452.299 1.55045 -0.282633 0
M  V30 4902 C 453.527 2.04168 0.33512 0
M  V30 4903 C 453.942 1.16071 1.48906 0
M  V30 4904 O 453.299 0.182391 1.81586 0
M  V30 4905 C 453.35 3.52332 0.808957 0
M  V30 4906 O 453.071 4.37078 -0.299038 0
M  V30 4907 C 454.572 4.17375 1.49375 0
M  V30 4908 H 451.792 0.666744 0.0754543 0
M  V30 4909 H 454.336 2.00205 -0.416918 0
M  V30 4910 H 452.491 3.56715 1.51106 0
M  V30 4911 H 452.905 5.24458 0.0665514 0
M  V30 4912 H 454.379 5.22627 1.77664 0
M  V30 4913 H 454.856 3.65999 2.42778 0
M  V30 4914 H 455.462 4.17016 0.835305 0
M  V30 4915 N 453.777 0.010035 1.57597 0
M  V30 4916 C 455.026 -0.671945 1.90178 0
M  V30 4917 C 455.339 -1.74376 0.886131 0
M  V30 4918 O 456.545 -2.48107 1.10252 0
M  V30 4919 C 455.001 -1.24636 3.3763 0
M  V30 4920 C 454.609 -0.208838 4.47513 0
M  V30 4921 C 456.353 -1.90595 3.79307 0
M  V30 4922 C 454.26 -0.793814 5.86048 0
M  V30 4923 H 453.19 -0.25474 0.709665 0
M  V30 4924 H 455.841 0.0722206 1.83358 0
M  V30 4925 H 454.223 -2.04152 3.3932 0
M  V30 4926 H 455.397 0.562463 4.57354 0
M  V30 4927 H 453.712 0.350889 4.14919 0
M  V30 4928 H 456.309 -2.35284 4.80151 0
M  V30 4929 H 456.652 -2.74074 3.13352 0
M  V30 4930 H 457.185 -1.17798 3.79958 0
M  V30 4931 H 453.924 0.00240855 6.555 0
M  V30 4932 H 453.444 -1.53404 5.79851 0
M  V30 4933 H 455.123 -1.2894 6.34022 0
M  V30 4934 N 455.255 -1.55392 -0.262866 0
M  V30 4935 C 456.495 -1.78231 -1.00064 0
M  V30 4936 C 456.859 -0.576966 -1.83126 0
M  V30 4937 O 458.06 -0.683809 -2.59957 0
M  V30 4938 C 456.331 -3.05701 -1.85153 0
M  V30 4939 S 457.89 -3.49699 -2.65058 0
M  V30 4940 H 454.708 -0.626138 -0.336856 0
M  V30 4941 H 457.31 -1.93626 -0.27005 0
M  V30 4942 H 456.014 -3.91511 -1.23074 0
M  V30 4943 H 455.545 -2.93 -2.62515 0
M  V30 4944 H 457.56 -3.09772 -3.87629 0
M  V30 4945 N 456.733 0.527833 -1.48498 0
M  V30 4946 C 457.666 1.64892 -1.57753 0
M  V30 4947 C 458.644 1.5687 -0.427867 0
M  V30 4948 O 459.828 1.77311 -0.639764 0
M  V30 4949 C 456.955 3.03301 -1.50752 0
M  V30 4950 C 456.001 3.29675 -2.70586 0
M  V30 4951 S 456.834 3.15712 -4.32535 0
M  V30 4952 C 457.99 4.56564 -4.28136 0
M  V30 4953 H 458.223 1.56792 -2.52594 0
M  V30 4954 H 455.756 0.710959 -1.37057 0
M  V30 4955 H 457.714 3.83123 -1.474 0
M  V30 4956 H 456.375 3.08839 -0.572454 0
M  V30 4957 H 455.568 4.3065 -2.61833 0
M  V30 4958 H 455.17 2.57526 -2.71212 0
M  V30 4959 H 457.462 5.48126 -3.98201 0
M  V30 4960 H 458.405 4.70371 -5.29298 0
M  V30 4961 H 458.813 4.35987 -3.58574 0
M  V30 4962 N 458.211 1.37122 0.776871 0
M  V30 4963 C 459.174 1.32301 1.8716 0
M  V30 4964 C 460.174 0.228099 1.59174 0
M  V30 4965 O 461.364 0.483642 1.67352 0
M  V30 4966 C 458.496 1.054 3.24197 0
M  V30 4967 H 459.689 2.29673 1.92848 0
M  V30 4968 H 457.242 1.22077 0.97606 0
M  V30 4969 H 457.977 0.0853872 3.24188 0
M  V30 4970 H 457.762 1.84648 3.45901 0
M  V30 4971 H 459.252 1.04664 4.04271 0
M  V30 4972 N 459.689 -1.00246 1.21608 0
M  V30 4973 C 460.936 -1.74061 1.03485 0
M  V30 4974 C 461.264 -1.89658 -0.431308 0
M  V30 4975 O 460.519 -1.42976 -1.33627 0
M  V30 4976 C 460.818 -3.15448 1.68009 0
M  V30 4977 C 460.484 -3.19792 3.17874 0
M  V30 4978 C 459.146 -3.20685 3.58768 0
M  V30 4979 C 461.498 -3.16835 4.13842 0
M  V30 4980 C 458.826 -3.16309 4.94131 0
M  V30 4981 C 461.178 -3.14001 5.49169 0
M  V30 4982 C 459.842 -3.13204 5.89457 0
M  V30 4983 H 459.112 -0.636934 0.378677 0
M  V30 4984 H 461.759 -1.17473 1.51236 0
M  V30 4985 H 460.064 -3.75284 1.12557 0
M  V30 4986 H 461.761 -3.71285 1.51487 0
M  V30 4987 H 458.351 -3.19842 2.85305 0
M  V30 4988 H 462.535 -3.15303 3.83272 0
M  V30 4989 H 457.791 -3.14032 5.24589 0
M  V30 4990 H 461.965 -3.10667 6.23265 0
M  V30 4991 H 459.592 -3.09568 6.94314 0
M  V30 4992 N 461.167 -1.02423 -1.1978 0
M  V30 4993 C 462.097 -0.62157 -2.25075 0
M  V30 4994 C 463.078 0.367148 -1.6609 0
M  V30 4995 O 464.263 0.250892 -1.92573 0
M  V30 4996 C 461.393 0.0331826 -3.47284 0
M  V30 4997 C 460.347 -0.877323 -4.18912 0
M  V30 4998 C 459.673 -0.0879296 -5.34628 0
M  V30 4999 C 460.973 -2.18892 -4.74219 0
M  V30 5000 H 462.667 -1.50179 -2.59011 0
M  V30 5001 H 460.213 -0.723547 -1.24502 0
M  V30 5002 H 462.166 0.326488 -4.20133 0
M  V30 5003 H 460.89 0.948164 -3.12534 0
M  V30 5004 H 459.549 -1.15475 -3.47938 0
M  V30 5005 H 459.197 0.828941 -4.96123 0
M  V30 5006 H 458.897 -0.694359 -5.83483 0
M  V30 5007 H 460.421 0.198743 -6.10276 0
M  V30 5008 H 461.835 -1.95746 -5.38847 0
M  V30 5009 H 460.232 -2.74686 -5.33542 0
M  V30 5010 H 461.302 -2.84674 -3.92541 0
M  V30 5011 N 462.645 1.35699 -0.801477 0
M  V30 5012 C 463.891 1.99208 -0.380022 0
M  V30 5013 C 464.224 1.63445 1.04878 0
M  V30 5014 O 463.499 0.895223 1.72673 0
M  V30 5015 C 463.782 3.55755 -0.557708 0
M  V30 5016 C 463.635 4.01332 -2.03107 0
M  V30 5017 C 464.954 4.40096 0.0197968 0
M  V30 5018 H 462.073 0.723667 -0.139552 0
M  V30 5019 H 464.715 1.60928 -1.01006 0
M  V30 5020 H 462.865 3.88494 -0.0213741 0
M  V30 5021 H 464.537 3.79026 -2.62939 0
M  V30 5022 H 462.78 3.52429 -2.52936 0
M  V30 5023 H 463.451 5.10234 -2.1063 0
M  V30 5024 H 465.927 4.13786 -0.438179 0
M  V30 5025 H 464.803 5.48735 -0.134477 0
M  V30 5026 H 465.064 4.2786 1.11303 0
M  V30 5027 N 464.123 0.554532 1.47522 0
M  V30 5028 C 465.053 -0.182974 2.32782 0
M  V30 5029 C 466.034 -0.911377 1.43624 0
M  V30 5030 O 467.219 -0.892366 1.72483 0
M  V30 5031 C 464.349 -1.21513 3.25349 0
M  V30 5032 C 463.303 -0.603355 4.23726 0
M  V30 5033 C 462.629 -1.73995 5.05598 0
M  V30 5034 C 463.929 0.441121 5.20434 0
M  V30 5035 H 465.623 0.52882 2.94693 0
M  V30 5036 H 463.169 0.255759 1.41711 0
M  V30 5037 H 465.122 -1.73922 3.83835 0
M  V30 5038 H 463.846 -1.95683 2.61487 0
M  V30 5039 H 462.505 -0.10059 3.66462 0
M  V30 5040 H 462.153 -2.47063 4.38143 0
M  V30 5041 H 461.853 -1.3364 5.72201 0
M  V30 5042 H 463.377 -2.26735 5.66942 0
M  V30 5043 H 464.791 0.00319931 5.733 0
M  V30 5044 H 463.188 0.763402 5.95224 0
M  V30 5045 H 464.258 1.33799 4.66075 0
M  V30 5046 N 465.601 -1.54893 0.290851 0
M  V30 5047 C 466.826 -2.04804 -0.32712 0
M  V30 5048 C 467.251 -1.16721 -1.47506 0
M  V30 5049 O 466.609 -0.169107 -1.8051 0
M  V30 5050 C 466.657 -3.52268 -0.770689 0
M  V30 5051 O 465.761 -3.67236 -1.87647 0
M  V30 5052 H 465.102 -0.660789 -0.0652227 0
M  V30 5053 H 467.632 -2.00036 0.429739 0
M  V30 5054 H 467.642 -3.9393 -1.06223 0
M  V30 5055 H 466.317 -4.15843 0.069096 0
M  V30 5056 H 464.894 -3.37479 -1.58626 0
M  V30 5057 N 467.08 -0.0183926 -1.57589 0
M  V30 5058 C 468.01 0.965596 -2.12599 0
M  V30 5059 C 468.991 1.34641 -1.0395 0
M  V30 5060 O 470.176 1.42693 -1.31729 0
M  V30 5061 C 467.306 2.25149 -2.64434 0
M  V30 5062 C 466.26 2.01175 -3.77773 0
M  V30 5063 C 465.586 3.35937 -4.15994 0
M  V30 5064 C 466.886 1.35953 -5.04296 0
M  V30 5065 H 468.58 0.507504 -2.95067 0
M  V30 5066 H 466.126 0.242671 -1.41941 0
M  V30 5067 H 468.079 2.94357 -3.01549 0
M  V30 5068 H 466.803 2.73105 -1.79112 0
M  V30 5069 H 465.462 1.34388 -3.4108 0
M  V30 5070 H 465.11 3.81631 -3.27669 0
M  V30 5071 H 464.81 3.20705 -4.92364 0
M  V30 5072 H 466.334 4.0643 -4.55683 0
M  V30 5073 H 467.748 1.95144 -5.39065 0
M  V30 5074 H 466.145 1.31152 -5.85593 0
M  V30 5075 H 467.215 0.331071 -4.83768 0
M  V30 5076 N 468.558 1.5553 0.254621 0
M  V30 5077 C 469.521 1.88872 1.29846 0
M  V30 5078 C 470.521 0.764591 1.41459 0
M  V30 5079 O 471.711 1.03265 1.40293 0
M  V30 5080 C 468.843 2.11032 2.67728 0
M  V30 5081 H 470.036 2.82201 1.01502 0
M  V30 5082 H 467.589 1.48303 0.493556 0
M  V30 5083 H 468.324 1.20146 3.01223 0
M  V30 5084 H 468.109 2.92895 2.60682 0
M  V30 5085 H 469.599 2.38038 3.43115 0
M  V30 5086 N 470.036 -0.519951 1.48776 0
M  V30 5087 C 470.983 -1.62352 1.64044 0
M  V30 5088 C 471.953 -1.58945 0.482251 0
M  V30 5089 O 473.138 -1.77219 0.706971 0
M  V30 5090 C 470.278 -3.00579 1.69547 0
M  V30 5091 C 469.391 -3.14145 2.96541 0
M  V30 5092 C 468.526 -4.42991 2.93142 0
M  V30 5093 C 467.565 -4.50122 4.14797 0
M  V30 5094 N 466.702 -5.7037 4.09418 0
M  V30 5095 H 471.542 -1.48643 2.58281 0
M  V30 5096 H 469.079 -0.723516 1.28077 0
M  V30 5097 H 471.037 -3.80671 1.70719 0
M  V30 5098 H 469.667 -3.13036 0.787918 0
M  V30 5099 H 468.719 -2.27239 3.05068 0
M  V30 5100 H 470.031 -3.15275 3.86527 0
M  V30 5101 H 469.185 -5.31385 2.92772 0
M  V30 5102 H 467.924 -4.44398 2.00902 0
M  V30 5103 H 466.929 -3.60133 4.15433 0
M  V30 5104 H 468.154 -4.50445 5.08208 0
M  V30 5105 H 466.1 -5.72655 3.20004 0
M  V30 5106 H 466.017 -5.73036 4.93119 0
M  V30 5107 H 467.285 -6.61023 4.13121 0
M  V30 5108 N 471.514 -1.37532 -0.769588 0
M  V30 5109 C 472.739 -1.36231 -1.56384 0
M  V30 5110 C 473.164 0.0495849 -1.88035 0
M  V30 5111 O 472.522 1.02723 -1.49391 0
M  V30 5112 C 472.57 -2.20986 -2.84952 0
M  V30 5113 O 471.674 -1.61597 -3.79421 0
M  V30 5114 H 471.015 -0.465387 -0.473615 0
M  V30 5115 H 473.545 -1.81085 -0.952342 0
M  V30 5116 H 473.555 -2.34277 -3.34034 0
M  V30 5117 H 472.23 -3.23612 -2.61243 0
M  V30 5118 H 470.807 -1.57359 -3.38072 0
M  V30 5119 N 472.992 0.995999 -1.22138 0
M  V30 5120 C 474.241 1.72928 -1.03821 0
M  V30 5121 C 474.554 1.90872 0.427444 0
M  V30 5122 O 475.76 2.61496 0.730212 0
M  V30 5123 C 474.216 3.11124 -1.80913 0
M  V30 5124 C 473.824 3.01122 -3.31707 0
M  V30 5125 C 475.568 3.8852 -1.71035 0
M  V30 5126 C 473.475 4.34453 -4.01253 0
M  V30 5127 H 472.405 0.648376 -0.384869 0
M  V30 5128 H 475.056 1.11213 -1.45959 0
M  V30 5129 H 473.438 3.73503 -1.31573 0
M  V30 5130 H 474.612 2.47926 -3.88419 0
M  V30 5131 H 472.927 2.3721 -3.42228 0
M  V30 5132 H 475.524 4.872 -2.20318 0
M  V30 5133 H 475.867 4.1087 -0.670196 0
M  V30 5134 H 476.4 3.32812 -2.17902 0
M  V30 5135 H 473.139 4.17303 -5.05508 0
M  V30 5136 H 472.659 4.87574 -3.49331 0
M  V30 5137 H 474.338 5.03215 -4.06674 0
M  V30 5138 N 474.47 1.03057 1.19235 0
M  V30 5139 C 475.716 0.729098 1.89241 0
M  V30 5140 C 476.049 -0.740573 1.79525 0
M  V30 5141 O 475.324 -1.53946 1.18874 0
M  V30 5142 C 475.607 1.18304 3.40112 0
M  V30 5143 C 475.46 2.71406 3.5869 0
M  V30 5144 C 476.779 0.765161 4.33397 0
M  V30 5145 H 473.898 0.266338 0.687192 0
M  V30 5146 H 476.54 1.28079 1.40341 0
M  V30 5147 H 474.69 0.713672 3.81889 0
M  V30 5148 H 476.362 3.26303 3.26074 0
M  V30 5149 H 474.605 3.11717 3.01687 0
M  V30 5150 H 475.276 2.98225 4.64506 0
M  V30 5151 H 477.752 1.16889 3.99345 0
M  V30 5152 H 476.628 1.11065 5.37546 0
M  V30 5153 H 476.889 -0.332372 4.40849 0
M  V30 5154 N 475.948 -1.35272 0.808662 0
M  V30 5155 C 476.878 -2.32315 0.234981 0
M  V30 5156 C 477.859 -1.57572 -0.64071 0
M  V30 5157 O 479.044 -1.8563 -0.570551 0
M  V30 5158 C 476.174 -3.41801 -0.615601 0
M  V30 5159 C 475.128 -4.27694 0.161767 0
M  V30 5160 C 474.454 -5.28519 -0.810649 0
M  V30 5161 C 475.754 -5.04231 1.36193 0
M  V30 5162 H 477.448 -2.80543 1.04575 0
M  V30 5163 H 474.994 -1.3488 0.504315 0
M  V30 5164 H 476.947 -4.08693 -1.02702 0
M  V30 5165 H 475.671 -2.92186 -1.45928 0
M  V30 5166 H 474.33 -3.62384 0.554382 0
M  V30 5167 H 473.978 -4.75171 -1.64988 0
M  V30 5168 H 473.678 -5.8686 -0.294822 0
M  V30 5169 H 475.202 -5.98283 -1.22023 0
M  V30 5170 H 476.616 -5.64058 1.02528 0
M  V30 5171 H 475.013 -5.72077 1.81239 0
M  V30 5172 H 476.083 -4.34753 2.14751 0
M  V30 5173 N 477.426 -0.562348 -1.47226 0
M  V30 5174 C 478.672 -0.0402761 -2.0276 0
M  V30 5175 C 479.005 1.30823 -1.43523 0
M  V30 5176 O 478.28 1.85249 -0.592705 0
M  V30 5177 C 478.563 0.047311 -3.60069 0
M  V30 5178 C 478.416 -1.32865 -4.29729 0
M  V30 5179 C 479.735 0.758182 -4.3352 0
M  V30 5180 H 476.854 -0.0161105 -0.736824 0
M  V30 5181 H 479.496 -0.725628 -1.75598 0
M  V30 5182 H 477.646 0.630986 -3.83342 0
M  V30 5183 H 479.318 -1.95593 -4.17781 0
M  V30 5184 H 477.561 -1.90195 -3.89882 0
M  V30 5185 H 478.232 -1.22004 -5.38349 0
M  V30 5186 H 480.708 0.262546 -4.15271 0
M  V30 5187 H 479.584 0.78844 -5.43208 0
M  V30 5188 H 479.845 1.81537 -4.03109 0
M  V30 5189 N 478.904 1.54736 -0.299062 0
M  V30 5190 C 479.851 2.23448 0.577899 0
M  V30 5191 C 480.821 1.21637 1.13109 0
M  V30 5192 O 482.006 1.50252 1.17597 0
M  V30 5193 C 479.146 2.9774 1.74484 0
M  V30 5194 C 478.259 4.1432 1.22323 0
M  V30 5195 C 477.394 4.76199 2.35388 0
M  V30 5196 C 476.433 5.84927 1.80351 0
M  V30 5197 N 475.57 6.4077 2.86982 0
M  V30 5198 H 480.41 2.97996 -0.0146545 0
M  V30 5199 H 477.947 1.47088 -0.0190013 0
M  V30 5200 H 479.905 3.39045 2.43114 0
M  V30 5201 H 478.535 2.25572 2.30905 0
M  V30 5202 H 477.587 3.7797 0.429249 0
M  V30 5203 H 478.899 4.92659 0.780309 0
M  V30 5204 H 478.053 5.20346 3.11969 0
M  V30 5205 H 476.792 3.97188 2.83006 0
M  V30 5206 H 475.797 5.40207 1.02259 0
M  V30 5207 H 477.022 6.65821 1.3364 0
M  V30 5208 H 474.968 5.64643 3.33938 0
M  V30 5209 H 474.885 7.1445 2.4718 0
M  V30 5210 H 476.153 6.89574 3.63466 0
M  V30 5211 N 480.382 0.0267497 1.57577 0
M  V30 5212 C 481.629 -0.652404 1.91703 0
M  V30 5213 C 481.957 -1.72271 0.902936 0
M  V30 5214 O 481.212 -1.955 -0.0884843 0
M  V30 5215 C 481.511 -1.30914 3.3256 0
M  V30 5216 C 481.177 -0.369441 4.49384 0
M  V30 5217 C 479.839 -0.110791 4.81072 0
M  V30 5218 C 482.191 0.275971 5.20469 0
M  V30 5219 C 479.519 0.801116 5.81205 0
M  V30 5220 C 481.871 1.17592 6.21575 0
M  V30 5221 C 480.535 1.44348 6.51705 0
M  V30 5222 H 479.805 -0.238732 0.70149 0
M  V30 5223 H 482.452 0.0880091 1.91298 0
M  V30 5224 H 480.757 -2.12425 3.29216 0
M  V30 5225 H 482.454 -1.84115 3.56234 0
M  V30 5226 H 479.044 -0.581211 4.24641 0
M  V30 5227 H 483.228 0.0892 4.9622 0
M  V30 5228 H 478.484 1.01614 6.02897 0
M  V30 5229 H 482.658 1.68223 6.75777 0
M  V30 5230 H 480.285 2.15176 7.29111 0
M  V30 5231 N 481.861 -1.55662 -0.24637 0
M  V30 5232 C 482.791 -1.93377 -1.30873 0
M  V30 5233 C 483.772 -0.798773 -1.50179 0
M  V30 5234 O 484.957 -1.0591 -1.62778 0
M  V30 5235 C 482.087 -2.22893 -2.66338 0
M  V30 5236 C 481.041 -3.38649 -2.61727 0
M  V30 5237 C 480.367 -3.53708 -4.00992 0
M  V30 5238 C 481.667 -4.74323 -2.18666 0
M  V30 5239 H 483.361 -2.82363 -0.995552 0
M  V30 5240 H 480.907 -1.35854 -0.477464 0
M  V30 5241 H 482.86 -2.47866 -3.40794 0
M  V30 5242 H 481.584 -1.30733 -2.99293 0
M  V30 5243 H 480.243 -3.13685 -1.89729 0
M  V30 5244 H 479.891 -2.58967 -4.31214 0
M  V30 5245 H 479.591 -4.31551 -3.98795 0
M  V30 5246 H 481.115 -3.81003 -4.77147 0
M  V30 5247 H 482.529 -4.98665 -2.82854 0
M  V30 5248 H 480.926 -5.55273 -2.27579 0
M  V30 5249 H 481.996 -4.71349 -1.13834 0
M  V30 5250 N 483.339 0.512053 -1.4905 0
M  V30 5251 C 484.289 1.61142 -1.61298 0
M  V30 5252 C 485.273 1.53908 -0.46916 0
M  V30 5253 O 486.465 1.61625 -0.721547 0
M  V30 5254 C 483.594 2.998 -1.67256 0
M  V30 5255 C 482.68 3.12072 -2.87179 0
M  V30 5256 N 483.071 2.94263 -4.11391 0
M  V30 5257 C 481.369 3.43156 -2.84886 0
M  V30 5258 C 482.07 3.10426 -4.91946 0
M  V30 5259 N 481.046 3.38808 -4.251 0
M  V30 5260 H 484.848 1.46011 -2.55065 0
M  V30 5261 H 482.362 0.717934 -1.45669 0
M  V30 5262 H 484.359 3.78794 -1.74128 0
M  V30 5263 H 483.019 3.1601 -0.746195 0
M  V30 5264 H 484.03 2.70661 -4.41546 0
M  V30 5265 H 480.707 3.65611 -2.01581 0
M  V30 5266 H 482.097 3.01243 -6.00585 0
M  V30 5267 N 484.817 1.37938 0.762283 0
M  V30 5268 C 486.094 1.24196 1.51112 0
M  V30 5269 C 486.474 -0.160409 2.1049 0
M  V30 5270 O 485.822 -1.16904 1.96331 0
M  V30 5271 C 486.032 2.34537 2.58445 0
M  V30 5272 C 487.38 2.7254 3.25588 0
M  V30 5273 O 488.404 2.33783 2.68745 0
M  V30 5274 O 487.263 3.39343 4.28379 0
M  V30 5275 H 484.357 0.485175 0.669727 0
M  V30 5276 H 486.903 1.49743 0.798438 0
M  V30 5277 H 485.675 3.28406 2.12756 0
M  V30 5278 H 485.298 2.10505 3.37303 0
M  V30 5279 N 486.295 -0.989507 1.22664 0
M  V30 5280 C 487.205 -2.11449 1.01619 0
M  V30 5281 C 488.221 -1.73962 -0.036545 0
M  V30 5282 O 489.397 -2.00788 0.156924 0
M  V30 5283 C 486.462 -3.41465 0.600204 0
M  V30 5284 C 485.523 -3.93033 1.72695 0
M  V30 5285 C 484.756 -5.16844 1.33071 0
M  V30 5286 O 484.979 -5.7001 0.210975 0
M  V30 5287 O 483.913 -5.6225 2.14845 0
M  V30 5288 H 487.739 -2.32088 1.9588 0
M  V30 5289 H 485.324 -1.09823 1.01289 0
M  V30 5290 H 487.206 -4.19695 0.37873 0
M  V30 5291 H 485.881 -3.22178 -0.313511 0
M  V30 5292 H 484.788 -3.15961 2.00298 0
M  V30 5293 H 486.121 -4.16758 2.61865 0
M  V30 5294 N 487.773 -1.03688 -1.18687 0
M  V30 5295 C 488.705 -0.582696 -2.21669 0
M  V30 5296 C 489.718 0.345656 -1.59088 0
M  V30 5297 O 490.907 0.140776 -1.77944 0
M  V30 5298 C 488.007 0.169204 -3.38477 0
M  V30 5299 C 487.18 -0.766079 -4.30639 0
M  V30 5300 C 486.239 -0.0581541 -5.26168 0
M  V30 5301 O 485.265 -0.687346 -5.65035 0
M  V30 5302 N 486.467 1.20981 -5.67753 0
M  V30 5303 H 489.232 -1.46843 -2.61261 0
M  V30 5304 H 486.793 -0.916896 -1.33434 0
M  V30 5305 H 488.785 0.652543 -3.99405 0
M  V30 5306 H 487.355 0.956435 -2.97609 0
M  V30 5307 H 486.575 -1.42935 -3.67373 0
M  V30 5308 H 487.863 -1.40146 -4.89118 0
M  V30 5309 H 487.261 1.74159 -5.38224 0
M  V30 5310 H 485.818 1.6375 -6.30896 0
M  V30 5311 N 489.251 1.34841 -0.815825 0
M  V30 5312 C 490.667 1.51543 -0.500697 0
M  V30 5313 C 490.867 1.76261 0.976444 0
M  V30 5314 O 489.923 1.8094 1.76117 0
M  V30 5315 C 491.236 2.68487 -1.35407 0
M  V30 5316 C 492.784 2.82368 -1.35046 0
M  V30 5317 C 493.259 4.02347 -2.18816 0
M  V30 5318 N 494.75 4.09542 -2.16402 0
M  V30 5319 C 495.485 5.01517 -2.77971 0
M  V30 5320 N 494.981 5.98763 -3.48503 0
M  V30 5321 N 496.774 4.94334 -2.67563 0
M  V30 5322 H 488.925 1.17055 -1.77234 0
M  V30 5323 H 491.188 0.573481 -0.754866 0
M  V30 5324 H 490.894 2.56829 -2.40274 0
M  V30 5325 H 490.768 3.63321 -1.01377 0
M  V30 5326 H 493.155 2.93471 -0.309604 0
M  V30 5327 H 493.236 1.88363 -1.73069 0
M  V30 5328 H 492.88 3.92004 -3.22948 0
M  V30 5329 H 492.81 4.95551 -1.78148 0
M  V30 5330 H 495.301 3.39932 -1.65091 0
M  V30 5331 H 495.614 6.6556 -3.92747 0
M  V30 5332 H 493.959 5.98909 -3.52609 0
M  V30 5333 H 497.15 4.1732 -2.12041 0
M  V30 5334 H 497.323 5.6582 -3.15834 0
M  V30 5335 N 490.729 0.570148 1.46925 0
M  V30 5336 C 491.977 0.0508523 2.02036 0
M  V30 5337 C 492.298 -1.30885 1.44548 0
M  V30 5338 O 491.568 -1.85647 0.625453 0
M  V30 5339 H 490.148 0.0158088 0.746833 0
M  V30 5340 H 492.81 0.743086 1.80178 0
M  V30 5341 H 491.906 -0.027575 3.12088 0
M  V30 5342 N 492.207 -1.54576 0.307264 0
M  V30 5343 C 493.455 -1.99867 -0.299574 0
M  V30 5344 C 493.776 -1.19714 -1.53927 0
M  V30 5345 O 493.046 -0.29472 -1.9367 0
M  V30 5346 H 491.626 -0.738299 -0.113683 0
M  V30 5347 H 494.288 -1.9032 0.420042 0
M  V30 5348 H 493.384 -3.06901 -0.567283 0
M  V30 5349 N 493.685 -0.035106 -1.57561 0
M  V30 5350 C 494.617 0.973604 -2.07494 0
M  V30 5351 C 495.63 1.28504 -0.999534 0
M  V30 5352 O 496.819 1.24864 -1.27559 0
M  V30 5353 C 493.919 2.29945 -2.48955 0
M  V30 5354 C 493.092 2.1723 -3.79644 0
M  V30 5355 C 492.151 3.328 -4.07592 0
M  V30 5356 O 491.177 3.09418 -4.77754 0
M  V30 5357 N 492.379 4.56779 -3.58236 0
M  V30 5358 H 495.144 0.547525 -2.94656 0
M  V30 5359 H 492.705 0.151515 -1.61189 0
M  V30 5360 H 494.697 3.06097 -2.64739 0
M  V30 5361 H 493.267 2.64173 -1.67126 0
M  V30 5362 H 492.487 1.25768 -3.73599 0
M  V30 5363 H 493.775 2.05945 -4.65257 0
M  V30 5364 H 493.173 4.78668 -3.01485 0
M  V30 5365 H 491.73 5.30079 -3.79288 0
M  V30 5366 N 495.163 1.55791 0.238111 0
M  V30 5367 C 496.073 1.94196 1.31625 0
M  V30 5368 C 497.089 0.843545 1.52185 0
M  V30 5369 O 498.265 1.1457 1.65637 0
M  V30 5370 C 495.33 2.2365 2.64918 0
M  V30 5371 C 494.391 3.46971 2.52804 0
M  V30 5372 C 493.624 3.7501 3.79741 0
M  V30 5373 O 493.847 3.04982 4.82019 0
M  V30 5374 O 492.781 4.68525 3.77846 0
M  V30 5375 H 496.607 2.86044 1.02043 0
M  V30 5376 H 494.192 1.42786 0.439603 0
M  V30 5377 H 496.074 2.43863 3.4367 0
M  V30 5378 H 494.749 1.34979 2.94215 0
M  V30 5379 H 493.656 3.32055 1.72309 0
M  V30 5380 H 494.989 4.35971 2.28451 0
M  V30 5381 N 496.642 -0.504142 1.49319 0
M  V30 5382 C 497.574 -1.62265 1.61872 0
M  V30 5383 C 498.587 -1.54881 0.501573 0
M  V30 5384 O 499.776 -1.6087 0.773497 0
M  V30 5385 C 496.876 -3.01042 1.55651 0
M  V30 5386 C 496.049 -3.33642 2.82845 0
M  V30 5387 C 495.108 -4.51816 2.69719 0
M  V30 5388 O 494.134 -4.53755 3.4365 0
M  V30 5389 N 495.336 -5.51543 1.81055 0
M  V30 5390 H 498.101 -1.51924 2.58339 0
M  V30 5391 H 495.662 -0.691954 1.46368 0
M  V30 5392 H 497.654 -3.78013 1.44528 0
M  V30 5393 H 496.224 -3.05323 0.670546 0
M  V30 5394 H 495.444 -2.45598 3.08343 0
M  V30 5395 H 496.732 -3.5222 3.67177 0
M  V30 5396 H 496.13 -5.52774 1.20241 0
M  V30 5397 H 494.687 -6.27629 1.75856 0
M  V30 5398 N 498.12 -1.38341 -0.754957 0
M  V30 5399 C 499.531 -1.30803 -1.3322 0
M  V30 5400 C 499.882 0.0368 -1.96165 0
M  V30 5401 O 499.007 0.938844 -1.94974 0
M  V30 5402 C 499.602 -2.3688 -2.42225 0
M  V30 5403 C 498.161 -2.32925 -2.95674 0
M  V30 5404 C 497.308 -2.19819 -1.69042 0
M  V30 5405 H 500.259 -1.48719 -0.553937 0
M  V30 5406 H 500.28 -2.02517 -3.22129 0
M  V30 5407 H 499.792 -3.34747 -1.96383 0
M  V30 5408 H 497.893 -1.38635 -3.45848 0
M  V30 5409 H 498.006 -3.27008 -3.50146 0
M  V30 5410 H 496.37 -1.66648 -1.92615 0
M  V30 5411 H 497.153 -3.19625 -1.25279 0
M  V30 5412 N 499.598 0.982988 -1.23187 0
M  V30 5413 C 500.845 1.72392 -1.06241 0
M  V30 5414 C 501.173 1.9032 0.40108 0
M  V30 5415 O 500.428 1.45084 1.31336 0
M  V30 5416 C 500.727 3.12736 -1.73006 0
M  V30 5417 C 500.393 3.14695 -3.22921 0
M  V30 5418 C 499.055 3.14937 -3.63824 0
M  V30 5419 C 501.407 3.10211 -4.1883 0
M  V30 5420 C 498.735 3.08408 -4.99101 0
M  V30 5421 C 501.087 3.05224 -5.54095 0
M  V30 5422 C 499.751 3.03787 -5.94365 0
M  V30 5423 H 499.021 0.630829 -0.388762 0
M  V30 5424 H 501.668 1.15053 -1.53085 0
M  V30 5425 H 499.973 3.73446 -1.18514 0
M  V30 5426 H 501.67 3.68828 -1.57374 0
M  V30 5427 H 498.26 3.15262 -2.90358 0
M  V30 5428 H 502.444 3.09166 -3.8824 0
M  V30 5429 H 497.7 3.05646 -5.29519 0
M  V30 5430 H 501.874 3.00712 -6.28128 0
M  V30 5431 H 499.501 2.98483 -6.99151 0
M  V30 5432 N 501.076 1.04316 1.18135 0
M  V30 5433 C 502.006 0.657299 2.24058 0
M  V30 5434 C 502.987 -0.340678 1.66654 0
M  V30 5435 O 504.172 -0.220223 1.92947 0
M  V30 5436 C 501.302 0.0220715 3.47293 0
M  V30 5437 C 500.256 0.943857 4.17463 0
M  V30 5438 C 499.582 0.172973 5.3442 0
M  V30 5439 C 500.882 2.26409 4.70677 0
M  V30 5440 H 502.576 1.5428 2.56589 0
M  V30 5441 H 500.122 0.743263 1.23335 0
M  V30 5442 H 502.075 -0.259607 4.206 0
M  V30 5443 H 500.799 -0.898323 3.14003 0
M  V30 5444 H 499.458 1.20996 3.46057 0
M  V30 5445 H 499.106 -0.749907 4.97379 0
M  V30 5446 H 498.806 0.787098 5.82304 0
M  V30 5447 H 500.33 -0.101628 6.10515 0
M  V30 5448 H 501.744 2.04294 5.35665 0
M  V30 5449 H 500.141 2.8314 5.29105 0
M  V30 5450 H 501.211 2.90883 3.87962 0
M  V30 5451 N 502.554 -1.34406 0.822964 0
M  V30 5452 C 503.794 -2.00103 0.416915 0
M  V30 5453 C 504.158 -1.63826 -1.00125 0
M  V30 5454 O 505.359 -2.22367 -1.51018 0
M  V30 5455 C 503.63 -3.52101 0.613151 0
M  V30 5456 S 505.189 -4.37774 0.299956 0
M  V30 5457 H 502.007 -0.69333 0.157527 0
M  V30 5458 H 504.609 -1.63698 1.06879 0
M  V30 5459 H 503.313 -3.75991 1.64496 0
M  V30 5460 H 502.844 -3.93364 -0.0534554 0
M  V30 5461 H 504.859 -4.8822 -0.886336 0
M  V30 5462 N 504.032 -0.577932 -1.46621 0
M  V30 5463 C 504.962 0.145917 -2.33044 0
M  V30 5464 C 505.943 0.888412 -1.45056 0
M  V30 5465 O 507.128 0.864812 -1.73881 0
M  V30 5466 C 504.258 1.16322 -3.27241 0
M  V30 5467 C 503.212 0.535868 -4.24632 0
M  V30 5468 C 502.538 1.65929 -5.08303 0
M  V30 5469 C 503.838 -0.523861 -5.19666 0
M  V30 5470 H 505.532 -0.575636 -2.93814 0
M  V30 5471 H 503.078 -0.278272 -1.41286 0
M  V30 5472 H 505.031 1.67793 -3.86553 0
M  V30 5473 H 503.755 1.91498 -2.64567 0
M  V30 5474 H 502.414 0.0422759 -3.66576 0
M  V30 5475 H 502.062 2.40061 -4.42018 0
M  V30 5476 H 501.762 1.2452 -5.74255 0
M  V30 5477 H 503.286 2.17686 -5.70478 0
M  V30 5478 H 504.7 -0.0944059 -5.73222 0
M  V30 5479 H 503.097 -0.858 -5.93935 0
M  V30 5480 H 504.167 -1.41197 -4.63887 0
M  V30 5481 N 505.51 1.54411 -0.315457 0
M  V30 5482 C 506.926 1.59556 0.037464 0
M  V30 5483 C 507.126 1.33217 1.5118 0
M  V30 5484 O 506.182 1.11264 2.26664 0
M  V30 5485 C 507.495 2.98372 -0.373477 0
M  V30 5486 C 509.043 3.11324 -0.323452 0
M  V30 5487 C 509.518 4.52472 -0.709433 0
M  V30 5488 N 511.009 4.58437 -0.662524 0
M  V30 5489 C 511.744 5.65751 -0.933474 0
M  V30 5490 N 511.24 6.81039 -1.27114 0
M  V30 5491 N 513.033 5.55489 -0.859573 0
M  V30 5492 H 505.184 1.6979 -1.27614 0
M  V30 5493 H 507.447 0.793732 -0.518356 0
M  V30 5494 H 507.153 3.22618 -1.40037 0
M  V30 5495 H 507.027 3.76264 0.265615 0
M  V30 5496 H 509.414 2.86818 0.694223 0
M  V30 5497 H 509.495 2.35555 -0.997367 0
M  V30 5498 H 509.139 4.7771 -1.72498 0
M  V30 5499 H 509.069 5.26598 -0.0132923 0
M  V30 5500 H 511.56 3.75636 -0.413065 0
M  V30 5501 H 511.873 7.58816 -1.46348 0
M  V30 5502 H 510.218 6.82555 -1.30932 0
M  V30 5503 H 513.409 4.64299 -0.595324 0
M  V30 5504 H 513.582 6.39036 -1.0741 0
M  V30 5505 N 506.988 0.0434614 1.5754 0
M  V30 5506 C 508.236 -0.630786 1.92004 0
M  V30 5507 C 508.557 -1.71836 0.921807 0
M  V30 5508 O 507.827 -1.9587 -0.034522 0
M  V30 5509 H 506.407 -0.235988 0.708745 0
M  V30 5510 H 509.069 0.0946462 1.9467 0
M  V30 5511 H 508.165 -1.07434 2.93026 0
M  V30 5512 N 508.466 -1.55915 -0.229846 0
M  V30 5513 C 509.743 -1.6932 -0.979295 0
M  V30 5514 C 510.123 -0.588321 -2.02736 0
M  V30 5515 O 509.471 0.40586 -2.24867 0
M  V30 5516 C 509.681 -3.10305 -1.59724 0
M  V30 5517 C 511.029 -3.6945 -2.09264 0
M  V30 5518 O 512.053 -3.13214 -1.69633 0
M  V30 5519 O 510.912 -4.68072 -2.82082 0
M  V30 5520 H 508.006 -0.689314 -0.456919 0
M  V30 5521 H 510.552 -1.68238 -0.222283 0
M  V30 5522 H 509.324 -3.82177 -0.840039 0
M  V30 5523 H 508.947 -3.1547 -2.42001 0
M  V30 5524 N 509.944 0.496216 -1.49584 0
M  V30 5525 C 511.172 1.27394 -1.63029 0
M  V30 5526 C 511.587 1.86344 -0.303569 0
M  V30 5527 O 510.944 1.68057 0.711547 0
M  V30 5528 C 510.995 2.40077 -2.70269 0
M  V30 5529 O 510.716 1.83549 -3.97796 0
M  V30 5530 C 512.217 3.31372 -2.94462 0
M  V30 5531 H 509.437 0.386211 -0.54871 0
M  V30 5532 H 511.981 0.595163 -1.95648 0
M  V30 5533 H 510.136 3.03775 -2.40415 0
M  V30 5534 H 510.55 2.57561 -4.56905 0
M  V30 5535 H 512.024 4.06707 -3.73221 0
M  V30 5536 H 512.501 3.88654 -2.0456 0
M  V30 5537 H 513.107 2.73435 -3.25751 0
M  V30 5538 N 511.423 1.38739 0.74761 0
M  V30 5539 C 512.7 1.25791 1.49786 0
M  V30 5540 C 513.08 -0.138075 2.10648 0
M  V30 5541 O 512.428 -1.14815 1.9756 0
M  V30 5542 C 512.638 2.37265 2.55942 0
M  V30 5543 C 513.986 2.75978 3.22679 0
M  V30 5544 O 515.01 2.36621 2.6625 0
M  V30 5545 O 513.869 3.43867 4.24756 0
M  V30 5546 H 510.963 0.492251 0.664543 0
M  V30 5547 H 513.509 1.50582 0.782511 0
M  V30 5548 H 512.281 3.30644 2.0926 0
M  V30 5549 H 511.904 2.14071 3.35051 0
M  V30 5550 N 512.901 -0.976442 1.23707 0
M  V30 5551 C 513.864 -2.0511 1.02287 0
M  V30 5552 C 514.864 -1.60791 -0.0167195 0
M  V30 5553 O 516.054 -1.72761 0.223408 0
M  V30 5554 C 513.186 -3.36458 0.548507 0
M  V30 5555 H 514.379 -2.25545 1.9766 0
M  V30 5556 H 511.932 -1.15042 1.05806 0
M  V30 5557 H 512.667 -3.21713 -0.408818 0
M  V30 5558 H 512.452 -3.69967 1.29874 0
M  V30 5559 H 513.942 -4.15489 0.419406 0
M  V30 5560 N 514.379 -1.04941 -1.1758 0
M  V30 5561 C 515.656 -0.671918 -1.83697 0
M  V30 5562 C 516.036 0.847929 -1.93322 0
M  V30 5563 O 515.384 1.75287 -1.46583 0
M  V30 5564 C 515.594 -1.35797 -3.21497 0
M  V30 5565 C 516.942 -1.4944 -3.97433 0
M  V30 5566 O 517.966 -1.31678 -3.30967 0
M  V30 5567 O 516.825 -1.78463 -5.1654 0
M  V30 5568 H 513.919 -0.236212 -0.792548 0
M  V30 5569 H 516.465 -1.14884 -1.24899 0
M  V30 5570 H 515.237 -2.39498 -3.09446 0
M  V30 5571 H 514.86 -0.870236 -3.8796 0
M  V30 5572 N 515.857 1.33968 -0.830081 0
M  V30 5573 C 517.273 1.51003 -0.516742 0
M  V30 5574 C 517.473 1.77286 0.957694 0
M  V30 5575 O 516.529 1.82797 1.74188 0
M  V30 5576 C 517.842 2.67036 -1.38247 0
M  V30 5577 C 519.39 2.80919 -1.38034 0
M  V30 5578 C 519.865 4.00004 -2.23071 0
M  V30 5579 N 521.356 4.07224 -2.20733 0
M  V30 5580 C 522.091 4.98541 -2.83275 0
M  V30 5581 N 521.587 5.95033 -3.54835 0
M  V30 5582 N 523.38 4.91469 -2.72791 0
M  V30 5583 H 515.531 1.15168 -1.78466 0
M  V30 5584 H 517.794 0.565443 -0.760906 0
M  V30 5585 H 517.5 2.54266 -2.42985 0
M  V30 5586 H 517.374 3.62226 -1.05225 0
M  V30 5587 H 519.761 2.93127 -0.340713 0
M  V30 5588 H 519.842 1.86517 -1.75057 0
M  V30 5589 H 519.486 3.88557 -3.27087 0
M  V30 5590 H 519.416 4.93634 -1.83394 0
M  V30 5591 H 521.907 3.38162 -1.68687 0
M  V30 5592 H 522.22 6.61357 -3.99784 0
M  V30 5593 H 520.565 5.95135 -3.58942 0
M  V30 5594 H 523.756 4.15048 -2.16456 0
M  V30 5595 H 523.929 5.62439 -3.21818 0
M  V30 5596 N 517.335 0.585699 1.46312 0
M  V30 5597 C 518.746 0.159938 1.86014 0
M  V30 5598 C 519.097 -1.27775 1.48889 0
M  V30 5599 O 518.222 -1.96559 0.90519 0
M  V30 5600 C 518.817 0.283485 3.37612 0
M  V30 5601 C 517.376 -0.0874256 3.76298 0
M  V30 5602 C 516.523 0.618055 2.70325 0
M  V30 5603 H 519.474 0.793737 1.37425 0
M  V30 5604 H 519.495 -0.490348 3.77327 0
M  V30 5605 H 519.007 1.32995 3.64601 0
M  V30 5606 H 517.108 -1.13391 3.54927 0
M  V30 5607 H 517.221 0.290975 4.78216 0
M  V30 5608 H 515.585 0.057993 2.54634 0
M  V30 5609 H 516.368 1.66623 3.00153 0
M  V30 5610 N 518.813 -1.54241 0.323641 0
M  V30 5611 C 520.229 -1.59574 -0.0290018 0
M  V30 5612 C 520.429 -1.34017 -1.50472 0
M  V30 5613 O 519.485 -1.12464 -2.26071 0
M  V30 5614 C 520.798 -2.98169 0.389295 0
M  V30 5615 C 522.346 -3.11148 0.339958 0
M  V30 5616 C 522.821 -4.5209 0.733418 0
M  V30 5617 N 524.312 -4.5808 0.686827 0
M  V30 5618 C 525.047 -5.65248 0.963464 0
M  V30 5619 N 524.543 -6.80355 1.30724 0
M  V30 5620 N 526.336 -5.55025 0.88902 0
M  V30 5621 H 518.487 -1.6911 1.28512 0
M  V30 5622 H 520.75 -0.790972 0.522558 0
M  V30 5623 H 520.456 -3.21871 1.41746 0
M  V30 5624 H 520.33 -3.76399 -0.245657 0
M  V30 5625 H 522.717 -2.87182 -0.679002 0
M  V30 5626 H 522.798 -2.35023 1.00985 0
M  V30 5627 H 522.442 -4.76788 1.75029 0
M  V30 5628 H 522.372 -5.26584 0.0412189 0
M  V30 5629 H 524.863 -3.75411 0.43298 0
M  V30 5630 H 525.176 -7.58029 1.5037 0
M  V30 5631 H 523.521 -6.81851 1.3455 0
M  V30 5632 H 526.712 -4.63977 0.619939 0
M  V30 5633 H 526.885 -6.38458 1.10797 0
M  V30 5634 N 520.291 -0.0518155 -1.57515 0
M  V30 5635 C 521.537 0.622745 -1.93002 0
M  V30 5636 C 521.87 1.70456 -0.930499 0
M  V30 5637 O 521.145 1.94452 0.0434086 0
M  V30 5638 C 521.428 1.21824 -3.38867 0
M  V30 5639 C 521.281 0.144434 -4.49568 0
M  V30 5640 C 522.6 2.12968 -3.8514 0
M  V30 5641 H 519.719 0.22491 -0.701844 0
M  V30 5642 H 522.361 -0.113711 -1.89659 0
M  V30 5643 H 520.511 1.8459 -3.41846 0
M  V30 5644 H 522.183 -0.48753 -4.58717 0
M  V30 5645 H 520.426 -0.527424 -4.30582 0
M  V30 5646 H 521.097 0.601127 -5.48717 0
M  V30 5647 H 523.573 1.60163 -3.8404 0
M  V30 5648 H 522.449 2.51578 -4.87852 0
M  V30 5649 H 522.71 3.03004 -3.21934 0
M  V30 5650 N 521.769 1.56035 0.221574 0
M  V30 5651 C 522.679 1.95581 1.29558 0
M  V30 5652 C 523.695 0.859639 1.51282 0
M  V30 5653 O 524.871 1.16321 1.64413 0
M  V30 5654 C 521.936 2.26447 2.62531 0
M  V30 5655 C 520.997 3.49632 2.4911 0
M  V30 5656 C 520.23 3.79017 3.75742 0
M  V30 5657 O 520.453 3.10077 4.78757 0
M  V30 5658 O 519.387 4.72507 3.72855 0
M  V30 5659 H 523.213 2.8711 0.990035 0
M  V30 5660 H 520.798 1.43244 0.424434 0
M  V30 5661 H 522.68 2.47494 3.41064 0
M  V30 5662 H 521.355 1.38092 2.92766 0
M  V30 5663 H 520.262 3.33864 1.68777 0
M  V30 5664 H 521.595 4.3837 2.23814 0
M  V30 5665 N 523.247 -0.488276 1.49845 0
M  V30 5666 C 524.658 -1.06955 1.53028 0
M  V30 5667 C 525.009 -1.9351 0.323797 0
M  V30 5668 O 524.134 -2.08891 -0.565116 0
M  V30 5669 C 524.729 -1.94643 2.77307 0
M  V30 5670 C 523.288 -2.4791 2.83227 0
M  V30 5671 C 522.435 -1.25833 2.47106 0
M  V30 5672 H 525.386 -0.271626 1.56358 0
M  V30 5673 H 525.407 -2.79496 2.5819 0
M  V30 5674 H 524.919 -1.31621 3.65099 0
M  V30 5675 H 523.02 -3.14535 1.99745 0
M  V30 5676 H 523.133 -2.84193 3.85709 0
M  V30 5677 H 521.497 -1.58764 1.99163 0
M  V30 5678 H 522.28 -0.644993 3.37186 0
M  V30 5679 N 524.725 -1.39134 -0.740242 0
M  V30 5680 C 526.141 -1.20623 -1.0451 0
M  V30 5681 C 526.341 -0.0641651 -2.01398 0
M  V30 5682 O 525.397 0.585843 -2.4561 0
M  V30 5683 C 526.71 -2.53815 -1.6124 0
M  V30 5684 C 528.258 -2.60615 -1.73346 0
M  V30 5685 C 528.733 -3.94015 -2.33486 0
M  V30 5686 N 530.224 -3.95627 -2.40902 0
M  V30 5687 C 530.959 -4.95616 -2.88361 0
M  V30 5688 N 530.455 -6.06003 -3.35756 0
M  V30 5689 N 532.248 -4.82998 -2.87523 0
M  V30 5690 H 524.399 -2.12176 -0.0975576 0
M  V30 5691 H 526.662 -0.942066 -0.105904 0
M  V30 5692 H 526.368 -3.37911 -0.975144 0
M  V30 5693 H 526.242 -2.73162 -2.6012 0
M  V30 5694 H 528.629 -1.76906 -2.36195 0
M  V30 5695 H 528.71 -2.45123 -0.731336 0
M  V30 5696 H 528.354 -4.78153 -1.71267 0
M  V30 5697 H 528.284 -4.06825 -3.34366 0
M  V30 5698 H 530.775 -3.15903 -2.07398 0
M  V30 5699 H 531.088 -6.78215 -3.70464 0
M  V30 5700 H 529.433 -6.09604 -3.33778 0
M  V30 5701 H 532.624 -3.95866 -2.49816 0
M  V30 5702 H 532.797 -5.61072 -3.24196 0
M  V30 5703 N 526.204 0.969867 -1.24223 0
M  V30 5704 C 527.167 2.04564 -1.03373 0
M  V30 5705 C 528.167 1.60798 0.00819206 0
M  V30 5706 O 529.357 1.72641 -0.232567 0
M  V30 5707 C 526.489 3.36163 -0.566343 0
M  V30 5708 H 527.682 2.24494 -1.98853 0
M  V30 5709 H 525.235 1.1448 -1.06415 0
M  V30 5710 H 525.97 3.21925 0.391751 0
M  V30 5711 H 525.755 3.69273 -1.31834 0
M  V30 5712 H 527.245 4.1526 -0.441435 0
M  V30 5713 N 527.682 1.05563 1.17022 0
M  V30 5714 C 528.614 0.617888 2.20714 0
M  V30 5715 C 529.627 -0.320303 1.59618 0
M  V30 5716 O 530.816 -0.112449 1.78145 0
M  V30 5717 C 527.916 -0.115333 3.38704 0
M  V30 5718 C 527.089 0.834493 4.29366 0
M  V30 5719 C 526.148 0.141855 5.26009 0
M  V30 5720 O 525.174 0.777151 5.6387 0
M  V30 5721 N 526.376 -1.11934 5.69606 0
M  V30 5722 H 529.141 1.50981 2.58892 0
M  V30 5723 H 526.702 0.938008 1.31958 0
M  V30 5724 H 528.694 -0.588918 4.00392 0
M  V30 5725 H 527.264 -0.908967 2.99093 0
M  V30 5726 H 526.484 1.48762 3.65053 0
M  V30 5727 H 527.772 1.4791 4.86827 0
M  V30 5728 H 527.17 -1.65574 5.40927 0
M  V30 5729 H 525.727 -1.53692 6.33421 0
M  V30 5730 N 529.16 -1.33526 0.837174 0
M  V30 5731 C 530.576 -1.50727 0.524743 0
M  V30 5732 C 530.776 -1.77792 -0.948279 0
M  V30 5733 O 529.832 -1.83719 -1.73216 0
M  V30 5734 C 531.145 -2.66299 1.39661 0
M  V30 5735 C 532.693 -2.80183 1.39521 0
M  V30 5736 C 533.168 -3.98815 2.25189 0
M  V30 5737 N 534.659 -4.06047 2.2289 0
M  V30 5738 C 535.394 -4.97032 2.85915 0
M  V30 5739 N 534.89 -5.93143 3.57985 0
M  V30 5740 N 536.683 -4.90015 2.75394 0
M  V30 5741 H 528.834 -1.1422 1.79074 0
M  V30 5742 H 531.097 -0.561399 0.763894 0
M  V30 5743 H 530.803 -2.52974 2.4433 0
M  V30 5744 H 530.677 -3.61663 1.07145 0
M  V30 5745 H 533.064 -2.92942 0.356253 0
M  V30 5746 H 533.145 -1.85586 1.76044 0
M  V30 5747 H 532.789 -3.86817 3.29143 0
M  V30 5748 H 532.719 -4.92654 1.86009 0
M  V30 5749 H 535.21 -3.37262 1.70478 0
M  V30 5750 H 535.523 -6.59227 4.03286 0
M  V30 5751 H 533.868 -5.93223 3.62093 0
M  V30 5752 H 537.059 -4.13894 2.18654 0
M  V30 5753 H 537.232 -5.60724 3.24796 0
M  V30 5754 N 530.638 -0.59345 -1.46 0
M  V30 5755 C 531.601 0.123538 -2.28867 0
M  V30 5756 C 532.601 0.808628 -1.38989 0
M  V30 5757 O 533.791 0.658945 -1.61256 0
M  V30 5758 C 530.923 1.1847 -3.19653 0
M  V30 5759 H 532.116 -0.604843 -2.93737 0
M  V30 5760 H 529.669 -0.351875 -1.52288 0
M  V30 5761 H 530.404 1.94431 -2.59552 0
M  V30 5762 H 530.189 0.69783 -3.8584 0
M  V30 5763 H 531.679 1.68726 -3.81997 0
M  V30 5764 N 532.116 1.54067 -0.331816 0
M  V30 5765 C 533.362 2.01012 0.268667 0
M  V30 5766 C 533.695 1.2195 1.51136 0
M  V30 5767 O 532.97 0.303972 1.9211 0
M  V30 5768 C 533.253 3.55158 0.59456 0
M  V30 5769 C 533.106 4.4494 -0.659409 0
M  V30 5770 C 534.425 4.16939 1.4089 0
M  V30 5771 H 531.544 0.730698 0.0961756 0
M  V30 5772 H 534.186 1.84593 -0.450031 0
M  V30 5773 H 532.336 3.6928 1.20685 0
M  V30 5774 H 534.008 4.42675 -1.29756 0
M  V30 5775 H 532.251 4.1428 -1.28665 0
M  V30 5776 H 532.922 5.50643 -0.386804 0
M  V30 5777 H 535.398 4.06443 0.891272 0
M  V30 5778 H 534.274 5.24889 1.60569 0
M  V30 5779 H 534.535 3.70798 2.40752 0
M  V30 5780 N 533.594 0.0601682 1.57485 0
M  V30 5781 C 534.84 -0.612501 1.93329 0
M  V30 5782 C 535.173 -1.6996 0.939526 0
M  V30 5783 O 534.448 -1.94472 -0.0330957 0
M  V30 5784 C 534.731 -1.20025 3.39508 0
M  V30 5785 C 534.584 -0.12059 4.49638 0
M  V30 5786 C 535.903 -2.10923 3.86264 0
M  V30 5787 H 533.022 -0.221185 0.703027 0
M  V30 5788 H 535.664 0.123768 1.89596 0
M  V30 5789 H 533.814 -1.82774 3.42821 0
M  V30 5790 H 535.486 0.51185 4.58452 0
M  V30 5791 H 533.729 0.550251 4.30296 0
M  V30 5792 H 534.4 -0.572019 5.49028 0
M  V30 5793 H 536.876 -1.58124 3.84884 0
M  V30 5794 H 535.752 -2.48987 4.8918 0
M  V30 5795 H 536.013 -3.01292 3.23536 0
M  V30 5796 N 535.072 -1.5615 -0.213296 0
M  V30 5797 C 536.3 -1.83638 -0.953139 0
M  V30 5798 C 536.715 -0.640362 -1.77609 0
M  V30 5799 O 536.072 0.391071 -1.78261 0
M  V30 5800 C 536.123 -3.09735 -1.86405 0
M  V30 5801 O 535.844 -4.24723 -1.07435 0
M  V30 5802 C 537.345 -3.5027 -2.71709 0
M  V30 5803 H 534.565 -0.610263 -0.278962 0
M  V30 5804 H 537.109 -2.03247 -0.226035 0
M  V30 5805 H 535.264 -2.92077 -2.545 0
M  V30 5806 H 535.678 -4.9641 -1.69343 0
M  V30 5807 H 537.152 -4.41515 -3.31313 0
M  V30 5808 H 537.629 -2.72406 -3.44516 0
M  V30 5809 H 538.235 -3.70396 -2.09015 0
M  V30 5810 N 536.55 0.480323 -1.50102 0
M  V30 5811 C 537.46 1.60547 -1.71061 0
M  V30 5812 C 538.476 1.63564 -0.593529 0
M  V30 5813 O 539.652 1.81604 -0.870751 0
M  V30 5814 C 536.717 2.96814 -1.79171 0
M  V30 5815 C 535.778 3.04259 -3.02861 0
M  V30 5816 C 535.011 4.34027 -3.10574 0
M  V30 5817 O 535.234 5.24009 -2.25323 0
M  V30 5818 O 534.168 4.46873 -4.03223 0
M  V30 5819 H 537.994 1.45788 -2.6642 0
M  V30 5820 H 535.579 0.658838 -1.34088 0
M  V30 5821 H 537.461 3.77765 -1.86738 0
M  V30 5822 H 536.136 3.11791 -0.869947 0
M  V30 5823 H 535.043 2.22419 -3.008 0
M  V30 5824 H 536.376 2.94216 -3.94586 0
M  V30 5825 N 538.028 1.39524 0.732853 0
M  V30 5826 C 539.253 1.40329 1.52717 0
M  V30 5827 C 539.678 0.000286574 1.881 0
M  V30 5828 O 539.036 -0.987262 1.52062 0
M  V30 5829 C 539.084 2.28464 2.78992 0
M  V30 5830 O 538.188 1.716 3.75003 0
M  V30 5831 H 537.529 0.47778 0.461109 0
M  V30 5832 H 540.059 1.83546 0.903996 0
M  V30 5833 H 540.069 2.43051 3.27705 0
M  V30 5834 H 538.744 3.30425 2.52572 0
M  V30 5835 H 537.321 1.66267 3.33781 0
M  V30 5836 N 539.506 -0.963266 1.24736 0
M  V30 5837 C 540.731 -1.74699 1.11781 0
M  V30 5838 C 541.156 -1.85267 -0.325258 0
M  V30 5839 O 540.514 -1.32681 -1.23553 0
M  V30 5840 C 540.562 -3.14322 1.76731 0
M  V30 5841 O 539.666 -3.99043 1.04109 0
M  V30 5842 H 539.007 -0.53684 0.390767 0
M  V30 5843 H 541.537 -1.20801 1.65131 0
M  V30 5844 H 541.547 -3.64824 1.82668 0
M  V30 5845 H 540.222 -3.05946 2.81726 0
M  V30 5846 H 538.799 -3.5752 1.05991 0
M  V30 5847 N 540.985 -1.06182 -1.16461 0
M  V30 5848 C 541.915 -0.692861 -2.22984 0
M  V30 5849 C 542.896 0.314122 -1.67174 0
M  V30 5850 O 544.081 0.189499 -1.93273 0
M  V30 5851 C 541.211 -0.07732 -3.47214 0
M  V30 5852 C 540.165 -1.01015 -4.15909 0
M  V30 5853 C 539.491 -0.257973 -5.34077 0
M  V30 5854 C 540.791 -2.33868 -4.67015 0
M  V30 5855 H 542.485 -1.58343 -2.54102 0
M  V30 5856 H 540.031 -0.76279 -1.22137 0
M  V30 5857 H 541.984 0.19266 -4.20959 0
M  V30 5858 H 540.708 0.848254 -3.15392 0
M  V30 5859 H 539.367 -1.26486 -3.44088 0
M  V30 5860 H 539.015 0.670684 -4.98509 0
M  V30 5861 H 538.715 -0.879638 -5.80979 0
M  V30 5862 H 540.239 0.00448788 -6.106 0
M  V30 5863 H 541.653 -2.1279 -5.32347 0
M  V30 5864 H 540.05 -2.91522 -5.24533 0
M  V30 5865 H 541.12 -2.97019 -3.83286 0
M  V30 5866 N 542.463 1.3308 -0.844243 0
M  V30 5867 C 543.693 2.01515 -0.455541 0
M  V30 5868 C 544.101 1.63655 0.949406 0
M  V30 5869 O 543.444 0.84848 1.62931 0
M  V30 5870 C 543.506 3.55967 -0.502801 0
M  V30 5871 C 543.17 4.17222 -1.86481 0
M  V30 5872 C 544.167 4.36205 -2.8288 0
M  V30 5873 C 541.852 4.53528 -2.15911 0
M  V30 5874 C 543.846 4.90649 -4.06869 0
M  V30 5875 C 541.533 5.07679 -3.40155 0
M  V30 5876 C 542.531 5.26186 -4.35451 0
M  V30 5877 O 542.219 5.79183 -5.57496 0
M  V30 5878 H 541.951 0.65199 -0.178565 0
M  V30 5879 H 544.505 1.70867 -1.1399 0
M  V30 5880 H 542.735 3.85965 0.23836 0
M  V30 5881 H 544.424 4.05688 -0.131169 0
M  V30 5882 H 545.19 4.085 -2.61444 0
M  V30 5883 H 541.069 4.38414 -1.42528 0
M  V30 5884 H 544.613 5.0501 -4.81259 0
M  V30 5885 H 540.51 5.34815 -3.61446 0
M  V30 5886 H 541.278 5.97591 -5.5931 0
M  V30 5887 N 543.941 0.601185 1.45683 0
M  V30 5888 C 545.189 0.0936957 2.01883 0
M  V30 5889 C 545.51 -1.2779 1.47291 0
M  V30 5890 O 544.78 -1.84279 0.664691 0
M  V30 5891 H 543.36 0.0316466 0.746329 0
M  V30 5892 H 546.022 0.781137 1.78562 0
M  V30 5893 H 545.118 0.0386297 3.12076 0
M  V30 5894 N 545.419 -1.53889 0.339982 0
M  V30 5895 C 546.329 -2.28604 -0.526988 0
M  V30 5896 C 547.345 -1.33578 -1.11503 0
M  V30 5897 O 548.521 -1.66612 -1.13148 0
M  V30 5898 C 545.586 -3.04164 -1.66389 0
M  V30 5899 C 544.647 -4.14809 -1.10599 0
M  V30 5900 C 543.88 -4.86756 -2.18871 0
M  V30 5901 O 544.103 -4.58343 -3.39526 0
M  V30 5902 O 543.037 -5.73289 -1.83366 0
M  V30 5903 H 546.863 -3.03594 0.0802707 0
M  V30 5904 H 544.448 -1.4903 0.105141 0
M  V30 5905 H 546.33 -3.51427 -2.32544 0
M  V30 5906 H 545.005 -2.32035 -2.25703 0
M  V30 5907 H 543.912 -3.71857 -0.409067 0
M  V30 5908 H 545.245 -4.89029 -0.557771 0
M  V30 5909 N 546.897 -0.0685191 -1.57451 0
M  V30 5910 C 547.847 0.909895 -2.09057 0
M  V30 5911 C 548.831 1.26088 -0.999528 0
M  V30 5912 O 550.023 1.24041 -1.26265 0
M  V30 5913 C 547.152 2.17863 -2.65312 0
M  V30 5914 C 546.238 1.85427 -3.81415 0
M  V30 5915 N 546.629 1.23426 -4.9051 0
M  V30 5916 C 544.927 2.15196 -3.90649 0
M  V30 5917 C 545.628 1.09008 -5.71395 0
M  V30 5918 N 544.604 1.59871 -5.1956 0
M  V30 5919 H 548.406 0.426145 -2.90794 0
M  V30 5920 H 545.92 0.135462 -1.61834 0
M  V30 5921 H 547.917 2.88872 -3.00597 0
M  V30 5922 H 546.577 2.66829 -1.85021 0
M  V30 5923 H 547.588 0.904305 -5.09944 0
M  V30 5924 H 544.265 2.66562 -3.21327 0
M  V30 5925 H 545.655 0.607305 -6.6915 0
M  V30 5926 N 548.375 1.56261 0.205012 0
M  V30 5927 C 549.305 1.96779 1.257 0
M  V30 5928 C 550.286 0.838309 1.48008 0
M  V30 5929 O 551.471 1.10189 1.59913 0
M  V30 5930 C 548.601 2.29876 2.60335 0
M  V30 5931 C 547.555 3.45469 2.52656 0
M  V30 5932 C 546.881 3.64215 3.91473 0
M  V30 5933 C 548.181 4.79954 2.06014 0
M  V30 5934 H 549.875 2.84904 0.920338 0
M  V30 5935 H 547.421 1.37072 0.441277 0
M  V30 5936 H 549.374 2.56814 3.34102 0
M  V30 5937 H 548.098 1.38622 2.95722 0
M  V30 5938 H 546.757 3.18605 1.81345 0
M  V30 5939 H 546.405 2.70309 4.24196 0
M  V30 5940 H 546.105 4.41973 3.87213 0
M  V30 5941 H 547.629 3.93519 4.66878 0
M  V30 5942 H 549.043 5.05989 2.69533 0
M  V30 5943 H 547.44 5.61111 2.12777 0
M  V30 5944 H 548.51 4.74201 1.01297 0
M  V30 5945 N 549.853 -0.472356 1.50355 0
M  V30 5946 C 550.816 -1.5529 1.68576 0
M  V30 5947 C 551.816 -1.50863 0.556511 0
M  V30 5948 O 553.006 -1.53505 0.823516 0
M  V30 5949 C 550.138 -2.94921 1.70981 0
M  V30 5950 H 551.331 -1.40451 2.64978 0
M  V30 5951 H 548.884 -0.698645 1.39816 0
M  V30 5952 H 549.619 -3.15204 0.762675 0
M  V30 5953 H 549.404 -2.99541 2.53017 0
M  V30 5954 H 550.894 -3.73372 1.87037 0
M  V30 5955 N 551.331 -1.39911 -0.725443 0
M  V30 5956 C 552.263 -1.35301 -1.85003 0
M  V30 5957 C 553.276 -0.260102 -1.60709 0
M  V30 5958 O 554.465 -0.519749 -1.70766 0
M  V30 5959 C 551.565 -1.08039 -3.21218 0
M  V30 5960 C 550.738 -2.28793 -3.7279 0
M  V30 5961 C 549.797 -1.97841 -4.87591 0
M  V30 5962 O 548.823 -2.70616 -5.00755 0
M  V30 5963 N 550.025 -0.950367 -5.72668 0
M  V30 5964 H 552.79 -2.32218 -1.89459 0
M  V30 5965 H 550.351 -1.34137 -0.90658 0
M  V30 5966 H 552.343 -0.853354 -3.95601 0
M  V30 5967 H 550.913 -0.198229 -3.11971 0
M  V30 5968 H 550.133 -2.67388 -2.8965 0
M  V30 5969 H 551.421 -3.09317 -4.03981 0
M  V30 5970 H 550.819 -0.347436 -5.64632 0
M  V30 5971 H 549.376 -0.783232 -6.47077 0
M  V30 5972 N 552.809 0.956637 -1.25245 0
M  V30 5973 C 554.22 1.51569 -1.09012 0
M  V30 5974 C 554.571 1.93322 0.334813 0
M  V30 5975 O 553.696 1.78421 1.22454 0
M  V30 5976 C 554.291 2.75444 -1.97271 0
M  V30 5977 C 552.85 3.27669 -1.8523 0
M  V30 5978 C 551.997 2.00517 -1.91542 0
M  V30 5979 H 554.948 0.773746 -1.3856 0
M  V30 5980 H 554.969 3.4919 -1.51151 0
M  V30 5981 H 554.481 2.45024 -3.00973 0
M  V30 5982 H 552.582 3.62914 -0.844045 0
M  V30 5983 H 552.695 3.9582 -2.69932 0
M  V30 5984 H 551.059 2.15727 -1.35404 0
M  V30 5985 H 551.842 1.72448 -2.96844 0
M  V30 5986 N 554.287 1.06798 1.15896 0
M  V30 5987 C 555.535 0.786211 1.8618 0
M  V30 5988 C 555.856 -0.689547 1.82401 0
M  V30 5989 O 555.126 -1.49913 1.26107 0
M  V30 5990 H 553.706 0.287843 0.689315 0
M  V30 5991 H 556.368 1.35055 1.40521 0
M  V30 5992 H 555.464 1.1157 2.91477 0
M  V30 5993 N 555.766 -1.3263 0.851289 0
M  V30 5994 C 556.994 -2.01563 0.466899 0
M  V30 5995 C 557.409 -1.63996 -0.935447 0
M  V30 5996 O 556.766 -0.85957 -1.6099 0
M  V30 5997 C 556.817 -3.56613 0.592433 0
M  V30 5998 O 556.538 -3.92828 1.93954 0
M  V30 5999 C 558.039 -4.42818 0.206612 0
M  V30 6000 H 555.259 -0.645307 0.183902 0
M  V30 6001 H 557.803 -1.69285 1.1473 0
M  V30 6002 H 555.958 -3.87379 -0.0401936 0
M  V30 6003 H 556.372 -4.87545 1.9339 0
M  V30 6004 H 557.846 -5.50918 0.345462 0
M  V30 6005 H 558.323 -4.30844 -0.85264 0
M  V30 6006 H 558.929 -4.17434 0.814176 0
M  V30 6007 N 557.244 -0.608902 -1.45362 0
M  V30 6008 C 558.174 0.0964526 -2.33301 0
M  V30 6009 C 559.155 0.857444 -1.46908 0
M  V30 6010 O 560.34 0.827735 -1.75676 0
M  V30 6011 C 557.47 1.09354 -3.29635 0
M  V30 6012 C 556.424 0.445676 -4.25673 0
M  V30 6013 C 555.75 1.5511 -5.11708 0
M  V30 6014 C 557.05 -0.633972 -5.18438 0
M  V30 6015 H 558.744 -0.637829 -2.92527 0
M  V30 6016 H 556.29 -0.308178 -1.40664 0
M  V30 6017 H 558.243 1.59556 -3.90025 0
M  V30 6018 H 556.967 1.85843 -2.6857 0
M  V30 6019 H 555.626 -0.0354897 -3.66583 0
M  V30 6020 H 555.274 2.30631 -4.4701 0
M  V30 6021 H 554.974 1.12311 -5.76767 0
M  V30 6022 H 556.498 2.05537 -5.74967 0
M  V30 6023 H 557.912 -0.215974 -5.72893 0
M  V30 6024 H 556.309 -0.983789 -5.91981 0
M  V30 6025 H 557.379 -1.51005 -4.60788 0
M  V30 6026 N 558.722 1.53707 -0.348139 0
M  V30 6027 C 559.669 2.25173 0.506518 0
M  V30 6028 C 560.639 1.25174 1.09182 0
M  V30 6029 O 561.824 1.53917 1.12757 0
M  V30 6030 C 558.964 3.03141 1.64923 0
M  V30 6031 C 558.077 4.18002 1.0908 0
M  V30 6032 C 557.212 4.83447 2.20119 0
M  V30 6033 C 556.251 5.90369 1.61651 0
M  V30 6034 N 555.388 6.49575 2.66451 0
M  V30 6035 H 560.228 2.97799 -0.109452 0
M  V30 6036 H 557.765 1.46953 -0.0657866 0
M  V30 6037 H 559.723 3.46607 2.32205 0
M  V30 6038 H 558.353 2.32803 2.23612 0
M  V30 6039 H 557.405 3.79145 0.308783 0
M  V30 6040 H 558.717 4.94892 0.623178 0
M  V30 6041 H 557.871 5.30008 2.95257 0
M  V30 6042 H 556.61 4.05991 2.70227 0
M  V30 6043 H 555.615 5.43186 0.850209 0
M  V30 6044 H 556.84 6.69735 1.1239 0
M  V30 6045 H 554.786 5.74981 3.15805 0
M  V30 6046 H 554.703 7.21952 2.24325 0
M  V30 6047 H 555.971 7.00789 3.41344 0
M  V30 6048 N 560.2 0.0768682 1.57412 0
M  V30 6049 C 561.11 -0.903207 2.16516 0
M  V30 6050 C 562.126 -1.32341 1.12968 0
M  V30 6051 O 563.302 -1.39507 1.45258 0
M  V30 6052 C 560.367 -2.1508 2.71922 0
M  V30 6053 C 559.428 -1.78653 3.90361 0
M  V30 6054 C 558.661 -2.97465 4.43114 0
M  V30 6055 O 558.884 -4.11638 3.94854 0
M  V30 6056 O 557.818 -2.76987 5.3438 0
M  V30 6057 H 561.644 -0.430427 3.00634 0
M  V30 6058 H 559.229 -0.146485 1.4868 0
M  V30 6059 H 561.111 -2.8823 3.07411 0
M  V30 6060 H 559.786 -2.61446 1.9086 0
M  V30 6061 H 558.693 -1.0274 3.59716 0
M  V30 6062 H 560.026 -1.37066 4.7273 0
M  V30 6063 N 561.678 -1.56367 -0.196722 0
M  V30 6064 C 562.924 -1.80796 -0.918725 0
M  V30 6065 C 563.257 -0.650645 -1.82976 0
M  V30 6066 O 562.532 0.348889 -1.91345 0
M  V30 6067 C 562.815 -3.15472 -1.73636 0
M  V30 6068 C 562.668 -4.41693 -0.85015 0
M  V30 6069 C 563.987 -3.46824 -2.70927 0
M  V30 6070 H 561.106 -0.657702 -0.332561 0
M  V30 6071 H 563.748 -1.89086 -0.186186 0
M  V30 6072 H 561.898 -3.08536 -2.36088 0
M  V30 6073 H 563.57 -4.60673 -0.240459 0
M  V30 6074 H 561.813 -4.33517 -0.156785 0
M  V30 6075 H 562.484 -5.32419 -1.45719 0
M  V30 6076 H 564.96 -3.54049 -2.18607 0
M  V30 6077 H 563.836 -4.4218 -3.25219 0
M  V30 6078 H 564.097 -2.70236 -3.49893 0
M  V30 6079 N 563.156 0.464375 -1.50603 0
M  V30 6080 C 564.402 1.21485 -1.63135 0
M  V30 6081 C 564.757 1.89538 -0.33063 0
M  V30 6082 O 564.05 1.79432 0.671903 0
M  V30 6083 C 564.244 2.278 -2.75394 0
M  V30 6084 C 564.073 1.70178 -4.16257 0
M  V30 6085 C 562.843 1.49854 -4.82568 0
M  V30 6086 C 565.041 1.19298 -5.00272 0
M  V30 6087 N 563.023 0.875458 -6.07626 0
M  V30 6088 C 564.394 0.693527 -6.16109 0
M  V30 6089 C 566.449 1.08216 -4.85998 0
M  V30 6090 C 565.152 0.0941808 -7.19238 0
M  V30 6091 C 567.178 0.496745 -5.8931 0
M  V30 6092 C 566.54 0.00770448 -7.044 0
M  V30 6093 H 562.639 0.433184 -0.651057 0
M  V30 6094 H 565.223 0.515748 -1.87745 0
M  V30 6095 H 563.394 2.95129 -2.52495 0
M  V30 6096 H 565.126 2.94814 -2.77249 0
M  V30 6097 H 561.881 1.75269 -4.39975 0
M  V30 6098 H 562.305 0.582135 -6.74493 0
M  V30 6099 H 566.947 1.44617 -3.97298 0
M  V30 6100 H 564.665 -0.28202 -8.07608 0
M  V30 6101 H 568.251 0.413275 -5.8033 0
M  V30 6102 H 567.131 -0.438188 -7.82975 0
M  V30 6103 N 564.634 1.40294 0.718013 0
M  V30 6104 C 565.859 1.41941 1.5122 0
M  V30 6105 C 566.284 0.0202371 1.88089 0
M  V30 6106 O 565.642 -0.971078 1.53101 0
M  V30 6107 C 565.69 2.3141 2.76554 0
M  V30 6108 O 564.794 1.75567 3.73162 0
M  V30 6109 H 564.135 0.482644 0.456016 0
M  V30 6110 H 566.665 1.84494 0.884478 0
M  V30 6111 H 566.675 2.46513 3.25108 0
M  V30 6112 H 565.35 3.33085 2.49053 0
M  V30 6113 H 563.927 1.69798 3.31999 0
M  V30 6114 N 566.112 -0.949982 1.2575 0
M  V30 6115 C 567.044 -2.05088 1.02331 0
M  V30 6116 C 568.057 -1.62795 -0.0133247 0
M  V30 6117 O 569.246 -1.77067 0.225759 0
M  V30 6118 C 566.346 -3.34794 0.525924 0
M  V30 6119 C 565.519 -4.05903 1.62978 0
M  V30 6120 C 564.578 -5.1388 1.13196 0
M  V30 6121 O 563.604 -5.39072 1.82729 0
M  V30 6122 N 564.806 -5.80495 -0.0242926 0
M  V30 6123 H 567.571 -2.25747 1.97125 0
M  V30 6124 H 565.132 -1.11886 1.17018 0
M  V30 6125 H 567.124 -4.04312 0.177263 0
M  V30 6126 H 565.694 -3.10872 -0.328202 0
M  V30 6127 H 564.914 -3.3042 2.1498 0
M  V30 6128 H 566.202 -4.50166 2.37124 0
M  V30 6129 H 565.6 -5.62454 -0.605184 0
M  V30 6130 H 564.157 -6.51043 -0.313947 0
M  V30 6131 N 567.59 -1.07411 -1.15328 0
M  V30 6132 C 568.52 -0.716472 -2.22236 0
M  V30 6133 C 569.501 0.296373 -1.67498 0
M  V30 6134 O 570.686 0.168989 -1.93463 0
M  V30 6135 C 567.816 -0.114142 -3.47112 0
M  V30 6136 C 566.77 -1.05421 -4.14814 0
M  V30 6137 C 566.096 -0.314604 -5.33774 0
M  V30 6138 C 567.396 -2.38808 -4.64508 0
M  V30 6139 H 569.09 -1.61029 -2.52408 0
M  V30 6140 H 566.636 -0.775702 -1.21321 0
M  V30 6141 H 568.589 0.148001 -4.2114 0
M  V30 6142 H 567.313 0.814755 -3.16274 0
M  V30 6143 H 565.972 -1.30128 -3.42728 0
M  V30 6144 H 565.62 0.617772 -4.99192 0
M  V30 6145 H 565.32 -0.941209 -5.80013 0
M  V30 6146 H 566.844 -0.0602747 -6.1057 0
M  V30 6147 H 568.258 -2.18424 -5.3006 0
M  V30 6148 H 566.655 -2.97069 -5.21412 0
M  V30 6149 H 567.725 -3.01067 -3.80114 0
M  V30 6150 N 569.068 1.32177 -0.85831 0
M  V30 6151 C 570 2.27688 -0.262835 0
M  V30 6152 C 571.013 1.52588 0.567513 0
M  V30 6153 O 572.202 1.74156 0.391407 0
M  V30 6154 C 569.302 3.32668 0.646937 0
M  V30 6155 C 568.475 4.37148 -0.148372 0
M  V30 6156 C 567.534 5.21686 0.687728 0
M  V30 6157 O 566.56 5.69074 0.119934 0
M  V30 6158 N 567.762 5.44892 2.00182 0
M  V30 6159 H 570.527 2.79426 -1.08356 0
M  V30 6160 H 568.088 1.45076 -0.718647 0
M  V30 6161 H 570.08 3.86134 1.2117 0
M  V30 6162 H 568.65 2.81061 1.36834 0
M  V30 6163 H 567.87 3.83915 -0.894572 0
M  V30 6164 H 569.158 5.04038 -0.694514 0
M  V30 6165 H 568.556 5.08128 2.4864 0
M  V30 6166 H 567.113 6.0134 2.51463 0
M  V30 6167 N 570.547 0.616602 1.45037 0
M  V30 6168 C 571.772 0.120192 2.07051 0
M  V30 6169 C 572.197 -1.19008 1.45666 0
M  V30 6170 O 571.555 -1.7267 0.552692 0
M  V30 6171 C 571.603 0.00354901 3.606 0
M  V30 6172 O 570.707 -1.04431 3.98958 0
M  V30 6173 H 570.048 0.0781599 0.659384 0
M  V30 6174 H 572.578 0.849167 1.86146 0
M  V30 6175 H 572.588 -0.191754 4.07549 0
M  V30 6176 H 571.263 0.960239 4.04663 0
M  V30 6177 H 569.84 -0.824749 3.63665 0
M  V30 6178 N 572.025 -1.5352 0.356285 0
M  V30 6179 C 573.274 -2.00298 -0.237373 0
M  V30 6180 C 573.587 -1.24784 -1.50627 0
M  V30 6181 O 574.793 -1.62103 -2.17795 0
M  V30 6182 C 573.249 -3.56771 -0.473545 0
M  V30 6183 C 572.857 -4.41154 0.780183 0
M  V30 6184 C 574.601 -4.1193 -1.02537 0
M  V30 6185 C 572.508 -5.89161 0.514108 0
M  V30 6186 H 571.438 -0.748307 -0.092478 0
M  V30 6187 H 574.089 -1.77283 0.473588 0
M  V30 6188 H 572.471 -3.75902 -1.24553 0
M  V30 6189 H 573.645 -4.33797 1.55425 0
M  V30 6190 H 571.96 -3.97052 1.25455 0
M  V30 6191 H 574.557 -5.20133 -1.2396 0
M  V30 6192 H 574.9 -3.65943 -1.98473 0
M  V30 6193 H 575.433 -3.96561 -0.313775 0
M  V30 6194 H 572.172 -6.39408 1.44355 0
M  V30 6195 H 571.692 -5.9939 -0.221632 0
M  V30 6196 H 573.371 -6.46857 0.136122 0
M  V30 6197 N 573.503 -0.0852151 -1.57369 0
M  V30 6198 C 574.728 0.592872 -1.98746 0
M  V30 6199 C 575.153 1.61538 -0.963689 0
M  V30 6200 O 574.511 1.81168 0.069071 0
M  V30 6201 C 574.559 1.22599 -3.39119 0
M  V30 6202 O 573.663 2.34185 -3.39457 0
M  V30 6203 H 573.004 0.151314 -0.646529 0
M  V30 6204 H 575.534 -0.163703 -2.03944 0
M  V30 6205 H 575.544 1.56965 -3.76598 0
M  V30 6206 H 574.219 0.476831 -4.13158 0
M  V30 6207 H 572.796 2.01512 -3.13763 0
M  V30 6208 N 574.981 1.5647 0.188427 0
M  V30 6209 C 575.929 1.95971 1.25293 0
M  V30 6210 C 576.923 0.846047 1.4676 0
M  V30 6211 O 578.129 1.03109 1.47542 0
M  V30 6212 H 574.504 0.623253 0.420784 0
M  V30 6213 H 576.475 2.84731 0.892792 0
M  V30 6214 C 575.224 2.32116 2.58877 0
M  V30 6215 H 574.547 3.17341 2.43176 0
M  V30 6216 H 575.987 2.63613 3.3209 0
M  V30 6217 C 574.446 1.15823 3.16365 0
M  V30 6218 O 574.976 0.436785 3.99318 0
M  V30 6219 N 573.182 0.933278 2.75206 0
M  V30 6220 H 572.729 1.52169 2.07852 0
M  V30 6221 H 572.687 0.156976 3.14008 0
M  V30 6222 N 576.459 -0.456382 1.50847 0
M  V30 6223 C 577.689 -1.22848 1.66108 0
M  V30 6224 C 578.097 -1.85936 0.349897 0
M  V30 6225 O 577.44 -1.70664 -0.679665 0
M  V30 6226 C 577.502 -2.36722 2.70561 0
M  V30 6227 C 577.166 -1.94154 4.13707 0
M  V30 6228 C 578.163 -1.4557 4.99105 0
M  V30 6229 C 575.848 -2.02426 4.59705 0
M  V30 6230 C 577.842 -1.0582 6.28555 0
M  V30 6231 C 575.529 -1.62287 5.89157 0
M  V30 6232 C 576.527 -1.14064 6.73408 0
M  V30 6233 O 576.215 -0.744873 8.00442 0
M  V30 6234 H 575.947 -0.377105 0.561042 0
M  V30 6235 H 578.501 -0.549431 1.97915 0
M  V30 6236 H 576.731 -3.07844 2.34027 0
M  V30 6237 H 578.42 -2.98646 2.74892 0
M  V30 6238 H 579.186 -1.38589 4.64777 0
M  V30 6239 H 575.065 -2.38908 3.94264 0
M  V30 6240 H 578.609 -0.6811 6.94267 0
M  V30 6241 H 574.506 -1.68932 6.23003 0
M  V30 6242 H 575.274 -0.87242 8.13837 0
M  V30 6243 N 577.937 -1.40673 -0.710563 0
M  V30 6244 C 578.867 -1.44095 -1.83736 0
M  V30 6245 C 579.848 -0.301286 -1.67411 0
M  V30 6246 O 581.033 -0.510618 -1.87367 0
M  V30 6247 C 578.163 -1.30773 -3.21738 0
M  V30 6248 C 577.117 -2.42395 -3.52745 0
M  V30 6249 C 576.443 -2.14147 -4.89944 0
M  V30 6250 C 577.743 -3.84738 -3.53234 0
M  V30 6251 H 579.437 -2.38396 -1.81129 0
M  V30 6252 H 576.983 -1.14746 -0.870017 0
M  V30 6253 H 578.936 -1.31783 -4.00264 0
M  V30 6254 H 577.66 -0.329507 -3.24934 0
M  V30 6255 H 576.319 -2.40643 -2.76562 0
M  V30 6256 H 575.967 -1.14703 -4.89747 0
M  V30 6257 H 575.667 -2.88934 -5.11655 0
M  V30 6258 H 577.191 -2.16848 -5.70797 0
M  V30 6259 H 578.605 -3.88286 -4.2179 0
M  V30 6260 H 577.002 -4.59085 -3.86473 0
M  V30 6261 H 578.072 -4.13962 -2.52514 0
M  V30 6262 N 579.415 0.9433 -1.26252 0
M  V30 6263 C 580.347 2.04542 -1.03417 0
M  V30 6264 C 581.36 1.62799 0.0046911 0
M  V30 6265 O 582.549 1.76944 -0.235146 0
M  V30 6266 C 579.649 3.34511 -0.543671 0
M  V30 6267 C 578.822 4.05033 -1.65128 0
M  V30 6268 C 577.881 5.13273 -1.1592 0
M  V30 6269 O 576.907 5.38095 -1.85586 0
M  V30 6270 N 578.109 5.805 -0.00649279 0
M  V30 6271 H 580.874 2.24699 -1.98319 0
M  V30 6272 H 578.435 1.11264 -1.1761 0
M  V30 6273 H 580.427 4.04212 -0.198703 0
M  V30 6274 H 578.997 3.11042 0.311711 0
M  V30 6275 H 578.217 3.29275 -2.16729 0
M  V30 6276 H 579.505 4.48903 -2.39508 0
M  V30 6277 H 578.903 5.62767 0.575347 0
M  V30 6278 H 577.46 6.51201 0.279416 0
M  V30 6279 N 580.893 1.08022 1.14757 0
M  V30 6280 C 582.121 0.828847 1.89572 0
M  V30 6281 C 582.536 -0.618621 1.78377 0
M  V30 6282 O 581.893 -1.42482 1.1404 0
M  V30 6283 C 581.944 1.23677 3.39685 0
M  V30 6284 O 581.665 2.62746 3.50566 0
M  V30 6285 C 583.166 1.01569 4.31507 0
M  V30 6286 H 580.386 0.299196 0.600602 0
M  V30 6287 H 582.93 1.43846 1.45357 0
M  V30 6288 H 581.085 0.671347 3.81539 0
M  V30 6289 H 581.499 2.79573 4.43778 0
M  V30 6290 H 582.973 1.35055 5.35223 0
M  V30 6291 H 583.45 -0.0475433 4.39174 0
M  V30 6292 H 584.056 1.56636 3.95405 0
M  V30 6293 N 582.371 -1.3172 0.865308 0
M  V30 6294 C 583.303 -2.27545 0.274906 0
M  V30 6295 C 584.316 -1.52887 -0.559413 0
M  V30 6296 O 585.505 -1.74361 -0.382166 0
M  V30 6297 C 582.605 -3.33006 -0.629286 0
M  V30 6298 C 581.778 -4.37063 0.171553 0
M  V30 6299 C 580.837 -5.22044 -0.660052 0
M  V30 6300 O 579.863 -5.69129 -0.0897527 0
M  V30 6301 N 581.065 -5.45946 -1.97289 0
M  V30 6302 H 583.83 -2.78848 1.09836 0
M  V30 6303 H 581.391 -1.44693 0.726331 0
M  V30 6304 H 583.383 -3.86772 -1.19121 0
M  V30 6305 H 581.953 -2.81782 -1.35342 0
M  V30 6306 H 581.173 -3.83436 0.914919 0
M  V30 6307 H 582.461 -5.03662 0.721235 0
M  V30 6308 H 581.859 -5.0944 -2.45942 0
M  V30 6309 H 580.416 -6.02665 -2.4827 0
M  V30 6310 N 583.85 -0.624285 -1.44708 0
M  V30 6311 C 585.127 -0.0572781 -1.95516 0
M  V30 6312 C 585.507 1.41516 -1.56641 0
M  V30 6313 O 584.855 2.12614 -0.837111 0
M  V30 6314 C 585.065 -0.272944 -3.47931 0
M  V30 6315 C 586.413 -0.162529 -4.24289 0
M  V30 6316 O 587.437 -0.203946 -3.55616 0
M  V30 6317 O 586.296 -0.0616847 -5.46465 0
M  V30 6318 H 583.389 0.0262219 -0.826584 0
M  V30 6319 H 585.936 -0.695512 -1.54793 0
M  V30 6320 H 584.707 -1.29492 -3.69253 0
M  V30 6321 H 584.331 0.399756 -3.95585 0
M  V30 6322 N 585.328 1.53329 -0.364422 0
M  V30 6323 C 586.26 2.23286 0.517293 0
M  V30 6324 C 587.273 1.24657 1.04711 0
M  V30 6325 O 588.462 1.50887 0.95369 0
M  V30 6326 C 585.562 2.91604 1.72685 0
M  V30 6327 C 584.735 4.1673 1.32873 0
M  V30 6328 C 583.794 4.68269 2.40022 0
M  V30 6329 O 582.82 5.31976 2.02461 0
M  V30 6330 N 584.022 4.45983 3.7159 0
M  V30 6331 H 586.787 2.99588 -0.0819391 0
M  V30 6332 H 584.348 1.60787 -0.189544 0
M  V30 6333 H 586.34 3.22992 2.4384 0
M  V30 6334 H 584.91 2.18763 2.23297 0
M  V30 6335 H 584.13 3.91657 0.447069 0
M  V30 6336 H 585.418 4.98078 1.03902 0
M  V30 6337 H 584.816 3.95077 4.04883 0
M  V30 6338 H 583.373 4.81924 4.38854 0
M  V30 6339 N 586.806 0.0935595 1.57322 0
M  V30 6340 C 588.034 -0.578934 1.98635 0
M  V30 6341 C 588.449 -1.61819 0.972626 0
M  V30 6342 O 587.806 -1.82461 -0.0379638 0
M  V30 6343 C 587.857 -1.22802 3.40003 0
M  V30 6344 O 587.578 -0.230334 4.37494 0
M  V30 6345 C 589.079 -1.98627 3.96311 0
M  V30 6346 H 586.299 -0.155324 0.652775 0
M  V30 6347 H 588.843 0.172393 2.03772 0
M  V30 6348 H 586.998 -1.93029 3.35885 0
M  V30 6349 H 587.412 -0.698649 5.19826 0
M  V30 6350 H 588.886 -2.39405 4.97382 0
M  V30 6351 H 589.363 -2.85151 3.34044 0
M  V30 6352 H 589.969 -1.3322 4.03897 0
M  V30 6353 N 588.284 -1.56567 -0.180126 0
M  V30 6354 C 589.561 -1.7235 -0.924931 0
M  V30 6355 C 589.941 -0.652523 -2.00762 0
M  V30 6356 O 589.289 0.334115 -2.26044 0
M  V30 6357 C 589.499 -3.1523 -1.49771 0
M  V30 6358 C 590.847 -3.75921 -1.97405 0
M  V30 6359 O 591.871 -3.18452 -1.59583 0
M  V30 6360 O 590.73 -4.7681 -2.67048 0
M  V30 6361 H 587.824 -0.703502 -0.434758 0
M  V30 6362 H 590.37 -1.6886 -0.168647 0
M  V30 6363 H 589.142 -3.84656 -0.718027 0
M  V30 6364 H 588.765 -3.23009 -2.31842 0
M  V30 6365 N 589.762 0.448376 -1.51087 0
M  V30 6366 C 590.694 1.56146 -1.67783 0
M  V30 6367 C 591.707 1.52913 -0.55871 0
M  V30 6368 O 592.896 1.57889 -0.83267 0
M  V30 6369 C 589.996 2.95057 -1.66716 0
M  V30 6370 C 589.169 3.22915 -2.95033 0
M  V30 6371 C 588.228 4.41495 -2.86302 0
M  V30 6372 O 587.254 4.40688 -3.60254 0
M  V30 6373 N 588.456 5.44443 -2.014 0
M  V30 6374 H 591.221 1.42232 -2.638 0
M  V30 6375 H 588.782 0.637153 -1.48835 0
M  V30 6376 H 590.774 3.72388 -1.58458 0
M  V30 6377 H 589.344 3.02624 -0.783403 0
M  V30 6378 H 588.564 2.33985 -3.17245 0
M  V30 6379 H 589.852 3.38349 -3.79996 0
M  V30 6380 H 589.25 5.4793 -1.40674 0
M  V30 6381 H 587.807 6.2067 -1.99029 0
M  V30 6382 N 591.24 1.41047 0.703093 0
M  V30 6383 C 592.172 1.38228 1.82827 0
M  V30 6384 C 593.185 0.285637 1.60275 0
M  V30 6385 O 594.374 0.54685 1.69917 0
M  V30 6386 C 591.474 1.13136 3.19458 0
M  V30 6387 C 590.647 2.34695 3.69103 0
M  V30 6388 C 589.706 2.05574 4.84382 0
M  V30 6389 O 588.732 2.78549 4.96386 0
M  V30 6390 N 589.934 1.04135 5.71083 0
M  V30 6391 H 592.699 2.35203 1.85741 0
M  V30 6392 H 590.26 1.35562 0.885125 0
M  V30 6393 H 592.252 0.916183 3.94193 0
M  V30 6394 H 590.822 0.247836 3.11616 0
M  V30 6395 H 590.042 2.71963 2.85359 0
M  V30 6396 H 591.33 3.15705 3.99009 0
M  V30 6397 H 590.728 0.43722 5.64008 0
M  V30 6398 H 589.285 0.886078 6.45749 0
M  V30 6399 N 592.718 -0.936591 1.26751 0
M  V30 6400 C 593.628 -2.06949 1.10496 0
M  V30 6401 C 594.644 -1.7396 0.037271 0
M  V30 6402 O 595.82 -1.99941 0.241944 0
M  V30 6403 C 592.885 -3.38612 0.744491 0
M  V30 6404 C 591.946 -3.85355 1.89209 0
M  V30 6405 C 591.179 -5.10735 1.54873 0
M  V30 6406 O 591.402 -5.68602 0.452546 0
M  V30 6407 O 590.336 -5.52632 2.38499 0
M  V30 6408 H 594.162 -2.23571 2.05547 0
M  V30 6409 H 591.747 -1.05428 1.05855 0
M  V30 6410 H 593.629 -4.17711 0.556396 0
M  V30 6411 H 592.304 -3.23218 -0.176582 0
M  V30 6412 H 591.211 -3.07182 2.13518 0
M  V30 6413 H 592.544 -4.05277 2.79305 0
M  V30 6414 N 594.196 -1.08629 -1.14182 0
M  V30 6415 C 595.159 -0.722027 -2.1753 0
M  V30 6416 C 596.159 0.244305 -1.58933 0
M  V30 6417 O 597.349 0.0235545 -1.74184 0
M  V30 6418 C 594.481 -0.0663966 -3.40835 0
M  V30 6419 H 595.674 -1.63719 -2.51269 0
M  V30 6420 H 593.227 -0.884442 -1.28869 0
M  V30 6421 H 593.962 0.860389 -3.12678 0
M  V30 6422 H 593.747 -0.761598 -3.84632 0
M  V30 6423 H 595.237 0.173346 -4.1724 0
M  V30 6424 N 595.674 1.31259 -0.872281 0
M  V30 6425 C 596.584 2.32221 -0.333255 0
M  V30 6426 C 597.6 1.6481 0.558013 0
M  V30 6427 O 598.776 1.96212 0.454175 0
M  V30 6428 C 595.841 3.43708 0.454479 0
M  V30 6429 C 594.902 4.26774 -0.465024 0
M  V30 6430 C 594.135 5.32937 0.28521 0
M  V30 6431 O 594.358 5.49968 1.513 0
M  V30 6432 O 593.292 6.00834 -0.358126 0
M  V30 6433 H 597.118 2.80252 -1.17016 0
M  V30 6434 H 594.703 1.352 -0.635724 0
M  V30 6435 H 596.585 4.11656 0.900963 0
M  V30 6436 H 595.26 2.97836 1.26789 0
M  V30 6437 H 594.167 3.61571 -0.960055 0
M  V30 6438 H 595.5 4.76217 -1.2441 0
M  V30 6439 N 597.152 0.631951 1.44375 0
M  V30 6440 C 598.398 0.145491 2.02879 0
M  V30 6441 C 598.753 -1.21936 1.48827 0
M  V30 6442 O 598.046 -1.7976 0.663085 0
M  V30 6443 C 598.24 0.0735861 3.57324 0
M  V30 6444 C 598.069 1.42992 4.2636 0
M  V30 6445 C 596.839 2.01691 4.63302 0
M  V30 6446 C 599.037 2.36393 4.56752 0
M  V30 6447 N 597.019 3.30551 5.17309 0
M  V30 6448 C 598.39 3.49869 5.11851 0
M  V30 6449 C 600.445 2.35462 4.38705 0
M  V30 6450 C 599.148 4.6261 5.50803 0
M  V30 6451 C 601.174 3.47268 4.78706 0
M  V30 6452 C 600.536 4.59467 5.33919 0
M  V30 6453 H 596.635 0.0971781 0.775938 0
M  V30 6454 H 599.219 0.835624 1.75856 0
M  V30 6455 H 597.39 -0.585829 3.83957 0
M  V30 6456 H 599.122 -0.421777 4.02496 0
M  V30 6457 H 595.877 1.54627 4.47647 0
M  V30 6458 H 596.301 3.96435 5.48788 0
M  V30 6459 H 600.943 1.49966 3.9531 0
M  V30 6460 H 598.661 5.48813 5.93152 0
M  V30 6461 H 602.247 3.47724 4.66454 0
M  V30 6462 H 601.127 5.44551 5.64299 0
M  V30 6463 N 598.631 -1.53133 0.372548 0
M  V30 6464 C 599.561 -2.28876 -0.462412 0
M  V30 6465 C 600.542 -1.31583 -1.07796 0
M  V30 6466 O 601.727 -1.60461 -1.09389 0
M  V30 6467 C 598.857 -3.08317 -1.59868 0
M  V30 6468 C 597.811 -4.13355 -1.11003 0
M  V30 6469 C 597.137 -4.8092 -2.33708 0
M  V30 6470 C 598.437 -5.21955 -0.18983 0
M  V30 6471 H 600.131 -2.9892 0.169511 0
M  V30 6472 H 597.677 -1.43761 0.0829658 0
M  V30 6473 H 599.63 -3.60055 -2.18949 0
M  V30 6474 H 598.354 -2.35976 -2.25794 0
M  V30 6475 H 597.013 -3.62573 -0.541869 0
M  V30 6476 H 596.661 -4.05144 -2.98106 0
M  V30 6477 H 596.361 -5.51904 -2.01682 0
M  V30 6478 H 597.885 -5.35455 -2.93462 0
M  V30 6479 H 599.299 -5.69153 -0.688319 0
M  V30 6480 H 597.696 -6.00087 0.0398887 0
M  V30 6481 H 598.766 -4.78811 0.766057 0
M  V30 6482 N 600.109 -0.101901 -1.5727 0
M  V30 6483 C 601.355 0.561027 -1.94885 0
M  V30 6484 C 601.688 1.6741 -0.984258 0
M  V30 6485 O 600.963 1.94491 -0.0184767 0
M  V30 6486 C 601.246 1.10982 -3.42571 0
M  V30 6487 C 601.099 0.00133418 -4.498 0
M  V30 6488 C 602.418 2.00608 -3.9172 0
M  V30 6489 H 599.537 0.202467 -0.708644 0
M  V30 6490 H 602.179 -0.173992 -1.89202 0
M  V30 6491 H 600.329 1.73621 -3.47546 0
M  V30 6492 H 602.001 -0.63322 -4.56933 0
M  V30 6493 H 600.244 -0.664143 -4.28686 0
M  V30 6494 H 600.915 0.426253 -5.50352 0
M  V30 6495 H 603.391 1.47864 -3.88941 0
M  V30 6496 H 602.267 2.3593 -4.95609 0
M  V30 6497 H 602.528 2.92608 -3.3141 0
M  V30 6498 N 601.587 1.56661 0.17182 0
M  V30 6499 C 602.517 1.99401 1.21498 0
M  V30 6500 C 603.498 0.869516 1.46197 0
M  V30 6501 O 604.683 1.13556 1.57539 0
M  V30 6502 C 601.813 2.35346 2.55401 0
M  V30 6503 C 600.767 3.5075 2.45272 0
M  V30 6504 C 600.093 3.72437 3.8366 0
M  V30 6505 C 601.393 4.84216 1.95787 0
M  V30 6506 H 603.087 2.86792 0.859699 0
M  V30 6507 H 600.633 1.37977 0.412103 0
M  V30 6508 H 602.586 2.63843 3.2858 0
M  V30 6509 H 601.31 1.44864 2.92715 0
M  V30 6510 H 599.969 3.2238 1.74547 0
M  V30 6511 H 599.617 2.79246 4.18367 0
M  V30 6512 H 599.317 4.50087 3.77751 0
M  V30 6513 H 600.841 4.03334 4.58426 0
M  V30 6514 H 602.255 5.11592 2.5874 0
M  V30 6515 H 600.652 5.65498 2.00827 0
M  V30 6516 H 601.722 4.76243 0.912159 0
M  V30 6517 N 603.065 -0.440357 1.51323 0
M  V30 6518 C 603.995 -1.54174 1.75364 0
M  V30 6519 C 604.976 -1.59039 0.603375 0
M  V30 6520 O 606.161 -1.74815 0.845774 0
M  V30 6521 C 603.291 -2.92277 1.87593 0
M  V30 6522 C 602.245 -3.02274 3.03009 0
M  V30 6523 C 601.571 -4.42327 3.00418 0
M  V30 6524 C 602.871 -2.76634 4.43024 0
M  V30 6525 H 604.565 -1.34307 2.67585 0
M  V30 6526 H 602.111 -0.644678 1.28763 0
M  V30 6527 H 604.064 -3.69284 2.02995 0
M  V30 6528 H 602.788 -3.13369 0.920179 0
M  V30 6529 H 601.447 -2.27706 2.87307 0
M  V30 6530 H 601.095 -4.60382 2.02626 0
M  V30 6531 H 600.795 -4.49946 3.77918 0
M  V30 6532 H 602.319 -5.21312 3.17909 0
M  V30 6533 H 603.733 -3.43376 4.59093 0
M  V30 6534 H 602.13 -2.95666 5.22208 0
M  V30 6535 H 603.2 -1.72262 4.5327 0
M  V30 6536 N 604.543 -1.41418 -0.695603 0
M  V30 6537 C 605.768 -1.44329 -1.48942 0
M  V30 6538 C 606.193 -0.0501579 -1.88033 0
M  V30 6539 O 605.551 0.946598 -1.54626 0
M  V30 6540 C 605.599 -2.3578 -2.72837 0
M  V30 6541 O 604.703 -1.81482 -3.70322 0
M  V30 6542 H 604.044 -0.489838 -0.44828 0
M  V30 6543 H 606.574 -1.85878 -0.855014 0
M  V30 6544 H 606.584 -2.51654 -3.21145 0
M  V30 6545 H 605.259 -3.37005 -2.43722 0
M  V30 6546 H 603.836 -1.75058 -3.29255 0
M  V30 6547 N 606.021 0.929856 -1.27246 0
M  V30 6548 C 607.437 1.20542 -1.04603 0
M  V30 6549 C 607.637 2.00276 0.221754 0
M  V30 6550 O 606.693 2.34835 0.927833 0
M  V30 6551 C 608.006 1.95566 -2.28417 0
M  V30 6552 C 609.554 2.08513 -2.33433 0
M  V30 6553 C 610.029 2.86943 -3.5697 0
M  V30 6554 N 611.52 2.94512 -3.57515 0
M  V30 6555 C 612.255 3.55656 -4.49774 0
M  V30 6556 N 611.751 4.18209 -5.52334 0
M  V30 6557 N 613.544 3.53038 -4.37402 0
M  V30 6558 H 605.695 0.397113 -2.08655 0
M  V30 6559 H 607.958 0.238277 -0.917566 0
M  V30 6560 H 607.664 1.44395 -3.20691 0
M  V30 6561 H 607.538 2.9619 -2.33563 0
M  V30 6562 H 609.925 2.58872 -1.41666 0
M  V30 6563 H 610.006 1.07117 -2.32292 0
M  V30 6564 H 609.65 2.37268 -4.49072 0
M  V30 6565 H 609.58 3.8862 -3.55362 0
M  V30 6566 H 612.071 2.50053 -2.83341 0
M  V30 6567 H 612.384 4.62796 -6.18902 0
M  V30 6568 H 610.729 4.16761 -5.56179 0
M  V30 6569 H 613.92 3.0337 -3.56489 0
M  V30 6570 H 614.093 4.004 -5.09493 0
M  V30 6571 N 607.499 1.09233 1.13605 0
M  V30 6572 C 608.746 0.827159 1.84836 0
M  V30 6573 C 609.074 -0.647199 1.83416 0
M  V30 6574 O 608.329 -1.49228 1.26608 0
M  V30 6575 C 608.628 1.305 3.32723 0
M  V30 6576 C 608.294 2.78864 3.54325 0
M  V30 6577 C 606.956 3.19382 3.59928 0
M  V30 6578 C 609.308 3.74532 3.62457 0
M  V30 6579 C 606.636 4.54346 3.71196 0
M  V30 6580 C 608.988 5.09283 3.75252 0
M  V30 6581 C 607.652 5.49394 3.79108 0
M  V30 6582 H 606.922 0.302679 0.676363 0
M  V30 6583 H 609.569 1.36676 1.34134 0
M  V30 6584 H 607.874 0.68517 3.85762 0
M  V30 6585 H 609.571 1.07648 3.86281 0
M  V30 6586 H 606.161 2.46507 3.50617 0
M  V30 6587 H 610.345 3.44343 3.57409 0
M  V30 6588 H 605.601 4.84864 3.72447 0
M  V30 6589 H 609.775 5.83269 3.80487 0
M  V30 6590 H 607.402 6.5397 3.87591 0
M  V30 6591 N 608.977 -1.30795 0.87923 0
M  V30 6592 C 610.254 -1.91145 0.415086 0
M  V30 6593 C 610.634 -1.7995 -1.10368 0
M  V30 6594 O 609.982 -1.21305 -1.93642 0
M  V30 6595 C 610.192 -3.37014 0.906778 0
M  V30 6596 C 611.54 -4.14101 0.938358 0
M  V30 6597 O 612.564 -3.45834 0.853053 0
M  V30 6598 O 611.423 -5.36054 1.06342 0
M  V30 6599 H 608.517 -0.81736 0.125905 0
M  V30 6600 H 611.063 -1.39401 0.967753 0
M  V30 6601 H 609.835 -3.3922 1.95053 0
M  V30 6602 H 609.458 -3.96204 0.332948 0
M  V30 6603 N 610.455 -0.639598 -1.44038 0
M  V30 6604 C 611.871 -0.305953 -1.5664 0
M  V30 6605 C 612.071 1.19055 -1.62567 0
M  V30 6606 O 611.127 1.97492 -1.57331 0
M  V30 6607 C 612.44 -1.00533 -2.83397 0
M  V30 6608 C 613.988 -0.984278 -2.97121 0
M  V30 6609 C 614.463 -1.66428 -4.26691 0
M  V30 6610 N 615.954 -1.63127 -4.33525 0
M  V30 6611 C 616.689 -2.12629 -5.32519 0
M  V30 6612 N 616.185 -2.70359 -6.3787 0
M  V30 6613 N 617.978 -2.03208 -5.24083 0
M  V30 6614 H 610.129 -1.6109 -1.38434 0
M  V30 6615 H 612.392 -0.676672 -0.663942 0
M  V30 6616 H 612.098 -2.06034 -2.85032 0
M  V30 6617 H 611.972 -0.548362 -3.73193 0
M  V30 6618 H 614.359 0.0622792 -2.95034 0
M  V30 6619 H 614.44 -1.47981 -2.08651 0
M  V30 6620 H 614.084 -2.71034 -4.29538 0
M  V30 6621 H 614.014 -1.14351 -5.14034 0
M  V30 6622 H 616.505 -1.20987 -3.58009 0
M  V30 6623 H 616.818 -3.05842 -7.09704 0
M  V30 6624 H 615.163 -2.74414 -6.38531 0
M  V30 6625 H 618.354 -1.57823 -4.40692 0
M  V30 6626 H 618.527 -2.42097 -6.01077 0
M  V30 6627 N 611.933 1.52934 -0.380664 0
M  V30 6628 C 612.863 2.29118 0.450268 0
M  V30 6629 C 613.844 1.32153 1.07096 0
M  V30 6630 O 615.029 1.61038 1.08537 0
M  V30 6631 C 612.159 3.09161 1.58231 0
M  V30 6632 C 611.113 4.13938 1.0881 0
M  V30 6633 C 610.439 4.82153 2.31155 0
M  V30 6634 C 611.739 5.22048 0.162146 0
M  V30 6635 H 613.433 2.98826 -0.185361 0
M  V30 6636 H 610.979 1.43715 -0.0905886 0
M  V30 6637 H 612.932 3.61211 2.17036 0
M  V30 6638 H 611.656 2.3717 2.2454 0
M  V30 6639 H 610.315 3.62855 0.522633 0
M  V30 6640 H 609.963 4.06719 2.95953 0
M  V30 6641 H 609.663 5.52966 1.98752 0
M  V30 6642 H 611.187 5.37004 2.90618 0
M  V30 6643 H 612.601 5.6951 0.658126 0
M  V30 6644 H 610.998 6.00057 -0.0717122 0
M  V30 6645 H 612.068 4.78398 -0.791438 0
M  V30 6646 N 613.412 0.11024 1.57214 0
M  V30 6647 C 614.342 -0.840002 2.17867 0
M  V30 6648 C 615.323 -1.28352 1.11624 0
M  V30 6649 O 616.508 -1.3477 1.39824 0
M  V30 6650 C 613.638 -2.09349 2.77111 0
M  V30 6651 C 612.592 -1.78807 3.8886 0
M  V30 6652 C 611.918 -3.11112 4.34872 0
M  V30 6653 C 613.218 -1.0632 5.11364 0
M  V30 6654 H 614.912 -0.334608 2.97524 0
M  V30 6655 H 612.458 -0.159502 1.43114 0
M  V30 6656 H 614.411 -2.76275 3.18198 0
M  V30 6657 H 613.135 -2.62198 1.9473 0
M  V30 6658 H 611.794 -1.14273 3.48335 0
M  V30 6659 H 611.442 -3.61877 3.49362 0
M  V30 6660 H 611.142 -2.91453 5.10224 0
M  V30 6661 H 612.666 -3.79171 4.78604 0
M  V30 6662 H 614.08 -1.63383 5.49526 0
M  V30 6663 H 612.477 -0.967876 5.92243 0
M  V30 6664 H 613.547 -0.0484569 4.84876 0
M  V30 6665 N 614.89 -1.56749 -0.16351 0
M  V30 6666 C 616.137 -1.82434 -0.878866 0
M  V30 6667 C 616.465 -0.688557 -1.81904 0
M  V30 6668 O 615.72 0.323644 -1.93005 0
M  V30 6669 C 616.019 -3.14342 -1.70071 0
M  V30 6670 C 615.685 -4.41647 -0.908775 0
M  V30 6671 C 614.347 -4.76224 -0.690236 0
M  V30 6672 C 616.699 -5.19998 -0.353815 0
M  V30 6673 C 614.027 -5.86624 0.0942374 0
M  V30 6674 C 616.379 -6.3122 0.41761 0
M  V30 6675 C 615.043 -6.64358 0.646879 0
M  V30 6676 H 614.313 -0.667574 -0.3216 0
M  V30 6677 H 616.96 -1.90963 -0.14337 0
M  V30 6678 H 615.265 -3.0119 -2.50583 0
M  V30 6679 H 616.962 -3.31426 -2.25738 0
M  V30 6680 H 613.552 -4.1453 -1.08916 0
M  V30 6681 H 617.736 -4.93673 -0.509975 0
M  V30 6682 H 612.992 -6.10751 0.281529 0
M  V30 6683 H 617.166 -6.91133 0.854849 0
M  V30 6684 H 614.793 -7.49742 1.25662 0
M  V30 6685 N 616.368 0.432326 -1.51554 0
M  V30 6686 C 617.3 1.54357 -1.6943 0
M  V30 6687 C 618.313 1.52311 -0.574897 0
M  V30 6688 O 619.502 1.56997 -0.849369 0
M  V30 6689 C 616.602 2.93273 -1.69836 0
M  V30 6690 C 615.775 3.19768 -2.98442 0
M  V30 6691 C 614.834 4.38433 -2.90969 0
M  V30 6692 O 613.86 4.36842 -3.64908 0
M  V30 6693 N 615.062 5.42276 -2.07163 0
M  V30 6694 H 617.827 1.39426 -2.65293 0
M  V30 6695 H 615.388 0.621331 -1.49503 0
M  V30 6696 H 617.38 3.70687 -1.62399 0
M  V30 6697 H 615.95 3.01777 -0.815456 0
M  V30 6698 H 615.17 2.30607 -3.19709 0
M  V30 6699 H 616.458 3.343 -3.83563 0
M  V30 6700 H 615.856 5.46407 -1.46477 0
M  V30 6701 H 614.413 6.18524 -2.05601 0
M  V30 6702 N 617.846 1.41785 0.688094 0
M  V30 6703 C 619.071 1.45117 1.48175 0
M  V30 6704 C 619.496 0.060129 1.88004 0
M  V30 6705 O 618.854 -0.938385 1.55126 0
M  V30 6706 C 618.902 2.37224 2.71583 0
M  V30 6707 O 618.006 1.83443 3.69354 0
M  V30 6708 H 617.347 0.492208 0.445676 0
M  V30 6709 H 619.877 1.86329 0.845145 0
M  V30 6710 H 619.887 2.53353 3.19806 0
M  V30 6711 H 618.562 3.38293 2.41931 0
M  V30 6712 H 617.139 1.76802 3.28322 0
M  V30 6713 N 619.324 -0.923095 1.27737 0
M  V30 6714 C 620.554 -1.70277 1.17001 0
M  V30 6715 C 620.962 -1.87188 -0.275199 0
M  V30 6716 O 620.305 -1.39195 -1.19877 0
M  V30 6717 C 620.367 -3.11976 1.78637 0
M  V30 6718 C 620.031 -3.18386 3.27841 0
M  V30 6719 C 621.028 -3.00287 4.2441 0
M  V30 6720 C 618.713 -3.41198 3.68632 0
M  V30 6721 C 620.707 -3.04896 5.59747 0
M  V30 6722 C 618.394 -3.4544 5.04097 0
M  V30 6723 C 619.392 -3.27309 5.99465 0
M  V30 6724 O 619.08 -3.31295 7.32461 0
M  V30 6725 H 618.812 -0.539366 0.407505 0
M  V30 6726 H 621.366 -1.16446 1.69202 0
M  V30 6727 H 619.596 -3.67308 1.20919 0
M  V30 6728 H 621.285 -3.7193 1.6255 0
M  V30 6729 H 622.051 -2.825 3.94232 0
M  V30 6730 H 617.93 -3.54359 2.94873 0
M  V30 6731 H 621.474 -2.90662 6.34162 0
M  V30 6732 H 617.371 -3.62753 5.33929 0
M  V30 6733 H 618.139 -3.47719 7.40968 0
M  V30 6734 N 620.802 -1.09834 -1.13024 0
M  V30 6735 C 621.732 -0.763451 -2.20666 0
M  V30 6736 C 622.713 0.260778 -1.68089 0
M  V30 6737 O 623.898 0.127915 -1.93778 0
M  V30 6738 C 621.028 -0.187744 -3.46792 0
M  V30 6739 C 619.982 -1.14196 -4.12484 0
M  V30 6740 C 619.308 -0.427755 -5.32986 0
M  V30 6741 C 620.608 -2.48607 -4.59338 0
M  V30 6742 H 622.302 -1.66347 -2.48936 0
M  V30 6743 H 619.848 -0.801261 -1.19649 0
M  V30 6744 H 621.801 0.0586375 -4.21359 0
M  V30 6745 H 620.525 0.747485 -3.17931 0
M  V30 6746 H 619.184 -1.37369 -3.3989 0
M  V30 6747 H 618.832 0.511747 -5.0039 0
M  V30 6748 H 618.532 -1.06403 -5.77886 0
M  V30 6749 H 620.056 -0.189772 -6.10305 0
M  V30 6750 H 621.47 -2.29618 -5.25308 0
M  V30 6751 H 619.867 -3.08062 -5.14993 0
M  V30 6752 H 620.937 -3.09062 -3.73642 0
M  V30 6753 N 622.28 1.30327 -0.886154 0
M  V30 6754 C 623.527 1.96097 -0.505192 0
M  V30 6755 C 623.855 1.69952 0.945868 0
M  V30 6756 O 623.11 0.997653 1.68361 0
M  V30 6757 C 623.409 3.49906 -0.728042 0
M  V30 6758 C 623.075 3.96103 -2.15437 0
M  V30 6759 C 621.737 4.08428 -2.5444 0
M  V30 6760 C 624.089 4.20177 -3.08384 0
M  V30 6761 C 621.417 4.42189 -3.85598 0
M  V30 6762 C 623.769 4.55407 -4.39075 0
M  V30 6763 C 622.433 4.65941 -4.7797 0
M  V30 6764 H 621.703 0.71757 -0.184863 0
M  V30 6765 H 624.35 1.55171 -1.12223 0
M  V30 6766 H 622.655 3.9179 -0.027978 0
M  V30 6767 H 624.352 3.98869 -0.412862 0
M  V30 6768 H 620.942 3.87017 -1.84162 0
M  V30 6769 H 625.126 4.10134 -2.7947 0
M  V30 6770 H 620.382 4.48544 -4.15473 0
M  V30 6771 H 624.556 4.72986 -5.11133 0
M  V30 6772 H 622.183 4.91856 -5.79639 0
M  V30 6773 N 623.758 0.647228 1.43697 0
M  V30 6774 C 624.691 -0.097646 2.27991 0
M  V30 6775 C 625.669 -0.83571 1.3948 0
M  V30 6776 O 626.853 -0.836509 1.68922 0
M  V30 6777 C 623.98 -1.14484 3.18765 0
M  V30 6778 C 623.026 -0.505503 4.23494 0
M  V30 6779 S 623.859 0.716471 5.30685 0
M  V30 6780 C 625.015 -0.330339 6.25028 0
M  V30 6781 H 625.248 0.617417 2.90818 0
M  V30 6782 H 622.781 0.435881 1.4812 0
M  V30 6783 H 624.739 -1.74403 3.7161 0
M  V30 6784 H 623.4 -1.83219 2.55127 0
M  V30 6785 H 622.593 -1.29473 4.87086 0
M  V30 6786 H 622.195 0.0194377 3.73995 0
M  V30 6787 H 624.487 -1.19828 6.66819 0
M  V30 6788 H 625.43 0.270409 7.07583 0
M  V30 6789 H 625.838 -0.663459 5.60588 0
M  V30 6790 N 625.236 -1.5273 0.388769 0
M  V30 6791 C 626.166 -2.29353 -0.438111 0
M  V30 6792 C 627.147 -1.32719 -1.06394 0
M  V30 6793 O 628.332 -1.61612 -1.07681 0
M  V30 6794 C 625.462 -3.09995 -1.56589 0
M  V30 6795 C 624.416 -4.14509 -1.06613 0
M  V30 6796 C 623.742 -4.83372 -2.28594 0
M  V30 6797 C 625.042 -5.22127 -0.134459 0
M  V30 6798 H 626.736 -2.98723 0.201206 0
M  V30 6799 H 624.282 -1.43665 0.0982089 0
M  V30 6800 H 626.235 -3.62357 -2.15118 0
M  V30 6801 H 624.959 -2.38357 -2.23279 0
M  V30 6802 H 623.618 -3.63128 -0.503383 0
M  V30 6803 H 623.266 -4.08283 -2.93792 0
M  V30 6804 H 622.966 -5.54012 -1.95817 0
M  V30 6805 H 624.49 -5.38538 -2.87766 0
M  V30 6806 H 625.904 -5.69851 -0.627914 0
M  V30 6807 H 624.301 -6.00011 0.103534 0
M  V30 6808 H 625.371 -4.77971 0.816798 0
M  V30 6809 N 626.714 -0.118576 -1.57153 0
M  V30 6810 C 627.962 0.538461 -1.94795 0
M  V30 6811 C 628.283 1.67243 -1.00274 0
M  V30 6812 O 627.553 1.95811 -0.0589692 0
M  V30 6813 H 626.133 0.201904 -0.719197 0
M  V30 6814 H 628.795 -0.187418 -1.93997 0
M  V30 6815 H 627.891 0.933315 -2.97818 0
M  V30 6816 N 628.193 1.56834 0.155195 0
M  V30 6817 C 629.442 1.82088 0.867567 0
M  V30 6818 C 629.755 0.69849 1.82703 0
M  V30 6819 O 630.961 0.836407 2.58295 0
M  V30 6820 C 629.417 3.22707 1.59336 0
M  V30 6821 C 629.025 4.42859 0.676719 0
M  V30 6822 C 630.769 3.57242 2.293 0
M  V30 6823 C 628.676 5.74501 1.40367 0
M  V30 6824 H 627.606 0.679057 0.327715 0
M  V30 6825 H 630.257 1.83105 0.120351 0
M  V30 6826 H 628.639 3.16054 2.38591 0
M  V30 6827 H 629.813 4.60731 -0.0800196 0
M  V30 6828 H 628.128 4.16311 0.0859129 0
M  V30 6829 H 630.725 4.52847 2.84312 0
M  V30 6830 H 631.068 2.82901 3.05406 0
M  V30 6831 H 631.601 3.6552 1.56972 0
M  V30 6832 H 628.34 6.51915 0.684623 0
M  V30 6833 H 627.86 5.60579 2.13332 0
M  V30 6834 H 629.539 6.17016 1.94681 0
M  V30 6835 N 629.671 -0.424282 1.51781 0
M  V30 6836 C 630.901 -1.19297 1.68677 0
M  V30 6837 C 631.309 -1.85152 0.389258 0
M  V30 6838 O 630.652 -1.72067 -0.643311 0
M  V30 6839 C 630.714 -2.30929 2.75521 0
M  V30 6840 C 630.378 -1.85335 4.17732 0
M  V30 6841 C 631.375 -1.34951 5.0208 0
M  V30 6842 C 629.06 -1.92629 4.63896 0
M  V30 6843 C 631.054 -0.924636 6.30658 0
M  V30 6844 C 628.741 -1.49754 5.92467 0
M  V30 6845 C 629.739 -0.997543 6.75676 0
M  V30 6846 O 629.427 -0.57492 8.01842 0
M  V30 6847 H 629.159 -0.36512 0.568914 0
M  V30 6848 H 631.713 -0.507327 1.99036 0
M  V30 6849 H 629.943 -3.02811 2.40505 0
M  V30 6850 H 631.632 -2.92748 2.81165 0
M  V30 6851 H 632.398 -1.287 4.67612 0
M  V30 6852 H 628.277 -2.30491 3.99243 0
M  V30 6853 H 631.821 -0.533682 6.95556 0
M  V30 6854 H 627.718 -1.55679 6.26446 0
M  V30 6855 H 628.486 -0.699597 8.15505 0
M  V30 6856 N 631.149 -1.42148 -0.680565 0
M  V30 6857 C 632.377 -1.45696 -1.46902 0
M  V30 6858 C 632.792 -0.0665858 -1.88683 0
M  V30 6859 O 632.149 0.917436 -1.57764 0
M  V30 6860 C 632.2 -2.37898 -2.72188 0
M  V30 6861 O 631.921 -3.71526 -2.32163 0
M  V30 6862 C 633.422 -2.50407 -3.65802 0
M  V30 6863 H 630.642 -0.495729 -0.45221 0
M  V30 6864 H 633.186 -1.866 -0.836709 0
M  V30 6865 H 631.341 -2.00263 -3.31622 0
M  V30 6866 H 631.755 -4.20849 -3.13027 0
M  V30 6867 H 633.229 -3.19056 -4.50452 0
M  V30 6868 H 633.706 -1.5401 -4.11312 0
M  V30 6869 H 634.312 -2.8874 -3.12265 0
M  V30 6870 N 632.627 0.916307 -1.28225 0
M  V30 6871 C 633.876 1.65975 -1.14608 0
M  V30 6872 C 634.189 1.93204 0.305191 0
M  V30 6873 O 635.395 2.65611 0.562432 0
M  V30 6874 C 633.851 2.98989 -2.00333 0
M  V30 6875 C 633.459 2.79417 -3.50186 0
M  V30 6876 C 635.203 3.76856 -1.95397 0
M  V30 6877 C 633.11 4.08056 -4.28071 0
M  V30 6878 H 632.04 0.622587 -0.425324 0
M  V30 6879 H 634.691 1.01705 -1.52736 0
M  V30 6880 H 633.073 3.6438 -1.5506 0
M  V30 6881 H 634.247 2.22723 -4.034 0
M  V30 6882 H 632.562 2.14966 -3.56621 0
M  V30 6883 H 635.159 4.72203 -2.50856 0
M  V30 6884 H 635.502 4.05776 -0.930137 0
M  V30 6885 H 636.035 3.1828 -2.38626 0
M  V30 6886 H 632.774 3.8431 -5.31024 0
M  V30 6887 H 632.294 4.64371 -3.79631 0
M  V30 6888 H 633.973 4.76333 -4.37854 0
M  V30 6889 N 634.105 1.10431 1.1244 0
M  V30 6890 C 635.333 0.868872 1.87772 0
M  V30 6891 C 635.748 -0.580645 1.7965 0
M  V30 6892 O 635.105 -1.40031 1.17036 0
M  V30 6893 C 635.156 1.30855 3.36986 0
M  V30 6894 O 634.877 2.70123 3.44914 0
M  V30 6895 C 636.378 1.107 4.29256 0
M  V30 6896 H 633.598 0.311868 0.59412 0
M  V30 6897 H 636.142 1.46897 1.42273 0
M  V30 6898 H 634.297 0.752126 3.80029 0
M  V30 6899 H 634.711 2.88923 4.37748 0
M  V30 6900 H 636.185 1.46378 5.32238 0
M  V30 6901 H 636.662 0.0456228 4.39176 0
M  V30 6902 H 637.268 1.64988 3.91994 0
M  V30 6903 N 635.583 -1.29855 0.893053 0
M  V30 6904 C 636.513 -2.3035 0.382249 0
M  V30 6905 C 637.494 -1.61328 -0.539203 0
M  V30 6906 O 638.679 -1.88882 -0.451342 0
M  V30 6907 C 635.809 -3.45024 -0.396983 0
M  V30 6908 C 634.763 -4.258 0.433437 0
M  V30 6909 C 634.089 -5.32605 -0.472889 0
M  V30 6910 C 635.389 -4.94549 1.67984 0
M  V30 6911 H 637.083 -2.73325 1.22205 0
M  V30 6912 H 634.629 -1.314 0.589073 0
M  V30 6913 H 636.582 -4.14398 -0.765024 0
M  V30 6914 H 635.306 -3.00875 -1.2705 0
M  V30 6915 H 633.965 -3.58125 0.783723 0
M  V30 6916 H 633.613 -4.84702 -1.34435 0
M  V30 6917 H 633.313 -5.87547 0.0789958 0
M  V30 6918 H 634.837 -6.04832 -0.837269 0
M  V30 6919 H 636.251 -5.56395 1.38192 0
M  V30 6920 H 634.648 -5.59393 2.17254 0
M  V30 6921 H 635.718 -4.20215 2.41965 0
M  V30 6922 N 637.061 -0.65484 -1.43351 0
M  V30 6923 C 638.301 -0.172514 -2.03671 0
M  V30 6924 C 638.665 1.19154 -1.50553 0
M  V30 6925 O 639.866 1.76737 -2.02528 0
M  V30 6926 C 638.137 -0.183982 -3.56926 0
M  V30 6927 S 639.696 0.230262 -4.38195 0
M  V30 6928 H 636.514 -0.0727503 -0.707268 0
M  V30 6929 H 639.116 -0.863537 -1.75395 0
M  V30 6930 H 637.82 -1.17945 -3.93087 0
M  V30 6931 H 637.351 0.527527 -3.89847 0
M  V30 6932 H 639.366 1.46874 -4.73965 0
M  V30 6933 N 638.539 1.52521 -0.396863 0
M  V30 6934 C 639.764 2.06571 0.185258 0
M  V30 6935 C 640.189 1.26605 1.39115 0
M  V30 6936 O 639.547 0.293055 1.78916 0
M  V30 6937 C 639.595 3.5674 0.526189 0
M  V30 6938 O 638.699 3.7929 1.61903 0
M  V30 6939 H 638.04 0.663712 0.0195474 0
M  V30 6940 H 640.57 1.966 -0.566519 0
M  V30 6941 H 640.58 4.00311 0.788338 0
M  V30 6942 H 639.255 4.14379 -0.355397 0
M  V30 6943 H 637.832 3.47605 1.35 0
M  V30 6944 N 640.017 0.126909 1.57088 0
M  V30 6945 C 640.947 -0.816847 2.18746 0
M  V30 6946 C 641.928 -1.27161 1.12979 0
M  V30 6947 O 643.113 -1.33279 1.41246 0
M  V30 6948 C 640.243 -2.06398 2.79315 0
M  V30 6949 C 639.197 -1.74673 3.90735 0
M  V30 6950 C 638.523 -3.06482 4.38147 0
M  V30 6951 C 639.823 -1.0089 5.12463 0
M  V30 6952 H 641.517 -0.303032 2.97863 0
M  V30 6953 H 639.063 -0.144314 1.43275 0
M  V30 6954 H 641.016 -2.72885 3.2111 0
M  V30 6955 H 639.74 -2.60118 1.975 0
M  V30 6956 H 638.399 -1.10572 3.49527 0
M  V30 6957 H 638.047 -3.58152 3.5318 0
M  V30 6958 H 637.747 -2.86025 5.13287 0
M  V30 6959 H 639.271 -3.74073 4.82599 0
M  V30 6960 H 640.685 -1.57546 5.51228 0
M  V30 6961 H 639.082 -0.905006 5.93237 0
M  V30 6962 H 640.152 0.00297335 4.849 0
M  V30 6963 N 641.495 -1.56914 -0.146875 0
M  V30 6964 C 642.741 -1.84515 -0.855914 0
M  V30 6965 C 643.096 -0.710909 -1.78784 0
M  V30 6966 O 642.389 0.291123 -1.89375 0
M  V30 6967 C 642.583 -3.16128 -1.66727 0
M  V30 6968 C 642.412 -4.42246 -0.815405 0
M  V30 6969 C 641.182 -5.03006 -0.480976 0
M  V30 6970 C 643.38 -5.14094 -0.145684 0
M  V30 6971 N 641.362 -6.12695 0.384476 0
M  V30 6972 C 642.733 -6.17282 0.579902 0
M  V30 6973 C 644.788 -4.97856 -0.0663705 0
M  V30 6974 C 643.491 -7.0599 1.37731 0
M  V30 6975 C 645.517 -5.87028 0.71778 0
M  V30 6976 C 644.879 -6.89698 1.43165 0
M  V30 6977 H 640.978 -0.725829 -0.291026 0
M  V30 6978 H 643.562 -1.94322 -0.121279 0
M  V30 6979 H 641.733 -3.07468 -2.37315 0
M  V30 6980 H 643.465 -3.31635 -2.31949 0
M  V30 6981 H 640.22 -4.66504 -0.816789 0
M  V30 6982 H 640.644 -6.72158 0.80823 0
M  V30 6983 H 645.286 -4.18465 -0.603929 0
M  V30 6984 H 643.004 -7.84809 1.92613 0
M  V30 6985 H 646.59 -5.76532 0.781141 0
M  V30 6986 H 645.47 -7.57505 2.02868 0
M  V30 6987 N 642.974 0.416227 -1.52004 0
M  V30 6988 C 643.937 1.48926 -1.74223 0
M  V30 6989 C 644.937 1.48693 -0.612119 0
M  V30 6990 O 646.127 1.50343 -0.879921 0
M  V30 6991 C 643.259 2.88372 -1.81809 0
M  V30 6992 H 644.452 1.3052 -2.70008 0
M  V30 6993 H 642.005 0.646271 -1.42313 0
M  V30 6994 H 642.74 3.12157 -0.879135 0
M  V30 6995 H 642.525 2.89944 -2.6396 0
M  V30 6996 H 644.015 3.66173 -2.00766 0
M  V30 6997 N 644.452 1.42507 0.673017 0
M  V30 6998 C 645.382 1.48916 1.79851 0
M  V30 6999 C 646.363 0.345566 1.66553 0
M  V30 7000 O 647.548 0.560116 1.85947 0
M  V30 7001 C 644.678 1.39258 3.18158 0
M  V30 7002 C 643.632 2.51662 3.46194 0
M  V30 7003 C 642.958 2.27062 4.84094 0
M  V30 7004 C 644.258 3.93968 3.42909 0
M  V30 7005 H 645.952 2.43114 1.74745 0
M  V30 7006 H 643.498 1.17013 0.839288 0
M  V30 7007 H 645.451 1.42349 3.96629 0
M  V30 7008 H 644.175 0.415542 3.23946 0
M  V30 7009 H 642.834 2.47891 2.70084 0
M  V30 7010 H 642.482 1.27648 4.86534 0
M  V30 7011 H 642.182 3.02398 5.03815 0
M  V30 7012 H 643.706 2.31905 5.64847 0
M  V30 7013 H 645.12 3.99332 4.11347 0
M  V30 7014 H 643.517 4.6917 3.74165 0
M  V30 7015 H 644.587 4.20512 2.41449 0
M  V30 7016 N 645.93 -0.909495 1.28709 0
M  V30 7017 C 647.176 -1.66175 1.17293 0
M  V30 7018 C 647.531 -1.90426 -0.274891 0
M  V30 7019 O 646.824 -1.49659 -1.19635 0
M  V30 7020 C 647.018 -3.02117 1.90945 0
M  V30 7021 C 646.847 -2.91134 3.42741 0
M  V30 7022 C 645.617 -2.92429 4.12085 0
M  V30 7023 C 647.815 -2.68889 4.3841 0
M  V30 7024 N 645.797 -2.72078 5.50315 0
M  V30 7025 C 647.168 -2.57423 5.64033 0
M  V30 7026 C 649.223 -2.53919 4.28287 0
M  V30 7027 C 647.926 -2.32513 6.80683 0
M  V30 7028 C 649.952 -2.3039 5.44678 0
M  V30 7029 C 649.314 -2.19682 6.69268 0
M  V30 7030 H 645.413 -0.614095 0.48416 0
M  V30 7031 H 647.997 -1.07377 1.62414 0
M  V30 7032 H 646.168 -3.58993 1.48252 0
M  V30 7033 H 647.9 -3.66388 1.71878 0
M  V30 7034 H 644.655 -3.03345 3.63701 0
M  V30 7035 H 645.079 -2.64983 6.22987 0
M  V30 7036 H 649.721 -2.60946 3.32666 0
M  V30 7037 H 647.439 -2.24225 7.76369 0
M  V30 7038 H 651.025 -2.19665 5.38738 0
M  V30 7039 H 649.905 -2.01725 7.5781 0
M  V30 7040 N 647.408 -1.11026 -1.11852 0
M  V30 7041 C 648.656 -0.854769 -1.83134 0
M  V30 7042 C 648.977 0.621375 -1.84835 0
M  V30 7043 O 648.247 1.45129 -1.31584 0
M  V30 7044 H 646.827 -0.313229 -0.678157 0
M  V30 7045 H 649.489 -1.40178 -1.35411 0
M  V30 7046 H 648.585 -1.22311 -2.87135 0
M  V30 7047 N 648.886 1.2938 -0.899927 0
M  V30 7048 C 650.134 1.95164 -0.524924 0
M  V30 7049 C 650.455 1.71292 0.931888 0
M  V30 7050 O 649.725 1.04481 1.65712 0
M  V30 7051 H 648.305 0.722133 -0.191135 0
M  V30 7052 H 650.967 1.57628 -1.14627 0
M  V30 7053 H 650.063 3.0397 -0.707711 0
M  V30 7054 N 650.364 0.662433 1.43002 0
M  V30 7055 C 651.61 0.179857 2.02001 0
M  V30 7056 C 651.943 -1.20625 1.52195 0
M  V30 7057 O 651.218 -1.80726 0.718911 0
M  V30 7058 C 651.501 0.200845 3.59539 0
M  V30 7059 C 651.354 1.62153 4.19555 0
M  V30 7060 C 652.673 -0.457738 4.37713 0
M  V30 7061 H 649.792 0.0668305 0.733964 0
M  V30 7062 H 652.434 0.84487 1.70182 0
M  V30 7063 H 650.584 -0.365411 3.86778 0
M  V30 7064 H 652.256 2.23908 4.03315 0
M  V30 7065 H 650.499 2.16601 3.75854 0
M  V30 7066 H 651.17 1.58799 5.28665 0
M  V30 7067 H 653.646 0.0241495 4.16093 0
M  V30 7068 H 652.522 -0.412363 5.47349 0
M  V30 7069 H 652.783 -1.53336 4.14657 0
M  V30 7070 O 651.881 -1.51951 0.5471 0
M  V30 7071 H 652.572 -1.93655 0.0418362 0
M  V30 END ATOM
M  V30 BEGIN BOND
M  V30 END BOND
M  V30 END CTAB
M  END
$$$$
