drugbank_target|Q8IM16 Plasmepsin IV (DB11638)
 OpenBabel12092121103D

  0  0  0     0  0            999 V3000
M  V30 BEGIN CTAB
M  V30 COUNTS 7174 7265 0 0 0
M  V30 BEGIN ATOM
M  V30 1 H -0.908 1.98254 -0.117106 0
M  V30 2 N 0 1.576 0 0
M  V30 3 C 0.933 2.03868 1.02534 0
M  V30 4 C 1.911 0.928543 1.3348 0
M  V30 5 O 3.095 1.19667 1.45644 0
M  V30 6 C 0.222 2.43627 2.35294 0
M  V30 7 C -0.732 3.65373 2.2001 0
M  V30 8 S 0.101 5.13292 1.52614 0
M  V30 9 C 1.257 5.56322 2.86805 0
M  V30 10 H 1.49 2.90518 0.631377 0
M  V30 11 H -0.977 1.52953 0.210867 0
M  V30 12 H 0.981 2.67203 3.11629 0
M  V30 13 H -0.358 1.57376 2.7183 0
M  V30 14 H -1.165 3.90944 3.18086 0
M  V30 15 H -1.563 3.418 1.51819 0
M  V30 16 H 0.729 5.58782 3.83104 0
M  V30 17 H 1.672 6.56266 2.65933 0
M  V30 18 H 2.08 4.83886 2.90714 0
M  V30 19 N 1.4781 -0.272755 1.55222 0
M  V30 20 C 2.4411 -1.32041 1.87344 0
M  V30 21 C 3.4411 -1.42342 0.74803 0
M  V30 22 O 4.6311 -1.41488 1.0162 0
M  V30 23 C 1.7631 -2.70173 2.07893 0
M  V30 24 H 2.9561 -1.04789 2.80997 0
M  V30 25 H 0.5091 -0.51083 1.47717 0
M  V30 26 H 1.2441 -3.02605 1.16622 0
M  V30 27 H 1.0291 -2.64082 2.89833 0
M  V30 28 H 2.5191 -3.45869 2.34017 0
M  V30 29 N 2.9562 -1.48159 -0.537278 0
M  V30 30 C 3.8862 -1.65029 -1.6519 0
M  V30 31 C 4.8672 -0.499281 -1.62607 0
M  V30 32 O 6.0522 -0.730972 -1.79918 0
M  V30 33 C 3.1822 -1.68303 -3.03795 0
M  V30 34 C 2.1362 -2.8283 -3.21234 0
M  V30 35 C 1.4622 -2.71189 -4.60826 0
M  V30 36 C 2.7622 -4.24211 -3.04701 0
M  V30 37 H 4.4562 -2.58341 -1.51328 0
M  V30 38 H 2.0022 -1.24325 -0.726585 0
M  V30 39 H 3.9552 -1.78693 -3.81637 0
M  V30 40 H 2.6792 -0.715635 -3.18663 0
M  V30 41 H 1.3382 -2.71983 -2.45807 0
M  V30 42 H 0.9862 -1.72435 -4.7252 0
M  V30 43 H 0.6862 -3.48035 -4.7344 0
M  V30 44 H 2.2102 -2.83537 -5.40777 0
M  V30 45 H 3.6242 -4.3593 -3.72341 0
M  V30 46 H 2.0212 -5.01998 -3.28813 0
M  V30 47 H 3.0912 -4.41184 -2.01209 0
M  V30 48 N 4.4343 0.785586 -1.36625 0
M  V30 49 C 5.6623 1.57448 -1.3423 0
M  V30 50 C 6.0773 1.88649 0.0755653 0
M  V30 51 O 5.4343 1.50414 1.03354 0
M  V30 52 C 5.4853 2.89316 -2.16745 0
M  V30 53 O 5.2063 2.59459 -3.53005 0
M  V30 54 C 6.7073 3.83606 -2.22174 0
M  V30 55 H 3.9273 0.488226 -0.4603 0
M  V30 56 H 6.4713 0.974733 -1.79775 0
M  V30 57 H 4.6263 3.4575 -1.74745 0
M  V30 58 H 5.0403 3.43804 -3.96105 0
M  V30 59 H 6.5143 4.73181 -2.8426 0
M  V30 60 H 6.9913 4.21734 -1.22627 0
M  V30 61 H 7.5973 3.33104 -2.64427 0
M  V30 62 N 5.9124 1.20967 1.01018 0
M  V30 63 C 7.1584 1.02526 1.74975 0
M  V30 64 C 7.4914 -0.4408 1.89131 0
M  V30 65 O 6.7664 -1.32718 1.42184 0
M  V30 66 C 7.0494 1.71699 3.1653 0
M  V30 67 C 6.9024 3.25791 3.10129 0
M  V30 68 C 8.2214 1.45531 4.15342 0
M  V30 69 H 5.3404 0.373863 0.635134 0
M  V30 70 H 7.9824 1.49071 1.17805 0
M  V30 71 H 6.1324 1.32128 3.65341 0
M  V30 72 H 7.8044 3.74697 2.69072 0
M  V30 73 H 6.0474 3.56363 2.47362 0
M  V30 74 H 6.7184 3.69353 4.10222 0
M  V30 75 H 9.1944 1.79872 3.75213 0
M  V30 76 H 8.0704 1.96453 5.1254 0
M  V30 77 H 8.3314 0.384237 4.40427 0
M  V30 78 N 7.3905 -1.2043 1.01659 0
M  V30 79 C 8.3375 -2.23215 0.586822 0
M  V30 80 C 9.3075 -1.61382 -0.393085 0
M  V30 81 O 10.4925 -1.88544 -0.292525 0
M  V30 82 C 7.6325 -3.45032 -0.0687464 0
M  V30 83 C 6.7455 -4.21296 0.955724 0
M  V30 84 C 5.8805 -5.30507 0.271208 0
M  V30 85 C 4.9195 -5.98515 1.28244 0
M  V30 86 N 4.0565 -6.99316 0.62459 0
M  V30 87 H 8.8965 -2.59336 1.46796 0
M  V30 88 H 6.4335 -1.27431 0.734836 0
M  V30 89 H 8.3915 -4.1459 -0.465965 0
M  V30 90 H 7.0215 -3.09604 -0.913529 0
M  V30 91 H 6.0735 -3.50803 1.4711 0
M  V30 92 H 7.3855 -4.6803 1.72479 0
M  V30 93 H 6.5395 -6.06428 -0.18151 0
M  V30 94 H 5.2785 -4.8481 -0.530163 0
M  V30 95 H 4.2835 -5.21355 1.74554 0
M  V30 96 H 5.5085 -6.46298 2.08509 0
M  V30 97 H 3.4545 -6.55812 -0.156914 0
M  V30 98 H 3.3715 -7.44178 1.33172 0
M  V30 99 H 4.6395 -7.79255 0.195462 0
M  V30 100 N 8.8686 -0.792821 -1.36206 0
M  V30 101 C 9.7786 -0.194808 -2.3379 0
M  V30 102 C 10.7946 0.654869 -1.61206 0
M  V30 103 O 11.9706 0.569856 -1.9317 0
M  V30 104 C 9.0356 0.657721 -3.40404 0
M  V30 105 C 8.0966 -0.210849 -4.28782 0
M  V30 106 C 7.3296 0.601086 -5.30304 0
M  V30 107 O 7.5526 1.83682 -5.40016 0
M  V30 108 O 6.4866 -0.000808277 -6.019 0
M  V30 109 H 10.3126 -1.00172 -2.86704 0
M  V30 110 H 7.8976 -0.554341 -1.38735 0
M  V30 111 H 9.7796 1.14375 -4.05581 0
M  V30 112 H 8.4546 1.44247 -2.89784 0
M  V30 113 H 7.3616 -0.743714 -3.66633 0
M  V30 114 H 8.6946 -0.959195 -4.82763 0
M  V30 115 N 10.3467 1.47872 -0.545128 0
M  V30 116 C 11.2567 2.33633 0.212746 0
M  V30 117 C 12.2727 1.4744 0.923983 0
M  V30 118 O 13.4487 1.80393 0.895572 0
M  V30 119 C 10.5137 3.23884 1.23693 0
M  V30 120 C 9.5747 4.25961 0.534417 0
M  V30 121 C 8.8077 5.11899 1.5098 0
M  V30 122 O 9.0307 5.00077 2.7437 0
M  V30 123 O 7.9647 5.92831 1.0409 0
M  V30 124 H 11.7907 2.99714 -0.490416 0
M  V30 125 H 9.3757 1.46235 -0.305871 0
M  V30 126 H 11.2577 3.79666 1.82843 0
M  V30 127 H 9.9327 2.60446 1.92222 0
M  V30 128 H 8.8397 3.73972 -0.0979679 0
M  V30 129 H 10.1727 4.92079 -0.109213 0
M  V30 130 N 11.8248 0.280983 1.55075 0
M  V30 131 C 12.7348 -0.61388 2.26426 0
M  V30 132 C 13.7508 -1.16521 1.29224 0
M  V30 133 O 14.9268 -1.19426 1.62171 0
M  V30 134 C 11.9918 -1.7788 2.9759 0
M  V30 135 C 11.0528 -1.26355 4.10284 0
M  V30 136 C 10.2858 -2.37295 4.78045 0
M  V30 137 O 10.5088 -3.56777 4.45047 0
M  V30 138 O 9.4428 -2.05119 5.65871 0
M  V30 139 H 13.2688 -0.0356932 3.03679 0
M  V30 140 H 10.8538 0.0481686 1.49322 0
M  V30 141 H 12.7358 -2.45791 3.42293 0
M  V30 142 H 11.4108 -2.34397 2.23249 0
M  V30 143 H 10.3178 -0.550735 3.70024 0
M  V30 144 H 11.6508 -0.744065 4.86543 0
M  V30 145 N 13.3029 -1.57598 0.00835791 0
M  V30 146 C 14.5499 -1.90928 -0.674732 0
M  V30 147 C 14.8779 -0.88277 -1.73313 0
M  V30 148 O 14.1329 0.111294 -1.95383 0
M  V30 149 C 14.4319 -3.3101 -1.34787 0
M  V30 150 C 14.0979 -4.48922 -0.421861 0
M  V30 151 C 12.7599 -4.8091 -0.166927 0
M  V30 152 C 15.1119 -5.20755 0.215211 0
M  V30 153 C 12.4399 -5.821 0.733232 0
M  V30 154 C 14.7919 -6.22905 1.1033 0
M  V30 155 C 13.4559 -6.53346 1.36733 0
M  V30 156 H 12.7259 -0.698656 -0.246902 0
M  V30 157 H 15.3729 -1.91387 0.0656779 0
M  V30 158 H 13.6779 -3.26714 -2.16253 0
M  V30 159 H 15.3749 -3.54061 -1.8826 0
M  V30 160 H 11.9649 -4.23934 -0.630729 0
M  V30 161 H 16.1489 -4.9629 0.0312829 0
M  V30 162 H 11.4049 -6.04042 0.945712 0
M  V30 163 H 15.5789 -6.77694 1.60325 0
M  V30 164 H 13.2059 -7.31573 2.06652 0
M  V30 165 N 14.781 0.264519 -1.55364 0
M  V30 166 C 16.006 1.01726 -1.80739 0
M  V30 167 C 16.431 1.78836 -0.583044 0
M  V30 168 O 15.789 1.75167 0.467566 0
M  V30 169 C 15.837 1.94482 -3.03659 0
M  V30 170 O 14.941 3.03386 -2.7934 0
M  V30 171 H 14.282 0.290395 -0.597132 0
M  V30 172 H 16.812 0.290854 -2.02522 0
M  V30 173 H 16.822 2.36278 -3.32621 0
M  V30 174 H 15.497 1.37772 -3.92418 0
M  V30 175 H 14.074 2.65844 -2.61498 0
M  V30 176 N 16.2591 1.48442 0.529413 0
M  V30 177 C 17.2071 1.63452 1.65487 0
M  V30 178 C 18.2011 0.500955 1.61823 0
M  V30 179 O 19.4071 0.679695 1.66674 0
M  V30 180 H 15.7821 0.514905 0.548066 0
M  V30 181 H 17.7531 2.57975 1.49971 0
M  V30 182 C 16.5021 1.69196 3.03756 0
M  V30 183 H 15.8251 2.55784 3.07269 0
M  V30 184 H 17.2651 1.83743 3.82119 0
M  V30 185 C 15.7241 0.430765 3.34135 0
M  V30 186 O 16.2541 -0.4561 3.99102 0
M  V30 187 N 14.4601 0.302293 2.89023 0
M  V30 188 H 14.0071 1.02496 2.36331 0
M  V30 189 H 13.9651 -0.540546 3.09718 0
M  V30 190 N 17.7372 -0.778329 1.37039 0
M  V30 191 C 18.9652 -1.56734 1.35063 0
M  V30 192 C 19.3802 -1.88686 -0.0655597 0
M  V30 193 O 18.7372 -1.5096 -1.02554 0
M  V30 194 C 18.7882 -2.88163 2.18276 0
M  V30 195 O 18.5092 -2.57583 3.54376 0
M  V30 196 C 20.0102 -3.82422 2.24206 0
M  V30 197 H 17.2302 -0.485778 0.462883 0
M  V30 198 H 19.7742 -0.965185 1.8029 0
M  V30 199 H 17.9292 -3.44818 1.76576 0
M  V30 200 H 18.3432 -3.41699 3.97922 0
M  V30 201 H 19.8172 -4.71667 2.86765 0
M  V30 202 H 20.2942 -4.21078 1.24861 0
M  V30 203 H 20.9002 -3.31697 2.6619 0
M  V30 204 N 19.2153 -1.21501 -1.00376 0
M  V30 205 C 20.1453 -0.999478 -2.11028 0
M  V30 206 C 21.1263 0.0759671 -1.6993 0
M  V30 207 O 22.3113 -0.0841106 -1.94018 0
M  V30 208 C 19.4413 -0.564709 -3.42678 0
M  V30 209 C 18.3953 -1.58486 -3.97576 0
M  V30 210 C 17.7213 -1.00628 -5.25146 0
M  V30 211 C 19.0213 -2.97204 -4.29496 0
M  V30 212 H 20.7153 -1.92495 -2.29317 0
M  V30 213 H 18.2613 -0.92693 -1.102 0
M  V30 214 H 20.2143 -0.401091 -4.19487 0
M  V30 215 H 18.9383 0.396411 -3.24185 0
M  V30 216 H 17.5973 -1.73606 -3.22888 0
M  V30 217 H 17.2453 -0.0368439 -5.02987 0
M  V30 218 H 16.9453 -1.68771 -5.62841 0
M  V30 219 H 18.4693 -0.854015 -6.04598 0
M  V30 220 H 19.8833 -2.8552 -4.97143 0
M  V30 221 H 18.2803 -3.62372 -4.78338 0
M  V30 222 H 19.3503 -3.47956 -3.3772 0
M  V30 223 N 20.6934 1.19889 -1.02296 0
M  V30 224 C 21.9424 1.88743 -0.711257 0
M  V30 225 C 22.2554 1.80112 0.762817 0
M  V30 226 O 23.4614 2.44161 1.18733 0
M  V30 227 C 21.9174 3.38525 -1.22185 0
M  V30 228 C 21.5254 3.55727 -2.72328 0
M  V30 229 C 23.2694 4.12893 -0.985864 0
M  V30 230 C 21.1764 4.99369 -3.16835 0
M  V30 231 H 20.1064 0.706885 -0.262353 0
M  V30 232 H 22.7574 1.35586 -1.23648 0
M  V30 233 H 21.1394 3.91044 -0.624571 0
M  V30 234 H 22.3134 3.13564 -3.3766 0
M  V30 235 H 20.6284 2.94739 -2.9414 0
M  V30 236 H 23.2254 5.18813 -1.29374 0
M  V30 237 H 23.5684 4.16228 0.0775055 0
M  V30 238 H 24.1014 3.66494 -1.54684 0
M  V30 239 H 20.8404 5.01193 -4.22476 0
M  V30 240 H 20.3604 5.42317 -2.56228 0
M  V30 241 H 22.0394 5.67988 -3.09837 0
M  V30 242 N 22.1715 0.800033 1.35784 0
M  V30 243 C 23.1185 0.203848 2.29898 0
M  V30 244 C 24.0885 -0.658375 1.52495 0
M  V30 245 O 25.2735 -0.604832 1.8096 0
M  V30 246 C 22.4135 -0.64688 3.38983 0
M  V30 247 C 21.5265 0.235054 4.3136 0
M  V30 248 C 20.6615 -0.623054 5.27533 0
M  V30 249 C 19.7005 0.259682 6.11549 0
M  V30 250 N 18.8375 -0.558019 6.99879 0
M  V30 251 H 23.6775 1.01186 2.80295 0
M  V30 252 H 21.2145 0.51053 1.37957 0
M  V30 253 H 23.1725 -1.15521 4.00887 0
M  V30 254 H 21.8025 -1.42021 2.89879 0
M  V30 255 H 20.8545 0.861438 3.70518 0
M  V30 256 H 22.1665 0.914768 4.9034 0
M  V30 257 H 21.3205 -1.19678 5.94779 0
M  V30 258 H 20.0595 -1.33636 4.69034 0
M  V30 259 H 19.0645 0.845726 5.43256 0
M  V30 260 H 20.2895 0.970748 6.72126 0
M  V30 261 H 18.2355 -1.25542 6.43875 0
M  V30 262 H 18.1525 0.0637872 7.55973 0
M  V30 263 H 19.4205 -1.11523 7.71481 0
M  V30 264 N 23.6496 -1.47581 0.552962 0
M  V30 265 C 24.5976 -2.31648 -0.21023 0
M  V30 266 C 25.5916 -1.42663 -0.913432 0
M  V30 267 O 26.7976 -1.5945 -0.835201 0
M  V30 268 H 23.1726 -0.746989 -0.0866676 0
M  V30 269 H 25.1436 -2.93869 0.518051 0
M  V30 270 C 23.8926 -3.25226 -1.22976 0
M  V30 271 H 23.2156 -3.93658 -0.698077 0
M  V30 272 H 24.6556 -3.86889 -1.73473 0
M  V30 273 C 23.1146 -2.48448 -2.27542 0
M  V30 274 O 23.6446 -2.22585 -3.34393 0
M  V30 275 N 21.8506 -2.09532 -2.01357 0
M  V30 276 H 21.3976 -2.30765 -1.14478 0
M  V30 277 H 21.3556 -1.58476 -2.71538 0
M  V30 278 N 25.1277 -0.289203 -1.54924 0
M  V30 279 C 26.0907 0.579144 -2.21762 0
M  V30 280 C 27.0907 1.07047 -1.1999 0
M  V30 281 O 28.2807 0.968384 -1.44803 0
M  V30 282 C 25.4127 1.80055 -2.8947 0
M  V30 283 H 26.6057 -0.00464908 -2.999 0
M  V30 284 H 24.1587 -0.0399306 -1.56249 0
M  V30 285 H 24.8937 2.42449 -2.15381 0
M  V30 286 H 24.6787 1.45602 -3.64064 0
M  V30 287 H 26.1687 2.41773 -3.40493 0
M  V30 288 N 26.6058 1.57591 -0.0167156 0
M  V30 289 C 27.8308 1.9598 0.67872 0
M  V30 290 C 28.2558 0.892546 1.65575 0
M  V30 291 O 27.6138 -0.147772 1.80697 0
M  V30 292 C 27.6618 3.33468 1.37227 0
M  V30 293 O 26.7658 3.28954 2.48722 0
M  V30 294 H 26.1068 0.639339 0.17928 0
M  V30 295 H 28.6368 2.04463 -0.0748802 0
M  V30 296 H 28.6468 3.69417 1.7319 0
M  V30 297 H 27.3218 4.10694 0.656007 0
M  V30 298 H 25.8988 3.04705 2.14963 0
M  V30 299 N 28.0839 -0.256276 1.55502 0
M  V30 300 C 29.0469 -1.30047 1.88734 0
M  V30 301 C 30.0469 -1.4154 0.763086 0
M  V30 302 O 31.2369 -1.40403 1.03115 0
M  V30 303 C 28.3689 -2.67953 2.10747 0
M  V30 304 H 29.5619 -1.01802 2.82093 0
M  V30 305 H 27.1149 -0.495134 1.4825 0
M  V30 306 H 27.8499 -3.01351 1.19825 0
M  V30 307 H 27.6349 -2.60993 2.92617 0
M  V30 308 H 29.1249 -3.43368 2.37673 0
M  V30 309 N 29.562 -1.4872 -0.521534 0
M  V30 310 C 30.809 -1.57168 -1.27689 0
M  V30 311 C 31.137 -0.249275 -1.92896 0
M  V30 312 O 30.392 0.761162 -1.80291 0
M  V30 313 C 30.691 -2.66497 -2.38148 0
M  V30 314 C 30.357 -4.08664 -1.90538 0
M  V30 315 C 29.019 -4.47357 -1.77271 0
M  V30 316 C 31.371 -4.97724 -1.54663 0
M  V30 317 C 28.699 -5.72905 -1.26478 0
M  V30 318 C 31.051 -6.2377 -1.05329 0
M  V30 319 C 29.715 -6.61311 -0.906861 0
M  V30 320 H 28.985 -0.575117 -0.467249 0
M  V30 321 H 31.632 -1.82472 -0.581051 0
M  V30 322 H 29.937 -2.35085 -3.13437 0
M  V30 323 H 31.634 -2.70246 -2.96257 0
M  V30 324 H 28.224 -3.78111 -2.01816 0
M  V30 325 H 32.408 -4.68501 -1.63768 0
M  V30 326 H 27.664 -6.00709 -1.13835 0
M  V30 327 H 31.838 -6.9217 -0.76644 0
M  V30 328 H 29.465 -7.5848 -0.511083 0
M  V30 329 N 31.0401 0.771051 -1.3745 0
M  V30 330 C 32.3171 1.519 -1.23231 0
M  V30 331 C 32.6971 2.10383 0.173809 0
M  V30 332 O 32.0451 1.95583 1.18151 0
M  V30 333 C 32.2551 2.59933 -2.32886 0
M  V30 334 C 33.6031 3.27316 -2.70461 0
M  V30 335 O 34.6271 2.70228 -2.32068 0
M  V30 336 O 33.4861 4.30531 -3.36608 0
M  V30 337 H 30.5801 0.672803 -0.480901 0
M  V30 338 H 33.1261 0.807957 -1.49232 0
M  V30 339 H 31.8981 2.14842 -3.27045 0
M  V30 340 H 31.5211 3.38637 -2.08353 0
M  V30 341 N 32.5182 1.22032 0.997298 0
M  V30 342 C 33.9342 0.979326 1.26021 0
M  V30 343 C 34.1342 -0.32972 1.98784 0
M  V30 344 O 33.1902 -1.05345 2.29475 0
M  V30 345 C 34.5032 2.17509 2.07631 0
M  V30 346 C 36.0512 2.21817 2.2083 0
M  V30 347 C 36.5262 3.40933 3.05825 0
M  V30 348 N 38.0172 3.41067 3.13412 0
M  V30 349 C 38.7522 4.29885 3.79455 0
M  V30 350 N 38.2482 5.28914 4.47462 0
M  V30 351 N 40.0412 4.17673 3.76173 0
M  V30 352 H 32.1922 2.06202 0.509352 0
M  V30 353 H 34.4552 0.90334 0.287541 0
M  V30 354 H 34.1612 3.12415 1.61524 0
M  V30 355 H 34.0352 2.17206 3.08385 0
M  V30 356 H 36.4222 1.27462 2.66153 0
M  V30 357 H 36.5032 2.2616 1.1952 0
M  V30 358 H 36.1472 4.35586 2.61203 0
M  V30 359 H 36.0772 3.33829 4.07266 0
M  V30 360 H 38.5682 2.69406 2.65007 0
M  V30 361 H 38.8812 5.92973 4.95583 0
M  V30 362 H 37.2262 5.32831 4.46224 0
M  V30 363 H 40.4172 3.39564 3.22202 0
M  V30 364 H 40.5902 4.87098 4.27363 0
M  V30 365 N 33.9963 -1.19345 1.0293 0
M  V30 366 C 34.9263 -2.2481 0.631105 0
M  V30 367 C 35.9073 -1.66245 -0.360104 0
M  V30 368 O 37.0923 -1.92677 -0.242726 0
M  V30 369 C 34.2223 -3.47295 -0.0184607 0
M  V30 370 C 33.1763 -4.18536 0.895073 0
M  V30 371 C 32.5023 -5.34586 0.110592 0
M  V30 372 C 33.8023 -4.73287 2.209 0
M  V30 373 H 35.4963 -2.58372 1.51275 0
M  V30 374 H 33.0423 -1.24194 0.728818 0
M  V30 375 H 34.9953 -4.20268 -0.308675 0
M  V30 376 H 33.7193 -3.12933 -0.934907 0
M  V30 377 H 32.3783 -3.47446 1.16949 0
M  V30 378 H 32.0263 -4.96469 -0.807902 0
M  V30 379 H 31.7263 -5.83183 0.719087 0
M  V30 380 H 33.2503 -6.10355 -0.172871 0
M  V30 381 H 34.6643 -5.38013 1.98028 0
M  V30 382 H 33.0613 -5.32373 2.76946 0
M  V30 383 H 34.1313 -3.91331 2.86336 0
M  V30 384 N 35.4744 -0.807222 -1.35358 0
M  V30 385 C 36.4214 -0.216037 -2.29787 0
M  V30 386 C 37.3914 0.650278 -1.52842 0
M  V30 387 O 38.5764 0.595227 -1.81278 0
M  V30 388 C 35.7164 0.628893 -3.39321 0
M  V30 389 C 34.8294 -0.257927 -4.31229 0
M  V30 390 C 33.9644 0.595069 -5.27856 0
M  V30 391 C 33.0034 -0.292111 -6.11403 0
M  V30 392 N 32.1404 0.520895 -7.00165 0
M  V30 393 H 36.9804 -1.02671 -2.79755 0
M  V30 394 H 34.5174 -0.517839 -1.37684 0
M  V30 395 H 36.4754 1.13393 -4.01494 0
M  V30 396 H 35.1054 1.40482 -2.90628 0
M  V30 397 H 34.1574 -0.881076 -3.70056 0
M  V30 398 H 35.4694 -0.940759 -4.89848 0
M  V30 399 H 34.6234 1.16522 -5.95405 0
M  V30 400 H 33.3624 1.31146 -4.69736 0
M  V30 401 H 32.3674 -0.874525 -5.428 0
M  V30 402 H 33.5924 -1.00638 -6.71602 0
M  V30 403 H 31.5384 1.22125 -6.44532 0
M  V30 404 H 31.4554 -0.103877 -7.55929 0
M  V30 405 H 32.7234 1.0743 -7.72062 0
M  V30 406 N 36.9525 1.47285 -0.560781 0
M  V30 407 C 37.8825 2.32857 0.173105 0
M  V30 408 C 38.8635 1.44009 0.905281 0
M  V30 409 O 40.0485 1.7286 0.885046 0
M  V30 410 C 37.1785 3.25861 1.20133 0
M  V30 411 C 36.1325 4.23978 0.585388 0
M  V30 412 C 35.4585 5.06332 1.7185 0
M  V30 413 C 36.7585 5.20242 -0.463178 0
M  V30 414 H 38.4525 2.94466 -0.541307 0
M  V30 415 H 35.9985 1.41601 -0.261764 0
M  V30 416 H 37.9515 3.84569 1.72293 0
M  V30 417 H 36.6755 2.62315 1.94573 0
M  V30 418 H 35.3345 3.66501 0.085054 0
M  V30 419 H 34.9825 4.39186 2.45203 0
M  V30 420 H 34.6825 5.72762 1.31213 0
M  V30 421 H 36.2065 5.67899 2.24329 0
M  V30 422 H 37.6205 5.73293 -0.027502 0
M  V30 423 H 36.0175 5.94896 -0.788627 0
M  V30 424 H 37.0875 4.65504 -1.35773 0
M  V30 425 N 38.4306 0.297415 1.54768 0
M  V30 426 C 39.6786 -0.312295 1.99673 0
M  V30 427 C 39.9996 -1.54686 1.18732 0
M  V30 428 O 39.2696 -1.93854 0.282382 0
M  V30 429 H 37.8496 -0.118381 0.73756 0
M  V30 430 H 40.5116 0.407915 1.90583 0
M  V30 431 H 39.6076 -0.586813 3.06534 0
M  V30 432 N 39.9087 -1.5758 0.0250728 0
M  V30 433 C 40.8567 -2.11125 -0.97617 0
M  V30 434 C 41.8507 -1.03689 -1.33959 0
M  V30 435 O 43.0567 -1.22128 -1.3223 0
M  V30 436 H 39.4317 -0.674468 -0.332561 0
M  V30 437 H 41.4027 -2.94194 -0.499223 0
M  V30 438 C 40.1517 -2.65017 -2.2508 0
M  V30 439 H 39.4747 -3.47333 -1.9799 0
M  V30 440 H 40.9147 -3.06133 -2.93357 0
M  V30 441 C 39.3737 -1.57574 -2.97779 0
M  V30 442 O 39.9037 -0.973203 -3.89733 0
M  V30 443 N 38.1097 -1.29716 -2.60043 0
M  V30 444 H 37.6567 -1.789 -1.85345 0
M  V30 445 H 37.6147 -0.58051 -3.08994 0
M  V30 446 N 41.3868 0.248026 -1.55636 0
M  V30 447 C 42.3168 1.31079 -1.93237 0
M  V30 448 C 43.2978 1.50264 -0.797174 0
M  V30 449 O 44.4828 1.62891 -1.05737 0
M  V30 450 C 41.6128 2.66575 -2.22609 0
M  V30 451 C 40.5668 2.62087 -3.3837 0
M  V30 452 C 39.8928 4.01369 -3.53281 0
M  V30 453 C 41.1928 2.19171 -4.7409 0
M  V30 454 H 42.8868 0.998556 -2.82257 0
M  V30 455 H 40.4328 0.47891 -1.35803 0
M  V30 456 H 42.3858 3.41057 -2.47503 0
M  V30 457 H 41.1098 2.99432 -1.30414 0
M  V30 458 H 39.7688 1.90063 -3.13483 0
M  V30 459 H 39.4168 4.31489 -2.58508 0
M  V30 460 H 39.1168 3.99254 -4.31127 0
M  V30 461 H 40.6408 4.77552 -3.80495 0
M  V30 462 H 42.0548 2.83384 -4.98363 0
M  V30 463 H 40.4518 2.2817 -5.5503 0
M  V30 464 H 41.5218 1.14336 -4.71227 0
M  V30 465 N 42.8649 1.48995 0.513639 0
M  V30 466 C 43.8119 1.6473 1.61656 0
M  V30 467 C 44.7819 0.488984 1.58739 0
M  V30 468 O 45.9669 0.714478 1.76918 0
M  V30 469 C 43.1069 1.7082 2.99858 0
M  V30 470 C 42.2199 2.9787 3.12885 0
M  V30 471 C 41.3549 2.95017 4.41744 0
M  V30 472 C 40.3939 4.16702 4.48359 0
M  V30 473 N 39.5309 4.11832 5.68629 0
M  V30 474 H 44.3709 2.58909 1.47547 0
M  V30 475 H 41.9079 1.28382 0.71808 0
M  V30 476 H 43.8659 1.72331 3.79944 0
M  V30 477 H 42.4959 0.801181 3.12699 0
M  V30 478 H 41.5479 3.06029 2.25944 0
M  V30 479 H 42.8599 3.8786 3.13633 0
M  V30 480 H 42.0139 2.95021 5.30139 0
M  V30 481 H 40.7529 2.02784 4.43542 0
M  V30 482 H 39.7579 4.16955 3.58369 0
M  V30 483 H 40.9829 5.10113 4.48287 0
M  V30 484 H 38.9289 3.22428 5.71293 0
M  V30 485 H 38.8459 4.95543 5.7094 0
M  V30 486 H 40.1139 4.1592 6.59266 0
M  V30 487 N 44.343 -0.763751 1.37857 0
M  V30 488 C 45.291 -1.89864 1.34367 0
M  V30 489 C 46.285 -1.67816 0.231143 0
M  V30 490 O 47.491 -1.75508 0.399617 0
M  V30 491 H 43.866 -0.624501 0.41893 0
M  V30 492 H 45.837 -1.89925 2.30155 0
M  V30 493 C 44.586 -3.27227 1.1755 0
M  V30 494 H 43.909 -3.44773 2.02414 0
M  V30 495 H 45.349 -4.06911 1.1916 0
M  V30 496 C 43.808 -3.36692 -0.118311 0
M  V30 497 O 44.338 -3.86374 -1.09902 0
M  V30 498 N 42.544 -2.90092 -0.171717 0
M  V30 499 H 42.091 -2.49853 0.627012 0
M  V30 500 H 42.049 -2.96806 -1.03699 0
M  V30 501 N 45.8211 -1.22559 -0.990812 0
M  V30 502 C 46.7511 -1.0218 -2.09956 0
M  V30 503 C 47.7321 0.0579394 -1.70001 0
M  V30 504 O 48.9171 -0.104684 -1.93918 0
M  V30 505 C 46.0471 -0.601023 -3.4206 0
M  V30 506 C 45.0011 -1.62694 -3.95872 0
M  V30 507 C 44.3271 -1.06193 -5.24049 0
M  V30 508 C 45.6271 -3.01743 -4.2632 0
M  V30 509 H 47.3211 -1.94916 -2.27262 0
M  V30 510 H 44.8671 -0.938566 -1.09211 0
M  V30 511 H 46.8201 -0.445561 -4.19038 0
M  V30 512 H 45.5441 0.362005 -3.24588 0
M  V30 513 H 44.2031 -1.77021 -3.21028 0
M  V30 514 H 43.8511 -0.0901903 -5.02919 0
M  V30 515 H 43.5511 -1.74732 -5.61019 0
M  V30 516 H 45.0751 -0.918092 -6.03658 0
M  V30 517 H 46.4891 -2.90777 -4.94087 0
M  V30 518 H 44.8861 -3.67425 -4.74467 0
M  V30 519 H 45.9561 -3.51518 -3.34011 0
M  V30 520 N 47.2992 1.18797 -1.03562 0
M  V30 521 C 48.2462 2.22253 -0.622259 0
M  V30 522 C 49.2162 1.61987 0.36736 0
M  V30 523 O 50.4012 1.88986 0.262492 0
M  V30 524 C 47.5412 3.45097 0.0138462 0
M  V30 525 C 46.6542 4.19722 -1.02263 0
M  V30 526 C 45.7892 5.30009 -0.355573 0
M  V30 527 C 44.8282 5.96399 -1.37749 0
M  V30 528 N 43.9652 6.98234 -0.735766 0
M  V30 529 H 48.8052 2.56968 -1.50903 0
M  V30 530 H 46.3422 1.26245 -0.755017 0
M  V30 531 H 48.3002 4.15279 0.399948 0
M  V30 532 H 46.9302 3.11018 0.864158 0
M  V30 533 H 45.9822 3.48418 -1.52673 0
M  V30 534 H 47.2942 4.65227 -1.79903 0
M  V30 535 H 46.4482 6.0664 0.0850095 0
M  V30 536 H 45.1872 4.85592 0.452967 0
M  V30 537 H 44.1922 5.18512 -1.82826 0
M  V30 538 H 45.4172 6.42899 -2.18764 0
M  V30 539 H 43.3632 6.55979 0.0525597 0
M  V30 540 H 43.2802 7.41965 -1.44995 0
M  V30 541 H 44.5482 7.78845 -0.31941 0
M  V30 542 N 48.7773 0.814389 1.34928 0
M  V30 543 C 50.0263 0.394871 1.97797 0
M  V30 544 C 50.3393 -1.04555 1.65311 0
M  V30 545 O 51.5453 -1.56856 2.21604 0
M  V30 546 C 50.0013 0.655103 3.53888 0
M  V30 547 C 49.6093 2.10858 3.95276 0
M  V30 548 C 51.3533 0.301329 4.23429 0
M  V30 549 C 49.2603 2.31415 5.44244 0
M  V30 550 H 48.1903 0.143913 0.740139 0
M  V30 551 H 50.8413 0.999544 1.53888 0
M  V30 552 H 49.2233 -0.0196253 3.95995 0
M  V30 553 H 50.3973 2.82176 3.64298 0
M  V30 554 H 48.7123 2.42297 3.38646 0
M  V30 555 H 51.3093 0.432869 5.32945 0
M  V30 556 H 51.6523 -0.75331 4.09428 0
M  V30 557 H 52.1853 0.930288 3.86769 0
M  V30 558 H 48.9243 3.35353 5.63222 0
M  V30 559 H 48.4443 1.6463 5.76764 0
M  V30 560 H 50.1233 2.13352 6.10811 0
M  V30 561 N 50.2554 -1.46986 0.568584 0
M  V30 562 C 51.1874 -2.28233 -0.210337 0
M  V30 563 C 52.2004 -1.37682 -0.868767 0
M  V30 564 O 53.3894 -1.62406 -0.740705 0
M  V30 565 C 50.4894 -3.12293 -1.3163 0
M  V30 566 C 49.6624 -4.30878 -0.7525 0
M  V30 567 C 48.7214 -4.96445 -1.74439 0
M  V30 568 O 47.7474 -5.54482 -1.286 0
M  V30 569 N 48.9494 -4.92171 -3.07812 0
M  V30 570 H 51.7144 -2.95723 0.486648 0
M  V30 571 H 49.2754 -1.56742 0.405409 0
M  V30 572 H 51.2674 -3.53022 -1.97883 0
M  V30 573 H 49.8374 -2.46971 -1.91636 0
M  V30 574 H 49.0574 -3.94104 0.0871128 0
M  V30 575 H 50.3454 -5.07558 -0.35536 0
M  V30 576 H 49.7434 -4.46239 -3.47688 0
M  V30 577 H 48.3004 -5.36884 -3.69592 0
M  V30 578 N 51.7335 -0.305618 -1.54608 0
M  V30 579 C 52.6805 0.568421 -2.23691 0
M  V30 580 C 53.6505 1.12592 -1.22116 0
M  V30 581 O 54.8355 1.16959 -1.50749 0
M  V30 582 C 51.9755 1.7322 -2.98477 0
M  V30 583 C 51.0885 1.20566 -4.14835 0
M  V30 584 C 50.2235 2.33368 -4.77193 0
M  V30 585 C 49.2625 1.7787 -5.85686 0
M  V30 586 N 48.3995 2.84263 -6.4198 0
M  V30 587 H 53.2395 -0.0272867 -2.97988 0
M  V30 588 H 50.7765 -0.0252363 -1.47078 0
M  V30 589 H 52.7345 2.41675 -3.40072 0
M  V30 590 H 51.3645 2.29947 -2.26548 0
M  V30 591 H 50.4165 0.413223 -3.78149 0
M  V30 592 H 51.7285 0.759417 -4.92985 0
M  V30 593 H 50.8825 3.09761 -5.21664 0
M  V30 594 H 49.6215 2.8132 -3.98385 0
M  V30 595 H 48.6265 0.99968 -5.40635 0
M  V30 596 H 49.8515 1.30816 -6.66381 0
M  V30 597 H 47.7975 3.31541 -5.66053 0
M  V30 598 H 47.7145 2.44149 -7.15491 0
M  V30 599 H 48.9825 3.6054 -6.91109 0
M  V30 600 N 53.2116 1.57565 -0.0334293 0
M  V30 601 C 54.1586 2.10478 0.946981 0
M  V30 602 C 55.1286 1.00787 1.32027 0
M  V30 603 O 56.3136 1.28232 1.41284 0
M  V30 604 C 53.4536 2.63994 2.22263 0
M  V30 605 C 52.5666 3.87709 1.90541 0
M  V30 606 C 51.7016 4.29604 3.12433 0
M  V30 607 C 50.7406 5.46065 2.76549 0
M  V30 608 N 49.8776 5.83096 3.9108 0
M  V30 609 H 54.7176 2.93963 0.488846 0
M  V30 610 H 52.2546 1.45296 0.22969 0
M  V30 611 H 54.2126 2.93114 2.96884 0
M  V30 612 H 52.8426 1.83333 2.65685 0
M  V30 613 H 51.8946 3.65291 1.06144 0
M  V30 614 H 53.2066 4.72403 1.60116 0
M  V30 615 H 52.3606 4.60182 3.9537 0
M  V30 616 H 51.0996 3.43685 3.46023 0
M  V30 617 H 50.1046 5.15176 1.92026 0
M  V30 618 H 51.3296 6.33685 2.44171 0
M  V30 619 H 49.2756 5.00132 4.24504 0
M  V30 620 H 49.1926 6.6244 3.64293 0
M  V30 621 H 50.4606 6.18282 4.74708 0
M  V30 622 N 54.6897 -0.239769 1.55765 0
M  V30 623 C 55.6197 -1.30052 1.9393 0
M  V30 624 C 56.6007 -1.49839 0.805132 0
M  V30 625 O 57.7857 -1.62328 1.06599 0
M  V30 626 C 54.9157 -2.65391 2.2402 0
M  V30 627 C 53.8697 -2.60289 3.39755 0
M  V30 628 C 53.1957 -3.99489 3.55405 0
M  V30 629 C 54.4957 -2.16654 4.75246 0
M  V30 630 H 56.1897 -0.983573 2.82783 0
M  V30 631 H 53.7357 -0.471701 1.36055 0
M  V30 632 H 55.6887 -3.3974 2.49308 0
M  V30 633 H 54.4127 -2.98736 1.32 0
M  V30 634 H 53.0717 -1.88398 3.14487 0
M  V30 635 H 52.7197 -4.30112 2.60793 0
M  V30 636 H 52.4197 -3.96962 4.33238 0
M  V30 637 H 53.9437 -4.75528 3.83022 0
M  V30 638 H 55.3577 -2.80737 4.99859 0
M  V30 639 H 53.7547 -2.25223 5.56232 0
M  V30 640 H 54.8247 -1.11835 4.71827 0
M  V30 641 N 56.1678 -1.49265 -0.50573 0
M  V30 642 C 57.0998 -1.617 -1.62437 0
M  V30 643 C 58.1128 -0.499924 -1.54934 0
M  V30 644 O 59.3018 -0.771785 -1.60953 0
M  V30 645 C 56.4018 -1.5533 -3.01207 0
M  V30 646 C 55.5748 -2.8249 -3.33943 0
M  V30 647 C 54.6338 -2.69238 -4.52103 0
M  V30 648 O 53.6598 -3.43167 -4.5412 0
M  V30 649 N 54.8618 -1.80468 -5.51735 0
M  V30 650 H 57.6268 -2.58177 -1.52199 0
M  V30 651 H 55.1878 -1.46294 -0.693511 0
M  V30 652 H 57.1798 -1.44125 -3.78167 0
M  V30 653 H 55.7498 -0.667297 -3.05395 0
M  V30 654 H 54.9698 -3.08081 -2.45926 0
M  V30 655 H 56.2578 -3.66802 -3.5261 0
M  V30 656 H 55.6558 -1.19653 -5.52901 0
M  V30 657 H 54.2128 -1.75188 -6.27816 0
M  V30 658 N 57.6459 0.756429 -1.3826 0
M  V30 659 C 58.8929 1.51547 -1.34312 0
M  V30 660 C 59.2209 1.94382 0.0677144 0
M  V30 661 O 58.4759 1.65514 1.04421 0
M  V30 662 C 58.7749 2.78313 -2.24224 0
M  V30 663 C 58.4409 2.54455 -3.72241 0
M  V30 664 C 57.1029 2.47657 -4.12576 0
M  V30 665 C 59.4549 2.3354 -4.65949 0
M  V30 666 C 56.7829 2.17956 -5.44713 0
M  V30 667 C 59.1349 2.05359 -5.9834 0
M  V30 668 C 57.7989 1.97016 -6.37762 0
M  V30 669 H 57.0689 0.55455 -0.491482 0
M  V30 670 H 59.7159 0.870039 -1.70595 0
M  V30 671 H 58.0209 3.47492 -1.80987 0
M  V30 672 H 59.7179 3.36259 -2.18474 0
M  V30 673 H 56.3079 2.60616 -3.40261 0
M  V30 674 H 60.4919 2.37772 -4.35635 0
M  V30 675 H 55.7479 2.10003 -5.74203 0
M  V30 676 H 59.9219 1.88179 -6.70494 0
M  V30 677 H 57.5489 1.73766 -7.40074 0
M  V30 678 N 59.124 1.23083 0.984299 0
M  V30 679 C 60.054 1.03292 2.09411 0
M  V30 680 C 61.035 -0.048923 1.7003 0
M  V30 681 O 62.22 0.114967 1.93859 0
M  V30 682 C 59.35 0.619155 3.41736 0
M  V30 683 C 58.304 1.64791 3.95004 0
M  V30 684 C 57.63 1.0897 5.23478 0
M  V30 685 C 58.93 3.03999 4.24714 0
M  V30 686 H 60.624 1.96119 2.26225 0
M  V30 687 H 58.17 0.944344 1.08711 0
M  V30 688 H 60.123 0.467777 4.18796 0
M  V30 689 H 58.847 -0.344786 3.24775 0
M  V30 690 H 57.506 1.78721 3.20085 0
M  V30 691 H 57.154 0.11686 5.02864 0
M  V30 692 H 56.854 1.77704 5.60085 0
M  V30 693 H 58.378 0.950093 6.03163 0
M  V30 694 H 59.792 2.93393 4.92538 0
M  V30 695 H 58.189 3.69936 4.72512 0
M  V30 696 H 59.259 3.53285 3.32142 0
M  V30 697 N 60.6021 -1.18246 1.0419 0
M  V30 698 C 61.8321 -1.91916 0.764961 0
M  V30 699 C 62.2401 -1.76485 -0.681898 0
M  V30 700 O 61.5831 -1.09275 -1.47664 0
M  V30 701 C 61.6451 -3.4373 1.05309 0
M  V30 702 C 61.3091 -3.8294 2.4941 0
M  V30 703 C 62.3061 -3.86621 3.47592 0
M  V30 704 C 59.9911 -4.142 2.84155 0
M  V30 705 C 61.9851 -4.21013 4.78568 0
M  V30 706 C 59.6721 -4.48262 4.15337 0
M  V30 707 C 60.6701 -4.51645 5.12353 0
M  V30 708 O 60.3581 -4.84911 6.41183 0
M  V30 709 H 60.0901 -0.61606 0.278292 0
M  V30 710 H 62.6441 -1.50947 1.39299 0
M  V30 711 H 60.8741 -3.84946 0.367933 0
M  V30 712 H 62.5631 -3.9865 0.763752 0
M  V30 713 H 63.3291 -3.62607 3.22089 0
M  V30 714 H 59.2081 -4.10743 2.09311 0
M  V30 715 H 62.7521 -4.23568 5.54289 0
M  V30 716 H 58.6491 -4.71737 4.40607 0
M  V30 717 H 59.4171 -5.02809 6.45852 0
M  V30 718 N 62.0802 -0.821533 -1.34494 0
M  V30 719 C 63.0102 -0.257138 -2.3208 0
M  V30 720 C 63.9912 0.625645 -1.58176 0
M  V30 721 O 65.1762 0.552811 -1.86166 0
M  V30 722 C 62.3062 0.582958 -3.42372 0
M  V30 723 C 61.2602 -0.202571 -4.2752 0
M  V30 724 C 60.5862 0.760179 -5.29269 0
M  V30 725 C 61.8862 -1.40998 -5.02908 0
M  V30 726 H 63.5802 -1.07247 -2.79532 0
M  V30 727 H 61.1262 -0.517163 -1.34393 0
M  V30 728 H 63.0792 0.987972 -4.09655 0
M  V30 729 H 61.8032 1.43133 -2.93565 0
M  V30 730 H 60.4622 -0.588936 -3.61838 0
M  V30 731 H 60.1102 1.60447 -4.76724 0
M  V30 732 H 59.8102 0.238809 -5.87115 0
M  V30 733 H 61.3342 1.16308 -5.9942 0
M  V30 734 H 62.7482 -1.07905 -5.63054 0
M  V30 735 H 61.1452 -1.86689 -5.70322 0
M  V30 736 H 62.2152 -2.1889 -4.32684 0
M  V30 737 N 63.5583 1.46682 -0.576371 0
M  V30 738 C 64.8073 2.01619 -0.0572825 0
M  V30 739 C 65.1203 1.45417 1.30818 0
M  V30 740 O 66.3263 1.92133 1.91825 0
M  V30 741 C 64.7823 3.59863 -0.0518371 0
M  V30 742 C 64.3903 4.25059 -1.41523 0
M  V30 743 C 66.1343 4.2248 0.413639 0
M  V30 744 C 64.0413 5.75364 -1.36785 0
M  V30 745 H 62.9713 0.753794 -0.0176448 0
M  V30 746 H 65.6223 1.68481 -0.727076 0
M  V30 747 H 64.0043 3.90048 0.683994 0
M  V30 748 H 65.1783 4.06491 -2.17029 0
M  V30 749 H 63.4933 3.7451 -1.8202 0
M  V30 750 H 66.0903 5.3265 0.467779 0
M  V30 751 H 66.4333 3.90976 1.42982 0
M  V30 752 H 66.9663 3.96897 -0.267929 0
M  V30 753 H 63.7053 6.11518 -2.36063 0
M  V30 754 H 63.2253 5.96214 -0.654895 0
M  V30 755 H 64.9043 6.37955 -1.07805 0
M  V30 756 N 65.0364 0.313813 1.54444 0
M  V30 757 C 65.9664 -0.549454 2.26943 0
M  V30 758 C 66.9474 -1.12741 1.27372 0
M  V30 759 O 68.1324 -1.15436 1.56167 0
M  V30 760 C 65.2624 -1.71523 3.01989 0
M  V30 761 C 64.2164 -1.26703 4.08816 0
M  V30 762 C 63.5424 -2.51898 4.71647 0
M  V30 763 C 64.8424 -0.388962 5.2085 0
M  V30 764 H 66.5364 0.0552661 2.99349 0
M  V30 765 H 64.0824 0.0280207 1.43973 0
M  V30 766 H 66.0354 -2.32535 3.51433 0
M  V30 767 H 64.7594 -2.34639 2.27183 0
M  V30 768 H 63.4184 -0.679896 3.6024 0
M  V30 769 H 63.0664 -3.13356 3.93468 0
M  V30 770 H 62.7664 -2.22605 5.43802 0
M  V30 771 H 64.2904 -3.1369 5.23861 0
M  V30 772 H 65.7044 -0.905107 5.6611 0
M  V30 773 H 64.1014 -0.18924 5.99802 0
M  V30 774 H 65.1714 0.582699 4.81386 0
M  V30 775 N 66.5145 -1.57545 0.0417849 0
M  V30 776 C 67.7615 -1.92317 -0.634082 0
M  V30 777 C 68.0895 -0.919334 -1.71402 0
M  V30 778 O 67.3445 0.0698253 -1.95575 0
M  V30 779 C 67.6435 -3.33794 -1.27735 0
M  V30 780 C 67.3095 -4.49716 -0.326543 0
M  V30 781 C 65.9715 -4.81156 -0.0648814 0
M  V30 782 C 68.3235 -5.20182 0.325623 0
M  V30 783 C 65.6515 -5.80414 0.856539 0
M  V30 784 C 68.0035 -6.20424 1.23518 0
M  V30 785 C 66.6675 -6.50298 1.5056 0
M  V30 786 H 65.9375 -0.703736 -0.232027 0
M  V30 787 H 68.5845 -1.91205 0.106259 0
M  V30 788 H 66.8895 -3.31228 -2.09274 0
M  V30 789 H 68.5865 -3.57975 -1.80707 0
M  V30 790 H 65.1765 -4.25176 -0.540665 0
M  V30 791 H 69.3605 -4.96112 0.136546 0
M  V30 792 H 64.6165 -6.019 1.07363 0
M  V30 793 H 68.7905 -6.74141 1.74664 0
M  V30 794 H 66.4175 -7.27025 2.22123 0
M  V30 795 N 67.9926 0.231505 -1.5589 0
M  V30 796 C 69.2386 0.95877 -1.78705 0
M  V30 797 C 69.5716 1.8438 -0.609725 0
M  V30 798 O 68.8466 1.90521 0.391426 0
M  V30 799 C 69.1296 1.8062 -3.11526 0
M  V30 800 C 68.9826 0.948328 -4.39689 0
M  V30 801 C 70.3016 2.78585 -3.40703 0
M  V30 802 H 67.4206 0.347129 -0.650131 0
M  V30 803 H 70.0626 0.228259 -1.88624 0
M  V30 804 H 68.2126 2.42902 -3.03201 0
M  V30 805 H 69.8846 0.343016 -4.60023 0
M  V30 806 H 68.1276 0.253314 -4.3306 0
M  V30 807 H 68.7986 1.57543 -5.29041 0
M  V30 808 H 71.2746 2.26439 -3.49091 0
M  V30 809 H 70.1506 3.34988 -4.34826 0
M  V30 810 H 70.4116 3.55825 -2.62375 0
M  V30 811 N 69.4707 1.49531 0.497807 0
M  V30 812 C 70.4007 1.6935 1.60757 0
M  V30 813 C 71.3817 0.542218 1.61227 0
M  V30 814 O 72.5667 0.778417 1.77917 0
M  V30 815 C 69.6967 1.76298 2.99226 0
M  V30 816 C 68.6507 2.91248 3.13622 0
M  V30 817 C 67.9767 2.83312 4.53474 0
M  V30 818 C 69.2767 4.3214 2.93346 0
M  V30 819 H 70.9707 2.62263 1.44425 0
M  V30 820 H 68.5167 1.26208 0.693367 0
M  V30 821 H 70.4697 1.88749 3.76765 0
M  V30 822 H 69.1937 0.799871 3.16654 0
M  V30 823 H 67.8527 2.78404 2.38509 0
M  V30 824 H 67.5007 1.84902 4.67782 0
M  V30 825 H 67.2007 3.60465 4.64046 0
M  V30 826 H 68.7247 2.97775 5.33069 0
M  V30 827 H 70.1387 4.45649 3.60652 0
M  V30 828 H 68.5357 5.1054 3.15387 0
M  V30 829 H 69.6057 4.46363 1.89441 0
M  V30 830 N 70.9488 -0.749086 1.3866 0
M  V30 831 C 72.1978 -1.50371 1.3443 0
M  V30 832 C 72.5108 -1.95503 -0.0616397 0
M  V30 833 O 73.7168 -2.70554 -0.226489 0
M  V30 834 C 72.1728 -2.71644 2.36088 0
M  V30 835 C 71.7808 -2.3352 3.82325 0
M  V30 836 C 73.5248 -3.49518 2.40909 0
M  V30 837 C 71.4318 -3.51431 4.75658 0
M  V30 838 H 70.3618 -0.564628 0.499712 0
M  V30 839 H 73.0128 -0.818449 1.64237 0
M  V30 840 H 71.3948 -3.42175 1.9933 0
M  V30 841 H 72.5688 -1.70627 4.28046 0
M  V30 842 H 70.8838 -1.6877 3.80665 0
M  V30 843 H 73.4808 -4.37197 3.07836 0
M  V30 844 H 73.8238 -3.90992 1.42937 0
M  V30 845 H 74.3568 -2.86005 2.76489 0
M  V30 846 H 71.0958 -3.15019 5.74842 0
M  V30 847 H 70.6158 -4.13352 4.34627 0
M  V30 848 H 72.2948 -4.17953 4.93887 0
M  V30 849 N 72.4269 -1.23603 -0.977757 0
M  V30 850 C 73.6549 -1.09646 -1.75458 0
M  V30 851 C 74.0699 0.351859 -1.85492 0
M  V30 852 O 73.4269 1.24327 -1.336 0
M  V30 853 C 73.4779 -1.71895 -3.18016 0
M  V30 854 O 73.1989 -3.11063 -3.08498 0
M  V30 855 C 74.6999 -1.63415 -4.12081 0
M  V30 856 H 71.9199 -0.38359 -0.550545 0
M  V30 857 H 74.4639 -1.63507 -1.22824 0
M  V30 858 H 72.6189 -1.22061 -3.67668 0
M  V30 859 H 73.0329 -3.41305 -3.9826 0
M  V30 860 H 74.5069 -2.11669 -5.09804 0
M  V30 861 H 74.9839 -0.593462 -4.35172 0
M  V30 862 H 75.5899 -2.12628 -3.68334 0
M  V30 863 N 73.905 1.17692 -1.04816 0
M  V30 864 C 75.153 1.87488 -0.754497 0
M  V30 865 C 75.474 1.81205 0.720407 0
M  V30 866 O 74.744 1.23544 1.52032 0
M  V30 867 H 73.324 0.694101 -0.276102 0
M  V30 868 H 75.986 1.42793 -1.32651 0
M  V30 869 H 75.082 2.93328 -1.06606 0
M  V30 870 N 75.3831 0.828654 1.34056 0
M  V30 871 C 76.6291 0.42008 1.98402 0
M  V30 872 C 76.9621 -1.01564 1.65525 0
M  V30 873 O 76.2371 -1.70834 0.929831 0
M  V30 874 C 76.5201 0.62927 3.54559 0
M  V30 875 C 76.3731 2.11152 3.97159 0
M  V30 876 C 77.6921 0.0688756 4.40046 0
M  V30 877 H 74.8111 0.154104 0.720709 0
M  V30 878 H 77.4531 1.04228 1.5886 0
M  V30 879 H 75.6031 0.0996418 3.88372 0
M  V30 880 H 77.2751 2.70522 3.73651 0
M  V30 881 H 75.5181 2.59985 3.47261 0
M  V30 882 H 76.1891 2.20868 5.05887 0
M  V30 883 H 78.6651 0.521458 4.1282 0
M  V30 884 H 77.5411 0.245006 5.48353 0
M  V30 885 H 77.8021 -1.0266 4.30015 0
M  V30 886 N 76.8612 -1.46375 0.584142 0
M  V30 887 C 78.1082 -2.02378 0.0702675 0
M  V30 888 C 78.4362 -1.45545 -1.29023 0
M  V30 889 O 77.6912 -0.610967 -1.85918 0
M  V30 890 C 77.9902 -3.57373 -0.0439342 0
M  V30 891 C 77.6562 -4.33252 1.24915 0
M  V30 892 C 76.3182 -4.53701 1.60341 0
M  V30 893 C 78.6702 -4.7681 2.1048 0
M  V30 894 C 75.9982 -5.1496 2.81128 0
M  V30 895 C 78.3502 -5.39404 3.30494 0
M  V30 896 C 77.0142 -5.5808 3.66201 0
M  V30 897 H 76.2842 -0.740554 0.0257127 0
M  V30 898 H 78.9312 -1.75727 0.761065 0
M  V30 899 H 77.2362 -3.83169 -0.817869 0
M  V30 900 H 78.9332 -3.98384 -0.457318 0
M  V30 901 H 75.5232 -4.17633 0.963364 0
M  V30 902 H 79.7072 -4.60766 1.84414 0
M  V30 903 H 74.9632 -5.27611 3.08928 0
M  V30 904 H 79.1372 -5.72114 3.97063 0
M  V30 905 H 76.7642 -6.05318 4.59885 0
M  V30 906 N 78.3393 -0.321999 -1.54275 0
M  V30 907 C 79.5863 0.281044 -2.0054 0
M  V30 908 C 79.9143 1.52265 -1.21019 0
M  V30 909 O 79.1693 1.93687 -0.279982 0
M  V30 910 C 79.4683 0.661769 -3.5122 0
M  V30 911 C 79.1343 -0.480482 -4.48333 0
M  V30 912 C 77.7963 -0.794005 -4.74604 0
M  V30 913 C 80.1483 -1.24783 -5.06042 0
M  V30 914 C 77.4763 -1.87763 -5.55844 0
M  V30 915 C 79.8283 -2.32153 -5.88462 0
M  V30 916 C 78.4923 -2.64089 -6.13036 0
M  V30 917 H 77.7623 0.102841 -0.733829 0
M  V30 918 H 80.4093 -0.445453 -1.86247 0
M  V30 919 H 78.7143 1.46867 -3.63232 0
M  V30 920 H 80.4113 1.13989 -3.84457 0
M  V30 921 H 77.0013 -0.226039 -4.28004 0
M  V30 922 H 81.1853 -1.01887 -4.85729 0
M  V30 923 H 76.4413 -2.12954 -5.73115 0
M  V30 924 H 80.6153 -2.92057 -6.32199 0
M  V30 925 H 78.2423 -3.48185 -6.75775 0
M  V30 926 N 79.8174 1.5752 -0.0501392 0
M  V30 927 C 81.0644 1.9265 0.623874 0
M  V30 928 C 81.3924 0.928411 1.70912 0
M  V30 929 O 80.6474 -0.0594525 1.9561 0
M  V30 930 C 80.9464 3.34467 1.25963 0
M  V30 931 C 80.6124 4.49883 0.302689 0
M  V30 932 C 79.2744 4.81184 0.0393636 0
M  V30 933 C 81.6264 5.20002 -0.353205 0
M  V30 934 C 78.9544 5.79951 -0.887308 0
M  V30 935 C 81.3064 6.1976 -1.26806 0
M  V30 936 C 79.9704 6.49491 -1.54007 0
M  V30 937 H 79.2404 0.704957 0.228292 0
M  V30 938 H 81.8874 1.91146 -0.116398 0
M  V30 939 H 80.1924 3.32333 2.07514 0
M  V30 940 H 81.8894 3.58928 1.78806 0
M  V30 941 H 78.4794 4.25457 0.518109 0
M  V30 942 H 82.6634 4.96033 -0.162854 0
M  V30 943 H 77.9194 6.01322 -1.10553 0
M  V30 944 H 82.0934 6.73205 -1.78236 0
M  V30 945 H 79.7204 7.25837 -2.25976 0
M  V30 946 N 81.2955 -0.223234 1.56011 0
M  V30 947 C 82.5425 -0.947875 1.78946 0
M  V30 948 C 82.8705 -1.844 0.618608 0
M  V30 949 O 82.1255 -1.91629 -0.397093 0
M  V30 950 C 82.4245 -1.81948 3.0762 0
M  V30 951 C 82.0905 -1.07672 4.37856 0
M  V30 952 C 80.7525 -0.871544 4.73242 0
M  V30 953 C 83.1045 -0.552081 5.18268 0
M  V30 954 C 80.4325 -0.129791 5.86556 0
M  V30 955 C 82.7845 0.17632 6.32354 0
M  V30 956 C 81.4485 0.39277 6.66343 0
M  V30 957 H 80.7185 -0.346852 0.654809 0
M  V30 958 H 83.3655 -0.216171 1.90276 0
M  V30 959 H 81.6705 -2.61899 2.91404 0
M  V30 960 H 83.3675 -2.38227 3.22566 0
M  V30 961 H 79.9575 -1.24662 4.1007 0
M  V30 962 H 84.1415 -0.698076 4.91366 0
M  V30 963 H 79.3975 0.048153 6.11381 0
M  V30 964 H 83.5715 0.590367 6.93893 0
M  V30 965 H 81.1985 0.969466 7.53993 0
M  V30 966 N 82.7736 -1.49793 -0.48987 0
M  V30 967 C 83.7036 -1.70201 -1.59856 0
M  V30 968 C 84.6846 -0.55076 -1.60937 0
M  V30 969 O 85.8696 -0.787841 -1.77501 0
M  V30 970 C 82.9996 -1.77882 -2.98287 0
M  V30 971 C 81.9536 -2.92907 -3.12073 0
M  V30 972 C 81.2796 -2.85712 -4.51965 0
M  V30 973 C 82.5796 -4.3369 -2.91051 0
M  V30 974 H 84.2736 -2.63025 -1.43032 0
M  V30 975 H 81.8196 -1.26574 -0.686664 0
M  V30 976 H 83.7726 -1.90744 -3.75759 0
M  V30 977 H 82.4966 -0.816653 -3.16225 0
M  V30 978 H 81.1556 -2.79665 -2.37029 0
M  V30 979 H 80.8036 -1.8738 -4.66795 0
M  V30 980 H 80.5036 -3.62921 -4.62128 0
M  V30 981 H 82.0276 -3.00598 -5.31482 0
M  V30 982 H 83.4416 -4.47555 -3.58284 0
M  V30 983 H 81.8386 -5.12205 -3.12675 0
M  V30 984 H 82.9086 -4.47362 -1.87071 0
M  V30 985 N 84.2517 0.741722 -1.39055 0
M  V30 986 C 85.5007 1.49656 -1.35225 0
M  V30 987 C 85.8137 1.95533 0.0512708 0
M  V30 988 O 87.0197 2.7067 0.212138 0
M  V30 989 C 85.4757 2.70389 -2.37525 0
M  V30 990 C 85.0837 2.31489 -3.83558 0
M  V30 991 C 86.8277 3.48236 -2.42759 0
M  V30 992 C 84.7347 3.48903 -4.77515 0
M  V30 993 H 83.6647 0.56197 -0.502699 0
M  V30 994 H 86.3157 0.809727 -1.64668 0
M  V30 995 H 84.6977 3.41113 -2.01142 0
M  V30 996 H 85.8717 1.68354 -4.28945 0
M  V30 997 H 84.1867 1.66749 -3.81554 0
M  V30 998 H 86.7837 4.35558 -3.1015 0
M  V30 999 H 87.1267 3.90229 -1.45008 0
M  V30 1000 H 87.6597 2.84535 -2.78002 0
M  V30 1001 H 84.3987 3.11966 -5.76504 0
M  V30 1002 H 83.9187 4.11041 -4.36813 0
M  V30 1003 H 85.5977 4.15328 -4.96096 0
M  V30 1004 N 85.7298 1.2412 0.971189 0
M  V30 1005 C 86.9778 1.07668 1.71032 0
M  V30 1006 C 87.2988 -0.385797 1.91146 0
M  V30 1007 O 86.5688 -1.27569 1.4867 0
M  V30 1008 H 85.1488 0.395429 0.633755 0
M  V30 1009 H 87.8108 1.55984 1.16855 0
M  V30 1010 H 86.9068 1.57195 2.69622 0
M  V30 1011 N 87.2079 -1.17134 1.05439 0
M  V30 1012 C 88.1559 -2.23289 0.651511 0
M  V30 1013 C 89.1499 -1.66186 -0.328411 0
M  V30 1014 O 90.3559 -1.78949 -0.194206 0
M  V30 1015 H 86.7309 -0.726938 0.192523 0
M  V30 1016 H 88.7019 -2.54565 1.55689 0
M  V30 1017 C 87.4509 -3.47671 0.0448436 0
M  V30 1018 H 86.7739 -3.91918 0.78996 0
M  V30 1019 H 88.2139 -4.2353 -0.19964 0
M  V30 1020 C 86.6729 -3.14453 -1.20918 0
M  V30 1021 O 87.2029 -3.29459 -2.29825 0
M  V30 1022 N 85.4089 -2.68657 -1.10779 0
M  V30 1023 H 84.9559 -2.56646 -0.221526 0
M  V30 1024 H 84.9139 -2.46804 -1.9477 0
M  V30 1025 N 88.686 -0.835752 -1.33615 0
M  V30 1026 C 89.933 -0.429959 -1.97883 0
M  V30 1027 C 90.261 1.01006 -1.66217 0
M  V30 1028 O 89.516 1.72047 -0.93265 0
M  V30 1029 C 89.815 -0.593925 -3.52431 0
M  V30 1030 C 89.481 -2.00158 -4.04039 0
M  V30 1031 C 88.143 -2.38662 -4.17844 0
M  V30 1032 C 90.495 -2.92117 -4.31644 0
M  V30 1033 C 87.823 -3.68435 -4.56588 0
M  V30 1034 C 90.175 -4.21368 -4.71838 0
M  V30 1035 C 88.839 -4.59833 -4.83849 0
M  V30 1036 H 88.109 -0.157333 -0.724104 0
M  V30 1037 H 90.756 -1.06217 -1.59343 0
M  V30 1038 H 89.061 0.121619 -3.91611 0
M  V30 1039 H 90.758 -0.260282 -4.00154 0
M  V30 1040 H 87.348 -1.69252 -3.93766 0
M  V30 1041 H 91.532 -2.63608 -4.20505 0
M  V30 1042 H 86.788 -3.98046 -4.64079 0
M  V30 1043 H 90.962 -4.92703 -4.92155 0
M  V30 1044 H 88.589 -5.60438 -5.13627 0
M  V30 1045 N 90.1641 1.46063 -0.591896 0
M  V30 1046 C 91.3941 2.06418 -0.0867676 0
M  V30 1047 C 91.8021 1.43975 1.22751 0
M  V30 1048 O 91.1451 0.542531 1.75506 0
M  V30 1049 C 91.2071 3.59213 0.143725 0
M  V30 1050 C 90.8711 4.439 -1.08635 0
M  V30 1051 C 91.8681 4.79864 -2.00067 0
M  V30 1052 C 89.5531 4.84896 -1.31077 0
M  V30 1053 C 91.5471 5.55661 -3.12282 0
M  V30 1054 C 89.2341 5.6045 -2.43596 0
M  V30 1055 C 90.2321 5.95747 -3.34027 0
M  V30 1056 O 89.9201 6.69772 -4.4459 0
M  V30 1057 H 89.6521 0.673443 -0.0587447 0
M  V30 1058 H 92.2061 1.88539 -0.814994 0
M  V30 1059 H 90.4361 3.75433 0.926668 0
M  V30 1060 H 92.1251 4.01463 0.5985 0
M  V30 1061 H 92.8911 4.48763 -1.83947 0
M  V30 1062 H 88.7701 4.56867 -0.61594 0
M  V30 1063 H 92.3141 5.8313 -3.82891 0
M  V30 1064 H 88.2111 5.90965 -2.59674 0
M  V30 1065 H 88.9791 6.88207 -4.43073 0
M  V30 1066 N 91.6422 0.330177 1.54103 0
M  V30 1067 C 92.8672 -0.274893 2.0557 0
M  V30 1068 C 93.2922 -1.44487 1.20437 0
M  V30 1069 O 92.6502 -1.80021 0.214991 0
M  V30 1070 C 92.6982 -0.68079 3.54115 0
M  V30 1071 O 91.8022 -1.7824 3.71893 0
M  V30 1072 H 91.1432 -0.0483849 0.662235 0
M  V30 1073 H 93.6732 0.480508 1.98878 0
M  V30 1074 H 93.6832 -0.961635 3.96505 0
M  V30 1075 H 92.3582 0.174903 4.15532 0
M  V30 1076 H 90.9352 -1.49985 3.41407 0
M  V30 1077 N 93.1203 -1.57491 0.0584922 0
M  V30 1078 C 94.0703 -2.08474 -0.923188 0
M  V30 1079 C 95.0543 -0.991479 -1.26722 0
M  V30 1080 O 96.2463 -1.25473 -1.24842 0
M  V30 1081 C 93.3753 -2.6392 -2.19548 0
M  V30 1082 C 92.4613 -3.80227 -1.87852 0
M  V30 1083 N 92.8523 -4.89714 -1.26546 0
M  V30 1084 C 91.1503 -3.89271 -2.17679 0
M  V30 1085 C 91.8513 -5.70689 -1.12644 0
M  V30 1086 N 90.8273 -5.18531 -1.63176 0
M  V30 1087 H 94.6293 -2.90517 -0.444653 0
M  V30 1088 H 92.1433 -1.61745 -0.145764 0
M  V30 1089 H 94.1403 -2.98752 -2.9078 0
M  V30 1090 H 92.8003 -1.83318 -2.68001 0
M  V30 1091 H 93.8113 -5.09358 -0.936757 0
M  V30 1092 H 90.4883 -3.19623 -2.68602 0
M  V30 1093 H 91.8783 -6.6875 -0.6499 0
M  V30 1094 N 94.5984 0.214957 -1.56127 0
M  V30 1095 C 96.0144 0.564948 -1.49267 0
M  V30 1096 C 96.2144 1.86827 -0.754838 0
M  V30 1097 O 95.2704 2.50745 -0.297198 0
M  V30 1098 C 96.5834 0.638071 -2.93852 0
M  V30 1099 C 98.1314 0.728253 -3.0441 0
M  V30 1100 C 98.6064 0.832663 -4.50367 0
M  V30 1101 N 100.097 0.896712 -4.54437 0
M  V30 1102 C 100.832 0.997324 -5.6466 0
M  V30 1103 N 100.328 1.06147 -6.8462 0
M  V30 1104 N 102.121 1.03297 -5.52527 0
M  V30 1105 H 94.2724 -0.640211 -2.02522 0
M  V30 1106 H 96.5354 -0.225507 -0.920788 0
M  V30 1107 H 96.2414 -0.250126 -3.50809 0
M  V30 1108 H 96.1154 1.49947 -3.46115 0
M  V30 1109 H 98.5024 1.60689 -2.47514 0
M  V30 1110 H 98.5834 -0.158952 -2.55306 0
M  V30 1111 H 98.2274 -0.0415417 -5.07883 0
M  V30 1112 H 98.1574 1.73538 -4.97184 0
M  V30 1113 H 100.648 0.857188 -3.6805 0
M  V30 1114 H 100.961 1.1382 -7.64372 0
M  V30 1115 H 99.3064 1.03049 -6.87318 0
M  V30 1116 H 102.497 0.979558 -4.57736 0
M  V30 1117 H 102.67 1.10793 -6.38458 0
M  V30 1118 N 96.0765 1.50051 0.48192 0
M  V30 1119 C 97.0235 1.68122 1.58125 0
M  V30 1120 C 97.9935 0.522545 1.57666 0
M  V30 1121 O 99.1785 0.751844 1.75362 0
M  V30 1122 C 96.3185 1.77142 2.96167 0
M  V30 1123 C 95.4315 3.0444 3.06497 0
M  V30 1124 C 94.5665 3.04321 4.35387 0
M  V30 1125 C 93.6055 4.26118 4.3942 0
M  V30 1126 N 92.7425 4.238 5.59766 0
M  V30 1127 H 97.5825 2.6198 1.42022 0
M  V30 1128 H 95.1195 1.29877 0.690687 0
M  V30 1129 H 97.0775 1.80352 3.76203 0
M  V30 1130 H 95.7075 0.867329 3.1093 0
M  V30 1131 H 94.7595 3.10752 2.19402 0
M  V30 1132 H 96.0715 3.94426 3.05336 0
M  V30 1133 H 95.2255 3.062 5.23762 0
M  V30 1134 H 93.9645 2.12147 4.39141 0
M  V30 1135 H 92.9695 4.24463 3.49444 0
M  V30 1136 H 94.1945 5.19507 4.37366 0
M  V30 1137 H 92.1405 3.34474 5.64326 0
M  V30 1138 H 92.0575 5.07542 5.60301 0
M  V30 1139 H 93.3255 4.2981 6.50295 0
M  V30 1140 N 97.5546 -0.734337 1.39446 0
M  V30 1141 C 98.4846 -1.86155 1.40955 0
M  V30 1142 C 99.4656 -1.67898 0.272827 0
M  V30 1143 O 100.651 -1.88207 0.478743 0
M  V30 1144 C 97.7806 -3.23912 1.25294 0
M  V30 1145 C 96.7346 -3.56808 2.36373 0
M  V30 1146 C 96.0606 -4.93508 2.058 0
M  V30 1147 C 97.3606 -3.59713 3.78687 0
M  V30 1148 H 99.0546 -1.8515 2.35287 0
M  V30 1149 H 96.6006 -0.889367 1.13253 0
M  V30 1150 H 98.5536 -4.02443 1.2497 0
M  V30 1151 H 97.2776 -3.25446 0.274308 0
M  V30 1152 H 95.9366 -2.80606 2.35914 0
M  V30 1153 H 95.5846 -4.91623 1.06374 0
M  V30 1154 H 95.2846 -5.16486 2.80208 0
M  V30 1155 H 96.8086 -5.74396 2.07128 0
M  V30 1156 H 98.2226 -4.2832 3.81071 0
M  V30 1157 H 96.6196 -3.94209 4.52459 0
M  V30 1158 H 97.6896 -2.59504 4.09617 0
M  V30 1159 N 99.0327 -1.24633 -0.964593 0
M  V30 1160 C 100.263 -1.11339 -1.74032 0
M  V30 1161 C 100.671 0.336593 -1.86182 0
M  V30 1162 O 100.014 1.24389 -1.35178 0
M  V30 1163 C 100.076 -1.68284 -3.1768 0
M  V30 1164 C 99.7397 -3.17196 -3.28992 0
M  V30 1165 C 100.737 -4.14308 -3.14078 0
M  V30 1166 C 98.4217 -3.57215 -3.53133 0
M  V30 1167 C 100.416 -5.4942 -3.23135 0
M  V30 1168 C 98.1027 -4.92468 -3.61827 0
M  V30 1169 C 99.1007 -5.8838 -3.46841 0
M  V30 1170 O 98.7887 -7.21173 -3.55197 0
M  V30 1171 H 98.5207 -0.389551 -0.552472 0
M  V30 1172 H 101.075 -1.65282 -1.21946 0
M  V30 1173 H 99.3047 -1.08777 -3.71085 0
M  V30 1174 H 100.994 -1.50234 -3.77074 0
M  V30 1175 H 101.76 -3.84731 -2.95308 0
M  V30 1176 H 97.6387 -2.83063 -3.63863 0
M  V30 1177 H 101.183 -6.24263 -3.11355 0
M  V30 1178 H 97.0797 -5.21714 -3.80111 0
M  V30 1179 H 97.8477 -7.29135 -3.71892 0
M  V30 1180 N 100.511 1.16574 -1.06058 0
M  V30 1181 C 101.443 2.2045 -0.627239 0
M  V30 1182 C 102.456 1.59752 0.313534 0
M  V30 1183 O 103.645 1.78192 0.104896 0
M  V30 1184 C 100.745 3.3875 0.100974 0
M  V30 1185 C 99.9178 4.29008 -0.852687 0
M  V30 1186 C 98.9768 5.25944 -0.164152 0
M  V30 1187 O 98.0028 5.63535 -0.801047 0
M  V30 1188 N 99.2048 5.70075 1.09518 0
M  V30 1189 H 101.97 2.58249 -1.52077 0
M  V30 1190 H 99.5308 1.3156 -0.943594 0
M  V30 1191 H 101.523 4.00638 0.57194 0
M  V30 1192 H 100.093 2.99476 0.89628 0
M  V30 1193 H 99.3128 3.64419 -1.50308 0
M  V30 1194 H 100.601 4.86195 -1.49972 0
M  V30 1195 H 99.9988 5.41624 1.6328 0
M  V30 1196 H 98.5558 6.34067 1.51006 0
M  V30 1197 N 101.989 0.842826 1.3317 0
M  V30 1198 C 103.235 0.441099 1.97945 0
M  V30 1199 C 103.568 -0.998024 1.66593 0
M  V30 1200 O 102.843 -1.69839 0.947898 0
M  V30 1201 C 103.126 0.666841 3.53872 0
M  V30 1202 C 102.979 2.15352 3.94897 0
M  V30 1203 C 104.298 0.115544 4.39948 0
M  V30 1204 H 101.417 0.161739 0.719034 0
M  V30 1205 H 104.059 1.05907 1.57746 0
M  V30 1206 H 102.209 0.140828 3.88245 0
M  V30 1207 H 103.881 2.7447 3.70761 0
M  V30 1208 H 102.124 2.63653 3.44484 0
M  V30 1209 H 102.795 2.26221 5.03516 0
M  V30 1210 H 105.271 0.565213 4.12243 0
M  V30 1211 H 104.147 0.303152 5.48062 0
M  V30 1212 H 104.408 -0.980935 4.3108 0
M  V30 1213 N 103.467 -1.45747 0.599634 0
M  V30 1214 C 104.716 -2.01502 0.0893511 0
M  V30 1215 C 105.029 -1.4748 -1.28488 0
M  V30 1216 O 106.235 -1.95161 -1.88745 0
M  V30 1217 C 104.691 -3.59735 0.109082 0
M  V30 1218 C 104.299 -4.22754 1.48267 0
M  V30 1219 C 106.043 -4.23085 -0.346374 0
M  V30 1220 C 103.95 -5.73115 1.45921 0
M  V30 1221 H 102.88 -0.753417 0.0296347 0
M  V30 1222 H 105.531 -1.67303 0.753788 0
M  V30 1223 H 103.913 -3.91087 -0.621854 0
M  V30 1224 H 105.087 -4.02987 2.23468 0
M  V30 1225 H 103.402 -3.71567 1.87955 0
M  V30 1226 H 105.999 -5.33327 -0.38298 0
M  V30 1227 H 106.342 -3.93201 -1.36743 0
M  V30 1228 H 106.875 -3.9642 0.331038 0
M  V30 1229 H 103.614 -6.07685 2.45762 0
M  V30 1230 H 103.134 -5.95097 0.749665 0
M  V30 1231 H 104.813 -6.3616 1.17941 0
M  V30 1232 N 104.945 -0.338344 -1.53925 0
M  V30 1233 C 105.892 0.520845 -2.24846 0
M  V30 1234 C 106.862 1.09976 -1.24477 0
M  V30 1235 O 108.047 1.13735 -1.53196 0
M  V30 1236 C 105.187 1.6685 -3.02084 0
M  V30 1237 C 104.3 1.11739 -4.17299 0
M  V30 1238 C 103.435 2.23193 -4.82036 0
M  V30 1239 C 102.474 1.65407 -5.89328 0
M  V30 1240 N 101.611 2.70582 -6.47866 0
M  V30 1241 H 106.451 -0.0904881 -2.97863 0
M  V30 1242 H 103.988 -0.0564282 -1.46992 0
M  V30 1243 H 105.946 2.34407 -3.45122 0
M  V30 1244 H 104.576 2.2509 -2.31375 0
M  V30 1245 H 103.628 0.332919 -3.7894 0
M  V30 1246 H 104.94 0.654677 -4.94485 0
M  V30 1247 H 104.094 2.98626 -5.28117 0
M  V30 1248 H 102.833 2.72807 -4.04262 0
M  V30 1249 H 101.838 0.884779 -5.42634 0
M  V30 1250 H 103.063 1.16652 -6.69006 0
M  V30 1251 H 101.009 3.1946 -5.72959 0
M  V30 1252 H 100.926 2.28917 -7.20509 0
M  V30 1253 H 102.194 3.45799 -6.98601 0
M  V30 1254 N 106.423 1.57458 -0.0668435 0
M  V30 1255 C 107.371 2.13639 0.919851 0
M  V30 1256 C 108.365 1.07204 1.31163 0
M  V30 1257 O 109.571 1.25591 1.28945 0
M  V30 1258 H 105.946 0.683048 0.314562 0
M  V30 1259 H 107.917 2.95415 0.421047 0
M  V30 1260 C 106.666 2.70892 2.17975 0
M  V30 1261 H 105.989 3.5246 1.88711 0
M  V30 1262 H 107.429 3.13803 2.85138 0
M  V30 1263 C 105.888 1.65414 2.93496 0
M  V30 1264 O 106.418 1.07619 3.87015 0
M  V30 1265 N 104.624 1.36564 2.56512 0
M  V30 1266 H 104.171 1.83751 1.80536 0
M  V30 1267 H 104.129 0.66223 3.07347 0
M  V30 1268 N 107.901 -0.206675 1.56239 0
M  V30 1269 C 109.129 -0.945345 1.8404 0
M  V30 1270 C 109.544 -1.77336 0.647885 0
M  V30 1271 O 108.901 -1.78425 -0.383511 0
M  V30 1272 C 108.952 -1.8509 3.10522 0
M  V30 1273 O 108.673 -1.05634 4.25174 0
M  V30 1274 C 110.174 -2.70222 3.51418 0
M  V30 1275 H 107.394 -0.276372 0.61144 0
M  V30 1276 H 109.938 -0.217417 2.03341 0
M  V30 1277 H 108.093 -2.53259 2.93153 0
M  V30 1278 H 108.507 -1.67238 4.97124 0
M  V30 1279 H 109.981 -3.29438 4.42916 0
M  V30 1280 H 110.458 -3.43358 2.73864 0
M  V30 1281 H 111.064 -2.07443 3.71278 0
M  V30 1282 N 109.379 -1.50304 -0.473955 0
M  V30 1283 C 110.326 -1.68959 -1.57231 0
M  V30 1284 C 111.296 -0.530899 -1.57387 0
M  V30 1285 O 112.481 -0.761133 -1.74961 0
M  V30 1286 C 109.621 -1.7871 -2.95223 0
M  V30 1287 C 108.734 -3.06061 -3.04878 0
M  V30 1288 C 107.869 -3.06626 -4.33767 0
M  V30 1289 C 106.908 -4.28443 -4.37154 0
M  V30 1290 N 106.045 -4.26763 -5.5751 0
M  V30 1291 H 110.885 -2.6273 -1.40631 0
M  V30 1292 H 108.422 -1.30241 -0.683789 0
M  V30 1293 H 110.38 -1.82344 -3.75242 0
M  V30 1294 H 109.01 -0.883806 -3.10465 0
M  V30 1295 H 108.062 -3.11911 -2.17751 0
M  V30 1296 H 109.374 -3.96039 -3.0324 0
M  V30 1297 H 108.528 -3.08973 -5.22131 0
M  V30 1298 H 107.267 -2.14473 -4.3801 0
M  V30 1299 H 106.272 -4.2631 -3.47188 0
M  V30 1300 H 107.497 -5.2182 -4.34605 0
M  V30 1301 H 105.443 -3.37462 -5.62544 0
M  V30 1302 H 105.36 -5.10507 -5.57601 0
M  V30 1303 H 106.628 -4.33253 -6.48006 0
M  V30 1304 N 110.857 0.726932 -1.39834 0
M  V30 1305 C 111.807 1.83232 -1.35683 0
M  V30 1306 C 112.791 1.59155 -0.236295 0
M  V30 1307 O 113.983 1.70522 -0.474488 0
M  V30 1308 C 111.112 3.21246 -1.21062 0
M  V30 1309 C 110.198 3.51125 -2.37849 0
M  V30 1310 N 110.589 3.51889 -3.63329 0
M  V30 1311 C 108.887 3.81527 -2.30982 0
M  V30 1312 C 109.588 3.79791 -4.40606 0
M  V30 1313 N 108.564 3.97971 -3.70297 0
M  V30 1314 H 112.366 1.8214 -2.30656 0
M  V30 1315 H 109.88 0.925545 -1.33444 0
M  V30 1316 H 111.877 4.00387 -1.16171 0
M  V30 1317 H 110.537 3.23572 -0.270458 0
M  V30 1318 H 111.548 3.33008 -3.96643 0
M  V30 1319 H 108.225 3.91411 -1.45272 0
M  V30 1320 H 109.615 3.86783 -5.49408 0
M  V30 1321 N 112.336 1.25143 0.95797 0
M  V30 1322 C 113.564 1.12424 1.73691 0
M  V30 1323 C 113.979 -0.322304 1.86029 0
M  V30 1324 O 113.336 -1.22186 1.35561 0
M  V30 1325 C 113.387 1.76933 3.15241 0
M  V30 1326 O 113.108 3.15932 3.03511 0
M  V30 1327 C 114.609 1.6995 4.09429 0
M  V30 1328 H 111.829 0.3923 0.544373 0
M  V30 1329 H 114.373 1.6544 1.20207 0
M  V30 1330 H 112.528 1.27895 3.6568 0
M  V30 1331 H 112.942 3.47598 3.9278 0
M  V30 1332 H 114.416 2.19753 5.06372 0
M  V30 1333 H 114.893 0.662619 4.34173 0
M  V30 1334 H 115.499 2.18461 3.64904 0
M  V30 1335 N 113.814 -1.1601 1.06675 0
M  V30 1336 C 115.042 -1.90527 0.806667 0
M  V30 1337 C 115.457 -1.77643 -0.639396 0
M  V30 1338 O 114.814 -1.12369 -1.43803 0
M  V30 1339 C 114.865 -3.41106 1.19705 0
M  V30 1340 O 114.586 -3.53608 2.58636 0
M  V30 1341 C 116.087 -4.32663 0.965266 0
M  V30 1342 H 113.307 -0.604053 0.292166 0
M  V30 1343 H 115.851 -1.47026 1.4214 0
M  V30 1344 H 114.006 -3.82296 0.626774 0
M  V30 1345 H 114.42 -4.47011 2.74375 0
M  V30 1346 H 115.894 -5.36763 1.288 0
M  V30 1347 H 116.371 -4.39089 -0.0987936 0
M  V30 1348 H 116.977 -3.97206 1.52011 0
M  V30 1349 N 115.292 -0.849877 -1.32721 0
M  V30 1350 C 116.541 -0.447175 -1.96681 0
M  V30 1351 C 116.854 1.00135 -1.68025 0
M  V30 1352 O 118.06 1.50926 -2.25685 0
M  V30 1353 C 116.516 -0.7487 -3.52026 0
M  V30 1354 C 116.124 -2.21264 -3.89546 0
M  V30 1355 C 117.868 -0.413487 -4.22481 0
M  V30 1356 C 115.775 -2.45763 -5.37917 0
M  V30 1357 H 114.705 -0.163486 -0.736063 0
M  V30 1358 H 117.356 -1.03999 -1.51183 0
M  V30 1359 H 115.738 -0.0853727 -3.95908 0
M  V30 1360 H 116.912 -2.91736 -3.56689 0
M  V30 1361 H 115.227 -2.5119 -3.32103 0
M  V30 1362 H 117.824 -0.574017 -5.3161 0
M  V30 1363 H 118.167 0.644492 -4.11281 0
M  V30 1364 H 118.7 -1.03251 -3.84167 0
M  V30 1365 H 115.439 -3.50168 -5.54132 0
M  V30 1366 H 114.959 -1.79864 -5.72197 0
M  V30 1367 H 116.638 -2.29471 -6.0494 0
M  V30 1368 N 116.77 1.45427 -0.607355 0
M  V30 1369 C 118.018 2.01841 -0.102253 0
M  V30 1370 C 118.339 1.47832 1.27164 0
M  V30 1371 O 117.609 0.672497 1.83995 0
M  V30 1372 H 116.189 0.746188 -0.0348101 0
M  V30 1373 H 118.851 1.78229 -0.7887 0
M  V30 1374 H 117.947 3.12057 -0.0518585 0
M  V30 1375 N 118.248 0.346503 1.53744 0
M  V30 1376 C 119.495 -0.249104 2.00962 0
M  V30 1377 C 119.823 -1.5032 1.23426 0
M  V30 1378 O 119.078 -1.93217 0.310761 0
M  V30 1379 C 119.377 -0.605809 3.52228 0
M  V30 1380 C 119.043 0.551747 4.47512 0
M  V30 1381 C 117.705 0.86941 4.73281 0
M  V30 1382 C 120.057 1.32818 5.03993 0
M  V30 1383 C 117.385 1.96582 5.52786 0
M  V30 1384 C 119.737 2.41486 5.84694 0
M  V30 1385 C 118.401 2.73808 6.08757 0
M  V30 1386 H 117.671 -0.0911538 0.735372 0
M  V30 1387 H 120.318 0.475027 1.85515 0
M  V30 1388 H 118.623 -1.4107 3.65522 0
M  V30 1389 H 120.32 -1.07858 3.86222 0
M  V30 1390 H 116.91 0.294102 4.2759 0
M  V30 1391 H 121.094 1.09602 4.84047 0
M  V30 1392 H 116.35 2.22045 5.69654 0
M  V30 1393 H 120.524 3.02078 6.27473 0
M  V30 1394 H 118.151 3.58892 6.7015 0
M  V30 1395 N 119.726 -1.57421 0.075193 0
M  V30 1396 C 120.673 -2.12915 -0.890843 0
M  V30 1397 C 121.643 -1.04252 -1.29309 0
M  V30 1398 O 122.828 -1.31933 -1.37834 0
M  V30 1399 C 119.968 -2.69795 -2.15186 0
M  V30 1400 C 119.081 -3.92624 -1.80194 0
M  V30 1401 C 118.216 -4.37736 -3.00933 0
M  V30 1402 C 117.255 -5.53205 -2.61974 0
M  V30 1403 N 116.392 -5.9326 -3.75483 0
M  V30 1404 H 121.232 -2.95156 -0.410735 0
M  V30 1405 H 118.769 -1.45854 -0.191086 0
M  V30 1406 H 120.727 -3.00883 -2.89008 0
M  V30 1407 H 119.357 -1.90313 -2.60731 0
M  V30 1408 H 118.409 -3.67977 -0.964218 0
M  V30 1409 H 119.721 -4.76482 -1.47534 0
M  V30 1410 H 118.875 -4.70503 -3.8303 0
M  V30 1411 H 117.614 -3.52739 -3.36789 0
M  V30 1412 H 116.619 -5.20086 -1.783 0
M  V30 1413 H 117.844 -6.39936 -2.27284 0
M  V30 1414 H 115.79 -5.11212 -4.11094 0
M  V30 1415 H 115.707 -6.71865 -3.46602 0
M  V30 1416 H 116.975 -6.30651 -4.58148 0
M  V30 1417 N 121.204 0.198386 -1.56346 0
M  V30 1418 C 122.453 0.917451 -1.79627 0
M  V30 1419 C 122.766 1.8456 -0.64784 0
M  V30 1420 O 123.972 2.60504 -0.764859 0
M  V30 1421 C 122.428 1.68175 -3.18191 0
M  V30 1422 C 122.036 0.798589 -4.40825 0
M  V30 1423 C 123.78 2.39065 -3.50782 0
M  V30 1424 C 121.687 1.56157 -5.70411 0
M  V30 1425 H 120.617 0.346317 -0.669762 0
M  V30 1426 H 123.268 0.170801 -1.82703 0
M  V30 1427 H 121.65 2.47216 -3.09354 0
M  V30 1428 H 122.824 0.0470665 -4.60776 0
M  V30 1429 H 121.139 0.200686 -4.15916 0
M  V30 1430 H 123.736 2.96692 -4.44835 0
M  V30 1431 H 124.079 3.13091 -2.74371 0
M  V30 1432 H 124.612 1.66993 -3.61052 0
M  V30 1433 H 121.351 0.864142 -6.49779 0
M  V30 1434 H 120.871 2.2871 -5.54483 0
M  V30 1435 H 122.55 2.11622 -6.11412 0
M  V30 1436 N 122.682 1.50554 0.465978 0
M  V30 1437 C 123.959 1.5232 1.22712 0
M  V30 1438 C 124.339 0.270807 2.09356 0
M  V30 1439 O 123.687 -0.745541 2.15995 0
M  V30 1440 C 123.897 2.82175 2.05374 0
M  V30 1441 C 125.245 3.33033 2.6339 0
M  V30 1442 O 126.269 2.83531 2.15612 0
M  V30 1443 O 125.128 4.19336 3.50456 0
M  V30 1444 H 122.222 0.611183 0.557122 0
M  V30 1445 H 124.768 1.62847 0.477381 0
M  V30 1446 H 123.54 3.64797 1.41558 0
M  V30 1447 H 123.163 2.74675 2.87471 0
M  V30 1448 N 124.16 -0.719506 1.40217 0
M  V30 1449 C 125.576 -1.02707 1.22161 0
M  V30 1450 C 125.776 -2.0128 0.0940557 0
M  V30 1451 O 124.832 -2.46452 -0.549318 0
M  V30 1452 C 126.145 -1.57454 2.56181 0
M  V30 1453 C 127.693 -1.69458 2.63159 0
M  V30 1454 C 128.168 -2.27611 3.97438 0
M  V30 1455 N 129.659 -2.35002 3.99159 0
M  V30 1456 C 130.394 -2.80972 4.99842 0
M  V30 1457 N 129.89 -3.26723 6.10921 0
M  V30 1458 N 131.683 -2.80321 4.87213 0
M  V30 1459 H 123.834 -0.0660492 2.12297 0
M  V30 1460 H 126.097 -0.0919077 0.943534 0
M  V30 1461 H 125.803 -0.924873 3.39321 0
M  V30 1462 H 125.677 -2.56036 2.76993 0
M  V30 1463 H 128.064 -2.33543 1.80393 0
M  V30 1464 H 128.145 -0.694867 2.46181 0
M  V30 1465 H 127.789 -1.6415 4.80643 0
M  V30 1466 H 127.719 -3.2829 4.11744 0
M  V30 1467 H 130.21 -2.02685 3.18947 0
M  V30 1468 H 130.523 -3.60355 6.8364 0
M  V30 1469 H 128.868 -3.24692 6.14492 0
M  V30 1470 H 132.059 -2.43912 3.9953 0
M  V30 1471 H 132.232 -3.15831 5.65822 0
M  V30 1472 N 125.638 -1.25649 -0.95132 0
M  V30 1473 C 127.049 -1.09654 -1.51106 0
M  V30 1474 C 127.4 0.326615 -1.93462 0
M  V30 1475 O 126.525 1.21697 -1.78938 0
M  V30 1476 C 127.12 -1.98437 -2.74605 0
M  V30 1477 C 125.679 -1.86618 -3.2688 0
M  V30 1478 C 124.826 -1.9239 -1.99703 0
M  V30 1479 H 127.777 -1.38887 -0.767865 0
M  V30 1480 H 127.798 -1.5263 -3.48546 0
M  V30 1481 H 127.31 -3.02009 -2.43746 0
M  V30 1482 H 125.411 -0.859421 -3.62553 0
M  V30 1483 H 125.524 -2.71607 -3.94673 0
M  V30 1484 H 123.888 -1.36317 -2.15151 0
M  V30 1485 H 124.671 -2.97573 -1.71188 0
M  V30 1486 N 127.117 1.15442 -1.07289 0
M  V30 1487 C 128.067 2.18164 -0.662467 0
M  V30 1488 C 129.051 1.57845 0.312074 0
M  V30 1489 O 130.243 1.76552 0.125905 0
M  V30 1490 C 127.372 3.43246 -0.0611295 0
M  V30 1491 C 126.458 4.1062 -1.06077 0
M  V30 1492 N 126.849 4.53491 -2.24008 0
M  V30 1493 C 125.147 4.36949 -0.893964 0
M  V30 1494 C 125.848 5.05731 -2.87422 0
M  V30 1495 N 124.824 4.99236 -2.15091 0
M  V30 1496 H 128.626 2.49038 -1.56068 0
M  V30 1497 H 126.14 1.32003 -0.945988 0
M  V30 1498 H 128.137 4.16145 0.250792 0
M  V30 1499 H 126.797 3.13854 0.832207 0
M  V30 1500 H 127.808 4.46898 -2.6173 0
M  V30 1501 H 124.485 4.17466 -0.0534693 0
M  V30 1502 H 125.875 5.48865 -3.87553 0
M  V30 1503 N 128.595 0.856903 1.32268 0
M  V30 1504 C 129.872 0.382583 1.91822 0
M  V30 1505 C 130.252 -1.13407 1.78051 0
M  V30 1506 O 129.6 -1.95673 1.18001 0
M  V30 1507 C 129.81 0.849446 3.38505 0
M  V30 1508 C 131.158 0.867936 4.15634 0
M  V30 1509 O 132.182 0.794232 3.47232 0
M  V30 1510 O 131.041 0.972286 5.37781 0
M  V30 1511 H 128.135 0.112014 0.819379 0
M  V30 1512 H 130.681 0.943952 1.41024 0
M  V30 1513 H 129.453 1.89267 3.42482 0
M  V30 1514 H 129.076 0.265652 3.96712 0
M  V30 1515 N 130.073 -1.45103 0.615059 0
M  V30 1516 C 131.02 -2.30586 -0.0993978 0
M  V30 1517 C 131.99 -1.42544 -0.852669 0
M  V30 1518 O 133.175 -1.71465 -0.836917 0
M  V30 1519 C 130.315 -3.27572 -1.08583 0
M  V30 1520 C 129.428 -4.30717 -0.332656 0
M  V30 1521 C 128.563 -5.14807 -1.30947 0
M  V30 1522 C 127.602 -6.09673 -0.544538 0
M  V30 1523 N 126.739 -6.86517 -1.47101 0
M  V30 1524 H 131.579 -2.91144 0.635542 0
M  V30 1525 H 129.116 -1.4346 0.325206 0
M  V30 1526 H 131.074 -3.82276 -1.67095 0
M  V30 1527 H 129.704 -2.68751 -1.78809 0
M  V30 1528 H 128.756 -3.78615 0.368107 0
M  V30 1529 H 130.068 -4.98102 0.263842 0
M  V30 1530 H 129.222 -5.73948 -1.96643 0
M  V30 1531 H 127.961 -4.47458 -1.9399 0
M  V30 1532 H 126.966 -5.49656 0.126003 0
M  V30 1533 H 128.191 -6.79052 0.080947 0
M  V30 1534 H 126.137 -6.21851 -2.08895 0
M  V30 1535 H 126.054 -7.50281 -0.928137 0
M  V30 1536 H 127.322 -7.50194 -2.11731 0
M  V30 1537 N 131.551 -0.354651 -1.53558 0
M  V30 1538 C 132.797 0.238797 -2.01389 0
M  V30 1539 C 133.13 1.49309 -1.2418 0
M  V30 1540 O 132.405 1.91638 -0.332457 0
M  V30 1541 C 132.688 0.541771 -3.56001 0
M  V30 1542 C 132.541 -0.725388 -4.43912 0
M  V30 1543 C 133.86 1.34685 -4.18984 0
M  V30 1544 H 130.979 0.0853177 -0.732045 0
M  V30 1545 H 133.621 -0.477384 -1.83905 0
M  V30 1546 H 131.771 1.15189 -3.71031 0
M  V30 1547 H 133.443 -1.36313 -4.407 0
M  V30 1548 H 131.686 -1.34801 -4.12324 0
M  V30 1549 H 132.357 -0.468505 -5.50008 0
M  V30 1550 H 134.833 0.830837 -4.07721 0
M  V30 1551 H 133.709 1.52759 -5.27215 0
M  V30 1552 H 133.97 2.35221 -3.74331 0
M  V30 1553 N 133.029 1.57378 -0.0835403 0
M  V30 1554 C 133.959 2.1641 0.87686 0
M  V30 1555 C 134.94 1.09429 1.30228 0
M  V30 1556 O 136.125 1.37516 1.37124 0
M  V30 1557 C 133.255 2.73517 2.14022 0
M  V30 1558 C 132.209 3.85769 1.85381 0
M  V30 1559 C 131.535 4.29529 3.18448 0
M  V30 1560 C 132.835 5.09486 1.14984 0
M  V30 1561 H 134.529 2.96914 0.385059 0
M  V30 1562 H 132.075 1.42823 0.18377 0
M  V30 1563 H 134.028 3.13463 2.81636 0
M  V30 1564 H 132.752 1.90252 2.65465 0
M  V30 1565 H 131.411 3.46345 1.20169 0
M  V30 1566 H 131.059 3.43169 3.67755 0
M  V30 1567 H 130.759 5.05204 3.00071 0
M  V30 1568 H 132.283 4.72099 3.8724 0
M  V30 1569 H 133.697 5.46674 1.72687 0
M  V30 1570 H 132.094 5.90515 1.06826 0
M  V30 1571 H 133.164 4.84724 0.130749 0
M  V30 1572 N 134.507 -0.190092 1.56449 0
M  V30 1573 C 135.732 -0.929864 1.85387 0
M  V30 1574 C 136.157 -1.7585 0.667704 0
M  V30 1575 O 135.515 -1.77198 -0.383459 0
M  V30 1576 C 135.563 -1.79773 3.12593 0
M  V30 1577 O 134.667 -2.89713 2.93496 0
M  V30 1578 H 134.008 -0.261574 0.610307 0
M  V30 1579 H 136.538 -0.193896 2.03679 0
M  V30 1580 H 136.548 -2.20139 3.43515 0
M  V30 1581 H 135.223 -1.18892 3.98544 0
M  V30 1582 H 133.8 -2.53065 2.73884 0
M  V30 1583 N 135.985 -1.50799 -0.457987 0
M  V30 1584 C 137.21 -1.66496 -1.23668 0
M  V30 1585 C 137.635 -0.353288 -1.84752 0
M  V30 1586 O 136.993 0.684346 -1.67888 0
M  V30 1587 C 137.041 -2.76763 -2.3116 0
M  V30 1588 O 136.145 -2.38928 -3.36136 0
M  V30 1589 H 135.486 -0.555828 -0.363252 0
M  V30 1590 H 138.016 -1.9725 -0.543474 0
M  V30 1591 H 138.026 -3.00232 -2.76269 0
M  V30 1592 H 136.701 -3.71954 -1.86073 0
M  V30 1593 H 135.278 -2.25953 -2.96647 0
M  V30 1594 N 137.463 0.71206 -1.40597 0
M  V30 1595 C 138.709 1.47416 -1.39271 0
M  V30 1596 C 139.042 1.942 0.00388791 0
M  V30 1597 O 138.317 1.68403 0.973179 0
M  V30 1598 C 138.6 2.69774 -2.38525 0
M  V30 1599 C 138.453 2.28861 -3.87224 0
M  V30 1600 C 139.772 3.71939 -2.35264 0
M  V30 1601 H 136.891 0.534713 -0.5072 0
M  V30 1602 H 139.533 0.812375 -1.71757 0
M  V30 1603 H 137.683 3.26238 -2.10953 0
M  V30 1604 H 139.355 1.77852 -4.25636 0
M  V30 1605 H 137.598 1.60824 -4.02887 0
M  V30 1606 H 138.269 3.16584 -4.52193 0
M  V30 1607 H 140.745 3.25113 -2.59694 0
M  V30 1608 H 139.621 4.55186 -3.06753 0
M  V30 1609 H 139.882 4.20484 -1.36549 0
M  V30 1610 N 138.941 1.26152 0.944643 0
M  V30 1611 C 139.871 1.09902 2.06019 0
M  V30 1612 C 140.852 0.00519538 1.70099 0
M  V30 1613 O 142.037 0.176583 1.93396 0
M  V30 1614 C 139.167 0.727562 3.39594 0
M  V30 1615 C 138.121 1.77274 3.89561 0
M  V30 1616 C 137.447 1.25569 5.19747 0
M  V30 1617 C 138.747 3.17357 4.14827 0
M  V30 1618 H 140.441 2.03217 2.19871 0
M  V30 1619 H 137.987 0.978452 1.05652 0
M  V30 1620 H 139.94 0.600777 4.17095 0
M  V30 1621 H 138.664 -0.241287 3.25707 0
M  V30 1622 H 137.323 1.88814 3.14237 0
M  V30 1623 H 136.971 0.276783 5.02238 0
M  V30 1624 H 136.671 1.95433 5.54148 0
M  V30 1625 H 138.195 1.1415 5.99835 0
M  V30 1626 H 139.609 3.08914 4.82954 0
M  V30 1627 H 138.006 3.84781 4.60504 0
M  V30 1628 H 139.076 3.63673 3.20734 0
M  V30 1629 N 140.419 -1.14872 1.07899 0
M  V30 1630 C 141.366 -2.19791 0.704319 0
M  V30 1631 C 142.336 -1.63238 -0.306987 0
M  V30 1632 O 143.521 -1.8983 -0.192171 0
M  V30 1633 C 140.661 -3.44911 0.114244 0
M  V30 1634 C 139.774 -4.15637 1.1777 0
M  V30 1635 C 138.909 -5.28324 0.552037 0
M  V30 1636 C 137.948 -5.90875 1.59789 0
M  V30 1637 N 137.085 -6.95022 0.994404 0
M  V30 1638 H 141.925 -2.5119 1.60336 0
M  V30 1639 H 139.462 -1.23356 0.801352 0
M  V30 1640 H 141.42 -4.16477 -0.245544 0
M  V30 1641 H 140.05 -3.14011 -0.74813 0
M  V30 1642 H 139.102 -3.42512 1.65499 0
M  V30 1643 H 140.414 -4.5823 1.97046 0
M  V30 1644 H 139.568 -6.06538 0.1402 0
M  V30 1645 H 138.307 -4.86939 -0.272431 0
M  V30 1646 H 137.312 -5.11369 2.01945 0
M  V30 1647 H 138.537 -6.34337 2.42474 0
M  V30 1648 H 136.483 -6.55722 0.190939 0
M  V30 1649 H 136.4 -7.36073 1.72432 0
M  V30 1650 H 137.668 -7.77123 0.608253 0
M  V30 1651 N 141.898 -0.863906 -1.31812 0
M  V30 1652 C 142.846 -0.30422 -2.30602 0
M  V30 1653 C 143.84 0.577419 -1.59255 0
M  V30 1654 O 145.046 0.464194 -1.73912 0
M  V30 1655 H 141.421 -0.0796877 -0.747766 0
M  V30 1656 H 143.392 -1.15148 -2.75288 0
M  V30 1657 C 142.141 0.484617 -3.44306 0
M  V30 1658 H 141.464 -0.18451 -3.99374 0
M  V30 1659 H 142.904 0.841664 -4.15562 0
M  V30 1660 C 141.363 1.6735 -2.92396 0
M  V30 1661 O 141.893 2.77273 -2.90659 0
M  V30 1662 N 140.099 1.50362 -2.48676 0
M  V30 1663 H 139.646 0.609402 -2.50288 0
M  V30 1664 H 139.604 2.30051 -2.14299 0
M  V30 1665 N 143.376 1.44774 -0.622745 0
M  V30 1666 C 144.323 2.30635 0.0871679 0
M  V30 1667 C 145.293 1.42994 0.845097 0
M  V30 1668 O 146.478 1.71907 0.827812 0
M  V30 1669 C 143.618 3.28144 1.06844 0
M  V30 1670 C 142.731 4.30888 0.309809 0
M  V30 1671 C 141.866 5.15494 1.28215 0
M  V30 1672 C 140.905 6.09953 0.512198 0
M  V30 1673 N 140.042 6.87287 1.43458 0
M  V30 1674 H 144.882 2.90803 -0.650974 0
M  V30 1675 H 142.419 1.43286 -0.33281 0
M  V30 1676 H 144.377 3.83157 1.65066 0
M  V30 1677 H 143.007 2.69695 1.77382 0
M  V30 1678 H 142.059 3.78414 -0.388181 0
M  V30 1679 H 143.371 4.97955 -0.290254 0
M  V30 1680 H 142.525 5.74983 1.93596 0
M  V30 1681 H 141.264 4.48481 1.91614 0
M  V30 1682 H 140.269 5.49581 -0.155151 0
M  V30 1683 H 141.494 6.78999 -0.116958 0
M  V30 1684 H 139.44 6.2295 2.05594 0
M  V30 1685 H 139.357 7.50763 0.888335 0
M  V30 1686 H 140.625 7.51306 2.07749 0
M  V30 1687 N 144.854 0.36279 1.53368 0
M  V30 1688 C 145.784 -0.476976 2.28576 0
M  V30 1689 C 146.765 -1.08631 1.30894 0
M  V30 1690 O 147.95 -1.10409 1.59761 0
M  V30 1691 C 145.08 -1.61828 3.07293 0
M  V30 1692 C 144.034 -1.13633 4.1264 0
M  V30 1693 C 143.36 -2.36766 4.79423 0
M  V30 1694 C 144.66 -0.223061 5.21823 0
M  V30 1695 H 146.354 0.150474 2.99022 0
M  V30 1696 H 143.9 0.0738103 1.43811 0
M  V30 1697 H 145.853 -2.21237 3.58653 0
M  V30 1698 H 144.577 -2.27292 2.34533 0
M  V30 1699 H 143.236 -0.564945 3.62221 0
M  V30 1700 H 142.884 -3.0068 4.03238 0
M  V30 1701 H 142.584 -2.05192 5.50609 0
M  V30 1702 H 144.108 -2.96865 5.33576 0
M  V30 1703 H 145.522 -0.724545 5.68703 0
M  V30 1704 H 143.919 0.001678 6.001 0
M  V30 1705 H 144.989 0.735553 4.79289 0
M  V30 1706 N 146.332 -1.57332 0.0918853 0
M  V30 1707 C 147.557 -1.98995 -0.584442 0
M  V30 1708 C 147.982 -0.970528 -1.61128 0
M  V30 1709 O 147.34 0.0613904 -1.81196 0
M  V30 1710 C 147.388 -3.39636 -1.21161 0
M  V30 1711 O 146.492 -3.40447 -2.32744 0
M  V30 1712 H 145.833 -0.647165 -0.148572 0
M  V30 1713 H 148.363 -2.03873 0.172347 0
M  V30 1714 H 148.373 -3.7726 -1.55367 0
M  V30 1715 H 147.048 -4.13356 -0.459313 0
M  V30 1716 H 145.625 -3.14614 -2.0018 0
M  V30 1717 N 147.81 0.181792 -1.56548 0
M  V30 1718 C 149.038 0.915947 -1.85521 0
M  V30 1719 C 149.453 1.76282 -0.676016 0
M  V30 1720 O 148.81 1.79012 0.355077 0
M  V30 1721 C 148.861 1.80126 -3.13427 0
M  V30 1722 O 148.582 0.988562 -4.26801 0
M  V30 1723 C 150.083 2.64597 -3.55673 0
M  V30 1724 H 147.303 0.26661 -0.61576 0
M  V30 1725 H 149.847 0.185039 -2.03661 0
M  V30 1726 H 148.002 2.48563 -2.97145 0
M  V30 1727 H 148.416 1.59308 -4.99721 0
M  V30 1728 H 149.89 3.2235 -4.48101 0
M  V30 1729 H 150.367 3.38958 -2.79292 0
M  V30 1730 H 150.973 2.0151 -3.74532 0
M  V30 1731 N 149.288 1.51039 0.449983 0
M  V30 1732 C 150.518 1.66627 1.22143 0
M  V30 1733 C 150.926 0.357776 1.85786 0
M  V30 1734 O 150.269 -0.672424 1.70951 0
M  V30 1735 C 150.331 2.71562 2.35573 0
M  V30 1736 C 149.995 4.14526 1.92399 0
M  V30 1737 C 150.992 4.99717 1.43453 0
M  V30 1738 C 148.677 4.60559 2.00475 0
M  V30 1739 C 150.671 6.28998 1.03155 0
M  V30 1740 C 148.358 5.8984 1.59788 0
M  V30 1741 C 149.356 6.73886 1.11208 0
M  V30 1742 O 149.044 8.0075 0.710935 0
M  V30 1743 H 148.776 0.562635 0.374724 0
M  V30 1744 H 151.33 1.98146 0.541036 0
M  V30 1745 H 149.56 2.3533 3.06849 0
M  V30 1746 H 151.249 2.76156 2.97478 0
M  V30 1747 H 152.015 4.65361 1.36618 0
M  V30 1748 H 147.894 3.95273 2.37235 0
M  V30 1749 H 151.438 6.9455 0.651663 0
M  V30 1750 H 147.335 6.23713 1.66289 0
M  V30 1751 H 148.103 8.142 0.837913 0
M  V30 1752 N 150.766 -0.704594 1.40972 0
M  V30 1753 C 152.012 -1.46675 1.40051 0
M  V30 1754 C 152.345 -1.94199 0.00641102 0
M  V30 1755 O 151.62 -1.68916 -0.964235 0
M  V30 1756 C 151.903 -2.68505 2.39952 0
M  V30 1757 C 151.756 -2.26805 3.88432 0
M  V30 1758 C 153.075 -3.70686 2.37233 0
M  V30 1759 H 150.194 -0.532015 0.510028 0
M  V30 1760 H 152.836 -0.803255 1.72185 0
M  V30 1761 H 150.986 -3.25114 2.1268 0
M  V30 1762 H 152.658 -1.75592 4.26574 0
M  V30 1763 H 150.901 -1.58685 4.03734 0
M  V30 1764 H 151.572 -3.14181 4.53866 0
M  V30 1765 H 154.048 -3.23731 2.61415 0
M  V30 1766 H 152.924 -4.53553 3.09162 0
M  V30 1767 H 153.185 -4.19754 1.38777 0
M  V30 1768 N 152.244 -1.26651 -0.937939 0
M  V30 1769 C 153.191 -1.0849 -2.03712 0
M  V30 1770 C 154.161 0.011033 -1.66096 0
M  V30 1771 O 155.346 -0.149353 -1.90215 0
M  V30 1772 C 152.486 -0.72735 -3.37348 0
M  V30 1773 C 151.599 -1.89986 -3.87981 0
M  V30 1774 C 150.734 -1.48513 -5.10017 0
M  V30 1775 C 149.773 -2.62575 -5.5292 0
M  V30 1776 N 148.91 -2.21762 -6.66158 0
M  V30 1777 H 153.75 -2.02551 -2.18579 0
M  V30 1778 H 151.287 -1.00844 -1.07093 0
M  V30 1779 H 153.245 -0.50092 -4.14182 0
M  V30 1780 H 151.875 0.176298 -3.22318 0
M  V30 1781 H 150.927 -2.23913 -3.07518 0
M  V30 1782 H 152.239 -2.75586 -4.15757 0
M  V30 1783 H 151.393 -1.21934 -5.94321 0
M  V30 1784 H 150.132 -0.60009 -4.83994 0
M  V30 1785 H 149.137 -2.8988 -4.67172 0
M  V30 1786 H 150.362 -3.51685 -5.80943 0
M  V30 1787 H 148.308 -1.35696 -6.41812 0
M  V30 1788 H 148.225 -3.00903 -6.93537 0
M  V30 1789 H 149.493 -1.98403 -7.53828 0
M  V30 1790 N 153.722 1.14298 -1.08507 0
M  V30 1791 C 154.632 2.23027 -0.727753 0
M  V30 1792 C 155.648 1.71952 0.26619 0
M  V30 1793 O 156.824 2.011 0.109882 0
M  V30 1794 C 153.889 3.46403 -0.143541 0
M  V30 1795 C 152.95 4.12413 -1.19223 0
M  V30 1796 C 152.183 5.29899 -0.635798 0
M  V30 1797 O 152.406 5.67796 0.544393 0
M  V30 1798 O 151.34 5.85717 -1.38634 0
M  V30 1799 H 155.166 2.55945 -1.63481 0
M  V30 1800 H 152.751 1.22248 -0.858817 0
M  V30 1801 H 154.633 4.21018 0.179404 0
M  V30 1802 H 153.308 3.15206 0.736659 0
M  V30 1803 H 152.215 3.39667 -1.56772 0
M  V30 1804 H 153.548 4.47718 -2.04474 0
M  V30 1805 N 155.201 0.870884 1.31352 0
M  V30 1806 C 156.426 0.495957 2.01383 0
M  V30 1807 C 156.851 -0.904324 1.64935 0
M  V30 1808 O 156.209 -1.59687 0.858466 0
M  V30 1809 C 156.257 0.661433 3.54482 0
M  V30 1810 O 155.361 -0.298851 4.11316 0
M  V30 1811 H 154.702 0.197158 0.634054 0
M  V30 1812 H 157.232 1.17455 1.67527 0
M  V30 1813 H 157.242 0.555072 4.04207 0
M  V30 1814 H 155.917 1.68246 3.8035 0
M  V30 1815 H 154.494 -0.147368 3.72609 0
M  V30 1816 N 156.679 -1.44442 0.630414 0
M  V30 1817 C 157.926 -2.02052 0.134617 0
M  V30 1818 C 158.254 -1.49576 -1.24327 0
M  V30 1819 O 157.509 -0.669806 -1.83881 0
M  V30 1820 C 157.808 -3.57332 0.0697835 0
M  V30 1821 C 157.474 -4.29058 1.38635 0
M  V30 1822 C 156.136 -4.4837 1.74694 0
M  V30 1823 C 158.488 -4.69872 2.25543 0
M  V30 1824 C 155.816 -5.05756 2.97369 0
M  V30 1825 C 158.168 -5.28616 3.47487 0
M  V30 1826 C 156.832 -5.46147 3.8377 0
M  V30 1827 H 156.102 -0.739361 0.0492598 0
M  V30 1828 H 158.749 -1.73217 0.816586 0
M  V30 1829 H 157.054 -3.85577 -0.695553 0
M  V30 1830 H 158.751 -3.99637 -0.330344 0
M  V30 1831 H 155.341 -4.14357 1.09574 0
M  V30 1832 H 159.525 -4.54666 1.98979 0
M  V30 1833 H 154.781 -5.17515 3.25558 0
M  V30 1834 H 158.955 -5.59192 4.15063 0
M  V30 1835 H 156.582 -5.9038 4.7891 0
M  V30 1836 N 158.157 -0.370918 -1.53173 0
M  V30 1837 C 159.104 0.473035 -2.259 0
M  V30 1838 C 160.074 1.07311 -1.26781 0
M  V30 1839 O 161.259 1.1046 -1.55574 0
M  V30 1840 C 158.399 1.60405 -3.05556 0
M  V30 1841 C 157.512 1.02863 -4.19575 0
M  V30 1842 C 156.647 2.12918 -4.86661 0
M  V30 1843 C 155.686 1.52869 -5.92704 0
M  V30 1844 N 154.823 2.56779 -6.53459 0
M  V30 1845 H 159.663 -0.153649 -2.97604 0
M  V30 1846 H 157.2 -0.0875946 -1.46839 0
M  V30 1847 H 159.158 2.27034 -3.50016 0
M  V30 1848 H 157.788 2.20131 -2.36097 0
M  V30 1849 H 156.84 0.252465 -3.79561 0
M  V30 1850 H 158.152 0.549642 -4.95762 0
M  V30 1851 H 157.306 2.87356 -5.34333 0
M  V30 1852 H 156.045 2.6417 -4.09958 0
M  V30 1853 H 155.05 0.769479 -5.44389 0
M  V30 1854 H 156.275 1.02435 -6.7133 0
M  V30 1855 H 154.221 3.07235 -5.79606 0
M  V30 1856 H 154.138 2.13583 -7.25202 0
M  V30 1857 H 155.406 3.30903 -7.05779 0
M  V30 1858 N 159.635 1.57281 -0.100228 0
M  V30 1859 C 160.882 1.94537 0.562268 0
M  V30 1860 C 161.21 0.982315 1.67871 0
M  V30 1861 O 160.465 0.00280936 1.957 0
M  V30 1862 C 160.764 3.38305 1.15259 0
M  V30 1863 C 160.43 4.50618 0.159409 0
M  V30 1864 C 159.092 4.81066 -0.113741 0
M  V30 1865 C 161.444 5.18615 -0.518461 0
M  V30 1866 C 158.772 5.76835 -1.07137 0
M  V30 1867 C 161.124 6.15412 -1.46459 0
M  V30 1868 C 159.788 6.44262 -1.74592 0
M  V30 1869 H 159.058 0.711863 0.205748 0
M  V30 1870 H 161.705 1.90679 -0.17715 0
M  V30 1871 H 160.01 3.38766 1.96836 0
M  V30 1872 H 161.707 3.64435 1.67297 0
M  V30 1873 H 158.297 4.2689 0.382491 0
M  V30 1874 H 162.481 4.95264 -0.320581 0
M  V30 1875 H 157.737 5.975 -1.29628 0
M  V30 1876 H 161.911 6.67194 -1.99564 0
M  V30 1877 H 159.538 7.1828 -2.48953 0
M  V30 1878 N 161.113 -0.173488 1.56642 0
M  V30 1879 C 162.36 -0.890465 1.81871 0
M  V30 1880 C 162.688 -1.82339 0.67696 0
M  V30 1881 O 161.943 -1.92795 -0.335926 0
M  V30 1882 C 162.242 -1.72069 3.13252 0
M  V30 1883 C 161.908 -0.936878 4.41059 0
M  V30 1884 C 160.57 -0.720545 4.75775 0
M  V30 1885 C 162.922 -0.386919 5.19762 0
M  V30 1886 C 160.25 0.0568829 5.86672 0
M  V30 1887 C 162.602 0.37741 6.31473 0
M  V30 1888 C 161.266 0.604563 6.64757 0
M  V30 1889 H 160.536 -0.325844 0.665512 0
M  V30 1890 H 163.183 -0.155527 1.90867 0
M  V30 1891 H 161.488 -2.52496 2.99588 0
M  V30 1892 H 163.185 -2.27844 3.29982 0
M  V30 1893 H 159.775 -1.11553 4.13828 0
M  V30 1894 H 163.959 -0.541398 4.93338 0
M  V30 1895 H 159.215 0.242635 6.10918 0
M  V30 1896 H 163.389 0.810825 6.91664 0
M  V30 1897 H 161.016 1.20885 7.50527 0
M  V30 1898 N 162.591 -1.51276 -0.441967 0
M  V30 1899 C 163.538 -1.72256 -1.53612 0
M  V30 1900 C 164.508 -0.564164 -1.56225 0
M  V30 1901 O 165.693 -0.798074 -1.73307 0
M  V30 1902 C 162.833 -1.84932 -2.91366 0
M  V30 1903 C 161.946 -3.12459 -2.98317 0
M  V30 1904 C 161.081 -3.15758 -4.27166 0
M  V30 1905 C 160.12 -4.37619 -4.27967 0
M  V30 1906 N 159.257 -4.38493 -5.48333 0
M  V30 1907 H 164.097 -2.65654 -1.35026 0
M  V30 1908 H 161.634 -1.31662 -0.656009 0
M  V30 1909 H 163.592 -1.90263 -3.7129 0
M  V30 1910 H 162.222 -0.949461 -3.08521 0
M  V30 1911 H 161.274 -3.1646 -2.11086 0
M  V30 1912 H 162.586 -4.02382 -2.94771 0
M  V30 1913 H 161.74 -3.19979 -5.15459 0
M  V30 1914 H 160.479 -2.23715 -4.33362 0
M  V30 1915 H 159.484 -4.33579 -3.38067 0
M  V30 1916 H 160.709 -5.30921 -4.23438 0
M  V30 1917 H 158.655 -3.49318 -5.55259 0
M  V30 1918 H 158.572 -5.22219 -5.46647 0
M  V30 1919 H 159.84 -4.469 -6.38671 0
M  V30 1920 N 164.069 0.697108 -1.41344 0
M  V30 1921 C 165.294 1.49096 -1.44171 0
M  V30 1922 C 165.719 1.88038 -0.0481568 0
M  V30 1923 O 165.077 1.54525 0.948243 0
M  V30 1924 C 165.125 2.73088 -2.3549 0
M  V30 1925 O 164.229 3.70514 -1.81088 0
M  V30 1926 H 163.57 0.448801 -0.489361 0
M  V30 1927 H 166.1 0.856992 -1.85787 0
M  V30 1928 H 166.11 3.21413 -2.51312 0
M  V30 1929 H 164.785 2.44081 -3.36745 0
M  V30 1930 H 163.362 3.29441 -1.74708 0
M  V30 1931 N 165.547 1.27147 0.931209 0
M  V30 1932 C 166.795 1.13055 1.6752 0
M  V30 1933 C 167.116 -0.324791 1.92276 0
M  V30 1934 O 166.386 -1.22775 1.52654 0
M  V30 1935 H 164.966 0.415391 0.620854 0
M  V30 1936 H 167.628 1.59623 1.11833 0
M  V30 1937 H 166.724 1.65694 2.64485 0
M  V30 1938 N 167.025 -1.13721 1.09112 0
M  V30 1939 C 168.255 -1.88499 0.845671 0
M  V30 1940 C 168.663 -1.79218 -0.606432 0
M  V30 1941 O 168.006 -1.1544 -1.42896 0
M  V30 1942 C 168.068 -3.38954 1.19793 0
M  V30 1943 C 167.732 -3.72018 2.65428 0
M  V30 1944 C 168.729 -3.7153 3.63677 0
M  V30 1945 C 166.414 -4.01775 3.01467 0
M  V30 1946 C 168.408 -4.00336 4.95994 0
M  V30 1947 C 166.095 -4.30243 4.33975 0
M  V30 1948 C 167.093 -4.29508 5.31048 0
M  V30 1949 O 166.781 -4.5728 6.61173 0
M  V30 1950 H 166.513 -0.603702 0.304171 0
M  V30 1951 H 169.067 -1.44903 1.45576 0
M  V30 1952 H 167.297 -3.83039 0.530871 0
M  V30 1953 H 168.986 -3.95052 0.932146 0
M  V30 1954 H 169.752 -3.4862 3.37179 0
M  V30 1955 H 165.631 -4.01496 2.26544 0
M  V30 1956 H 169.175 -3.99678 5.71755 0
M  V30 1957 H 165.072 -4.52625 4.60219 0
M  V30 1958 H 165.84 -4.74964 6.66597 0
M  V30 1959 N 168.503 -0.877838 -1.30888 0
M  V30 1960 C 169.466 -0.344265 -2.266 0
M  V30 1961 C 170.466 0.50922 -1.52524 0
M  V30 1962 O 171.656 0.317398 -1.71284 0
M  V30 1963 C 168.788 0.510198 -3.37061 0
M  V30 1964 H 169.981 -1.1893 -2.7531 0
M  V30 1965 H 167.534 -0.654088 -1.41956 0
M  V30 1966 H 168.269 1.37612 -2.93655 0
M  V30 1967 H 168.054 -0.101047 -3.9197 0
M  V30 1968 H 169.544 0.875537 -4.08319 0
M  V30 1969 N 169.982 1.44106 -0.638065 0
M  V30 1970 C 170.914 2.28976 0.101205 0
M  V30 1971 C 171.927 1.4167 0.802088 0
M  V30 1972 O 173.116 1.65755 0.662375 0
M  V30 1973 C 170.216 3.18217 1.16581 0
M  V30 1974 C 169.389 4.33978 0.546066 0
M  V30 1975 C 168.448 5.04202 1.50554 0
M  V30 1976 O 167.474 5.59986 1.01999 0
M  V30 1977 N 168.676 5.06296 2.8398 0
M  V30 1978 H 171.441 2.93064 -0.627186 0
M  V30 1979 H 169.002 1.54629 -0.479731 0
M  V30 1980 H 170.994 3.62061 1.80815 0
M  V30 1981 H 169.564 2.55833 1.79634 0
M  V30 1982 H 168.784 3.93239 -0.275046 0
M  V30 1983 H 170.072 5.08675 0.112793 0
M  V30 1984 H 169.47 4.62319 3.26002 0
M  V30 1985 H 168.027 5.53907 3.43556 0
M  V30 1986 N 171.46 0.379036 1.52974 0
M  V30 1987 C 172.407 -0.461048 2.26148 0
M  V30 1988 C 173.377 -1.06637 1.27349 0
M  V30 1989 O 174.562 -1.09633 1.56157 0
M  V30 1990 C 171.702 -1.58782 3.06402 0
M  V30 1991 C 170.815 -1.00636 4.20115 0
M  V30 1992 C 169.95 -2.10334 4.87784 0
M  V30 1993 C 168.989 -1.49724 5.93506 0
M  V30 1994 N 168.126 -2.5331 6.54812 0
M  V30 1995 H 172.966 0.169429 2.97518 0
M  V30 1996 H 170.503 0.0953806 1.4679 0
M  V30 1997 H 172.461 -2.25174 3.51215 0
M  V30 1998 H 171.091 -2.18876 2.37261 0
M  V30 1999 H 170.143 -0.232332 3.7969 0
M  V30 2000 H 171.455 -0.523343 4.96047 0
M  V30 2001 H 170.609 -2.84519 5.35849 0
M  V30 2002 H 169.348 -2.61992 4.11353 0
M  V30 2003 H 168.353 -0.740598 5.44789 0
M  V30 2004 H 169.578 -0.988732 6.71864 0
M  V30 2005 H 167.524 -3.04156 5.81227 0
M  V30 2006 H 167.441 -2.09734 7.26325 0
M  V30 2007 H 168.709 -3.27155 7.07524 0
M  V30 2008 N 172.938 -1.57226 0.108567 0
M  V30 2009 C 174.186 -1.94448 -0.550853 0
M  V30 2010 C 174.507 -0.992074 -1.67878 0
M  V30 2011 O 173.777 -0.0465 -1.95845 0
M  V30 2012 H 172.357 -0.717897 -0.206479 0
M  V30 2013 H 175.019 -1.94112 0.175062 0
M  V30 2014 H 174.115 -2.97218 -0.952259 0
M  V30 2015 N 174.416 0.165178 -1.56732 0
M  V30 2016 C 175.646 0.894919 -1.86212 0
M  V30 2017 C 176.054 1.76066 -0.692627 0
M  V30 2018 O 175.397 1.80387 0.347303 0
M  V30 2019 C 175.459 1.8174 -3.10179 0
M  V30 2020 C 175.123 1.13064 -4.42793 0
M  V30 2021 C 176.12 0.493169 -5.17556 0
M  V30 2022 C 173.805 1.12556 -4.89527 0
M  V30 2023 C 175.799 -0.140209 -6.37246 0
M  V30 2024 C 173.486 0.488366 -6.09145 0
M  V30 2025 C 174.484 -0.143411 -6.82849 0
M  V30 2026 O 174.172 -0.77055 -8.00199 0
M  V30 2027 H 173.904 0.265114 -0.621844 0
M  V30 2028 H 176.458 0.168242 -2.0471 0
M  V30 2029 H 174.688 2.58455 -2.87642 0
M  V30 2030 H 176.377 2.4175 -3.26055 0
M  V30 2031 H 177.143 0.489023 -4.82528 0
M  V30 2032 H 173.022 1.60672 -4.32094 0
M  V30 2033 H 176.566 -0.633932 -6.94714 0
M  V30 2034 H 172.463 0.490116 -6.43637 0
M  V30 2035 H 173.231 -0.670408 -8.1575 0
M  V30 2036 N 175.894 1.51508 0.433938 0
M  V30 2037 C 176.824 1.76016 1.53429 0
M  V30 2038 C 177.805 0.610112 1.58782 0
M  V30 2039 O 178.99 0.853177 1.74455 0
M  V30 2040 C 176.12 1.88831 2.9148 0
M  V30 2041 C 175.074 3.04288 3.00987 0
M  V30 2042 C 174.4 3.0229 4.4105 0
M  V30 2043 C 175.7 4.44193 2.74754 0
M  V30 2044 H 177.394 2.68152 1.33171 0
M  V30 2045 H 174.94 1.29035 0.639214 0
M  V30 2046 H 176.893 2.04559 3.6842 0
M  V30 2047 H 175.617 0.933455 3.12976 0
M  V30 2048 H 174.276 2.8827 2.26486 0
M  V30 2049 H 173.924 2.04576 4.59519 0
M  V30 2050 H 173.624 3.79822 4.4834 0
M  V30 2051 H 175.148 3.20116 5.1996 0
M  V30 2052 H 176.562 4.60544 3.41426 0
M  V30 2053 H 174.959 5.23457 2.9345 0
M  V30 2054 H 176.029 4.53996 1.70339 0
M  V30 2055 N 177.372 -0.689602 1.41712 0
M  V30 2056 C 178.62 -1.4468 1.4111 0
M  V30 2057 C 178.941 -1.94986 0.0232196 0
M  V30 2058 O 178.211 -1.72097 -0.935913 0
M  V30 2059 H 176.791 -0.536847 0.519427 0
M  V30 2060 H 179.453 -0.815825 1.77004 0
M  V30 2061 H 178.549 -2.30706 2.10193 0
M  V30 2062 N 178.85 -1.27639 -0.924453 0
M  V30 2063 C 180.075 -1.17101 -1.71179 0
M  V30 2064 C 180.5 0.268134 -1.86179 0
M  V30 2065 O 179.858 1.19415 -1.36418 0
M  V30 2066 C 179.906 -1.86313 -3.08739 0
M  V30 2067 O 179.01 -1.16331 -3.95652 0
M  V30 2068 H 178.351 -0.407091 -0.524569 0
M  V30 2069 H 180.881 -1.68767 -1.15666 0
M  V30 2070 H 180.891 -1.938 -3.59034 0
M  V30 2071 H 179.566 -2.91001 -2.97138 0
M  V30 2072 H 178.143 -1.16935 -3.54091 0
M  V30 2073 N 180.328 1.1314 -1.09713 0
M  V30 2074 C 181.238 2.22242 -0.751367 0
M  V30 2075 C 182.254 1.72224 0.247938 0
M  V30 2076 O 183.43 2.01205 0.0885463 0
M  V30 2077 C 180.495 3.46231 -0.180274 0
M  V30 2078 C 179.556 4.11125 -1.2359 0
M  V30 2079 C 178.789 5.29195 -0.691966 0
M  V30 2080 O 179.012 5.68342 0.48414 0
M  V30 2081 O 177.946 5.84214 -1.44838 0
M  V30 2082 H 181.772 2.54197 -1.66186 0
M  V30 2083 H 179.357 1.21331 -0.871735 0
M  V30 2084 H 181.239 4.21185 0.134739 0
M  V30 2085 H 179.914 3.1597 0.703185 0
M  V30 2086 H 178.821 3.37985 -1.60366 0
M  V30 2087 H 180.154 4.45524 -2.09211 0
M  V30 2088 N 181.806 0.884767 1.30421 0
M  V30 2089 C 182.754 0.340869 2.30089 0
M  V30 2090 C 183.748 -0.55201 1.60154 0
M  V30 2091 O 184.954 -0.436467 1.74628 0
M  V30 2092 H 181.329 0.0915739 0.746404 0
M  V30 2093 H 183.3 1.19513 2.73421 0
M  V30 2094 C 182.049 -0.429779 3.45034 0
M  V30 2095 H 181.372 0.248024 3.9903 0
M  V30 2096 H 182.812 -0.775445 4.16849 0
M  V30 2097 C 181.271 -1.62677 2.95022 0
M  V30 2098 O 181.801 -2.72614 2.95033 0
M  V30 2099 N 180.007 -1.46387 2.51036 0
M  V30 2100 H 179.554 -0.569506 2.51226 0
M  V30 2101 H 179.512 -2.26612 2.17932 0
M  V30 2102 N 183.284 -1.43765 0.645699 0
M  V30 2103 C 184.561 -1.9541 0.0862963 0
M  V30 2104 C 184.941 -1.58725 -1.39175 0
M  V30 2105 O 184.289 -0.868581 -2.11348 0
M  V30 2106 C 184.499 -3.47488 0.324565 0
M  V30 2107 C 185.847 -4.24001 0.225497 0
M  V30 2108 O 186.871 -3.55274 0.256715 0
M  V30 2109 O 185.73 -5.46313 0.142801 0
M  V30 2110 H 182.824 -0.826882 -0.0139483 0
M  V30 2111 H 185.37 -1.53743 0.718415 0
M  V30 2112 H 184.142 -3.67289 1.3496 0
M  V30 2113 H 183.765 -3.96135 -0.340987 0
M  V30 2114 N 184.763 -0.387143 -1.52771 0
M  V30 2115 C 185.988 0.198407 -2.06449 0
M  V30 2116 C 186.413 1.39918 -1.25716 0
M  V30 2117 O 185.771 1.79099 -0.281657 0
M  V30 2118 C 185.819 0.548893 -3.56398 0
M  V30 2119 O 184.923 1.64315 -3.78252 0
M  V30 2120 H 184.264 0.0237731 -0.663574 0
M  V30 2121 H 186.794 -0.553989 -1.96957 0
M  V30 2122 H 186.804 0.813812 -3.99801 0
M  V30 2123 H 185.479 -0.329005 -4.14597 0
M  V30 2124 H 184.056 1.37211 -3.46738 0
M  V30 2125 N 186.241 1.57166 -0.116904 0
M  V30 2126 C 187.49 1.94298 0.541407 0
M  V30 2127 C 187.803 1.00236 1.67964 0
M  V30 2128 O 189.009 1.26826 2.40057 0
M  V30 2129 C 187.465 3.45306 1.01449 0
M  V30 2130 C 187.073 4.47899 -0.0951738 0
M  V30 2131 C 188.817 3.91361 1.6443 0
M  V30 2132 C 186.724 5.90083 0.394491 0
M  V30 2133 H 185.654 0.725308 0.206019 0
M  V30 2134 H 188.305 1.82446 -0.196419 0
M  V30 2135 H 186.687 3.52385 1.80667 0
M  V30 2136 H 187.861 4.52486 -0.871374 0
M  V30 2137 H 186.176 4.11583 -0.631505 0
M  V30 2138 H 188.773 4.95004 2.02176 0
M  V30 2139 H 189.116 3.3122 2.52189 0
M  V30 2140 H 189.649 3.87073 0.917559 0
M  V30 2141 H 186.388 6.53974 -0.447004 0
M  V30 2142 H 185.908 5.88921 1.13722 0
M  V30 2143 H 187.587 6.41307 0.856399 0
M  V30 2144 N 187.719 -0.156864 1.56817 0
M  V30 2145 C 188.629 -1.2136 2.00771 0
M  V30 2146 C 189.645 -1.47598 0.921459 0
M  V30 2147 O 190.821 -1.59462 1.2302 0
M  V30 2148 C 187.886 -2.52943 2.37109 0
M  V30 2149 C 186.947 -2.34439 3.59634 0
M  V30 2150 C 186.18 -3.59748 3.94229 0
M  V30 2151 O 186.403 -4.65526 3.29609 0
M  V30 2152 O 185.337 -3.52998 4.8752 0
M  V30 2153 H 189.163 -0.870468 2.90958 0
M  V30 2154 H 186.748 -0.36484 1.44877 0
M  V30 2155 H 188.63 -3.30538 2.61386 0
M  V30 2156 H 187.305 -2.86806 1.5008 0
M  V30 2157 H 186.212 -1.54828 3.40557 0
M  V30 2158 H 187.545 -2.05496 4.4725 0
M  V30 2159 N 189.197 -1.51736 -0.425897 0
M  V30 2160 C 190.127 -1.76827 -1.52494 0
M  V30 2161 C 191.108 -0.618524 -1.58456 0
M  V30 2162 O 192.293 -0.862416 -1.74 0
M  V30 2163 C 189.423 -1.90374 -2.90474 0
M  V30 2164 C 188.377 -3.0588 -2.99369 0
M  V30 2165 C 187.703 -3.04625 -4.3944 0
M  V30 2166 C 189.003 -4.45644 -2.72394 0
M  V30 2167 H 190.697 -2.68855 -1.31748 0
M  V30 2168 H 188.243 -1.29372 -0.632362 0
M  V30 2169 H 190.196 -2.0651 -3.6733 0
M  V30 2170 H 188.92 -0.95004 -3.12477 0
M  V30 2171 H 187.579 -2.89467 -2.24954 0
M  V30 2172 H 187.227 -2.0701 -4.58428 0
M  V30 2173 H 186.927 -3.82195 -4.46319 0
M  V30 2174 H 188.451 -3.22869 -5.18255 0
M  V30 2175 H 189.865 -4.62348 -3.38979 0
M  V30 2176 H 188.262 -5.25006 -2.9067 0
M  V30 2177 H 189.332 -4.54893 -1.67929 0
M  V30 2178 N 190.675 0.682077 -1.42076 0
M  V30 2179 C 191.952 1.43755 -1.32642 0
M  V30 2180 C 192.332 2.11063 0.0396611 0
M  V30 2181 O 191.68 2.02701 1.05474 0
M  V30 2182 C 191.89 2.44596 -2.48946 0
M  V30 2183 C 193.238 3.09454 -2.9073 0
M  V30 2184 O 194.262 2.54922 -2.48783 0
M  V30 2185 O 193.121 4.08253 -3.63307 0
M  V30 2186 H 190.215 0.640857 -0.522715 0
M  V30 2187 H 192.761 0.711415 -1.54068 0
M  V30 2188 H 191.533 1.93609 -3.40046 0
M  V30 2189 H 191.156 3.24701 -2.29467 0
M  V30 2190 N 192.153 1.28127 0.917671 0
M  V30 2191 C 193.43 1.05761 1.64542 0
M  V30 2192 C 193.81 -0.404344 2.07191 0
M  V30 2193 O 193.158 -1.38963 1.81388 0
M  V30 2194 C 193.368 2.02857 2.83989 0
M  V30 2195 C 194.716 2.32786 3.551 0
M  V30 2196 O 195.74 2.0091 2.94132 0
M  V30 2197 O 194.599 2.87169 4.64969 0
M  V30 2198 H 191.693 0.403916 0.721652 0
M  V30 2199 H 194.239 1.39431 0.967322 0
M  V30 2200 H 193.011 3.01407 2.49538 0
M  V30 2201 H 192.634 1.69809 3.59514 0
M  V30 2202 N 193.631 -1.12557 1.10312 0
M  V30 2203 C 194.877 -1.84311 0.846011 0
M  V30 2204 C 195.21 -1.83805 -0.626859 0
M  V30 2205 O 194.485 -1.28268 -1.46211 0
M  V30 2206 C 194.768 -3.32048 1.39341 0
M  V30 2207 C 194.621 -3.41016 2.93305 0
M  V30 2208 C 195.94 -4.27764 1.03468 0
M  V30 2209 H 193.059 -0.669192 0.30879 0
M  V30 2210 H 195.701 -1.32057 1.36605 0
M  V30 2211 H 193.851 -3.76678 0.951087 0
M  V30 2212 H 195.523 -3.05031 3.46055 0
M  V30 2213 H 193.766 -2.81603 3.29973 0
M  V30 2214 H 194.437 -4.44948 3.26689 0
M  V30 2215 H 196.913 -3.91253 1.41633 0
M  V30 2216 H 195.789 -5.29549 1.44463 0
M  V30 2217 H 196.05 -4.42064 -0.0560404 0
M  V30 2218 N 195.109 -0.891671 -1.2995 0
M  V30 2219 C 196.072 -0.36828 -2.26222 0
M  V30 2220 C 197.072 0.493014 -1.53056 0
M  V30 2221 O 198.262 0.299213 -1.71611 0
M  V30 2222 C 195.394 0.47442 -3.37583 0
M  V30 2223 H 196.587 -1.21844 -2.74033 0
M  V30 2224 H 194.14 -0.669107 -1.41254 0
M  V30 2225 H 194.875 1.34489 -2.95099 0
M  V30 2226 H 194.66 -0.142615 -3.91841 0
M  V30 2227 H 196.15 0.83218 -4.09224 0
M  V30 2228 N 196.587 1.43421 -0.653314 0
M  V30 2229 C 197.535 2.32546 0.0501531 0
M  V30 2230 C 198.529 1.48617 0.812985 0
M  V30 2231 O 199.735 1.64825 0.723375 0
M  V30 2232 H 196.11 0.751185 0.0350032 0
M  V30 2233 H 198.081 2.89602 -0.719261 0
M  V30 2234 C 196.83 3.32925 1.00279 0
M  V30 2235 H 196.153 3.97532 0.425236 0
M  V30 2236 H 197.593 3.9792 1.46409 0
M  V30 2237 C 196.052 2.63532 2.09886 0
M  V30 2238 O 196.582 2.45092 3.18265 0
M  V30 2239 N 194.788 2.22905 1.86445 0
M  V30 2240 H 194.335 2.38103 0.98309 0
M  V30 2241 H 194.293 1.76805 2.59976 0
M  V30 2242 N 198.065 0.39524 1.52563 0
M  V30 2243 C 198.995 -0.428384 2.29537 0
M  V30 2244 C 199.976 -1.05831 1.33169 0
M  V30 2245 O 201.161 -1.06995 1.62067 0
M  V30 2246 C 198.291 -1.55274 3.10656 0
M  V30 2247 C 197.245 -1.04855 4.14957 0
M  V30 2248 C 196.571 -2.26543 4.84337 0
M  V30 2249 C 197.871 -0.112324 5.22179 0
M  V30 2250 H 199.565 0.213867 2.98635 0
M  V30 2251 H 197.111 0.104298 1.43622 0
M  V30 2252 H 199.064 -2.1358 3.63265 0
M  V30 2253 H 197.788 -2.22266 2.39302 0
M  V30 2254 H 196.447 -0.487985 3.63338 0
M  V30 2255 H 196.095 -2.92059 4.09525 0
M  V30 2256 H 195.795 -1.93466 5.54837 0
M  V30 2257 H 197.319 -2.85481 5.39753 0
M  V30 2258 H 198.733 -0.603752 5.70112 0
M  V30 2259 H 197.13 0.128968 5.99961 0
M  V30 2260 H 198.2 0.837052 4.77621 0
M  V30 2261 N 199.544 -1.57102 0.125237 0
M  V30 2262 C 200.477 -2.11371 -0.860094 0
M  V30 2263 C 201.455 -1.03168 -1.25679 0
M  V30 2264 O 202.639 -1.30862 -1.35674 0
M  V30 2265 C 199.766 -2.61555 -2.1519 0
M  V30 2266 C 198.812 -3.81701 -1.9028 0
M  V30 2267 S 199.645 -5.23797 -1.11343 0
M  V30 2268 C 200.801 -5.77353 -2.41689 0
M  V30 2269 H 201.034 -2.94617 -0.39852 0
M  V30 2270 H 198.567 -1.54145 -0.0886555 0
M  V30 2271 H 200.525 -2.91122 -2.89411 0
M  V30 2272 H 199.186 -1.78479 -2.58465 0
M  V30 2273 H 198.379 -4.14985 -2.86014 0
M  V30 2274 H 197.981 -3.52783 -1.24178 0
M  V30 2275 H 200.273 -5.87458 -3.37489 0
M  V30 2276 H 201.216 -6.75323 -2.12942 0
M  V30 2277 H 201.624 -5.05457 -2.51342 0
M  V30 2278 N 201.022 0.148545 -1.56898 0
M  V30 2279 C 202.269 0.861418 -1.83264 0
M  V30 2280 C 202.597 1.81239 -0.705883 0
M  V30 2281 O 201.852 1.93305 0.305212 0
M  V30 2282 C 202.151 1.67064 -3.1595 0
M  V30 2283 C 201.817 0.866591 -4.42494 0
M  V30 2284 C 200.479 0.644762 -4.76861 0
M  V30 2285 C 202.831 0.30418 -5.20312 0
M  V30 2286 C 200.159 -0.15021 -5.86508 0
M  V30 2287 C 202.511 -0.477824 -6.30793 0
M  V30 2288 C 201.175 -0.710244 -6.63711 0
M  V30 2289 H 200.445 0.315215 -0.670612 0
M  V30 2290 H 203.092 0.125142 -1.91091 0
M  V30 2291 H 201.397 2.47698 -3.03567 0
M  V30 2292 H 203.094 2.22566 -3.33565 0
M  V30 2293 H 199.684 1.04955 -4.15551 0
M  V30 2294 H 203.868 0.462844 -4.94137 0
M  V30 2295 H 199.124 -0.339796 -6.10455 0
M  V30 2296 H 203.298 -0.92076 -6.90286 0
M  V30 2297 H 200.925 -1.3281 -7.48509 0
M  V30 2298 N 202.5 1.5196 0.417844 0
M  V30 2299 C 203.73 1.69181 1.18581 0
M  V30 2300 C 204.138 0.397104 1.84986 0
M  V30 2301 O 203.481 -0.636011 1.72339 0
M  V30 2302 C 203.543 2.76497 2.29759 0
M  V30 2303 C 203.207 4.18514 1.83563 0
M  V30 2304 C 204.204 5.02648 1.32821 0
M  V30 2305 C 201.889 4.64708 1.90661 0
M  V30 2306 C 203.883 6.31044 0.897894 0
M  V30 2307 C 201.57 5.93096 1.47241 0
M  V30 2308 C 202.568 6.76093 0.968891 0
M  V30 2309 O 202.256 8.02078 0.540924 0
M  V30 2310 H 201.988 0.570457 0.362705 0
M  V30 2311 H 204.542 1.99249 0.498885 0
M  V30 2312 H 202.772 2.41786 3.01789 0
M  V30 2313 H 204.461 2.82403 2.91553 0
M  V30 2314 H 205.227 4.68154 1.26716 0
M  V30 2315 H 201.106 4.00216 2.28797 0
M  V30 2316 H 204.65 6.95776 0.504192 0
M  V30 2317 H 200.547 6.271 1.53022 0
M  V30 2318 H 201.315 8.15794 0.66502 0
M  V30 2319 N 203.978 -0.674533 1.42435 0
M  V30 2320 C 205.226 -1.43175 1.42637 0
M  V30 2321 C 205.547 -1.94951 0.0438992 0
M  V30 2322 O 204.817 -1.7308 -0.917607 0
M  V30 2323 H 203.397 -0.531307 0.525092 0
M  V30 2324 H 206.059 -0.797006 1.77859 0
M  V30 2325 H 205.155 -2.28463 2.12629 0
M  V30 2326 N 205.456 -1.28612 -0.910864 0
M  V30 2327 C 206.366 -1.14643 -2.0468 0
M  V30 2328 C 207.382 -0.0723121 -1.7385 0
M  V30 2329 O 208.558 -0.282178 -1.99413 0
M  V30 2330 C 205.623 -0.812561 -3.37044 0
M  V30 2331 C 204.684 -1.96935 -3.81465 0
M  V30 2332 C 203.917 -1.65131 -5.07511 0
M  V30 2333 O 204.14 -0.567013 -5.67575 0
M  V30 2334 O 203.074 -2.49585 -5.47714 0
M  V30 2335 H 206.9 -2.1001 -2.19384 0
M  V30 2336 H 204.485 -1.07958 -1.03274 0
M  V30 2337 H 206.367 -0.640441 -4.16505 0
M  V30 2338 H 205.042 0.111426 -3.23508 0
M  V30 2339 H 203.949 -2.19664 -3.02818 0
M  V30 2340 H 205.282 -2.87414 -3.99567 0
M  V30 2341 N 206.934 1.1197 -1.10907 0
M  V30 2342 C 208.182 1.83225 -0.852819 0
M  V30 2343 C 208.503 1.84769 0.623341 0
M  V30 2344 O 207.773 1.3143 1.45269 0
M  V30 2345 H 206.353 0.67849 -0.312507 0
M  V30 2346 H 209.015 1.3556 -1.40033 0
M  V30 2347 H 208.111 2.87265 -1.22005 0
M  V30 2348 N 208.412 0.89855 1.29475 0
M  V30 2349 C 209.344 0.332726 2.26772 0
M  V30 2350 C 210.357 -0.520323 1.54261 0
M  V30 2351 O 211.546 -0.337668 1.75277 0
M  V30 2352 C 208.646 -0.544334 3.345 0
M  V30 2353 C 207.819 0.282728 4.36485 0
M  V30 2354 C 206.878 -0.526982 5.23555 0
M  V30 2355 O 205.904 0.0551165 5.69173 0
M  V30 2356 N 207.106 -1.83331 5.5079 0
M  V30 2357 H 209.871 1.16897 2.75962 0
M  V30 2358 H 207.432 0.762919 1.42798 0
M  V30 2359 H 209.424 -1.09239 3.89678 0
M  V30 2360 H 207.994 -1.28127 2.85136 0
M  V30 2361 H 207.214 1.01221 3.80983 0
M  V30 2362 H 208.502 0.84918 5.01664 0
M  V30 2363 H 207.9 -2.32898 5.15534 0
M  V30 2364 H 206.457 -2.32852 6.08788 0
M  V30 2365 N 209.89 -1.43072 0.660911 0
M  V30 2366 C 211.139 -2.00942 0.174735 0
M  V30 2367 C 211.452 -1.52797 -1.22117 0
M  V30 2368 O 212.658 -2.02991 -1.80297 0
M  V30 2369 C 211.114 -3.58948 0.261559 0
M  V30 2370 C 210.722 -4.16085 1.66064 0
M  V30 2371 C 212.466 -4.24173 -0.166617 0
M  V30 2372 C 210.373 -5.6641 1.70098 0
M  V30 2373 H 209.303 -0.751483 0.0615631 0
M  V30 2374 H 211.954 -1.63955 0.824069 0
M  V30 2375 H 210.336 -3.93372 -0.455421 0
M  V30 2376 H 211.51 -3.93147 2.40359 0
M  V30 2377 H 209.825 -3.6326 2.03546 0
M  V30 2378 H 212.422 -5.34471 -0.156433 0
M  V30 2379 H 212.765 -3.98647 -1.19943 0
M  V30 2380 H 213.298 -3.94659 0.498875 0
M  V30 2381 H 210.037 -5.96715 2.71315 0
M  V30 2382 H 209.557 -5.91382 1.00139 0
M  V30 2383 H 211.236 -6.30585 1.44816 0
M  V30 2384 N 211.368 -0.403325 -1.52352 0
M  V30 2385 C 212.616 0.174003 -2.0135 0
M  V30 2386 C 212.937 1.46139 -1.29106 0
M  V30 2387 O 212.207 1.91448 -0.415253 0
M  V30 2388 H 210.787 0.0672911 -0.743963 0
M  V30 2389 H 213.449 -0.538235 -1.87321 0
M  V30 2390 H 212.545 0.374254 -3.09848 0
M  V30 2391 N 212.846 1.57033 -0.133567 0
M  V30 2392 C 214.074 2.00044 0.528195 0
M  V30 2393 C 214.489 1.01349 1.59291 0
M  V30 2394 O 213.846 0.00848369 1.82498 0
M  V30 2395 C 213.897 3.43018 1.1411 0
M  V30 2396 O 213.618 4.37939 0.11892 0
M  V30 2397 C 215.119 4.01237 1.88477 0
M  V30 2398 H 212.339 0.656517 0.138661 0
M  V30 2399 H 214.883 2.03267 -0.224196 0
M  V30 2400 H 213.038 3.40688 1.84418 0
M  V30 2401 H 213.452 5.21436 0.56613 0
M  V30 2402 H 214.926 5.03314 2.26669 0
M  V30 2403 H 215.403 3.41193 2.76558 0
M  V30 2404 H 216.009 4.07156 1.22898 0
M  V30 2405 N 214.325 -0.140222 1.56975 0
M  V30 2406 C 215.273 -1.19207 1.99731 0
M  V30 2407 C 216.267 -1.44089 0.890777 0
M  V30 2408 O 217.473 -1.44301 1.07597 0
M  V30 2409 H 213.848 -0.40142 0.635898 0
M  V30 2410 H 215.819 -0.804813 2.87342 0
M  V30 2411 C 214.568 -2.51617 2.39967 0
M  V30 2412 H 213.891 -2.33303 3.24669 0
M  V30 2413 H 215.331 -3.23827 2.73701 0
M  V30 2414 C 213.79 -3.12654 1.25496 0
M  V30 2415 O 214.32 -3.97786 0.559371 0
M  V30 2416 N 212.526 -2.72206 1.01746 0
M  V30 2417 H 212.073 -2.03074 1.58489 0
M  V30 2418 H 212.031 -3.13377 0.253461 0
M  V30 2419 N 215.803 -1.52179 -0.40978 0
M  V30 2420 C 216.75 -1.75475 -1.49924 0
M  V30 2421 C 217.72 -0.597175 -1.54994 0
M  V30 2422 O 218.905 -0.834655 -1.71575 0
M  V30 2423 C 216.045 -1.9107 -2.87378 0
M  V30 2424 C 215.158 -3.18717 -2.91622 0
M  V30 2425 C 214.293 -3.24747 -4.20372 0
M  V30 2426 C 213.332 -4.46598 -4.18588 0
M  V30 2427 N 212.469 -4.50025 -5.38908 0
M  V30 2428 H 217.309 -2.68458 -1.29361 0
M  V30 2429 H 214.846 -1.33024 -0.627934 0
M  V30 2430 H 216.804 -1.98096 -3.6717 0
M  V30 2431 H 215.434 -1.01469 -3.06437 0
M  V30 2432 H 214.486 -3.20866 -2.04326 0
M  V30 2433 H 215.798 -4.08544 -2.86169 0
M  V30 2434 H 214.952 -3.30841 -5.08556 0
M  V30 2435 H 213.691 -2.32857 -4.28519 0
M  V30 2436 H 212.696 -4.40652 -3.28794 0
M  V30 2437 H 213.921 -5.39783 -4.12081 0
M  V30 2438 H 211.867 -3.61017 -5.47725 0
M  V30 2439 H 211.784 -5.33697 -5.35447 0
M  V30 2440 H 213.052 -4.60347 -6.29048 0
M  V30 2441 N 217.281 0.66697 -1.42791 0
M  V30 2442 C 218.213 1.7925 -1.42836 0
M  V30 2443 C 219.226 1.59496 -0.326333 0
M  V30 2444 O 220.415 1.6847 -0.589916 0
M  V30 2445 C 217.515 3.16476 -1.21229 0
M  V30 2446 C 216.688 3.63011 -2.44013 0
M  V30 2447 C 215.747 4.78993 -2.17834 0
M  V30 2448 O 214.773 4.89137 -2.91091 0
M  V30 2449 N 215.975 5.68248 -1.18635 0
M  V30 2450 H 218.74 1.79695 -2.39854 0
M  V30 2451 H 216.301 0.850338 -1.37771 0
M  V30 2452 H 218.293 3.91734 -1.01621 0
M  V30 2453 H 216.863 3.10884 -0.32706 0
M  V30 2454 H 216.083 2.78346 -2.79137 0
M  V30 2455 H 217.371 3.90845 -3.25757 0
M  V30 2456 H 216.769 5.62712 -0.580615 0
M  V30 2457 H 215.326 6.43285 -1.05013 0
M  V30 2458 N 218.759 1.29093 0.90403 0
M  V30 2459 C 220.17 1.15186 1.46932 0
M  V30 2460 C 220.521 -0.254587 1.94541 0
M  V30 2461 O 219.646 -1.14972 1.83332 0
M  V30 2462 C 220.241 2.08492 2.67051 0
M  V30 2463 C 218.8 1.98621 3.19729 0
M  V30 2464 C 217.947 1.9967 1.92425 0
M  V30 2465 H 220.898 1.41641 0.715789 0
M  V30 2466 H 220.919 1.65461 3.42641 0
M  V30 2467 H 220.431 3.10847 2.3237 0
M  V30 2468 H 218.532 0.993389 3.59114 0
M  V30 2469 H 218.645 2.86068 3.8432 0
M  V30 2470 H 217.009 1.44208 2.09943 0
M  V30 2471 H 217.792 3.03721 1.60026 0
M  V30 2472 N 220.237 -1.11381 1.11499 0
M  V30 2473 C 221.484 -1.83132 0.864231 0
M  V30 2474 C 221.812 -1.84683 -0.610114 0
M  V30 2475 O 221.067 -1.29589 -1.46646 0
M  V30 2476 C 221.366 -3.30026 1.37177 0
M  V30 2477 C 221.032 -3.48634 2.85946 0
M  V30 2478 C 219.694 -3.53421 3.26569 0
M  V30 2479 C 222.046 -3.54837 3.81759 0
M  V30 2480 C 219.374 -3.61967 4.61733 0
M  V30 2481 C 221.726 -3.64915 5.1674 0
M  V30 2482 C 220.39 -3.67962 5.5692 0
M  V30 2483 H 219.66 -0.670127 0.316245 0
M  V30 2484 H 222.307 -1.31354 1.3935 0
M  V30 2485 H 220.612 -3.84304 0.762753 0
M  V30 2486 H 222.309 -3.84034 1.15408 0
M  V30 2487 H 218.899 -3.45579 2.53521 0
M  V30 2488 H 223.083 -3.50399 3.51474 0
M  V30 2489 H 218.339 -3.62603 4.92269 0
M  V30 2490 H 222.513 -3.68658 5.90816 0
M  V30 2491 H 220.14 -3.74336 6.61647 0
M  V30 2492 N 221.715 -0.905404 -1.28997 0
M  V30 2493 C 222.648 -0.331959 -2.25773 0
M  V30 2494 C 223.626 0.559099 -1.52685 0
M  V30 2495 O 224.81 0.50463 -1.8162 0
M  V30 2496 C 221.937 0.526276 -3.34586 0
M  V30 2497 C 220.983 -0.298249 -4.25456 0
M  V30 2498 S 221.816 -1.69968 -5.0781 0
M  V30 2499 C 222.972 -0.848519 -6.20122 0
M  V30 2500 H 223.205 -1.15222 -2.74064 0
M  V30 2501 H 220.738 -0.706112 -1.37308 0
M  V30 2502 H 222.696 1.01565 -3.97737 0
M  V30 2503 H 221.357 1.32084 -2.84978 0
M  V30 2504 H 220.55 0.357607 -5.0273 0
M  V30 2505 H 220.152 -0.720968 -3.66985 0
M  V30 2506 H 222.444 -0.0744325 -6.77459 0
M  V30 2507 H 223.387 -1.59353 -6.89937 0
M  V30 2508 H 223.795 -0.400383 -5.63078 0
M  V30 2509 N 223.193 1.4272 -0.668489 0
M  V30 2510 C 224.44 2.01624 -0.18814 0
M  V30 2511 C 224.768 1.5282 1.20317 0
M  V30 2512 O 224.023 0.718323 1.8204 0
M  V30 2513 C 224.322 3.57021 -0.164499 0
M  V30 2514 C 223.988 4.25232 -1.49962 0
M  V30 2515 C 222.65 4.4358 -1.8652 0
M  V30 2516 C 225.002 4.63727 -2.37921 0
M  V30 2517 C 222.33 4.97694 -3.10674 0
M  V30 2518 C 224.682 5.19218 -3.6138 0
M  V30 2519 C 223.346 5.3578 -3.98115 0
M  V30 2520 H 222.616 0.737795 -0.0688454 0
M  V30 2521 H 225.263 1.70991 -0.862225 0
M  V30 2522 H 223.568 3.87285 0.593079 0
M  V30 2523 H 225.265 4.00372 0.224271 0
M  V30 2524 H 221.855 4.11306 -1.20522 0
M  V30 2525 H 226.039 4.4923 -2.10964 0
M  V30 2526 H 221.295 5.08702 -3.39164 0
M  V30 2527 H 225.469 5.4799 -4.29743 0
M  V30 2528 H 223.096 5.77475 -4.94395 0
M  V30 2529 N 224.671 0.411399 1.52136 0
M  V30 2530 C 225.92 -0.165009 2.01024 0
M  V30 2531 C 226.233 -1.4603 1.30133 0
M  V30 2532 O 227.439 -2.1181 1.69849 0
M  V30 2533 C 225.895 -0.344618 3.58246 0
M  V30 2534 C 225.503 0.938716 4.38055 0
M  V30 2535 C 227.247 -0.876195 4.15359 0
M  V30 2536 C 225.154 0.726172 5.86925 0
M  V30 2537 H 224.084 -0.0654407 0.751155 0
M  V30 2538 H 226.735 0.537192 1.75461 0
M  V30 2539 H 225.117 -1.10921 3.80148 0
M  V30 2540 H 226.291 1.70963 4.27912 0
M  V30 2541 H 224.606 1.39688 3.92271 0
M  V30 2542 H 227.203 -1.05128 5.24263 0
M  V30 2543 H 227.546 -1.85152 3.7286 0
M  V30 2544 H 228.079 -0.170607 3.97434 0
M  V30 2545 H 224.818 1.67312 6.33788 0
M  V30 2546 H 224.338 -0.00540283 5.998 0
M  V30 2547 H 226.017 0.369231 6.45946 0
M  V30 2548 N 226.149 -1.5696 0.141893 0
M  V30 2549 C 227.396 -1.9596 -0.510492 0
M  V30 2550 C 227.724 -1.02648 -1.65208 0
M  V30 2551 O 226.979 -0.0546947 -1.95624 0
M  V30 2552 C 227.278 -3.41242 -1.06249 0
M  V30 2553 C 226.944 -4.50882 -0.0398791 0
M  V30 2554 C 225.606 -4.80595 0.241247 0
M  V30 2555 C 227.958 -5.17058 0.65578 0
M  V30 2556 C 225.286 -5.73792 1.22393 0
M  V30 2557 C 227.638 -6.11313 1.62724 0
M  V30 2558 C 226.302 -6.39407 1.91612 0
M  V30 2559 H 225.572 -0.717068 -0.186802 0
M  V30 2560 H 228.219 -1.90142 0.227643 0
M  V30 2561 H 226.524 -3.43866 -1.87785 0
M  V30 2562 H 228.221 -3.68742 -1.57576 0
M  V30 2563 H 224.811 -4.27754 -0.269174 0
M  V30 2564 H 228.995 -4.94239 0.451779 0
M  V30 2565 H 224.251 -5.93853 1.45424 0
M  V30 2566 H 228.425 -6.61668 2.17183 0
M  V30 2567 H 226.052 -7.11427 2.6791 0
M  V30 2568 N 227.627 0.131896 -1.57047 0
M  V30 2569 C 228.904 0.871495 -1.75112 0
M  V30 2570 C 229.284 1.9866 -0.713949 0
M  V30 2571 O 228.632 2.26965 0.264447 0
M  V30 2572 C 228.842 1.40007 -3.19686 0
M  V30 2573 C 230.19 1.85752 -3.81813 0
M  V30 2574 O 231.214 1.49715 -3.23209 0
M  V30 2575 O 230.073 2.5226 -4.84796 0
M  V30 2576 H 227.167 0.412919 -0.716538 0
M  V30 2577 H 229.713 0.116641 -1.69299 0
M  V30 2578 H 228.485 0.599404 -3.86682 0
M  V30 2579 H 228.108 2.218 -3.29986 0
M  V30 2580 N 229.106 1.52395 0.401703 0
M  V30 2581 C 230.334 1.70676 1.16949 0
M  V30 2582 C 230.749 0.419503 1.8408 0
M  V30 2583 O 230.106 -0.605061 1.72178 0
M  V30 2584 C 230.157 2.84753 2.22706 0
M  V30 2585 O 229.878 4.08495 1.58314 0
M  V30 2586 C 231.379 3.14608 3.12309 0
M  V30 2587 H 228.599 0.571787 0.351142 0
M  V30 2588 H 231.143 1.98987 0.471652 0
M  V30 2589 H 229.298 2.58941 2.88147 0
M  V30 2590 H 229.712 4.72117 2.28485 0
M  V30 2591 H 231.186 3.97923 3.82572 0
M  V30 2592 H 231.663 2.28464 3.75101 0
M  V30 2593 H 232.269 3.42212 2.52529 0
M  V30 2594 N 230.584 -0.659388 1.43143 0
M  V30 2595 C 231.832 -1.41654 1.44147 0
M  V30 2596 C 232.153 -1.94893 0.0645739 0
M  V30 2597 O 231.423 -1.74044 -0.899198 0
M  V30 2598 H 230.003 -0.525708 0.530697 0
M  V30 2599 H 232.665 -0.778097 1.78694 0
M  V30 2600 H 231.761 -2.26195 2.1504 0
M  V30 2601 N 232.062 -1.29571 -0.897171 0
M  V30 2602 C 233.287 -1.20705 -1.68656 0
M  V30 2603 C 233.712 0.228582 -1.86706 0
M  V30 2604 O 233.07 1.16494 -1.3892 0
M  V30 2605 C 233.118 -1.9282 -3.04717 0
M  V30 2606 O 232.222 -1.24697 -3.93096 0
M  V30 2607 H 231.563 -0.418126 -0.515816 0
M  V30 2608 H 234.093 -1.71183 -1.12061 0
M  V30 2609 H 234.103 -2.01372 -3.54843 0
M  V30 2610 H 232.778 -2.97239 -2.90899 0
M  V30 2611 H 231.355 -1.2442 -3.51531 0
M  V30 2612 N 233.54 1.10788 -1.12088 0
M  V30 2613 C 234.503 2.15207 -0.788577 0
M  V30 2614 C 235.503 1.59609 0.195317 0
M  V30 2615 O 236.693 1.74174 -0.0300193 0
M  V30 2616 C 233.825 3.4047 -0.171174 0
M  V30 2617 H 235.018 2.46116 -1.71368 0
M  V30 2618 H 232.571 1.26089 -0.923652 0
M  V30 2619 H 233.306 3.15176 0.763832 0
M  V30 2620 H 233.091 3.82109 -0.879514 0
M  V30 2621 H 234.581 4.17576 0.04496 0
M  V30 2622 N 235.018 0.912232 1.28515 0
M  V30 2623 C 235.966 0.389597 2.29314 0
M  V30 2624 C 236.96 -0.517915 1.61289 0
M  V30 2625 O 238.166 -0.399328 1.75515 0
M  V30 2626 H 234.541 0.107386 0.744293 0
M  V30 2627 H 236.512 1.25286 2.70825 0
M  V30 2628 C 235.261 -0.356496 3.45868 0
M  V30 2629 H 234.584 0.332608 3.98414 0
M  V30 2630 H 236.024 -0.686851 4.184 0
M  V30 2631 C 234.483 -1.56383 2.98406 0
M  V30 2632 O 235.013 -2.66294 3.00749 0
M  V30 2633 N 233.219 -1.41029 2.54085 0
M  V30 2634 H 232.766 -0.516089 2.52377 0
M  V30 2635 H 232.724 -2.21939 2.22689 0
M  V30 2636 N 236.496 -1.42363 0.676048 0
M  V30 2637 C 237.426 -2.33497 0.0124832 0
M  V30 2638 C 238.407 -1.50748 -0.787981 0
M  V30 2639 O 239.592 -1.79346 -0.744884 0
M  V30 2640 C 236.722 -3.34377 -0.938582 0
M  V30 2641 C 235.676 -4.27289 -0.246622 0
M  V30 2642 C 235.002 -5.18386 -1.31071 0
M  V30 2643 C 236.302 -5.14916 0.875125 0
M  V30 2644 H 237.996 -2.89233 0.773593 0
M  V30 2645 H 235.542 -1.39073 0.37346 0
M  V30 2646 H 237.495 -3.97044 -1.41188 0
M  V30 2647 H 236.219 -2.76947 -1.73113 0
M  V30 2648 H 234.878 -3.66018 0.206456 0
M  V30 2649 H 234.526 -4.57282 -2.09528 0
M  V30 2650 H 234.226 -5.81378 -0.852839 0
M  V30 2651 H 235.75 -5.83929 -1.78492 0
M  V30 2652 H 237.164 -5.71262 0.482983 0
M  V30 2653 H 235.561 -5.86747 1.25887 0
M  V30 2654 H 236.631 -4.53242 1.72335 0
M  V30 2655 N 237.974 -0.419461 -1.51915 0
M  V30 2656 C 239.22 0.145505 -2.02879 0
M  V30 2657 C 239.575 1.41926 -1.29903 0
M  V30 2658 O 238.868 1.87383 -0.399782 0
M  V30 2659 C 239.062 0.437067 -3.54717 0
M  V30 2660 C 238.891 -0.806877 -4.42402 0
M  V30 2661 C 237.661 -1.33514 -4.87342 0
M  V30 2662 C 239.859 -1.68796 -4.85811 0
M  V30 2663 N 237.841 -2.53349 -5.59185 0
M  V30 2664 C 239.212 -2.73247 -5.56539 0
M  V30 2665 C 241.267 -1.70449 -4.67816 0
M  V30 2666 C 239.97 -3.79276 -6.11181 0
M  V30 2667 C 241.996 -2.75403 -5.23361 0
M  V30 2668 C 241.358 -3.78575 -5.9402 0
M  V30 2669 H 237.457 0.0145424 -0.781865 0
M  V30 2670 H 240.041 -0.576126 -1.85981 0
M  V30 2671 H 238.212 1.12774 -3.71667 0
M  V30 2672 H 239.944 0.99182 -3.92358 0
M  V30 2673 H 236.699 -0.891657 -4.65131 0
M  V30 2674 H 237.123 -3.14066 -5.99743 0
M  V30 2675 H 241.765 -0.920209 -4.12664 0
M  V30 2676 H 239.483 -4.58554 -6.65397 0
M  V30 2677 H 243.069 -2.77603 -5.113 0
M  V30 2678 H 241.949 -4.58453 -6.36231 0
M  V30 2679 N 239.452 1.56882 -0.150215 0
M  V30 2680 C 240.698 1.96518 0.500834 0
M  V30 2681 C 241.031 1.03527 1.64304 0
M  V30 2682 O 240.306 0.0782751 1.94342 0
M  V30 2683 C 240.589 3.45822 1.00395 0
M  V30 2684 C 240.442 4.49591 -0.136983 0
M  V30 2685 C 241.761 3.97704 1.88467 0
M  V30 2686 H 238.88 0.714535 0.18058 0
M  V30 2687 H 241.522 1.88577 -0.232091 0
M  V30 2688 H 239.672 3.5272 1.62851 0
M  V30 2689 H 241.344 4.5477 -0.77343 0
M  V30 2690 H 239.587 4.26441 -0.795652 0
M  V30 2691 H 240.258 5.51402 0.256815 0
M  V30 2692 H 242.734 3.93304 1.35834 0
M  V30 2693 H 241.61 5.0263 2.20578 0
M  V30 2694 H 241.871 3.40252 2.82279 0
M  V30 2695 N 240.93 -0.123565 1.57115 0
M  V30 2696 C 242.341 -0.681198 1.73829 0
M  V30 2697 C 242.692 -1.80535 0.768214 0
M  V30 2698 O 241.817 -2.16317 -0.0599103 0
M  V30 2699 C 242.412 -1.24246 3.15196 0
M  V30 2700 C 240.971 -1.74643 3.33432 0
M  V30 2701 C 240.118 -0.644284 2.69711 0
M  V30 2702 H 243.069 0.102315 1.5837 0
M  V30 2703 H 243.09 -2.11216 3.16493 0
M  V30 2704 H 242.602 -0.424062 3.85776 0
M  V30 2705 H 240.703 -2.58974 2.67886 0
M  V30 2706 H 240.816 -1.85902 4.41562 0
M  V30 2707 H 239.18 -1.07676 2.3082 0
M  V30 2708 H 239.963 0.163058 3.42913 0
M  V30 2709 N 242.408 -1.52605 -0.393616 0
M  V30 2710 C 243.633 -1.71592 -1.16495 0
M  V30 2711 C 244.058 -0.43133 -1.83088 0
M  V30 2712 O 243.416 0.612523 -1.7064 0
M  V30 2713 C 243.464 -2.86318 -2.19213 0
M  V30 2714 O 242.568 -2.52969 -3.257 0
M  V30 2715 H 241.909 -0.570734 -0.33935 0
M  V30 2716 H 244.439 -1.99377 -0.459324 0
M  V30 2717 H 244.449 -3.1168 -2.63286 0
M  V30 2718 H 243.124 -3.79511 -1.7013 0
M  V30 2719 H 241.701 -2.38332 -2.86797 0
M  V30 2720 N 243.887 0.651787 -1.4349 0
M  V30 2721 C 245.133 1.41376 -1.45398 0
M  V30 2722 C 245.466 1.94041 -0.0784823 0
M  V30 2723 O 244.741 1.72379 0.900878 0
M  V30 2724 C 245.024 2.59414 -2.49752 0
M  V30 2725 C 244.877 2.12232 -3.96582 0
M  V30 2726 C 246.196 3.61626 -2.50827 0
M  V30 2727 H 243.315 0.512719 -0.529422 0
M  V30 2728 H 245.957 0.738796 -1.75048 0
M  V30 2729 H 244.107 3.16997 -2.246 0
M  V30 2730 H 245.779 1.59639 -4.32797 0
M  V30 2731 H 244.022 1.43592 -4.09346 0
M  V30 2732 H 244.693 2.9712 -4.65214 0
M  V30 2733 H 247.169 3.13805 -2.7325 0
M  V30 2734 H 246.045 4.41766 -3.25783 0
M  V30 2735 H 246.306 4.14314 -1.5426 0
M  V30 2736 N 245.365 1.30045 0.890287 0
M  V30 2737 C 246.313 1.15873 2.01683 0
M  V30 2738 C 247.307 0.0719403 1.69247 0
M  V30 2739 O 248.513 0.232414 1.78493 0
M  V30 2740 H 244.888 0.358203 0.661207 0
M  V30 2741 H 246.859 2.11229 2.10772 0
M  V30 2742 C 245.608 0.861842 3.36849 0
M  V30 2743 H 244.931 1.69016 3.62317 0
M  V30 2744 H 246.371 0.802762 4.16331 0
M  V30 2745 C 244.83 -0.435132 3.34078 0
M  V30 2746 O 245.36 -1.4583 3.74295 0
M  V30 2747 N 243.566 -0.444377 2.87182 0
M  V30 2748 H 243.113 0.388723 2.5465 0
M  V30 2749 H 243.071 -1.31213 2.85711 0
M  V30 2750 N 246.843 -1.10192 1.12674 0
M  V30 2751 C 248.083 -1.83825 0.893736 0
M  V30 2752 C 248.447 -1.83341 -0.570082 0
M  V30 2753 O 249.648 -2.52553 -0.920354 0
M  V30 2754 C 247.919 -3.26405 1.45582 0
M  V30 2755 S 249.478 -4.17136 1.36171 0
M  V30 2756 H 246.296 -0.633732 0.322342 0
M  V30 2757 H 248.898 -1.32581 1.43675 0
M  V30 2758 H 247.602 -3.24329 2.51473 0
M  V30 2759 H 247.133 -3.82721 0.910405 0
M  V30 2760 H 249.148 -4.95069 0.334863 0
M  V30 2761 N 248.321 -0.919034 -1.28029 0
M  V30 2762 C 249.598 -0.473668 -1.89778 0
M  V30 2763 C 249.978 1.04783 -1.83259 0
M  V30 2764 O 249.326 1.8982 -1.27202 0
M  V30 2765 C 249.536 -1.00998 -3.34066 0
M  V30 2766 C 250.884 -1.06525 -4.1102 0
M  V30 2767 O 251.908 -0.958996 -3.43048 0
M  V30 2768 O 250.767 -1.22776 -5.3253 0
M  V30 2769 H 247.861 -0.15098 -0.813101 0
M  V30 2770 H 250.407 -1.01016 -1.36359 0
M  V30 2771 H 249.179 -2.05392 -3.33061 0
M  V30 2772 H 248.802 -0.454626 -3.94992 0
M  V30 2773 N 249.799 1.42003 -0.683588 0
M  V30 2774 C 251.024 2.06265 -0.216647 0
M  V30 2775 C 251.449 1.51059 1.12083 0
M  V30 2776 O 250.807 0.632638 1.69904 0
M  V30 2777 C 250.855 3.60191 -0.171759 0
M  V30 2778 O 249.959 4.03396 0.857069 0
M  V30 2779 H 249.3 0.65502 -0.108834 0
M  V30 2780 H 251.83 1.81982 -0.935077 0
M  V30 2781 H 251.84 4.08 0.0014303 0
M  V30 2782 H 250.515 3.99743 -1.14796 0
M  V30 2783 H 249.092 3.67117 0.654208 0
M  V30 2784 N 251.277 0.427512 1.51691 0
M  V30 2785 C 252.526 -0.143679 2.01188 0
M  V30 2786 C 252.839 -1.44642 1.31674 0
M  V30 2787 O 254.045 -2.09997 1.72086 0
M  V30 2788 C 252.501 -0.306602 3.58592 0
M  V30 2789 C 252.109 0.985125 4.37035 0
M  V30 2790 C 253.853 -0.832091 4.16265 0
M  V30 2791 C 251.76 0.788382 5.86122 0
M  V30 2792 H 250.69 -0.0574701 0.751807 0
M  V30 2793 H 253.341 0.555772 1.74881 0
M  V30 2794 H 251.723 -1.06882 3.81303 0
M  V30 2795 H 252.897 1.75492 4.26074 0
M  V30 2796 H 251.212 1.4384 3.90767 0
M  V30 2797 H 253.809 -0.995617 5.25349 0
M  V30 2798 H 254.152 -1.81186 3.74803 0
M  V30 2799 H 254.685 -0.128444 3.97593 0
M  V30 2800 H 251.424 1.74025 6.31978 0
M  V30 2801 H 250.944 0.0582143 5.99772 0
M  V30 2802 H 252.623 0.437722 6.45518 0
M  V30 2803 N 252.755 -1.56801 0.158532 0
M  V30 2804 C 254.003 -1.96102 -0.488712 0
M  V30 2805 C 254.324 -1.04498 -1.64636 0
M  V30 2806 O 253.594 -0.108783 -1.95598 0
M  V30 2807 H 252.174 -0.724102 -0.183535 0
M  V30 2808 H 254.836 -1.93457 0.236728 0
M  V30 2809 H 253.932 -3.00097 -0.857219 0
M  V30 2810 N 254.233 0.115231 -1.57178 0
M  V30 2811 C 255.473 0.828199 -1.8687 0
M  V30 2812 C 255.837 1.76873 -0.747002 0
M  V30 2813 O 257.038 2.52354 -0.925785 0
M  V30 2814 C 255.309 1.55515 -3.21792 0
M  V30 2815 S 256.868 2.30917 -3.73125 0
M  V30 2816 H 253.686 0.27634 -0.655101 0
M  V30 2817 H 256.288 0.0863469 -1.95309 0
M  V30 2818 H 254.992 0.856248 -4.01368 0
M  V30 2819 H 254.523 2.3373 -3.16439 0
M  V30 2820 H 256.538 3.56705 -3.44929 0
M  V30 2821 N 255.711 1.52812 0.385517 0
M  V30 2822 C 256.936 1.72207 1.15583 0
M  V30 2823 C 257.361 0.441034 1.82857 0
M  V30 2824 O 256.719 -0.603465 1.70962 0
M  V30 2825 C 256.767 2.87476 2.17692 0
M  V30 2826 O 255.871 2.54693 3.24354 0
M  V30 2827 H 255.212 0.572526 0.336319 0
M  V30 2828 H 257.742 1.99618 0.448744 0
M  V30 2829 H 257.752 3.13072 2.6163 0
M  V30 2830 H 256.427 3.80408 1.68115 0
M  V30 2831 H 255.004 2.3985 2.85529 0
M  V30 2832 N 257.189 -0.644168 1.43834 0
M  V30 2833 C 258.417 -1.43147 1.49387 0
M  V30 2834 C 258.832 -1.88452 0.114583 0
M  V30 2835 O 258.189 -1.60047 -0.876989 0
M  V30 2836 C 258.24 -2.66046 2.44748 0
M  V30 2837 O 257.961 -2.22633 3.77314 0
M  V30 2838 C 259.462 -3.59311 2.59635 0
M  V30 2839 H 256.682 -0.439447 0.507077 0
M  V30 2840 H 259.226 -0.78895 1.88669 0
M  V30 2841 H 257.381 -3.26418 2.08638 0
M  V30 2842 H 257.795 -3.02216 4.28679 0
M  V30 2843 H 259.269 -4.42187 3.30416 0
M  V30 2844 H 259.746 -4.07259 1.64427 0
M  V30 2845 H 260.352 -3.04816 2.96593 0
M  V30 2846 N 258.668 -1.30515 -0.883378 0
M  V30 2847 C 259.615 -1.17032 -1.98927 0
M  V30 2848 C 260.585 -0.0594241 -1.65994 0
M  V30 2849 O 261.77 -0.229895 -1.8941 0
M  V30 2850 C 258.91 -0.869777 -3.33959 0
M  V30 2851 C 258.023 -2.06271 -3.79574 0
M  V30 2852 C 257.158 -1.70011 -5.03259 0
M  V30 2853 C 256.197 -2.8579 -5.41286 0
M  V30 2854 N 255.334 -2.49816 -6.56153 0
M  V30 2855 H 260.174 -2.1164 -2.09792 0
M  V30 2856 H 257.711 -1.05296 -1.02719 0
M  V30 2857 H 259.669 -0.676138 -4.11685 0
M  V30 2858 H 258.299 0.0394332 -3.22776 0
M  V30 2859 H 257.351 -2.36755 -2.97744 0
M  V30 2860 H 258.663 -2.92971 -4.03694 0
M  V30 2861 H 257.817 -1.47032 -5.88614 0
M  V30 2862 H 256.556 -0.804829 -4.81013 0
M  V30 2863 H 255.561 -3.09434 -4.54456 0
M  V30 2864 H 256.786 -3.76008 -5.65504 0
M  V30 2865 H 254.732 -1.62795 -6.35479 0
M  V30 2866 H 254.649 -3.30048 -6.8015 0
M  V30 2867 H 255.917 -2.30197 -7.44735 0
M  V30 2868 N 260.146 1.09593 -1.13257 0
M  V30 2869 C 261.096 2.14345 -0.777179 0
M  V30 2870 C 262.08 1.59277 0.227966 0
M  V30 2871 O 263.272 1.76971 0.0321413 0
M  V30 2872 C 260.401 3.42439 -0.242991 0
M  V30 2873 C 259.487 4.04419 -1.27694 0
M  V30 2874 N 259.878 4.40979 -2.47732 0
M  V30 2875 C 258.176 4.31596 -1.12432 0
M  V30 2876 C 258.877 4.89784 -3.13826 0
M  V30 2877 N 257.853 4.87133 -2.41252 0
M  V30 2878 H 261.655 2.40415 -1.69049 0
M  V30 2879 H 259.169 1.26803 -1.01463 0
M  V30 2880 H 261.166 4.16889 0.0298496 0
M  V30 2881 H 259.826 3.17824 0.66467 0
M  V30 2882 H 260.837 4.32396 -2.85051 0
M  V30 2883 H 257.514 4.16595 -0.274684 0
M  V30 2884 H 258.904 5.2755 -4.16102 0
M  V30 2885 N 261.624 0.925811 1.2754 0
M  V30 2886 C 262.554 0.440748 2.29303 0
M  V30 2887 C 263.535 -0.497971 1.62648 0
M  V30 2888 O 264.72 -0.403126 1.8997 0
M  V30 2889 C 261.85 -0.309048 3.45922 0
M  V30 2890 C 260.804 0.54166 4.24559 0
M  V30 2891 C 260.13 -0.337191 5.33636 0
M  V30 2892 C 261.43 1.80516 4.90114 0
M  V30 2893 H 263.124 1.29121 2.70126 0
M  V30 2894 H 260.67 0.622323 1.29858 0
M  V30 2895 H 262.623 -0.659315 4.1621 0
M  V30 2896 H 261.347 -1.19352 3.04011 0
M  V30 2897 H 260.006 0.874609 3.56014 0
M  V30 2898 H 259.654 -1.22056 4.87966 0
M  V30 2899 H 259.354 0.228497 5.87156 0
M  V30 2900 H 260.878 -0.683072 6.06767 0
M  V30 2901 H 262.292 1.52307 5.52698 0
M  V30 2902 H 260.689 2.3142 5.53683 0
M  V30 2903 H 261.759 2.52581 4.13921 0
M  V30 2904 N 263.102 -1.41638 0.69111 0
M  V30 2905 C 264.332 -2.0533 0.228758 0
M  V30 2906 C 264.74 -1.52089 -1.12541 0
M  V30 2907 O 264.083 -0.662145 -1.71351 0
M  V30 2908 C 264.145 -3.59349 0.10407 0
M  V30 2909 C 263.809 -4.35362 1.38956 0
M  V30 2910 C 264.806 -4.64942 2.32648 0
M  V30 2911 C 262.491 -4.74714 1.64169 0
M  V30 2912 C 264.485 -5.32828 3.49818 0
M  V30 2913 C 262.172 -5.42338 2.81625 0
M  V30 2914 C 263.17 -5.71322 3.74273 0
M  V30 2915 O 262.858 -6.37554 4.89673 0
M  V30 2916 H 262.59 -0.667796 0.104997 0
M  V30 2917 H 265.144 -1.82477 0.942938 0
M  V30 2918 H 263.374 -3.80924 -0.665839 0
M  V30 2919 H 265.063 -4.04633 -0.320519 0
M  V30 2920 H 265.829 -4.35025 2.14425 0
M  V30 2921 H 261.708 -4.51538 0.929202 0
M  V30 2922 H 265.252 -5.55368 4.22152 0
M  V30 2923 H 261.149 -5.71673 2.99768 0
M  V30 2924 H 261.917 -6.56049 4.8943 0
M  V30 2925 N 264.58 -0.43555 -1.51462 0
M  V30 2926 C 265.857 0.191364 -1.94662 0
M  V30 2927 C 266.237 1.60254 -1.37411 0
M  V30 2928 O 265.585 2.2152 -0.560458 0
M  V30 2929 C 265.795 0.17091 -3.48581 0
M  V30 2930 C 267.143 0.377357 -4.2292 0
M  V30 2931 O 268.167 0.249104 -3.55328 0
M  V30 2932 O 267.026 0.63247 -5.42828 0
M  V30 2933 H 264.12 0.130932 -0.816569 0
M  V30 2934 H 266.666 -0.4934 -1.62369 0
M  V30 2935 H 265.438 -0.815738 -3.82703 0
M  V30 2936 H 265.061 0.898659 -3.87311 0
M  V30 2937 N 266.058 1.56714 -0.166846 0
M  V30 2938 C 267.021 2.16539 0.751232 0
M  V30 2939 C 268.021 1.11228 1.16125 0
M  V30 2940 O 269.211 1.36765 1.07894 0
M  V30 2941 C 266.343 2.74462 2.02196 0
M  V30 2942 H 267.536 2.99013 0.230499 0
M  V30 2943 H 265.089 1.56081 0.0826982 0
M  V30 2944 H 265.824 1.95709 2.58589 0
M  V30 2945 H 265.609 3.51527 1.73698 0
M  V30 2946 H 267.099 3.20489 2.67725 0
M  V30 2947 N 267.536 -0.106894 1.57237 0
M  V30 2948 C 268.761 -0.830287 1.90055 0
M  V30 2949 C 269.186 -1.72064 0.75998 0
M  V30 2950 O 268.544 -1.78982 -0.288991 0
M  V30 2951 C 268.592 -1.6295 3.21683 0
M  V30 2952 O 267.696 -2.73748 3.08441 0
M  V30 2953 H 267.037 -0.228855 0.623315 0
M  V30 2954 H 269.567 -0.085658 2.04421 0
M  V30 2955 H 269.577 -2.01621 3.54701 0
M  V30 2956 H 268.252 -0.975989 4.04286 0
M  V30 2957 H 266.829 -2.38192 2.86913 0
M  V30 2958 N 269.014 -1.53014 -0.377408 0
M  V30 2959 C 269.977 -1.77957 -1.44444 0
M  V30 2960 C 270.977 -0.649763 -1.47087 0
M  V30 2961 O 272.167 -0.917897 -1.48055 0
M  V30 2962 C 269.299 -1.89089 -2.83651 0
M  V30 2963 H 270.492 -2.73243 -1.23606 0
M  V30 2964 H 268.045 -1.43912 -0.609844 0
M  V30 2965 H 268.78 -0.958293 -3.09818 0
M  V30 2966 H 268.565 -2.71254 -2.83132 0
M  V30 2967 H 270.055 -2.1002 -3.60945 0
M  V30 2968 N 270.492 0.636531 -1.44174 0
M  V30 2969 C 271.717 1.42847 -1.50364 0
M  V30 2970 C 272.142 1.87665 -0.127867 0
M  V30 2971 O 271.5 1.58408 0.88185 0
M  V30 2972 C 271.548 2.62854 -2.4686 0
M  V30 2973 O 270.652 3.62501 -1.9664 0
M  V30 2974 H 269.993 0.427642 -0.507955 0
M  V30 2975 H 272.523 0.777422 -1.89255 0
M  V30 2976 H 272.533 3.10465 -2.64718 0
M  V30 2977 H 271.208 2.29578 -3.46795 0
M  V30 2978 H 269.785 3.21735 -1.88523 0
M  V30 2979 N 271.97 1.30982 0.876444 0
M  V30 2980 C 272.917 1.18085 1.98304 0
M  V30 2981 C 273.887 0.0682263 1.6596 0
M  V30 2982 O 275.072 0.239937 1.89285 0
M  V30 2983 C 272.212 0.887475 3.33493 0
M  V30 2984 C 271.325 2.08281 3.78475 0
M  V30 2985 C 270.46 1.72678 5.0235 0
M  V30 2986 C 269.499 2.88657 5.39762 0
M  V30 2987 N 268.636 2.53292 6.54819 0
M  V30 2988 H 273.476 2.1275 2.08666 0
M  V30 2989 H 271.013 1.05839 1.02159 0
M  V30 2990 H 272.971 0.697961 4.1132 0
M  V30 2991 H 271.601 -0.022315 3.22792 0
M  V30 2992 H 270.653 2.3833 2.96484 0
M  V30 2993 H 271.965 2.95108 4.02135 0
M  V30 2994 H 271.119 1.50151 5.87826 0
M  V30 2995 H 269.858 0.830327 4.8058 0
M  V30 2996 H 268.863 3.1184 4.52809 0
M  V30 2997 H 270.088 3.79002 5.63502 0
M  V30 2998 H 268.034 1.66163 6.34607 0
M  V30 2999 H 267.951 3.3365 6.7839 0
M  V30 3000 H 269.219 2.34143 7.43503 0
M  V30 3001 N 273.449 -1.08991 1.13837 0
M  V30 3002 C 274.674 -1.85551 0.926585 0
M  V30 3003 C 275.099 -1.80782 -0.519566 0
M  V30 3004 O 274.457 -1.18855 -1.36906 0
M  V30 3005 C 274.505 -3.31266 1.42462 0
M  V30 3006 O 273.609 -4.07822 0.612789 0
M  V30 3007 H 272.95 -0.575192 0.331738 0
M  V30 3008 H 275.48 -1.37604 1.51414 0
M  V30 3009 H 275.49 -3.82112 1.43019 0
M  V30 3010 H 274.165 -3.34052 2.47754 0
M  V30 3011 H 272.742 -3.66731 0.675463 0
M  V30 3012 N 274.927 -0.932562 -1.27047 0
M  V30 3013 C 276.157 -0.591173 -1.97961 0
M  V30 3014 C 276.565 0.836219 -1.69717 0
M  V30 3015 O 275.908 1.56801 -0.957036 0
M  V30 3016 C 275.97 -0.743082 -3.51736 0
M  V30 3017 C 275.634 -2.1435 -4.03613 0
M  V30 3018 C 276.631 -3.11815 -4.16014 0
M  V30 3019 C 274.316 -2.46175 -4.37839 0
M  V30 3020 C 276.31 -4.39211 -4.61923 0
M  V30 3021 C 273.997 -3.73806 -4.83438 0
M  V30 3022 C 274.995 -4.70137 -4.95439 0
M  V30 3023 O 274.683 -5.95496 -5.40037 0
M  V30 3024 H 274.415 -0.222375 -0.638377 0
M  V30 3025 H 276.969 -1.25317 -1.62742 0
M  V30 3026 H 275.199 -0.0239739 -3.86693 0
M  V30 3027 H 276.888 -0.40603 -4.03864 0
M  V30 3028 H 277.654 -2.88549 -3.89826 0
M  V30 3029 H 273.533 -1.71936 -4.27737 0
M  V30 3030 H 277.077 -5.14404 -4.71205 0
M  V30 3031 H 272.974 -3.96888 -5.09068 0
M  V30 3032 H 273.742 -5.98554 -5.58279 0
M  V30 3033 N 276.405 1.4127 -0.698611 0
M  V30 3034 C 277.315 2.34573 -0.0357891 0
M  V30 3035 C 278.331 1.56393 0.762701 0
M  V30 3036 O 279.507 1.8886 0.699564 0
M  V30 3037 C 276.572 3.35159 0.887089 0
M  V30 3038 C 275.633 4.29225 0.0804634 0
M  V30 3039 C 274.866 5.25006 0.959387 0
M  V30 3040 O 275.089 5.26314 2.19886 0
M  V30 3041 O 274.023 6.00519 0.407439 0
M  V30 3042 H 277.849 2.92838 -0.804957 0
M  V30 3043 H 275.434 1.42175 -0.458966 0
M  V30 3044 H 277.316 3.9689 1.41621 0
M  V30 3045 H 275.991 2.79333 1.6357 0
M  V30 3046 H 274.898 3.70833 -0.493328 0
M  V30 3047 H 276.231 4.88157 -0.629547 0
M  V30 3048 N 277.883 0.443576 1.51229 0
M  V30 3049 C 278.83 -0.364716 2.279 0
M  V30 3050 C 279.8 -1.0114 1.31757 0
M  V30 3051 O 280.985 -1.02912 1.60667 0
M  V30 3052 C 278.125 -1.45644 3.12861 0
M  V30 3053 C 277.238 -0.827269 4.24005 0
M  V30 3054 C 276.373 -1.89456 4.96266 0
M  V30 3055 C 275.412 -1.24416 5.99322 0
M  V30 3056 N 274.549 -2.25309 6.64966 0
M  V30 3057 H 279.389 0.295464 2.96532 0
M  V30 3058 H 276.926 0.157554 1.46254 0
M  V30 3059 H 278.884 -2.10076 3.6045 0
M  V30 3060 H 277.514 -2.08616 2.46331 0
M  V30 3061 H 276.566 -0.0710839 3.80334 0
M  V30 3062 H 277.878 -0.312481 4.9782 0
M  V30 3063 H 277.032 -2.61535 5.47434 0
M  V30 3064 H 275.771 -2.4431 4.22095 0
M  V30 3065 H 274.776 -0.508868 5.4744 0
M  V30 3066 H 276.001 -0.702882 6.75453 0
M  V30 3067 H 273.947 -2.79231 5.93604 0
M  V30 3068 H 273.864 -1.78739 7.34567 0
M  V30 3069 H 275.132 -2.96853 7.20763 0
M  V30 3070 N 279.361 -1.56624 0.175154 0
M  V30 3071 C 280.638 -1.88688 -0.515373 0
M  V30 3072 C 281.018 -1.08564 -1.81044 0
M  V30 3073 O 280.366 -0.180703 -2.27784 0
M  V30 3074 C 280.576 -3.40768 -0.753552 0
M  V30 3075 C 281.924 -4.10587 -1.08184 0
M  V30 3076 O 282.948 -3.46106 -0.841961 0
M  V30 3077 O 281.807 -5.24512 -1.53459 0
M  V30 3078 H 278.901 -0.78301 -0.26613 0
M  V30 3079 H 281.447 -1.68347 0.213877 0
M  V30 3080 H 280.219 -3.90965 0.161829 0
M  V30 3081 H 279.842 -3.66733 -1.53598 0
M  V30 3082 N 280.839 0.0985539 -1.57292 0
M  V30 3083 C 282.087 0.801092 -1.85545 0
M  V30 3084 C 282.408 1.79438 -0.763353 0
M  V30 3085 O 281.678 1.94763 0.21073 0
M  V30 3086 H 280.258 0.29884 -0.684619 0
M  V30 3087 H 282.92 0.0810064 -1.94732 0
M  V30 3088 H 282.016 1.3338 -2.82163 0
M  V30 3089 N 282.317 1.53212 0.369288 0
M  V30 3090 C 283.545 1.73119 1.13303 0
M  V30 3091 C 283.96 0.458455 1.83149 0
M  V30 3092 O 283.317 -0.568403 1.73423 0
M  V30 3093 C 283.368 2.89413 2.16616 0
M  V30 3094 O 283.089 4.11761 1.49614 0
M  V30 3095 C 284.59 3.21161 3.05566 0
M  V30 3096 H 281.81 0.579107 0.338934 0
M  V30 3097 H 284.354 1.99942 0.429338 0
M  V30 3098 H 282.509 2.64994 2.82589 0
M  V30 3099 H 282.923 4.76858 2.18419 0
M  V30 3100 H 284.397 4.05949 3.74045 0
M  V30 3101 H 284.874 2.36369 3.70171 0
M  V30 3102 H 285.48 3.47492 2.45213 0
M  V30 3103 N 283.795 -0.628877 1.44509 0
M  V30 3104 C 284.742 -1.74074 1.51549 0
M  V30 3105 C 285.712 -1.62084 0.363021 0
M  V30 3106 O 286.897 -1.81975 0.573567 0
M  V30 3107 C 284.037 -3.12328 1.46784 0
M  V30 3108 C 283.15 -3.35277 2.72422 0
M  V30 3109 C 282.285 -4.63515 2.59475 0
M  V30 3110 C 281.324 -4.7965 3.80266 0
M  V30 3111 N 280.461 -5.99168 3.65981 0
M  V30 3112 H 285.301 -1.67392 2.46544 0
M  V30 3113 H 282.838 -0.816527 1.22357 0
M  V30 3114 H 284.796 -3.92286 1.42012 0
M  V30 3115 H 283.426 -3.18018 0.553544 0
M  V30 3116 H 282.478 -2.49242 2.87372 0
M  V30 3117 H 283.79 -3.43078 3.62076 0
M  V30 3118 H 282.944 -5.51638 2.52548 0
M  V30 3119 H 281.683 -4.58076 1.67384 0
M  V30 3120 H 280.688 -3.89957 3.87574 0
M  V30 3121 H 281.913 -4.86902 4.73395 0
M  V30 3122 H 279.859 -5.94814 2.76644 0
M  V30 3123 H 279.776 -6.08035 4.49254 0
M  V30 3124 H 281.044 -6.89846 3.6295 0
M  V30 3125 N 285.273 -1.31445 -0.869486 0
M  V30 3126 C 286.519 -1.21337 -1.62496 0
M  V30 3127 C 286.852 0.227872 -1.92858 0
M  V30 3128 O 286.127 1.16094 -1.56053 0
M  V30 3129 C 286.41 -2.05814 -2.95487 0
M  V30 3130 C 286.263 -3.5824 -2.72 0
M  V30 3131 C 287.582 -1.9079 -3.96594 0
M  V30 3132 H 284.701 -0.442135 -0.589649 0
M  V30 3133 H 287.343 -1.6124 -1.00507 0
M  V30 3134 H 285.493 -1.71913 -3.48394 0
M  V30 3135 H 287.165 -4.0228 -2.25762 0
M  V30 3136 H 285.408 -3.81647 -2.06224 0
M  V30 3137 H 286.079 -4.12657 -3.66631 0
M  V30 3138 H 288.555 -2.20459 -3.52898 0
M  V30 3139 H 287.431 -2.52199 -4.87531 0
M  V30 3140 H 287.692 -0.871341 -4.33428 0
M  V30 3141 N 286.751 1.08385 -1.14413 0
M  V30 3142 C 287.661 2.18856 -0.844951 0
M  V30 3143 C 288.677 1.73121 0.174668 0
M  V30 3144 O 289.853 2.014 0.00312857 0
M  V30 3145 C 286.918 3.45155 -0.32696 0
M  V30 3146 C 285.979 4.05513 -1.40916 0
M  V30 3147 C 285.212 5.25784 -0.915793 0
M  V30 3148 O 285.435 5.69884 0.242651 0
M  V30 3149 O 284.369 5.77545 -1.69487 0
M  V30 3150 H 288.195 2.46919 -1.76818 0
M  V30 3151 H 285.78 1.17524 -0.922411 0
M  V30 3152 H 287.662 4.21377 -0.0440211 0
M  V30 3153 H 286.337 3.18668 0.568539 0
M  V30 3154 H 285.244 3.30879 -1.74556 0
M  V30 3155 H 286.577 4.3625 -2.27919 0
M  V30 3156 N 288.23 0.939286 1.26551 0
M  V30 3157 C 289.479 0.581601 1.93133 0
M  V30 3158 C 289.792 -0.883224 1.74524 0
M  V30 3159 O 290.998 -1.3502 2.35546 0
M  V30 3160 C 289.454 0.989425 3.46032 0
M  V30 3161 C 289.062 2.47573 3.73379 0
M  V30 3162 C 290.806 0.703544 4.18629 0
M  V30 3163 C 288.713 2.82235 5.19709 0
M  V30 3164 H 287.643 0.213803 0.723052 0
M  V30 3165 H 290.294 1.14167 1.4366 0
M  V30 3166 H 288.676 0.357902 3.94379 0
M  V30 3167 H 289.85 3.15614 3.35744 0
M  V30 3168 H 288.165 2.73471 3.1401 0
M  V30 3169 H 290.762 0.938869 5.26393 0
M  V30 3170 H 291.105 -0.359639 4.14744 0
M  V30 3171 H 291.638 1.2947 3.76141 0
M  V30 3172 H 288.377 3.87509 5.28694 0
M  V30 3173 H 287.897 2.18854 5.58447 0
M  V30 3174 H 289.576 2.70599 5.87695 0
M  V30 3175 N 289.708 -1.40897 0.706093 0
M  V30 3176 C 290.933 -2.05895 0.249435 0
M  V30 3177 C 291.358 -1.52823 -1.09666 0
M  V30 3178 O 290.716 -0.659589 -1.68876 0
M  V30 3179 C 290.764 -3.59872 0.22904 0
M  V30 3180 O 289.868 -4.04708 -0.792784 0
M  V30 3181 H 289.209 -0.653206 0.119241 0
M  V30 3182 H 291.739 -1.80471 0.96391 0
M  V30 3183 H 291.749 -4.07951 0.0634791 0
M  V30 3184 H 290.424 -3.97866 1.21141 0
M  V30 3185 H 289.001 -3.68111 -0.59572 0
M  V30 3186 N 291.186 -0.45159 -1.50991 0
M  V30 3187 C 292.416 0.108177 -2.06317 0
M  V30 3188 C 292.824 1.35774 -1.31765 0
M  V30 3189 O 292.167 1.79838 -0.374694 0
M  V30 3190 C 292.229 0.481659 -3.56259 0
M  V30 3191 C 291.893 -0.663114 -4.52163 0
M  V30 3192 C 292.89 -1.53947 -4.96585 0
M  V30 3193 C 290.575 -0.8479 -4.95092 0
M  V30 3194 C 292.569 -2.58518 -5.82621 0
M  V30 3195 C 290.256 -1.89686 -5.80915 0
M  V30 3196 C 291.254 -2.76388 -6.24579 0
M  V30 3197 O 290.942 -3.79482 -7.08695 0
M  V30 3198 H 290.674 0.00499183 -0.675982 0
M  V30 3199 H 293.228 -0.633659 -1.95381 0
M  V30 3200 H 291.458 1.27641 -3.65027 0
M  V30 3201 H 293.147 0.974233 -3.94035 0
M  V30 3202 H 293.913 -1.4083 -4.64103 0
M  V30 3203 H 289.792 -0.18258 -4.60638 0
M  V30 3204 H 293.336 -3.26224 -6.16623 0
M  V30 3205 H 289.233 -2.02817 -6.12809 0
M  V30 3206 H 290.001 -3.76234 -7.26905 0
M  V30 3207 N 292.664 1.56529 -0.183458 0
M  V30 3208 C 293.912 1.96855 0.457452 0
M  V30 3209 C 294.233 1.07104 1.62953 0
M  V30 3210 O 293.503 0.139887 1.954 0
M  V30 3211 H 292.083 0.72693 0.171992 0
M  V30 3212 H 294.745 1.93056 -0.267476 0
M  V30 3213 H 293.841 3.01423 0.809368 0
M  V30 3214 N 294.142 -0.090211 1.57342 0
M  V30 3215 C 295.367 -0.810082 1.90925 0
M  V30 3216 C 295.792 -1.71248 0.778187 0
M  V30 3217 O 295.15 -1.79278 -0.269991 0
M  V30 3218 C 295.198 -1.59529 3.23393 0
M  V30 3219 O 294.302 -2.70461 3.11327 0
M  V30 3220 H 293.643 -0.222231 0.625707 0
M  V30 3221 H 296.173 -0.0639716 2.045 0
M  V30 3222 H 296.183 -1.97847 3.5682 0
M  V30 3223 H 294.858 -0.933055 4.05299 0
M  V30 3224 H 293.435 -2.35135 2.89423 0
M  V30 3225 N 295.62 -1.53406 -0.361157 0
M  V30 3226 C 296.868 -1.69467 -1.10115 0
M  V30 3227 C 297.189 -0.451352 -1.89705 0
M  V30 3228 O 296.459 0.534636 -1.88463 0
M  V30 3229 H 295.039 -0.624749 -0.409508 0
M  V30 3230 H 297.701 -1.90609 -0.406699 0
M  V30 3231 H 296.797 -2.55774 -1.78847 0
M  V30 3232 N 297.098 0.621204 -1.44841 0
M  V30 3233 C 298.326 1.40752 -1.51646 0
M  V30 3234 C 298.741 1.88246 -0.144549 0
M  V30 3235 O 298.098 1.61422 0.851416 0
M  V30 3236 C 298.149 2.62119 -2.4895 0
M  V30 3237 O 297.87 2.16602 -3.80808 0
M  V30 3238 C 299.371 3.55135 -2.65319 0
M  V30 3239 H 296.591 0.431325 -0.514004 0
M  V30 3240 H 299.135 0.758835 -1.899 0
M  V30 3241 H 297.29 3.23058 -2.13805 0
M  V30 3242 H 297.704 2.95358 -4.33433 0
M  V30 3243 H 299.178 4.36874 -3.37409 0
M  V30 3244 H 299.655 4.04592 -1.70886 0
M  V30 3245 H 300.261 3.00058 -3.01405 0
M  V30 3246 N 298.576 1.31904 0.862503 0
M  V30 3247 C 299.822 1.22197 1.61851 0
M  V30 3248 C 300.155 -0.217641 1.92977 0
M  V30 3249 O 299.43 -1.15264 1.56666 0
M  V30 3250 C 299.713 2.07378 2.94391 0
M  V30 3251 C 299.566 3.59678 2.70096 0
M  V30 3252 C 300.885 1.92891 3.95577 0
M  V30 3253 H 298.004 0.445255 0.587296 0
M  V30 3254 H 300.646 1.6177 0.99651 0
M  V30 3255 H 298.796 1.73758 3.47477 0
M  V30 3256 H 300.468 4.03472 2.23625 0
M  V30 3257 H 298.711 3.82735 2.04197 0
M  V30 3258 H 299.382 4.14595 3.64438 0
M  V30 3259 H 301.858 2.22327 3.51724 0
M  V30 3260 H 300.734 2.54781 4.86187 0
M  V30 3261 H 300.995 0.894315 4.3296 0
M  V30 3262 N 300.054 -1.07777 1.14986 0
M  V30 3263 C 301.47 -1.32373 0.891596 0
M  V30 3264 C 301.67 -1.9609 -0.463788 0
M  V30 3265 O 300.726 -2.21801 -1.20667 0
M  V30 3266 C 302.039 -2.21905 2.02925 0
M  V30 3267 C 303.587 -2.35367 2.06329 0
M  V30 3268 C 304.062 -3.28245 3.19405 0
M  V30 3269 N 305.553 -3.35824 3.19024 0
M  V30 3270 C 306.288 -4.07739 4.03158 0
M  V30 3271 N 305.784 -4.82306 4.97346 0
M  V30 3272 N 307.577 -4.03635 3.91197 0
M  V30 3273 H 299.728 -0.648039 2.02273 0
M  V30 3274 H 301.991 -0.348149 0.881757 0
M  V30 3275 H 301.697 -1.82342 3.0074 0
M  V30 3276 H 301.571 -3.22407 1.95789 0
M  V30 3277 H 303.958 -2.74186 1.09116 0
M  V30 3278 H 304.039 -1.34585 2.17533 0
M  V30 3279 H 303.683 -2.90146 4.16867 0
M  V30 3280 H 303.613 -4.28971 3.05437 0
M  V30 3281 H 306.104 -2.8267 2.50811 0
M  V30 3282 H 306.417 -5.34661 5.57994 0
M  V30 3283 H 304.762 -4.81337 5.01338 0
M  V30 3284 H 307.953 -3.44491 3.16928 0
M  V30 3285 H 308.126 -4.59417 4.5699 0
M  V30 3286 N 301.532 -0.945985 -1.26051 0
M  V30 3287 C 302.78 -0.594941 -1.93145 0
M  V30 3288 C 303.101 0.86953 -1.7454 0
M  V30 3289 O 302.371 1.61838 -1.10387 0
M  V30 3290 H 300.951 -0.217044 -0.714773 0
M  V30 3291 H 303.613 -1.20235 -1.53393 0
M  V30 3292 H 302.709 -0.816835 -3.01221 0
M  V30 3293 N 303.011 1.40521 -0.713556 0
M  V30 3294 C 304.241 2.0494 -0.261395 0
M  V30 3295 C 304.649 1.53861 1.10107 0
M  V30 3296 O 303.992 0.689321 1.70276 0
M  V30 3297 C 304.054 3.59138 -0.161227 0
M  V30 3298 C 303.718 4.33096 -1.45865 0
M  V30 3299 C 304.715 4.61182 -2.40016 0
M  V30 3300 C 302.4 4.72043 -1.71701 0
M  V30 3301 C 304.394 5.27196 -3.58251 0
M  V30 3302 C 302.081 5.37789 -2.90218 0
M  V30 3303 C 303.079 5.65295 -3.83315 0
M  V30 3304 O 302.767 6.29683 -4.99754 0
M  V30 3305 H 302.499 0.666041 -0.115608 0
M  V30 3306 H 305.053 1.80954 -0.971849 0
M  V30 3307 H 303.283 3.81936 0.605153 0
M  V30 3308 H 304.972 4.05091 0.256105 0
M  V30 3309 H 305.738 4.31559 -2.21318 0
M  V30 3310 H 301.617 4.50003 -1.00092 0
M  V30 3311 H 305.161 5.48582 -4.30934 0
M  V30 3312 H 301.058 5.66831 -3.08825 0
M  V30 3313 H 301.826 6.4818 -4.99805 0
M  V30 3314 N 304.489 0.459591 1.5075 0
M  V30 3315 C 305.736 -0.0993495 2.02256 0
M  V30 3316 C 306.064 -1.40751 1.34237 0
M  V30 3317 O 305.319 -1.90379 0.453228 0
M  V30 3318 C 305.618 -0.342866 3.55752 0
M  V30 3319 C 305.284 0.88218 4.42186 0
M  V30 3320 C 303.946 1.21808 4.65528 0
M  V30 3321 C 306.298 1.69837 4.92752 0
M  V30 3322 C 303.626 2.37045 5.36681 0
M  V30 3323 C 305.978 2.84192 5.65171 0
M  V30 3324 C 304.642 3.1821 5.8677 0
M  V30 3325 H 303.912 -0.0363545 0.740108 0
M  V30 3326 H 306.559 0.611329 1.8148 0
M  V30 3327 H 304.864 -1.13567 3.7498 0
M  V30 3328 H 306.561 -0.789121 3.93159 0
M  V30 3329 H 303.151 0.610467 4.2423 0
M  V30 3330 H 307.335 1.45205 4.74583 0
M  V30 3331 H 302.591 2.63689 5.51614 0
M  V30 3332 H 306.765 3.4779 6.03337 0
M  V30 3333 H 304.392 4.07613 6.41682 0
M  V30 3334 N 305.967 -1.56429 0.191757 0
M  V30 3335 C 307.192 -2.02309 -0.456706 0
M  V30 3336 C 307.617 -1.07103 -1.5463 0
M  V30 3337 O 306.975 -0.0539677 -1.8122 0
M  V30 3338 C 307.023 -3.46654 -0.993159 0
M  V30 3339 O 306.127 -3.54559 -2.10622 0
M  V30 3340 H 305.468 -0.655303 -0.107114 0
M  V30 3341 H 307.998 -2.02364 0.301653 0
M  V30 3342 H 308.008 -3.86377 -1.31061 0
M  V30 3343 H 306.683 -4.1544 -0.195504 0
M  V30 3344 H 305.26 -3.26708 -1.79767 0
M  V30 3345 N 307.445 0.0818655 -1.57387 0
M  V30 3346 C 308.392 1.09834 -2.0299 0
M  V30 3347 C 309.362 1.39043 -0.908639 0
M  V30 3348 O 310.547 1.50282 -1.17559 0
M  V30 3349 C 307.687 2.40971 -2.47037 0
M  V30 3350 C 306.8 2.18379 -3.7274 0
M  V30 3351 C 305.935 3.43008 -4.0561 0
M  V30 3352 C 304.974 3.15736 -5.24383 0
M  V30 3353 N 304.111 4.32667 -5.52941 0
M  V30 3354 H 308.951 0.702472 -2.89602 0
M  V30 3355 H 306.488 0.33531 -1.43227 0
M  V30 3356 H 308.446 3.1752 -2.70623 0
M  V30 3357 H 307.076 2.78379 -1.63417 0
M  V30 3358 H 306.128 1.32569 -3.56552 0
M  V30 3359 H 307.44 1.94227 -4.59431 0
M  V30 3360 H 306.594 4.27958 -4.30043 0
M  V30 3361 H 305.333 3.70225 -3.17466 0
M  V30 3362 H 304.338 2.2918 -4.99757 0
M  V30 3363 H 305.563 2.8985 -6.14136 0
M  V30 3364 H 303.509 4.59935 -4.67756 0
M  V30 3365 H 303.426 4.11753 -6.34031 0
M  V30 3366 H 304.694 5.18644 -5.81918 0
M  V30 3367 N 308.923 1.53595 0.353017 0
M  V30 3368 C 310.2 1.61002 1.11075 0
M  V30 3369 C 310.58 0.425356 2.0677 0
M  V30 3370 O 309.928 -0.583267 2.2093 0
M  V30 3371 C 310.138 2.96631 1.83877 0
M  V30 3372 C 311.486 3.51653 2.37961 0
M  V30 3373 O 312.51 2.98743 1.93987 0
M  V30 3374 O 311.369 4.44177 3.18386 0
M  V30 3375 H 308.463 0.650825 0.510251 0
M  V30 3376 H 311.009 1.6594 0.35527 0
M  V30 3377 H 309.781 3.74293 1.14108 0
M  V30 3378 H 309.404 2.95242 2.66304 0
M  V30 3379 N 310.401 -0.613514 1.45168 0
M  V30 3380 C 311.647 -1.37471 1.49096 0
M  V30 3381 C 311.98 -1.93765 0.129901 0
M  V30 3382 O 311.255 -1.74707 -0.854858 0
M  V30 3383 C 311.538 -2.52701 2.56542 0
M  V30 3384 C 311.391 -2.01643 4.0207 0
M  V30 3385 C 312.71 -3.54849 2.60327 0
M  V30 3386 H 309.829 -0.498502 0.54283 0
M  V30 3387 H 312.471 -0.692125 1.76945 0
M  V30 3388 H 310.621 -3.10931 2.32926 0
M  V30 3389 H 312.293 -1.48108 4.36877 0
M  V30 3390 H 310.536 -1.32688 4.13009 0
M  V30 3391 H 311.207 -2.84681 4.72928 0
M  V30 3392 H 313.683 -3.0645 2.81474 0
M  V30 3393 H 312.559 -4.32973 3.37381 0
M  V30 3394 H 312.82 -4.10079 1.6519 0
M  V30 3395 N 311.879 -1.3236 -0.855495 0
M  V30 3396 C 313.128 -1.22226 -1.60448 0
M  V30 3397 C 313.441 0.214733 -1.94418 0
M  V30 3398 O 314.647 0.437917 -2.67945 0
M  V30 3399 C 313.103 -2.14063 -2.89318 0
M  V30 3400 C 312.711 -3.62839 -2.62777 0
M  V30 3401 C 314.455 -2.12764 -3.67331 0
M  V30 3402 C 312.362 -4.4664 -3.87643 0
M  V30 3403 H 311.292 -0.453904 -0.602069 0
M  V30 3404 H 313.943 -1.57314 -0.944698 0
M  V30 3405 H 312.325 -1.71889 -3.5675 0
M  V30 3406 H 313.499 -4.1335 -2.03662 0
M  V30 3407 H 311.814 -3.66261 -1.98096 0
M  V30 3408 H 314.411 -2.72611 -4.59987 0
M  V30 3409 H 314.754 -1.11841 -4.00995 0
M  V30 3410 H 315.287 -2.53214 -3.06802 0
M  V30 3411 H 312.026 -5.48373 -3.5912 0
M  V30 3412 H 311.546 -4.0088 -4.46156 0
M  V30 3413 H 313.225 -4.59597 -4.55389 0
M  V30 3414 N 313.357 1.07166 -1.15556 0
M  V30 3415 C 314.582 1.84053 -0.955988 0
M  V30 3416 C 315.007 1.81586 0.490739 0
M  V30 3417 O 314.365 1.21018 1.34997 0
M  V30 3418 C 314.413 3.28957 -1.47714 0
M  V30 3419 O 313.517 4.06795 -0.677593 0
M  V30 3420 H 312.858 0.569842 -0.340847 0
M  V30 3421 H 315.388 1.35178 -1.53584 0
M  V30 3422 H 315.398 3.79788 -1.4908 0
M  V30 3423 H 314.073 3.30068 -2.53037 0
M  V30 3424 H 312.65 3.6561 -0.733721 0
M  V30 3425 N 314.835 0.952656 1.25548 0
M  V30 3426 C 315.765 0.489287 2.28316 0
M  V30 3427 C 316.746 -0.463359 1.63667 0
M  V30 3428 O 317.931 -0.36274 1.90782 0
M  V30 3429 C 315.061 -0.235603 3.465 0
M  V30 3430 C 314.015 0.631593 4.23314 0
M  V30 3431 C 313.341 -0.223923 5.34231 0
M  V30 3432 C 314.641 1.90871 4.86174 0
M  V30 3433 H 316.335 1.34822 2.67326 0
M  V30 3434 H 313.881 0.649728 1.28509 0
M  V30 3435 H 315.834 -0.570882 4.17515 0
M  V30 3436 H 314.558 -1.12877 3.06474 0
M  V30 3437 H 313.217 0.949929 3.54079 0
M  V30 3438 H 312.865 -1.11678 4.90446 0
M  V30 3439 H 312.565 0.35299 5.86539 0
M  V30 3440 H 314.089 -0.554214 6.0808 0
M  V30 3441 H 315.503 1.63997 5.49343 0
M  V30 3442 H 313.9 2.43112 5.4865 0
M  V30 3443 H 314.97 2.61304 4.08471 0
M  V30 3444 N 316.313 -1.40141 0.720998 0
M  V30 3445 C 317.561 -2.0039 0.262323 0
M  V30 3446 C 317.882 -1.57469 -1.15015 0
M  V30 3447 O 317.152 -0.816582 -1.78069 0
M  V30 3448 H 315.732 -0.741063 0.093996 0
M  V30 3449 H 318.394 -1.71398 0.927835 0
M  V30 3450 H 317.49 -3.10658 0.299671 0
M  V30 3451 N 317.792 -0.46758 -1.50504 0
M  V30 3452 C 319.069 0.15003 -1.95024 0
M  V30 3453 C 319.449 1.57304 -1.40779 0
M  V30 3454 O 318.797 2.20281 -0.607319 0
M  V30 3455 C 319.007 0.0969324 -3.48865 0
M  V30 3456 C 320.355 0.287565 -4.23625 0
M  V30 3457 O 321.379 0.173678 -3.55776 0
M  V30 3458 O 320.238 0.517186 -5.44047 0
M  V30 3459 H 317.332 0.113582 -0.819163 0
M  V30 3460 H 319.878 -0.52773 -1.61286 0
M  V30 3461 H 318.65 -0.896732 -3.80886 0
M  V30 3462 H 318.273 0.816303 -3.8913 0
M  V30 3463 N 319.27 1.56325 -0.20005 0
M  V30 3464 C 320.2 2.22318 0.713916 0
M  V30 3465 C 321.181 1.18788 1.21752 0
M  V30 3466 O 322.366 1.47309 1.26545 0
M  V30 3467 C 319.496 2.88639 1.93144 0
M  V30 3468 C 318.45 3.98457 1.56255 0
M  V30 3469 C 317.776 4.51967 2.85709 0
M  V30 3470 C 319.076 5.16612 0.768747 0
M  V30 3471 H 320.77 2.98952 0.163755 0
M  V30 3472 H 318.316 1.43792 0.0773219 0
M  V30 3473 H 320.269 3.33491 2.57608 0
M  V30 3474 H 318.993 2.09419 2.50621 0
M  V30 3475 H 317.652 3.54305 0.941471 0
M  V30 3476 H 317.3 3.69503 3.41287 0
M  V30 3477 H 317 5.26071 2.6177 0
M  V30 3478 H 318.524 4.99523 3.51154 0
M  V30 3479 H 319.938 5.57977 1.3166 0
M  V30 3480 H 318.335 5.96812 0.627286 0
M  V30 3481 H 319.405 4.84358 -0.229168 0
M  V30 3482 N 320.748 -0.0735177 1.57428 0
M  V30 3483 C 321.973 -0.789787 1.91774 0
M  V30 3484 C 322.398 -1.70413 0.796306 0
M  V30 3485 O 321.756 -1.79555 -0.250961 0
M  V30 3486 C 321.804 -1.5609 3.25067 0
M  V30 3487 O 320.908 -2.67144 3.14178 0
M  V30 3488 H 320.249 -0.215582 0.628029 0
M  V30 3489 H 322.779 -0.0422781 2.04556 0
M  V30 3490 H 322.789 -1.94052 3.58898 0
M  V30 3491 H 321.464 -0.890015 4.06265 0
M  V30 3492 H 320.041 -2.32052 2.91901 0
M  V30 3493 N 322.226 -1.5378 -0.344866 0
M  V30 3494 C 323.156 -1.84662 -1.42906 0
M  V30 3495 C 324.137 -0.701648 -1.54955 0
M  V30 3496 O 325.322 -0.953438 -1.69184 0
M  V30 3497 C 322.452 -2.05503 -2.79974 0
M  V30 3498 C 321.406 -3.21318 -2.82734 0
M  V30 3499 C 320.732 -3.2749 -4.22675 0
M  V30 3500 C 322.032 -4.59456 -2.48389 0
M  V30 3501 H 323.726 -2.75461 -1.17311 0
M  V30 3502 H 321.272 -1.32542 -0.562896 0
M  V30 3503 H 323.225 -2.25691 -3.55867 0
M  V30 3504 H 321.949 -1.11434 -3.07002 0
M  V30 3505 H 320.608 -3.00984 -2.09294 0
M  V30 3506 H 320.256 -2.31019 -4.4681 0
M  V30 3507 H 319.956 -4.05316 -4.25433 0
M  V30 3508 H 321.48 -3.49887 -5.00412 0
M  V30 3509 H 322.894 -4.79667 -3.13995 0
M  V30 3510 H 321.291 -5.39675 -2.62432 0
M  V30 3511 H 322.361 -4.63155 -1.4358 0
M  V30 3512 N 323.704 0.605807 -1.45491 0
M  V30 3513 C 325.115 1.18777 -1.44045 0
M  V30 3514 C 325.466 1.95471 -0.169001 0
M  V30 3515 O 324.591 2.0374 0.729324 0
M  V30 3516 C 325.186 2.16064 -2.60963 0
M  V30 3517 C 323.745 2.69633 -2.62631 0
M  V30 3518 C 322.892 1.45072 -2.36325 0
M  V30 3519 H 325.843 0.395017 -1.53705 0
M  V30 3520 H 325.864 2.9913 -2.35163 0
M  V30 3521 H 325.376 1.60217 -3.53486 0
M  V30 3522 H 323.477 3.29414 -1.74119 0
M  V30 3523 H 323.59 3.13944 -3.61906 0
M  V30 3524 H 321.954 1.74089 -1.85917 0
M  V30 3525 H 322.737 0.910899 -3.30995 0
M  V30 3526 N 325.182 1.32811 0.848464 0
M  V30 3527 C 326.412 1.26556 1.63301 0
M  V30 3528 C 326.82 -0.1676 1.88456 0
M  V30 3529 O 326.163 -1.11713 1.45828 0
M  V30 3530 C 326.225 1.96202 3.01239 0
M  V30 3531 C 325.889 3.45528 2.99098 0
M  V30 3532 C 326.886 4.40903 2.75501 0
M  V30 3533 C 324.571 3.87558 3.19537 0
M  V30 3534 C 326.565 5.76282 2.72356 0
M  V30 3535 C 324.252 5.23044 3.16019 0
M  V30 3536 C 325.25 6.17217 2.92458 0
M  V30 3537 O 324.938 7.50223 2.88825 0
M  V30 3538 H 324.67 0.43771 0.515156 0
M  V30 3539 H 327.224 1.7559 1.0657 0
M  V30 3540 H 325.454 1.41746 3.59785 0
M  V30 3541 H 327.143 1.83573 3.62016 0
M  V30 3542 H 327.909 4.09756 2.5947 0
M  V30 3543 H 323.788 3.14674 3.369 0
M  V30 3544 H 327.332 6.4976 2.53886 0
M  V30 3545 H 323.229 5.53818 3.31596 0
M  V30 3546 H 323.997 7.59657 3.04735 0
M  V30 3547 N 326.66 -1.06551 1.16123 0
M  V30 3548 C 327.607 -2.13961 0.865414 0
M  V30 3549 C 328.577 -1.65066 -0.185055 0
M  V30 3550 O 329.762 -1.90732 -0.05083 0
M  V30 3551 C 326.902 -3.43113 0.369776 0
M  V30 3552 C 326.015 -4.05756 1.48276 0
M  V30 3553 C 325.15 -5.22773 0.942414 0
M  V30 3554 C 324.189 -5.77395 2.03179 0
M  V30 3555 N 323.326 -6.85731 1.50721 0
M  V30 3556 H 328.166 -2.38605 1.78527 0
M  V30 3557 H 325.703 -1.17072 0.890646 0
M  V30 3558 H 327.661 -4.17151 0.0640643 0
M  V30 3559 H 326.291 -3.18695 -0.513143 0
M  V30 3560 H 325.343 -3.29292 1.9045 0
M  V30 3561 H 326.655 -4.42351 2.30493 0
M  V30 3562 H 325.809 -6.03827 0.589729 0
M  V30 3563 H 324.548 -4.87618 0.0895191 0
M  V30 3564 H 323.553 -4.94981 2.3932 0
M  V30 3565 H 324.778 -6.14603 2.8886 0
M  V30 3566 H 322.724 -6.52499 0.676811 0
M  V30 3567 H 322.641 -7.21254 2.26557 0
M  V30 3568 H 323.909 -7.7047 1.18303 0
M  V30 3569 N 328.138 -0.959301 -1.25041 0
M  V30 3570 C 329.385 -0.616611 -1.92884 0
M  V30 3571 C 329.713 0.847036 -1.75087 0
M  V30 3572 O 328.968 1.62374 -1.09239 0
M  V30 3573 C 329.267 -0.927136 -3.45165 0
M  V30 3574 C 328.933 -2.37757 -3.83122 0
M  V30 3575 C 327.595 -2.77402 -3.93194 0
M  V30 3576 C 329.947 -3.31929 -4.01836 0
M  V30 3577 C 327.275 -4.10277 -4.19392 0
M  V30 3578 C 329.627 -4.64423 -4.29528 0
M  V30 3579 C 328.291 -5.03857 -4.37818 0
M  V30 3580 H 327.561 -0.225634 -0.705812 0
M  V30 3581 H 330.208 -1.20921 -1.48493 0
M  V30 3582 H 328.513 -0.252195 -3.90987 0
M  V30 3583 H 330.21 -0.6405 -3.95852 0
M  V30 3584 H 326.8 -2.06013 -3.75841 0
M  V30 3585 H 330.984 -3.02488 -3.93465 0
M  V30 3586 H 326.24 -4.40467 -4.24027 0
M  V30 3587 H 330.414 -5.37369 -4.42953 0
M  V30 3588 H 328.041 -6.06843 -4.57871 0
M  V30 3589 N 329.616 1.39756 -0.72842 0
M  V30 3590 C 330.865 1.99879 -0.270407 0
M  V30 3591 C 331.178 1.58449 1.14688 0
M  V30 3592 O 332.384 2.11362 1.70407 0
M  V30 3593 C 330.84 3.57292 -0.43252 0
M  V30 3594 C 330.448 4.07688 -1.85727 0
M  V30 3595 C 332.192 4.24485 -0.0359507 0
M  V30 3596 C 330.099 5.5765 -1.96928 0
M  V30 3597 H 329.029 0.747689 -0.0973472 0
M  V30 3598 H 331.68 1.59837 -0.901355 0
M  V30 3599 H 330.062 3.95097 0.267219 0
M  V30 3600 H 331.236 3.81231 -2.58843 0
M  V30 3601 H 329.551 3.53135 -2.20646 0
M  V30 3602 H 332.148 5.34609 -0.0987484 0
M  V30 3603 H 332.491 4.03915 1.00787 0
M  V30 3604 H 333.024 3.9183 -0.686604 0
M  V30 3605 H 329.763 5.8309 -2.99476 0
M  V30 3606 H 329.283 5.8593 -1.28241 0
M  V30 3607 H 330.962 6.22957 -1.74737 0
M  V30 3608 N 331.094 0.475555 1.50254 0
M  V30 3609 C 332.004 -0.321501 2.32387 0
M  V30 3610 C 333.02 -0.991755 1.42969 0
M  V30 3611 O 334.196 -0.978747 1.76018 0
M  V30 3612 C 331.261 -1.38667 3.17762 0
M  V30 3613 C 330.322 -0.732538 4.23004 0
M  V30 3614 C 329.555 -1.74695 5.04299 0
M  V30 3615 O 329.778 -2.97399 4.86734 0
M  V30 3616 O 328.712 -1.31631 5.8733 0
M  V30 3617 H 332.538 0.350071 3.01676 0
M  V30 3618 H 330.123 0.237321 1.47503 0
M  V30 3619 H 332.005 -2.00354 3.70724 0
M  V30 3620 H 330.68 -2.04163 2.51196 0
M  V30 3621 H 329.587 -0.0765902 3.74022 0
M  V30 3622 H 330.92 -0.120452 4.92053 0
M  V30 3623 N 332.573 -1.56217 0.208337 0
M  V30 3624 C 333.819 -1.98242 -0.427552 0
M  V30 3625 C 334.152 -1.09554 -1.60348 0
M  V30 3626 O 333.427 -0.15035 -1.93918 0
M  V30 3627 C 333.71 -3.4931 -0.874907 0
M  V30 3628 C 333.563 -4.48773 0.303751 0
M  V30 3629 C 334.882 -4.04424 -1.73577 0
M  V30 3630 H 332.001 -0.720744 -0.153936 0
M  V30 3631 H 334.643 -1.87586 0.30192 0
M  V30 3632 H 332.793 -3.58522 -1.49648 0
M  V30 3633 H 334.465 -4.51586 0.941682 0
M  V30 3634 H 332.708 -4.23194 0.953375 0
M  V30 3635 H 333.379 -5.51976 -0.0519883 0
M  V30 3636 H 335.855 -3.98075 -1.21143 0
M  V30 3637 H 334.731 -5.1047 -2.01771 0
M  V30 3638 H 334.992 -3.50494 -2.69456 0
M  V30 3639 N 334.051 0.0651679 -1.57465 0
M  V30 3640 C 335.279 0.775808 -1.91804 0
M  V30 3641 C 335.694 1.70782 -0.804916 0
M  V30 3642 O 335.051 1.81153 0.221311 0
M  V30 3643 C 335.102 1.56381 -3.25925 0
M  V30 3644 O 334.823 0.669248 -4.32958 0
M  V30 3645 C 336.324 2.37485 -3.7432 0
M  V30 3646 H 333.544 0.2202 -0.63384 0
M  V30 3647 H 336.088 0.0334587 -2.04473 0
M  V30 3648 H 334.243 2.25837 -3.14764 0
M  V30 3649 H 334.657 1.21801 -5.10162 0
M  V30 3650 H 336.131 2.88223 -4.70778 0
M  V30 3651 H 336.608 3.17307 -3.03666 0
M  V30 3652 H 337.214 1.73173 -3.88447 0
M  V30 3653 N 335.529 1.53961 0.336706 0
M  V30 3654 C 336.806 1.62171 1.09361 0
M  V30 3655 C 337.186 0.447263 2.06307 0
M  V30 3656 O 336.534 -0.559802 2.21537 0
M  V30 3657 C 336.744 2.98565 1.80721 0
M  V30 3658 C 338.092 3.54157 2.34218 0
M  V30 3659 O 339.116 3.00784 1.90807 0
M  V30 3660 O 337.975 4.47528 3.13657 0
M  V30 3661 H 335.069 0.6562 0.503319 0
M  V30 3662 H 337.615 1.66307 0.33765 0
M  V30 3663 H 336.387 3.75482 1.10132 0
M  V30 3664 H 336.01 2.9805 2.63158 0
M  V30 3665 N 337.007 -0.598083 1.45811 0
M  V30 3666 C 337.97 -1.69018 1.54808 0
M  V30 3667 C 338.97 -1.55037 0.426652 0
M  V30 3668 O 340.16 -1.59932 0.690456 0
M  V30 3669 C 337.292 -3.0835 1.45371 0
M  V30 3670 H 338.485 -1.62403 2.52121 0
M  V30 3671 H 336.038 -0.814626 1.33392 0
M  V30 3672 H 336.773 -3.20534 0.492793 0
M  V30 3673 H 336.558 -3.19907 2.26721 0
M  V30 3674 H 338.048 -3.8788 1.54721 0
M  V30 3675 N 338.485 -1.33259 -0.841409 0
M  V30 3676 C 339.762 -1.15174 -1.58096 0
M  V30 3677 C 340.142 0.282858 -2.09196 0
M  V30 3678 O 339.49 1.28151 -1.89181 0
M  V30 3679 C 339.7 -2.1907 -2.71679 0
M  V30 3680 C 341.048 -2.53093 -3.40924 0
M  V30 3681 O 342.072 -2.17717 -2.81918 0
M  V30 3682 O 340.931 -3.1379 -4.47435 0
M  V30 3683 H 338.025 -0.445303 -0.696875 0
M  V30 3684 H 340.571 -1.44833 -0.884385 0
M  V30 3685 H 339.343 -3.15443 -2.31541 0
M  V30 3686 H 338.966 -1.90481 -3.49002 0
M  V30 3687 N 339.963 1.05934 -1.16686 0
M  V30 3688 C 341.24 1.75643 -0.860747 0
M  V30 3689 C 341.62 2.01144 0.640641 0
M  V30 3690 O 340.968 1.64147 1.58959 0
M  V30 3691 C 341.178 3.05493 -1.68745 0
M  V30 3692 C 342.526 3.79581 -1.90271 0
M  V30 3693 O 343.55 3.15344 -1.65641 0
M  V30 3694 O 342.409 4.9499 -2.31618 0
M  V30 3695 H 339.503 0.763426 -0.317977 0
M  V30 3696 H 342.049 1.1217 -1.27342 0
M  V30 3697 H 340.821 2.8264 -2.70611 0
M  V30 3698 H 340.444 3.76702 -1.27206 0
M  V30 3699 N 341.441 0.965919 1.2453 0
M  V30 3700 C 342.371 0.513476 2.27784 0
M  V30 3701 C 343.352 -0.445974 1.6415 0
M  V30 3702 O 344.537 -0.342485 1.91156 0
M  V30 3703 C 341.667 -0.198839 3.4673 0
M  V30 3704 C 340.621 0.676456 4.2262 0
M  V30 3705 C 339.947 -0.167248 5.34438 0
M  V30 3706 C 341.247 1.96017 4.84123 0
M  V30 3707 H 342.941 1.3765 2.65881 0
M  V30 3708 H 340.487 0.663321 1.27813 0
M  V30 3709 H 342.44 -0.526567 4.18097 0
M  V30 3710 H 341.164 -1.0962 3.07654 0
M  V30 3711 H 339.823 0.98743 3.53052 0
M  V30 3712 H 339.471 -1.0647 4.91603 0
M  V30 3713 H 339.171 0.415181 5.86131 0
M  V30 3714 H 340.695 -0.489688 6.08633 0
M  V30 3715 H 342.109 1.69814 5.47573 0
M  V30 3716 H 340.506 2.48918 5.4604 0
M  V30 3717 H 341.576 2.65622 4.05676 0
M  V30 3718 N 342.919 -1.39368 0.735821 0
M  V30 3719 C 343.829 -2.34395 0.0979693 0
M  V30 3720 C 344.845 -1.58361 -0.720968 0
M  V30 3721 O 346.021 -1.90648 -0.649245 0
M  V30 3722 C 343.086 -3.37393 -0.797916 0
M  V30 3723 C 342.147 -4.29287 0.0333662 0
M  V30 3724 C 341.38 -5.27365 -0.819854 0
M  V30 3725 O 341.603 -5.31959 -2.05855 0
M  V30 3726 O 340.537 -6.01389 -0.248079 0
M  V30 3727 H 344.363 -2.90601 0.882315 0
M  V30 3728 H 341.948 -1.40909 0.4965 0
M  V30 3729 H 343.83 -4.00505 -1.31048 0
M  V30 3730 H 342.505 -2.83571 -1.56106 0
M  V30 3731 H 341.412 -3.69395 0.591475 0
M  V30 3732 H 342.745 -4.86317 0.758752 0
M  V30 3733 N 344.397 -0.483516 -1.5 0
M  V30 3734 C 345.808 -0.0314176 -1.86674 0
M  V30 3735 C 346.159 1.37728 -1.39733 0
M  V30 3736 O 345.284 2.02327 -0.767635 0
M  V30 3737 C 345.879 -0.0502376 -3.38763 0
M  V30 3738 C 344.438 0.346442 -3.74802 0
M  V30 3739 C 343.585 -0.430366 -2.7394 0
M  V30 3740 H 346.536 -0.697182 -1.42566 0
M  V30 3741 H 346.557 0.749116 -3.73053 0
M  V30 3742 H 346.069 -1.07563 -3.72897 0
M  V30 3743 H 344.17 1.37572 -3.46273 0
M  V30 3744 H 344.283 0.0391486 -4.79084 0
M  V30 3745 H 342.647 0.117557 -2.54429 0
M  V30 3746 H 343.43 -1.4555 -3.10918 0
M  V30 3747 N 345.875 1.56104 -0.216619 0
M  V30 3748 C 347.124 1.97348 0.416744 0
M  V30 3749 C 347.437 1.10715 1.6125 0
M  V30 3750 O 348.643 1.41836 2.31506 0
M  V30 3751 C 347.099 3.51059 0.792835 0
M  V30 3752 C 346.707 4.46387 -0.379828 0
M  V30 3753 C 348.451 4.01026 1.39208 0
M  V30 3754 C 346.358 5.91397 0.0184223 0
M  V30 3755 H 345.288 0.736942 0.159475 0
M  V30 3756 H 347.939 1.80827 -0.31205 0
M  V30 3757 H 346.321 3.63162 1.57891 0
M  V30 3758 H 347.495 4.46029 -1.15737 0
M  V30 3759 H 345.81 4.06734 -0.891979 0
M  V30 3760 H 348.407 5.0686 1.70286 0
M  V30 3761 H 348.75 3.46587 2.30614 0
M  V30 3762 H 349.283 3.92125 0.669537 0
M  V30 3763 H 346.022 6.49807 -0.862002 0
M  V30 3764 H 345.542 5.94961 0.760384 0
M  V30 3765 H 347.221 6.45455 0.446818 0
M  V30 3766 N 347.353 -0.0568162 1.57498 0
M  V30 3767 C 348.583 -0.764515 1.91934 0
M  V30 3768 C 348.991 -1.70877 0.81227 0
M  V30 3769 O 348.334 -1.82351 -0.222213 0
M  V30 3770 C 348.396 -1.5994 3.21962 0
M  V30 3771 C 348.06 -0.822925 4.4953 0
M  V30 3772 C 349.057 -0.135464 5.19723 0
M  V30 3773 C 346.742 -0.785666 4.96117 0
M  V30 3774 C 348.736 0.578861 6.34766 0
M  V30 3775 C 346.423 -0.0675784 6.11063 0
M  V30 3776 C 347.421 0.613471 6.80239 0
M  V30 3777 O 347.109 1.31996 7.92989 0
M  V30 3778 H 346.841 -0.221647 0.63863 0
M  V30 3779 H 349.395 -0.0268218 2.05382 0
M  V30 3780 H 347.625 -2.38026 3.04763 0
M  V30 3781 H 349.314 -2.18715 3.41934 0
M  V30 3782 H 350.08 -0.155458 4.84751 0
M  V30 3783 H 345.959 -1.30524 4.42136 0
M  V30 3784 H 349.503 1.111 6.88696 0
M  V30 3785 H 345.4 -0.0455636 6.45484 0
M  V30 3786 H 346.168 1.23077 8.09194 0
M  V30 3787 N 348.832 -1.54138 -0.328536 0
M  V30 3788 C 350.057 -1.76378 -1.09112 0
M  V30 3789 C 350.482 -0.508596 -1.81094 0
M  V30 3790 O 349.84 0.539598 -1.73084 0
M  V30 3791 C 349.888 -2.95358 -2.06872 0
M  V30 3792 O 348.992 -2.66556 -3.14677 0
M  V30 3793 H 348.333 -0.584614 -0.314838 0
M  V30 3794 H 350.863 -2.01146 -0.374348 0
M  V30 3795 H 350.873 -3.22566 -2.4983 0
M  V30 3796 H 349.548 -3.86385 -1.5388 0
M  V30 3797 H 348.125 -2.50282 -2.7643 0
M  V30 3798 N 350.31 0.590341 -1.46126 0
M  V30 3799 C 351.558 1.34616 -1.50742 0
M  V30 3800 C 351.879 1.94363 -0.157486 0
M  V30 3801 O 351.149 1.78136 0.815136 0
M  V30 3802 H 349.729 0.499789 -0.555175 0
M  V30 3803 H 352.391 0.691953 -1.82203 0
M  V30 3804 H 351.487 2.15678 -2.25587 0
M  V30 3805 N 351.788 1.33704 0.83433 0
M  V30 3806 C 353.013 1.28615 1.62705 0
M  V30 3807 C 353.438 -0.139242 1.87584 0
M  V30 3808 O 352.796 -1.09734 1.4432 0
M  V30 3809 C 352.844 2.07139 2.95171 0
M  V30 3810 O 351.948 1.4331 3.86699 0
M  V30 3811 H 351.289 0.44226 0.49528 0
M  V30 3812 H 353.819 1.76335 1.03766 0
M  V30 3813 H 353.829 2.18073 3.44831 0
M  V30 3814 H 352.504 3.10779 2.76386 0
M  V30 3815 H 351.081 1.4105 3.45195 0
M  V30 3816 N 353.266 -1.05314 1.17247 0
M  V30 3817 C 354.176 -2.16538 0.90268 0
M  V30 3818 C 355.192 -1.73523 -0.128707 0
M  V30 3819 O 356.368 -2.01337 0.0502701 0
M  V30 3820 C 353.433 -3.44167 0.418356 0
M  V30 3821 C 352.494 -4.01635 1.51618 0
M  V30 3822 C 351.727 -5.23171 1.05487 0
M  V30 3823 O 351.95 -5.70327 -0.0914715 0
M  V30 3824 O 350.884 -5.72848 1.8474 0
M  V30 3825 H 354.71 -2.42145 1.83302 0
M  V30 3826 H 352.295 -1.15037 0.953246 0
M  V30 3827 H 354.177 -4.21112 0.155726 0
M  V30 3828 H 352.852 -3.20063 -0.48385 0
M  V30 3829 H 351.759 -3.26135 1.83268 0
M  V30 3830 H 353.092 -4.30053 2.39405 0
M  V30 3831 N 354.744 -0.972509 -1.24016 0
M  V30 3832 C 355.991 -0.637034 -1.92219 0
M  V30 3833 C 356.319 0.828418 -1.75976 0
M  V30 3834 O 355.574 1.61206 -1.10955 0
M  V30 3835 C 355.873 -0.963694 -3.44162 0
M  V30 3836 C 355.539 -2.41807 -3.80579 0
M  V30 3837 C 354.201 -2.81556 -3.9023 0
M  V30 3838 C 356.553 -3.36172 -3.98293 0
M  V30 3839 C 353.881 -4.14702 -4.15017 0
M  V30 3840 C 356.233 -4.68952 -4.24578 0
M  V30 3841 C 354.897 -5.08472 -4.32449 0
M  V30 3842 H 354.167 -0.233107 -0.703379 0
M  V30 3843 H 356.814 -1.2249 -1.47202 0
M  V30 3844 H 355.119 -0.29365 -3.90698 0
M  V30 3845 H 356.816 -0.682449 -3.9515 0
M  V30 3846 H 353.406 -2.09988 -3.73635 0
M  V30 3847 H 357.59 -3.06644 -3.90234 0
M  V30 3848 H 352.846 -4.4494 -4.19331 0
M  V30 3849 H 357.02 -5.42037 -4.37229 0
M  V30 3850 H 354.647 -6.11665 -4.51409 0
M  V30 3851 N 356.222 1.38976 -0.743202 0
M  V30 3852 C 357.499 1.94351 -0.220705 0
M  V30 3853 C 357.879 1.67935 1.2791 0
M  V30 3854 O 357.227 1.01211 2.04862 0
M  V30 3855 C 357.437 3.44426 -0.563171 0
M  V30 3856 C 358.785 4.2144 -0.517046 0
M  V30 3857 O 359.809 3.52661 -0.500846 0
M  V30 3858 O 358.668 5.44032 -0.518806 0
M  V30 3859 H 355.762 0.825879 -0.043047 0
M  V30 3860 H 358.308 1.48429 -0.822618 0
M  V30 3861 H 357.08 3.5712 -1.59941 0
M  V30 3862 H 356.703 3.97543 0.0672883 0
M  V30 3863 N 357.7 0.491464 1.49741 0
M  V30 3864 C 358.948 -0.0563141 2.02022 0
M  V30 3865 C 359.269 -1.38363 1.37407 0
M  V30 3866 O 358.539 -1.88702 0.526166 0
M  V30 3867 H 357.119 -0.0238014 0.746621 0
M  V30 3868 H 359.781 0.646533 1.83864 0
M  V30 3869 H 358.877 -0.192967 3.11503 0
M  V30 3870 N 359.178 -1.55987 0.224894 0
M  V30 3871 C 360.427 -1.97566 -0.406273 0
M  V30 3872 C 360.74 -1.11569 -1.6066 0
M  V30 3873 O 361.946 -1.43062 -2.3075 0
M  V30 3874 C 360.402 -3.51474 -0.774207 0
M  V30 3875 C 360.01 -4.46179 0.403496 0
M  V30 3876 C 361.754 -4.01758 -1.37079 0
M  V30 3877 C 359.661 -5.91399 0.0129412 0
M  V30 3878 H 358.591 -0.737777 -0.155565 0
M  V30 3879 H 361.242 -1.80659 0.321635 0
M  V30 3880 H 359.624 -3.63994 -1.55963 0
M  V30 3881 H 360.798 -4.45409 1.18101 0
M  V30 3882 H 359.113 -4.06255 0.913536 0
M  V30 3883 H 361.71 -5.07756 -1.67596 0
M  V30 3884 H 362.053 -3.47805 -2.28773 0
M  V30 3885 H 362.586 -3.92475 -0.648733 0
M  V30 3886 H 359.325 -6.49341 0.896451 0
M  V30 3887 H 358.845 -5.95356 -0.728821 0
M  V30 3888 H 360.524 -6.45683 -0.412582 0
M  V30 3889 N 360.656 0.0484629 -1.57525 0
M  V30 3890 C 361.586 1.0549 -2.08313 0
M  V30 3891 C 362.567 1.38929 -0.981463 0
M  V30 3892 O 363.752 1.48151 -1.25558 0
M  V30 3893 C 360.882 2.36162 -2.54646 0
M  V30 3894 C 359.836 2.17016 -3.68901 0
M  V30 3895 C 359.162 3.53278 -4.01371 0
M  V30 3896 C 360.462 1.57219 -4.98076 0
M  V30 3897 H 362.156 0.632195 -2.92649 0
M  V30 3898 H 359.702 0.302654 -1.40784 0
M  V30 3899 H 361.655 3.06882 -2.88793 0
M  V30 3900 H 360.379 2.80456 -1.67368 0
M  V30 3901 H 359.038 1.48733 -3.35073 0
M  V30 3902 H 358.686 3.95185 -3.11188 0
M  V30 3903 H 358.386 3.41299 -4.78318 0
M  V30 3904 H 359.91 4.25391 -4.38035 0
M  V30 3905 H 361.324 2.17832 -5.30304 0
M  V30 3906 H 359.721 1.55871 -5.79503 0
M  V30 3907 H 360.791 0.535956 -4.81929 0
M  V30 3908 N 362.134 1.5431 0.320358 0
M  V30 3909 C 363.382 1.72327 1.05583 0
M  V30 3910 C 363.703 0.50149 1.88441 0
M  V30 3911 O 362.973 -0.48448 1.89815 0
M  V30 3912 H 361.553 0.635387 0.3928 0
M  V30 3913 H 364.215 1.91621 0.356019 0
M  V30 3914 H 363.311 2.60426 1.72003 0
M  V30 3915 N 363.613 -0.582584 1.46437 0
M  V30 3916 C 364.543 -1.70187 1.59871 0
M  V30 3917 C 365.524 -1.64066 0.449042 0
M  V30 3918 O 366.709 -1.82081 0.6753 0
M  V30 3919 C 363.839 -3.08827 1.58881 0
M  V30 3920 C 362.793 -3.29779 2.72819 0
M  V30 3921 C 362.119 -4.68947 2.5689 0
M  V30 3922 C 363.419 -3.17601 4.1464 0
M  V30 3923 H 365.113 -1.592 2.53566 0
M  V30 3924 H 362.659 -0.764472 1.22032 0
M  V30 3925 H 364.612 -3.86951 1.66873 0
M  V30 3926 H 363.336 -3.20713 0.617306 0
M  V30 3927 H 361.995 -2.54054 2.64296 0
M  V30 3928 H 361.643 -4.77599 1.57823 0
M  V30 3929 H 361.343 -4.83919 3.33312 0
M  V30 3930 H 362.867 -5.4924 2.66773 0
M  V30 3931 H 364.281 -3.8557 4.24274 0
M  V30 3932 H 362.678 -3.44094 4.9165 0
M  V30 3933 H 363.748 -2.14681 4.34788 0
M  V30 3934 N 365.091 -1.34144 -0.827227 0
M  V30 3935 C 366.339 -1.26009 -1.58007 0
M  V30 3936 C 366.66 0.170971 -1.94249 0
M  V30 3937 O 365.93 1.10256 -1.61927 0
M  V30 3938 H 364.51 -0.463414 -0.585881 0
M  V30 3939 H 367.172 -1.68005 -0.987951 0
M  V30 3940 H 366.268 -1.86187 -2.50481 0
M  V30 3941 N 366.569 1.04691 -1.17803 0
M  V30 3942 C 367.815 1.78181 -0.980977 0
M  V30 3943 C 368.17 1.86191 0.484825 0
M  V30 3944 O 367.463 1.35436 1.35527 0
M  V30 3945 C 367.657 3.21467 -1.56186 0
M  V30 3946 C 367.486 3.27422 -3.08261 0
M  V30 3947 C 366.256 3.36415 -3.77032 0
M  V30 3948 C 368.454 3.15947 -4.0581 0
M  V30 3949 N 366.436 3.31554 -5.16667 0
M  V30 3950 C 367.807 3.18514 -5.31929 0
M  V30 3951 C 369.862 2.99945 -3.97413 0
M  V30 3952 C 368.565 3.06723 -6.50625 0
M  V30 3953 C 370.591 2.89497 -5.15699 0
M  V30 3954 C 369.953 2.92702 -6.40706 0
M  V30 3955 H 366.052 0.6641 -0.412911 0
M  V30 3956 H 368.636 1.24762 -1.49474 0
M  V30 3957 H 366.807 3.73245 -1.07436 0
M  V30 3958 H 368.539 3.8322 -1.30093 0
M  V30 3959 H 365.294 3.41887 -3.27735 0
M  V30 3960 H 365.718 3.3258 -5.89678 0
M  V30 3961 H 370.36 2.96302 -3.01604 0
M  V30 3962 H 368.078 3.0912 -7.46639 0
M  V30 3963 H 371.664 2.78179 -5.10987 0
M  V30 3964 H 370.544 2.84697 -7.30696 0
M  V30 3965 N 368.047 0.979072 1.23499 0
M  V30 3966 C 368.994 0.517904 2.24914 0
M  V30 3967 C 369.964 -0.442525 1.60097 0
M  V30 3968 O 371.149 -0.350365 1.87556 0
M  V30 3969 C 368.289 -0.174813 3.44657 0
M  V30 3970 C 367.402 0.825721 4.24035 0
M  V30 3971 C 366.537 0.107946 5.3109 0
M  V30 3972 C 365.576 1.09778 6.02175 0
M  V30 3973 N 364.713 0.40925 7.00906 0
M  V30 3974 H 369.553 1.38751 2.63727 0
M  V30 3975 H 367.09 0.695303 1.2963 0
M  V30 3976 H 369.048 -0.593233 4.12961 0
M  V30 3977 H 367.678 -1.0083 3.06648 0
M  V30 3978 H 366.73 1.36253 3.55161 0
M  V30 3979 H 368.042 1.58005 4.73113 0
M  V30 3980 H 367.196 -0.367904 6.05583 0
M  V30 3981 H 365.935 -0.678994 4.8295 0
M  V30 3982 H 364.94 1.5844 5.26476 0
M  V30 3983 H 366.165 1.88536 6.52404 0
M  V30 3984 H 364.111 -0.358506 6.5502 0
M  V30 3985 H 364.028 1.10226 7.47921 0
M  V30 3986 H 365.296 -0.0442557 7.79487 0
M  V30 3987 N 369.525 -1.3858 0.750561 0
M  V30 3988 C 370.802 -1.94231 0.231009 0
M  V30 3989 C 371.182 -1.68611 -1.27018 0
M  V30 3990 O 370.53 -1.02296 -2.04323 0
M  V30 3991 C 370.74 -3.44123 0.581428 0
M  V30 3992 C 372.088 -4.2116 0.539389 0
M  V30 3993 O 373.112 -3.52391 0.519541 0
M  V30 3994 O 371.971 -5.43749 0.54765 0
M  V30 3995 H 369.065 -0.825639 0.0474263 0
M  V30 3996 H 371.611 -1.4799 0.830478 0
M  V30 3997 H 370.383 -3.56267 1.61833 0
M  V30 3998 H 370.006 -3.97573 -0.0462047 0
M  V30 3999 N 371.003 -0.499398 -1.49478 0
M  V30 4000 C 371.933 0.269244 -2.31943 0
M  V30 4001 C 372.914 0.964054 -1.40143 0
M  V30 4002 O 374.099 0.955767 -1.69052 0
M  V30 4003 C 371.229 1.33504 -3.20615 0
M  V30 4004 C 370.183 0.760202 -4.21195 0
M  V30 4005 C 369.509 1.9264 -4.98792 0
M  V30 4006 C 370.809 -0.247661 -5.21712 0
M  V30 4007 H 372.503 -0.419082 -2.96452 0
M  V30 4008 H 370.049 -0.202988 -1.42562 0
M  V30 4009 H 372.002 1.88048 -3.77115 0
M  V30 4010 H 370.726 2.05253 -2.54045 0
M  V30 4011 H 369.385 0.23653 -3.65836 0
M  V30 4012 H 369.033 2.63154 -4.28671 0
M  V30 4013 H 368.733 1.54785 -5.66847 0
M  V30 4014 H 370.257 2.4762 -5.58137 0
M  V30 4015 H 371.671 0.209579 -5.72917 0
M  V30 4016 H 370.068 -0.541962 -5.97648 0
M  V30 4017 H 371.138 -1.16409 -4.7072 0
M  V30 4018 N 372.481 1.55866 -0.233164 0
M  V30 4019 C 373.706 2.03449 0.402906 0
M  V30 4020 C 374.131 1.11166 1.51736 0
M  V30 4021 O 373.489 0.101996 1.81013 0
M  V30 4022 C 373.537 3.49165 0.9009 0
M  V30 4023 O 372.641 3.60019 2.01147 0
M  V30 4024 H 371.982 0.657913 0.0897025 0
M  V30 4025 H 374.512 2.01493 -0.355201 0
M  V30 4026 H 374.522 3.89716 1.2077 0
M  V30 4027 H 373.197 4.15813 0.0852889 0
M  V30 4028 H 371.774 3.3136 1.71042 0
M  V30 4029 N 373.959 -0.0401083 1.57549 0
M  V30 4030 C 375.208 -0.732108 1.87944 0
M  V30 4031 C 375.521 -1.77107 0.830206 0
M  V30 4032 O 376.727 -2.51488 1.02302 0
M  V30 4033 C 375.183 -1.35315 3.33494 0
M  V30 4034 C 374.791 -0.351105 4.46622 0
M  V30 4035 C 376.535 -2.02566 3.73051 0
M  V30 4036 C 374.442 -0.979859 5.83226 0
M  V30 4037 H 373.372 -0.277188 0.701201 0
M  V30 4038 H 376.023 0.0138501 1.83495 0
M  V30 4039 H 374.405 -2.14844 3.32653 0
M  V30 4040 H 375.579 0.416674 4.58912 0
M  V30 4041 H 373.894 0.218708 4.15825 0
M  V30 4042 H 376.491 -2.50441 4.72423 0
M  V30 4043 H 376.834 -2.83904 3.04474 0
M  V30 4044 H 377.367 -1.29827 3.76018 0
M  V30 4045 H 374.106 -0.206135 6.55176 0
M  V30 4046 H 373.626 -1.71774 5.74677 0
M  V30 4047 H 375.305 -1.49046 6.29599 0
M  V30 4048 N 375.437 -1.54477 -0.31217 0
M  V30 4049 C 376.685 -1.72884 -1.04668 0
M  V30 4050 C 377.006 -0.511477 -1.88173 0
M  V30 4051 O 376.276 0.474407 -1.90069 0
M  V30 4052 H 374.856 -0.637461 -0.389425 0
M  V30 4053 H 377.518 -1.91807 -0.345852 0
M  V30 4054 H 376.614 -2.61334 -1.70619 0
M  V30 4055 N 376.915 0.57481 -1.46744 0
M  V30 4056 C 378.14 1.36341 -1.56288 0
M  V30 4057 C 378.565 1.86954 -0.207347 0
M  V30 4058 O 377.923 1.62006 0.813871 0
M  V30 4059 C 377.971 2.52147 -2.57787 0
M  V30 4060 O 377.075 3.53834 -2.11838 0
M  V30 4061 H 376.416 0.405713 -0.525636 0
M  V30 4062 H 378.946 0.696453 -1.92382 0
M  V30 4063 H 378.956 2.98958 -2.77648 0
M  V30 4064 H 377.631 2.14663 -3.5622 0
M  V30 4065 H 376.208 3.1345 -2.01999 0
M  V30 4066 N 378.394 1.34581 0.820102 0
M  V30 4067 C 379.643 1.26437 1.57151 0
M  V30 4068 C 379.956 -0.163111 1.94919 0
M  V30 4069 O 381.162 -0.366722 2.69012 0
M  V30 4070 C 379.618 2.21658 2.83541 0
M  V30 4071 C 379.226 3.69679 2.53065 0
M  V30 4072 C 380.97 2.22428 3.61561 0
M  V30 4073 C 378.877 4.56761 3.75664 0
M  V30 4074 H 377.807 0.469707 0.589823 0
M  V30 4075 H 380.458 1.59763 0.902656 0
M  V30 4076 H 378.84 1.81287 3.52067 0
M  V30 4077 H 380.014 4.18605 1.92631 0
M  V30 4078 H 378.329 3.71384 1.88316 0
M  V30 4079 H 380.926 2.8471 4.52597 0
M  V30 4080 H 381.269 1.22434 3.97889 0
M  V30 4081 H 381.802 2.61259 2.99981 0
M  V30 4082 H 378.541 5.57702 3.44454 0
M  V30 4083 H 378.061 4.12568 4.35371 0
M  V30 4084 H 379.74 4.71509 4.43044 0
M  V30 4085 N 379.872 -1.04064 1.18357 0
M  V30 4086 C 381.149 -1.74252 0.888581 0
M  V30 4087 C 381.529 -2.02138 -0.60856 0
M  V30 4088 O 380.877 -1.66656 -1.56327 0
M  V30 4089 C 381.087 -3.0277 1.73584 0
M  V30 4090 C 382.435 -3.76506 1.96286 0
M  V30 4091 O 383.459 -3.12668 1.70637 0
M  V30 4092 O 382.318 -4.91243 2.39464 0
M  V30 4093 H 379.412 -0.758271 0.330082 0
M  V30 4094 H 381.958 -1.1013 1.2911 0
M  V30 4095 H 380.73 -2.78299 2.75073 0
M  V30 4096 H 380.353 -3.74631 1.33183 0
M  V30 4097 N 381.35 -0.985608 -1.22978 0
M  V30 4098 C 382.761 -0.693593 -1.73338 0
M  V30 4099 C 383.112 0.789935 -1.79595 0
M  V30 4100 O 382.237 1.61771 -1.43733 0
M  V30 4101 C 382.832 -1.25235 -3.14804 0
M  V30 4102 C 381.391 -1.00987 -3.626 0
M  V30 4103 C 380.538 -1.37695 -2.40698 0
M  V30 4104 H 383.489 -1.15884 -1.08428 0
M  V30 4105 H 383.51 -0.627329 -3.75293 0
M  V30 4106 H 383.022 -2.33209 -3.10218 0
M  V30 4107 H 381.123 0.0535565 -3.72562 0
M  V30 4108 H 381.236 -1.66812 -4.49122 0
M  V30 4109 H 379.6 -0.795459 -2.4196 0
M  V30 4110 H 380.383 -2.46657 -2.38779 0
M  V30 4111 N 382.828 1.3818 -0.7579 0
M  V30 4112 C 384.074 2.00316 -0.316453 0
M  V30 4113 C 384.407 1.60026 1.10025 0
M  V30 4114 O 383.682 0.839835 1.75434 0
M  V30 4115 C 383.965 3.57349 -0.444245 0
M  V30 4116 C 383.818 4.07591 -1.90236 0
M  V30 4117 C 385.137 4.3981 0.1598 0
M  V30 4118 H 382.256 0.727741 -0.116459 0
M  V30 4119 H 384.898 1.6406 -0.958352 0
M  V30 4120 H 383.048 3.88365 0.102233 0
M  V30 4121 H 384.72 3.87199 -2.50748 0
M  V30 4122 H 382.963 3.60297 -2.41595 0
M  V30 4123 H 383.634 5.16677 -1.94291 0
M  V30 4124 H 386.11 4.14971 -0.306314 0
M  V30 4125 H 384.986 5.48885 0.0401675 0
M  V30 4126 H 385.247 4.24102 1.24859 0
M  V30 4127 N 384.306 0.507319 1.49211 0
M  V30 4128 C 385.552 -0.0350047 2.0277 0
M  V30 4129 C 385.885 -1.3606 1.38569 0
M  V30 4130 O 385.16 -1.87321 0.523542 0
M  V30 4131 C 385.443 -0.180916 3.59645 0
M  V30 4132 C 385.296 1.16825 4.34364 0
M  V30 4133 C 386.615 -0.918558 4.30407 0
M  V30 4134 H 383.734 -0.0112473 0.736914 0
M  V30 4135 H 386.376 0.659956 1.7817 0
M  V30 4136 H 384.526 -0.772826 3.80736 0
M  V30 4137 H 386.198 1.79952 4.24753 0
M  V30 4138 H 384.441 1.75594 3.96673 0
M  V30 4139 H 385.112 1.01939 5.42506 0
M  V30 4140 H 387.588 -0.41649 4.1401 0
M  V30 4141 H 386.464 -0.989505 5.39907 0
M  V30 4142 H 386.725 -1.96373 3.96093 0
M  V30 4143 N 385.784 -1.5574 0.241426 0
M  V30 4144 C 387.03 -1.99104 -0.385406 0
M  V30 4145 C 387.363 -1.1293 -1.57988 0
M  V30 4146 O 386.638 -0.191449 -1.93555 0
M  V30 4147 C 386.921 -3.51087 -0.800616 0
M  V30 4148 C 386.774 -4.48028 0.398874 0
M  V30 4149 C 388.093 -4.08015 -1.64959 0
M  V30 4150 H 385.212 -0.723848 -0.138614 0
M  V30 4151 H 387.854 -1.86903 0.341642 0
M  V30 4152 H 386.004 -3.61615 -1.4201 0
M  V30 4153 H 387.676 -4.49487 1.03726 0
M  V30 4154 H 385.919 -4.21077 1.04293 0
M  V30 4155 H 386.59 -5.51962 0.0651056 0
M  V30 4156 H 389.066 -4.00555 -1.12672 0
M  V30 4157 H 387.942 -5.14635 -1.90898 0
M  V30 4158 H 388.203 -3.56131 -2.61961 0
M  V30 4159 N 387.262 0.0317525 -1.57568 0
M  V30 4160 C 388.172 1.05021 -2.0978 0
M  V30 4161 C 389.188 1.39809 -1.03583 0
M  V30 4162 O 390.364 1.49182 -1.35302 0
M  V30 4163 C 387.429 2.33301 -2.56459 0
M  V30 4164 C 386.49 2.0512 -3.77127 0
M  V30 4165 C 385.723 3.27283 -4.2157 0
M  V30 4166 O 385.946 4.37861 -3.65559 0
M  V30 4167 O 384.88 3.13141 -5.14029 0
M  V30 4168 H 388.706 0.636505 -2.96955 0
M  V30 4169 H 386.291 0.248559 -1.47318 0
M  V30 4170 H 388.173 3.08722 -2.86825 0
M  V30 4171 H 386.848 2.73973 -1.72397 0
M  V30 4172 H 385.755 1.27276 -3.51784 0
M  V30 4173 H 387.088 1.69305 -4.62165 0
M  V30 4174 N 388.74 1.54641 0.303973 0
M  V30 4175 C 389.67 1.88386 1.3796 0
M  V30 4176 C 390.651 0.742485 1.5304 0
M  V30 4177 O 391.836 0.997959 1.66597 0
M  V30 4178 C 388.966 2.12854 2.74427 0
M  V30 4179 C 387.92 3.28702 2.74115 0
M  V30 4180 C 387.246 3.38582 4.13844 0
M  V30 4181 C 388.546 4.65881 2.3612 0
M  V30 4182 H 390.24 2.78474 1.09966 0
M  V30 4183 H 387.786 1.33988 0.527556 0
M  V30 4184 H 389.739 2.35047 3.49758 0
M  V30 4185 H 388.463 1.19535 3.03939 0
M  V30 4186 H 387.122 3.06428 2.0124 0
M  V30 4187 H 386.77 2.42784 4.40528 0
M  V30 4188 H 386.47 4.16453 4.14537 0
M  V30 4189 H 387.994 3.63031 4.90959 0
M  V30 4190 H 389.408 4.87823 3.01167 0
M  V30 4191 H 387.805 5.46444 2.48031 0
M  V30 4192 H 388.875 4.66799 1.3125 0
M  V30 4193 N 390.218 -0.567019 1.47046 0
M  V30 4194 C 391.165 -1.67489 1.58796 0
M  V30 4195 C 392.135 -1.60399 0.43144 0
M  V30 4196 O 393.32 -1.79378 0.650233 0
M  V30 4197 C 390.46 -3.05821 1.59899 0
M  V30 4198 C 389.573 -3.2342 2.86397 0
M  V30 4199 C 388.708 -4.52093 2.789 0
M  V30 4200 C 387.747 -4.6309 4.00267 0
M  V30 4201 N 386.884 -5.83106 3.91064 0
M  V30 4202 H 391.724 -1.56785 2.53422 0
M  V30 4203 H 389.261 -0.763896 1.2571 0
M  V30 4204 H 391.219 -3.8591 1.58522 0
M  V30 4205 H 389.849 -3.15384 0.687929 0
M  V30 4206 H 388.901 -2.3683 2.97684 0
M  V30 4207 H 390.213 -3.27412 3.76301 0
M  V30 4208 H 389.367 -5.4043 2.75718 0
M  V30 4209 H 388.106 -4.50565 1.86662 0
M  V30 4210 H 387.111 -3.73168 4.03765 0
M  V30 4211 H 388.336 -4.66386 4.93621 0
M  V30 4212 H 386.282 -5.82546 3.01623 0
M  V30 4213 H 386.199 -5.88434 4.74638 0
M  V30 4214 H 387.467 -6.73831 3.91882 0
M  V30 4215 N 391.696 -1.35014 -0.812953 0
M  V30 4216 C 392.643 -1.27412 -1.92444 0
M  V30 4217 C 393.613 -0.14733 -1.65445 0
M  V30 4218 O 394.798 -0.329974 -1.87925 0
M  V30 4219 C 391.938 -1.04558 -3.28879 0
M  V30 4220 C 391.051 -2.26101 -3.68106 0
M  V30 4221 C 390.186 -1.96449 -4.9354 0
M  V30 4222 C 389.225 -3.14081 -5.25376 0
M  V30 4223 N 388.362 -2.84246 -6.41988 0
M  V30 4224 H 393.202 -2.22463 -1.98278 0
M  V30 4225 H 390.739 -1.10593 -0.969933 0
M  V30 4226 H 392.697 -0.893413 -4.07522 0
M  V30 4227 H 391.327 -0.131719 -3.22531 0
M  V30 4228 H 390.379 -2.52204 -2.84775 0
M  V30 4229 H 391.691 -3.13959 -3.87597 0
M  V30 4230 H 390.845 -1.78026 -5.79993 0
M  V30 4231 H 389.584 -1.05867 -4.76071 0
M  V30 4232 H 388.589 -3.33089 -4.37415 0
M  V30 4233 H 389.814 -4.05455 -5.44778 0
M  V30 4234 H 387.76 -1.96252 -6.25956 0
M  V30 4235 H 387.677 -3.65637 -6.61699 0
M  V30 4236 H 388.945 -2.6935 -7.31485 0
M  V30 4237 N 393.175 1.03435 -1.18907 0
M  V30 4238 C 394.107 2.1165 -0.879595 0
M  V30 4239 C 395.12 1.62316 0.125439 0
M  V30 4240 O 396.309 1.78201 -0.103245 0
M  V30 4241 C 393.409 3.37622 -0.294042 0
M  V30 4242 C 392.582 4.16166 -1.34629 0
M  V30 4243 C 391.641 5.20457 -0.775274 0
M  V30 4244 O 390.667 5.50379 -1.4516 0
M  V30 4245 N 391.869 5.78949 0.424126 0
M  V30 4246 H 394.634 2.38791 -1.81105 0
M  V30 4247 H 392.195 1.19681 -1.09032 0
M  V30 4248 H 394.187 4.04572 0.101679 0
M  V30 4249 H 392.757 3.07873 0.541575 0
M  V30 4250 H 391.977 3.44444 -1.91707 0
M  V30 4251 H 393.265 4.65432 -2.05549 0
M  V30 4252 H 392.663 5.56948 0.991209 0
M  V30 4253 H 391.22 6.47334 0.761691 0
M  V30 4254 N 394.653 0.992116 1.22453 0
M  V30 4255 C 395.601 0.534644 2.26372 0
M  V30 4256 C 396.595 -0.414293 1.64256 0
M  V30 4257 O 397.801 -0.286899 1.77699 0
M  V30 4258 H 394.176 0.154502 0.735957 0
M  V30 4259 H 396.147 1.42256 2.62309 0
M  V30 4260 C 394.896 -0.135815 3.47435 0
M  V30 4261 H 394.219 0.585311 3.95492 0
M  V30 4262 H 395.659 -0.419374 4.21921 0
M  V30 4263 C 394.118 -1.37089 3.07747 0
M  V30 4264 O 394.648 -2.46629 3.17076 0
M  V30 4265 N 392.854 -1.24585 2.62539 0
M  V30 4266 H 392.401 -0.354542 2.55149 0
M  V30 4267 H 392.359 -2.07327 2.36353 0
M  V30 4268 N 396.131 -1.37776 0.765217 0
M  V30 4269 C 397.078 -2.30342 0.145274 0
M  V30 4270 C 398.048 -1.5077 -0.696971 0
M  V30 4271 O 399.233 -1.79362 -0.650689 0
M  V30 4272 C 396.373 -3.37227 -0.732939 0
M  V30 4273 C 395.486 -4.31819 0.125199 0
M  V30 4274 C 394.621 -5.25777 -0.757107 0
M  V30 4275 C 393.66 -6.12012 0.103963 0
M  V30 4276 N 392.797 -6.98232 -0.735953 0
M  V30 4277 H 397.637 -2.8278 0.940195 0
M  V30 4278 H 395.174 -1.39211 0.475255 0
M  V30 4279 H 397.132 -3.97818 -1.25686 0
M  V30 4280 H 395.762 -2.86171 -1.49353 0
M  V30 4281 H 394.814 -3.7259 0.766865 0
M  V30 4282 H 396.126 -4.92509 0.789683 0
M  V30 4283 H 395.28 -5.91541 -1.34776 0
M  V30 4284 H 394.019 -4.65481 -1.45529 0
M  V30 4285 H 393.024 -5.45233 0.707197 0
M  V30 4286 H 394.249 -6.74379 0.799381 0
M  V30 4287 H 392.195 -6.40472 -1.41887 0
M  V30 4288 H 392.112 -7.55891 -0.128624 0
M  V30 4289 H 393.38 -7.68393 -1.31121 0
M  V30 4290 N 397.609 -0.515225 -1.4894 0
M  V30 4291 C 398.858 0.0261361 -2.01683 0
M  V30 4292 C 399.171 1.36719 -1.39883 0
M  V30 4293 O 400.377 1.99606 -1.84037 0
M  V30 4294 C 398.833 0.0970111 -3.59769 0
M  V30 4295 C 398.441 -1.23825 -4.30548 0
M  V30 4296 C 400.185 0.587981 -4.20408 0
M  V30 4297 C 398.092 -1.12877 -5.80528 0
M  V30 4298 H 397.022 0.0135398 -0.753878 0
M  V30 4299 H 399.673 -0.656787 -1.71343 0
M  V30 4300 H 398.055 0.844694 -3.86886 0
M  V30 4301 H 399.229 -2.00034 -4.15118 0
M  V30 4302 H 397.544 -1.66379 -3.81716 0
M  V30 4303 H 400.141 0.68763 -5.3026 0
M  V30 4304 H 400.484 1.59026 -3.84729 0
M  V30 4305 H 401.017 -0.103582 -3.97665 0
M  V30 4306 H 397.756 -2.10575 -6.20756 0
M  V30 4307 H 397.276 -0.407799 -5.98412 0
M  V30 4308 H 398.955 -0.813332 -6.41868 0
M  V30 4309 N 399.087 1.5561 -0.249682 0
M  V30 4310 C 400.364 1.90932 0.424761 0
M  V30 4311 C 400.744 1.17078 1.75658 0
M  V30 4312 O 400.092 0.289176 2.26663 0
M  V30 4313 C 400.302 3.43975 0.590109 0
M  V30 4314 C 401.65 4.15281 0.884714 0
M  V30 4315 O 402.674 3.49729 0.67587 0
M  V30 4316 O 401.533 5.31236 1.28259 0
M  V30 4317 H 398.627 0.794815 0.228468 0
M  V30 4318 H 401.173 1.67135 -0.293954 0
M  V30 4319 H 399.945 3.89748 -0.34818 0
M  V30 4320 H 399.568 3.73644 1.35926 0
M  V30 4321 N 400.565 -0.0233959 1.57583 0
M  V30 4322 C 401.513 -1.04063 2.08023 0
M  V30 4323 C 402.507 -1.37084 0.995204 0
M  V30 4324 O 403.713 -1.35923 1.18004 0
M  V30 4325 H 400.088 -0.353144 0.663922 0
M  V30 4326 H 402.059 -0.589453 2.9252 0
M  V30 4327 C 400.808 -2.33123 2.57971 0
M  V30 4328 H 400.131 -2.08577 3.4108 0
M  V30 4329 H 401.571 -3.02632 2.96967 0
M  V30 4330 C 400.03 -3.02483 1.48342 0
M  V30 4331 O 400.56 -3.92541 0.852898 0
M  V30 4332 N 398.766 -2.63909 1.21658 0
M  V30 4333 H 398.313 -1.90758 1.73116 0
M  V30 4334 H 398.271 -3.10633 0.485218 0
M  V30 4335 N 402.043 -1.548 -0.295768 0
M  V30 4336 C 403.006 -1.85363 -1.34808 0
M  V30 4337 C 404.006 -0.726817 -1.43436 0
M  V30 4338 O 405.196 -0.995088 -1.42981 0
M  V30 4339 C 402.328 -2.03859 -2.73229 0
M  V30 4340 H 403.521 -2.7941 -1.08949 0
M  V30 4341 H 401.074 -1.46942 -0.532702 0
M  V30 4342 H 401.809 -1.12117 -3.04303 0
M  V30 4343 H 401.594 -2.8588 -2.68356 0
M  V30 4344 H 403.084 -2.28857 -3.49305 0
M  V30 4345 N 403.521 0.559213 -1.47345 0
M  V30 4346 C 404.451 1.67622 -1.62558 0
M  V30 4347 C 405.432 1.63331 -0.475087 0
M  V30 4348 O 406.617 1.80983 -0.704182 0
M  V30 4349 C 403.747 3.0626 -1.63774 0
M  V30 4350 C 402.701 3.25397 -2.7803 0
M  V30 4351 C 402.027 4.64801 -2.64318 0
M  V30 4352 C 403.327 3.10965 -4.19641 0
M  V30 4353 H 405.021 1.55146 -2.56067 0
M  V30 4354 H 402.567 0.744961 -1.23233 0
M  V30 4355 H 404.52 3.84247 -1.73008 0
M  V30 4356 H 403.244 3.1969 -0.66825 0
M  V30 4357 H 401.903 2.49817 -2.68304 0
M  V30 4358 H 401.551 4.75028 -1.65401 0
M  V30 4359 H 401.251 4.78555 -3.40968 0
M  V30 4360 H 402.775 5.44926 -2.75478 0
M  V30 4361 H 404.189 3.78772 -4.30354 0
M  V30 4362 H 402.586 3.36229 -4.97062 0
M  V30 4363 H 403.656 2.07736 -4.38148 0
M  V30 4364 N 404.999 1.35443 0.805782 0
M  V30 4365 C 406.246 1.28761 1.56291 0
M  V30 4366 C 406.574 -0.137747 1.94012 0
M  V30 4367 O 405.829 -1.1032 1.61642 0
M  V30 4368 C 406.128 2.14045 2.86216 0
M  V30 4369 C 405.794 3.62826 2.67709 0
M  V30 4370 C 404.456 4.0338 2.6237 0
M  V30 4371 C 406.808 4.57227 2.50186 0
M  V30 4372 C 404.136 5.36501 2.37451 0
M  V30 4373 C 406.488 5.90547 2.26797 0
M  V30 4374 C 405.152 6.30245 2.1988 0
M  V30 4375 H 404.422 0.471171 0.571908 0
M  V30 4376 H 407.069 1.67347 0.930974 0
M  V30 4377 H 405.374 1.68342 3.53791 0
M  V30 4378 H 407.071 2.0621 3.43917 0
M  V30 4379 H 403.661 3.30644 2.72713 0
M  V30 4380 H 407.845 4.2678 2.53323 0
M  V30 4381 H 403.101 5.66259 2.30567 0
M  V30 4382 H 407.275 6.63274 2.12228 0
M  V30 4383 H 404.902 7.33328 2.00333 0
M  V30 4384 N 406.477 -1.02803 1.19454 0
M  V30 4385 C 407.705 -1.79841 1.02297 0
M  V30 4386 C 408.12 -1.83879 -0.428259 0
M  V30 4387 O 407.477 -1.28345 -1.29745 0
M  V30 4388 C 407.528 -3.24852 1.58598 0
M  V30 4389 O 407.249 -3.21097 2.98041 0
M  V30 4390 C 408.75 -4.18485 1.46236 0
M  V30 4391 H 405.97 -0.565936 0.360496 0
M  V30 4392 H 408.514 -1.2948 1.58288 0
M  V30 4393 H 406.669 -3.72401 1.06753 0
M  V30 4394 H 407.083 -4.12033 3.24545 0
M  V30 4395 H 408.557 -5.18121 1.90407 0
M  V30 4396 H 409.034 -4.37254 0.41301 0
M  V30 4397 H 409.64 -3.76811 1.97215 0
M  V30 4398 N 407.956 -0.998596 -1.21925 0
M  V30 4399 C 409.203 -0.677663 -1.90824 0
M  V30 4400 C 409.531 0.790905 -1.77693 0
M  V30 4401 O 408.786 1.58817 -1.14349 0
M  V30 4402 C 409.085 -1.03648 -3.42041 0
M  V30 4403 C 408.751 -2.49825 -3.75364 0
M  V30 4404 C 407.413 -2.8977 -3.8417 0
M  V30 4405 C 409.765 -3.44545 -3.91073 0
M  V30 4406 C 407.093 -4.23412 -4.06127 0
M  V30 4407 C 409.445 -4.77853 -4.14535 0
M  V30 4408 C 408.109 -5.17531 -4.21566 0
M  V30 4409 H 407.379 -0.247975 -0.698276 0
M  V30 4410 H 410.026 -1.25584 -1.44571 0
M  V30 4411 H 408.331 -0.376457 -3.89987 0
M  V30 4412 H 410.028 -0.766113 -3.93614 0
M  V30 4413 H 406.618 -2.17866 -3.69097 0
M  V30 4414 H 410.802 -3.14853 -3.83642 0
M  V30 4415 H 406.058 -4.53734 -4.09799 0
M  V30 4416 H 410.232 -5.51189 -4.25633 0
M  V30 4417 H 407.859 -6.21102 -4.38333 0
M  V30 4418 N 409.434 1.37368 -0.772513 0
M  V30 4419 C 410.664 2.03647 -0.348082 0
M  V30 4420 C 411.072 1.58392 1.03482 0
M  V30 4421 O 410.415 0.760921 1.672 0
M  V30 4422 C 410.477 3.58131 -0.313404 0
M  V30 4423 C 410.141 4.2652 -1.64102 0
M  V30 4424 C 411.138 4.50587 -2.5936 0
M  V30 4425 C 408.823 4.64335 -1.91567 0
M  V30 4426 C 410.817 5.11526 -3.80289 0
M  V30 4427 C 408.504 5.24996 -3.12766 0
M  V30 4428 C 409.502 5.48529 -4.06946 0
M  V30 4429 O 409.19 6.07921 -5.26011 0
M  V30 4430 H 408.922 0.660538 -0.143753 0
M  V30 4431 H 411.476 1.76669 -1.04772 0
M  V30 4432 H 409.706 3.84159 0.442617 0
M  V30 4433 H 411.395 4.05813 0.0840613 0
M  V30 4434 H 412.161 4.21784 -2.39423 0
M  V30 4435 H 408.04 4.45353 -1.19088 0
M  V30 4436 H 411.584 5.29811 -4.53813 0
M  V30 4437 H 407.481 5.53223 -3.32588 0
M  V30 4438 H 408.249 6.26398 -5.26847 0
M  V30 4439 N 410.912 0.523116 1.48665 0
M  V30 4440 C 411.842 -0.23231 2.32342 0
M  V30 4441 C 412.823 -0.941637 1.41659 0
M  V30 4442 O 414.008 -0.928751 1.70552 0
M  V30 4443 C 411.138 -1.28387 3.22698 0
M  V30 4444 C 410.092 -0.693098 4.22351 0
M  V30 4445 C 409.418 -1.8468 5.01794 0
M  V30 4446 C 410.718 0.33063 5.21252 0
M  V30 4447 H 412.412 0.466192 2.95748 0
M  V30 4448 H 409.958 0.225643 1.42221 0
M  V30 4449 H 411.911 -1.82024 3.80059 0
M  V30 4450 H 410.635 -2.01186 2.57278 0
M  V30 4451 H 409.294 -0.178299 3.66166 0
M  V30 4452 H 408.942 -2.56301 4.32804 0
M  V30 4453 H 408.642 -1.45747 5.69238 0
M  V30 4454 H 410.166 -2.38709 5.62006 0
M  V30 4455 H 411.58 -0.118407 5.73178 0
M  V30 4456 H 409.977 0.636974 5.9671 0
M  V30 4457 H 411.047 1.23883 4.68808 0
M  V30 4458 N 412.39 -1.55475 0.257931 0
M  V30 4459 C 413.801 -1.8511 -0.243135 0
M  V30 4460 C 414.152 -1.17986 -1.5676 0
M  V30 4461 O 413.277 -0.462102 -2.11409 0
M  V30 4462 C 413.872 -3.35826 -0.447929 0
M  V30 4463 C 412.431 -3.65647 -0.893245 0
M  V30 4464 C 411.578 -2.7729 0.0232965 0
M  V30 4465 H 414.529 -1.51261 0.480199 0
M  V30 4466 H 414.55 -3.58002 -1.28898 0
M  V30 4467 H 414.062 -3.84652 0.516196 0
M  V30 4468 H 412.163 -3.22308 -1.86945 0
M  V30 4469 H 412.276 -4.73312 -0.742469 0
M  V30 4470 H 410.64 -2.49942 -0.490021 0
M  V30 4471 H 411.423 -3.28926 0.982994 0
M  V30 4472 N 413.868 0.0150385 -1.57593 0
M  V30 4473 C 415.114 0.704043 -1.90187 0
M  V30 4474 C 415.447 1.74249 -0.857366 0
M  V30 4475 O 414.722 1.94092 0.125843 0
M  V30 4476 C 415.005 1.36087 -3.33395 0
M  V30 4477 C 414.858 0.334981 -4.48551 0
M  V30 4478 C 416.177 2.29112 -3.7576 0
M  V30 4479 H 413.296 0.254475 -0.691673 0
M  V30 4480 H 415.938 -0.0331678 -1.89971 0
M  V30 4481 H 414.088 1.98922 -3.3371 0
M  V30 4482 H 415.76 -0.292534 -4.60372 0
M  V30 4483 H 414.003 -0.344325 -4.32431 0
M  V30 4484 H 414.674 0.833316 -5.45674 0
M  V30 4485 H 417.15 1.76308 -3.76902 0
M  V30 4486 H 416.026 2.72043 -4.76743 0
M  V30 4487 H 416.287 3.16385 -3.08793 0
M  V30 4488 N 415.346 1.54954 0.287554 0
M  V30 4489 C 416.296 1.8322 1.357 0
M  V30 4490 C 417.28 0.690152 1.45347 0
M  V30 4491 O 418.472 0.951137 1.49273 0
M  V30 4492 C 415.601 2.09481 2.71979 0
M  V30 4493 C 414.687 3.29906 2.66502 0
M  V30 4494 N 415.078 4.50154 2.30641 0
M  V30 4495 C 413.376 3.32203 2.97585 0
M  V30 4496 C 414.077 5.32209 2.34794 0
M  V30 4497 N 413.053 4.70258 2.72688 0
M  V30 4498 H 416.855 2.73746 1.0696 0
M  V30 4499 H 414.369 1.54635 0.496167 0
M  V30 4500 H 416.366 2.27882 3.49107 0
M  V30 4501 H 415.026 1.2023 3.0162 0
M  V30 4502 H 416.037 4.76515 2.02865 0
M  V30 4503 H 412.714 2.53101 3.32034 0
M  V30 4504 H 414.104 6.38321 2.09753 0
M  V30 4505 N 416.824 -0.551391 1.4764 0
M  V30 4506 C 418.101 -1.31229 1.45046 0
M  V30 4507 C 418.481 -2.10563 0.150527 0
M  V30 4508 O 417.829 -2.11374 -0.867956 0
M  V30 4509 C 418.039 -2.21189 2.69956 0
M  V30 4510 C 419.387 -2.82021 3.1741 0
M  V30 4511 O 420.411 -2.31488 2.70724 0
M  V30 4512 O 419.27 -3.73885 3.98588 0
M  V30 4513 H 416.364 -0.591193 0.578291 0
M  V30 4514 H 418.91 -0.569813 1.59847 0
M  V30 4515 H 417.682 -1.62207 3.56096 0
M  V30 4516 H 417.305 -3.02722 2.57769 0
M  V30 4517 N 418.302 -1.35869 -0.798587 0
M  V30 4518 C 419.249 -1.29446 -1.91082 0
M  V30 4519 C 420.219 -0.16487 -1.6528 0
M  V30 4520 O 421.404 -0.349888 -1.87564 0
M  V30 4521 C 418.544 -1.0804 -3.27752 0
M  V30 4522 C 417.657 -2.29993 -3.65687 0
M  V30 4523 C 416.792 -2.01673 -4.91428 0
M  V30 4524 C 415.831 -3.19636 -5.22015 0
M  V30 4525 N 414.968 -2.91039 -6.38937 0
M  V30 4526 H 419.808 -2.24553 -1.95907 0
M  V30 4527 H 417.345 -1.11615 -0.958148 0
M  V30 4528 H 419.303 -0.936586 -4.06551 0
M  V30 4529 H 417.933 -0.16592 -3.22373 0
M  V30 4530 H 416.985 -2.55211 -2.82085 0
M  V30 4531 H 418.297 -3.18052 -3.84245 0
M  V30 4532 H 417.451 -1.84168 -5.78072 0
M  V30 4533 H 416.19 -1.10911 -4.74921 0
M  V30 4534 H 415.195 -3.37709 -4.33858 0
M  V30 4535 H 416.42 -4.11211 -5.40447 0
M  V30 4536 H 414.366 -2.0288 -6.2384 0
M  V30 4537 H 414.283 -3.72635 -6.57784 0
M  V30 4538 H 415.551 -2.77093 -7.28587 0
M  V30 4539 N 419.78 1.02168 -1.19998 0
M  V30 4540 C 420.73 2.08969 -0.911921 0
M  V30 4541 C 421.714 1.60404 0.12621 0
M  V30 4542 O 422.906 1.76817 -0.0804706 0
M  V30 4543 C 420.035 3.402 -0.460277 0
M  V30 4544 C 419.121 3.9548 -1.53155 0
M  V30 4545 N 419.512 4.24332 -2.75275 0
M  V30 4546 C 417.81 4.23572 -1.39653 0
M  V30 4547 C 418.511 4.68834 -3.44339 0
M  V30 4548 N 417.487 4.70804 -2.71744 0
M  V30 4549 H 421.289 2.29178 -1.83997 0
M  V30 4550 H 418.803 1.20094 -1.09322 0
M  V30 4551 H 420.8 4.16235 -0.235337 0
M  V30 4552 H 419.46 3.21408 0.4612 0
M  V30 4553 H 420.471 4.13393 -3.11973 0
M  V30 4554 H 417.148 4.14005 -0.539067 0
M  V30 4555 H 418.538 5.00019 -4.4881 0
M  V30 4556 N 421.258 1.00505 1.21394 0
M  V30 4557 C 422.504 0.688793 1.90745 0
M  V30 4558 C 422.837 -0.778486 1.77914 0
M  V30 4559 O 422.112 -1.56433 1.15581 0
M  V30 4560 C 422.395 1.11063 3.42545 0
M  V30 4561 C 422.248 2.63737 3.64367 0
M  V30 4562 C 423.567 0.673059 4.34923 0
M  V30 4563 H 420.686 0.251702 0.692687 0
M  V30 4564 H 423.328 1.25074 1.43026 0
M  V30 4565 H 421.478 0.632508 3.83317 0
M  V30 4566 H 423.15 3.19313 3.32922 0
M  V30 4567 H 421.393 3.05248 3.08231 0
M  V30 4568 H 422.064 2.88305 4.70727 0
M  V30 4569 H 424.54 1.08392 4.01734 0
M  V30 4570 H 423.416 0.996383 5.39781 0
M  V30 4571 H 423.677 -0.425808 4.40045 0
M  V30 4572 N 422.737 -1.36956 0.779787 0
M  V30 4573 C 423.985 -1.99097 0.347079 0
M  V30 4574 C 424.306 -1.62206 -1.08232 0
M  V30 4575 O 423.576 -0.891373 -1.74446 0
M  V30 4576 H 422.156 -0.736409 0.125342 0
M  V30 4577 H 424.818 -1.67308 0.999696 0
M  V30 4578 H 423.914 -3.09107 0.431162 0
M  V30 4579 N 424.215 -0.530993 -1.48385 0
M  V30 4580 C 425.445 -0.00133928 -2.066 0
M  V30 4581 C 425.853 1.28599 -1.38777 0
M  V30 4582 O 425.196 1.77599 -0.469495 0
M  V30 4583 C 425.258 0.292137 -3.58311 0
M  V30 4584 C 424.922 -0.901864 -4.48013 0
M  V30 4585 C 425.919 -1.80053 -4.87726 0
M  V30 4586 C 423.604 -1.10915 -4.89901 0
M  V30 4587 C 425.598 -2.89038 -5.68098 0
M  V30 4588 C 423.285 -2.20213 -5.70043 0
M  V30 4589 C 424.283 -3.09107 -6.0905 0
M  V30 4590 O 423.971 -4.16514 -6.87583 0
M  V30 4591 H 423.703 -0.0308475 -0.675296 0
M  V30 4592 H 426.257 -0.736335 -1.91748 0
M  V30 4593 H 424.487 1.08112 -3.7128 0
M  V30 4594 H 426.176 0.763994 -3.98645 0
M  V30 4595 H 426.942 -1.65234 -4.55986 0
M  V30 4596 H 422.821 -0.426498 -4.59023 0
M  V30 4597 H 426.365 -3.58451 -5.98464 0
M  V30 4598 H 422.262 -2.35016 -6.01197 0
M  V30 4599 H 423.03 -4.14237 -7.05939 0
M  V30 4600 N 425.693 1.55336 -0.266172 0
M  V30 4601 C 426.623 2.25146 0.618981 0
M  V30 4602 C 427.604 1.23845 1.16604 0
M  V30 4603 O 428.789 1.52544 1.20183 0
M  V30 4604 C 425.919 2.96572 1.80728 0
M  V30 4605 C 424.873 4.04726 1.39215 0
M  V30 4606 C 424.199 4.63678 2.66283 0
M  V30 4607 C 425.499 5.19407 0.548942 0
M  V30 4608 H 427.193 2.99377 0.0368116 0
M  V30 4609 H 424.739 1.43991 0.0162651 0
M  V30 4610 H 426.692 3.44116 2.43232 0
M  V30 4611 H 425.416 2.19861 2.41514 0
M  V30 4612 H 424.075 3.57979 0.790351 0
M  V30 4613 H 423.723 3.83646 3.25308 0
M  V30 4614 H 423.423 5.367 2.39222 0
M  V30 4615 H 424.947 5.13967 3.29651 0
M  V30 4616 H 426.361 5.63059 1.07876 0
M  V30 4617 H 424.758 5.98936 0.373593 0
M  V30 4618 H 425.828 4.8295 -0.434394 0
M  V30 4619 N 427.171 -0.0066808 1.57599 0
M  V30 4620 C 428.399 -0.704087 1.94551 0
M  V30 4621 C 428.814 -1.67677 0.867746 0
M  V30 4622 O 428.171 -1.8185 -0.153925 0
M  V30 4623 C 428.222 -1.44177 3.31505 0
M  V30 4624 O 427.943 -0.508097 4.35144 0
M  V30 4625 C 429.444 -2.23429 3.82876 0
M  V30 4626 H 426.664 -0.196523 0.641576 0
M  V30 4627 H 429.208 0.042453 2.04456 0
M  V30 4628 H 427.363 -2.13999 3.22929 0
M  V30 4629 H 427.777 -1.02782 5.14331 0
M  V30 4630 H 429.251 -2.70552 4.8115 0
M  V30 4631 H 429.728 -3.05818 3.15233 0
M  V30 4632 H 430.334 -1.58636 3.94607 0
M  V30 4633 N 428.649 -1.55105 -0.279332 0
M  V30 4634 C 429.898 -1.74618 -1.00952 0
M  V30 4635 C 430.211 -0.551096 -1.87676 0
M  V30 4636 O 431.417 -0.628507 -2.64125 0
M  V30 4637 C 429.873 -3.09025 -1.84476 0
M  V30 4638 C 429.481 -4.36081 -1.0265 0
M  V30 4639 C 431.225 -3.37891 -2.56963 0
M  V30 4640 C 429.132 -5.6153 -1.85576 0
M  V30 4641 H 428.062 -0.650868 -0.38064 0
M  V30 4642 H 430.713 -1.81569 -0.265475 0
M  V30 4643 H 429.095 -2.96095 -2.62952 0
M  V30 4644 H 430.269 -4.59909 -0.286354 0
M  V30 4645 H 428.584 -4.14312 -0.416464 0
M  V30 4646 H 431.181 -4.28822 -3.19399 0
M  V30 4647 H 431.524 -2.57737 -3.26921 0
M  V30 4648 H 432.057 -3.5189 -1.85522 0
M  V30 4649 H 428.796 -6.44413 -1.2005 0
M  V30 4650 H 428.316 -5.41854 -2.57204 0
M  V30 4651 H 429.995 -5.99594 -2.43096 0
M  V30 4652 N 430.127 0.543554 -1.4793 0
M  V30 4653 C 431.375 1.29752 -1.54948 0
M  V30 4654 C 431.696 1.93764 -0.219242 0
M  V30 4655 O 430.966 1.80639 0.75805 0
M  V30 4656 H 429.546 0.481874 -0.570795 0
M  V30 4657 H 432.208 0.633636 -1.84312 0
M  V30 4658 H 431.304 2.08392 -2.32334 0
M  V30 4659 N 431.605 1.3629 0.791371 0
M  V30 4660 C 432.853 1.30154 1.5461 0
M  V30 4661 C 433.174 -0.119409 1.94634 0
M  V30 4662 O 432.444 -1.05924 1.64794 0
M  V30 4663 H 431.024 0.478784 0.573389 0
M  V30 4664 H 433.686 1.70565 0.94306 0
M  V30 4665 H 432.782 1.92762 2.45457 0
M  V30 4666 N 433.083 -1.0153 1.20538 0
M  V30 4667 C 434.332 -1.74558 1.01057 0
M  V30 4668 C 434.645 -1.90168 -0.457756 0
M  V30 4669 O 435.851 -2.60301 -0.771722 0
M  V30 4670 C 434.307 -3.13963 1.75941 0
M  V30 4671 C 433.915 -3.06361 3.26875 0
M  V30 4672 C 435.659 -3.91191 1.64832 0
M  V30 4673 C 433.566 -4.40782 3.94291 0
M  V30 4674 H 432.496 -0.654417 0.374505 0
M  V30 4675 H 435.147 -1.13521 1.44171 0
M  V30 4676 H 433.529 -3.75549 1.25614 0
M  V30 4677 H 434.703 -2.54074 3.84425 0
M  V30 4678 H 433.018 -2.42625 3.38411 0
M  V30 4679 H 435.615 -4.90644 2.12539 0
M  V30 4680 H 435.958 -4.11884 0.604745 0
M  V30 4681 H 436.491 -3.36236 2.12579 0
M  V30 4682 H 433.23 -4.25292 4.98805 0
M  V30 4683 H 432.75 -4.9307 3.41529 0
M  V30 4684 H 434.429 -5.09621 3.98617 0
M  V30 4685 N 434.561 -1.01147 -1.20859 0
M  V30 4686 C 435.471 -0.58686 -2.27141 0
M  V30 4687 C 436.487 0.373198 -1.69951 0
M  V30 4688 O 437.663 0.235423 -2.00019 0
M  V30 4689 C 434.728 0.0733602 -3.46622 0
M  V30 4690 C 433.789 -0.931995 -4.19061 0
M  V30 4691 C 433.022 -0.303186 -5.32838 0
M  V30 4692 O 433.245 0.898395 -5.63281 0
M  V30 4693 O 432.179 -1.01735 -5.9324 0
M  V30 4694 H 436.005 -1.47155 -2.65667 0
M  V30 4695 H 433.59 -0.780689 -1.2738 0
M  V30 4696 H 435.472 0.442333 -4.19072 0
M  V30 4697 H 434.147 0.932329 -3.09983 0
M  V30 4698 H 433.054 -1.35224 -3.48805 0
M  V30 4699 H 434.387 -1.76076 -4.59628 0
M  V30 4700 N 436.039 1.36541 -0.78704 0
M  V30 4701 C 437.264 2.0409 -0.369053 0
M  V30 4702 C 437.689 1.58957 1.00569 0
M  V30 4703 O 437.047 0.756926 1.64743 0
M  V30 4704 C 437.095 3.57924 -0.438466 0
M  V30 4705 O 436.199 4.08642 0.555479 0
M  V30 4706 H 435.54 0.645142 -0.157122 0
M  V30 4707 H 438.07 1.74545 -1.06749 0
M  V30 4708 H 438.08 4.06887 -0.301218 0
M  V30 4709 H 436.755 3.90127 -1.44132 0
M  V30 4710 H 435.332 3.70958 0.380088 0
M  V30 4711 N 437.518 0.538854 1.48102 0
M  V30 4712 C 438.795 -0.0568108 1.95517 0
M  V30 4713 C 439.175 -1.50408 1.48124 0
M  V30 4714 O 438.523 -2.17133 0.711727 0
M  V30 4715 C 438.733 0.0696262 3.48931 0
M  V30 4716 C 440.081 -0.0851202 4.24515 0
M  V30 4717 O 441.105 -0.0037347 3.562 0
M  V30 4718 O 439.964 -0.257025 5.45895 0
M  V30 4719 H 437.058 -0.0743695 0.823649 0
M  V30 4720 H 439.604 0.604081 1.58584 0
M  V30 4721 H 438.376 1.07744 3.76174 0
M  V30 4722 H 437.999 -0.629714 3.92582 0
M  V30 4723 N 438.996 -1.55193 0.274407 0
M  V30 4724 C 440.243 -1.99581 -0.342579 0
M  V30 4725 C 440.571 -1.1628 -1.55914 0
M  V30 4726 O 439.826 -0.22029 -1.94456 0
M  V30 4727 C 440.125 -3.49019 -0.769458 0
M  V30 4728 C 439.791 -4.49598 0.342389 0
M  V30 4729 C 438.453 -4.76821 0.647686 0
M  V30 4730 C 440.805 -5.0964 1.09163 0
M  V30 4731 C 438.133 -5.61354 1.70581 0
M  V30 4732 C 440.485 -5.95323 2.13948 0
M  V30 4733 C 439.149 -6.20867 2.45113 0
M  V30 4734 H 438.419 -0.730319 -0.125358 0
M  V30 4735 H 441.066 -1.87529 0.387971 0
M  V30 4736 H 439.371 -3.58544 -1.57967 0
M  V30 4737 H 441.068 -3.8077 -1.25757 0
M  V30 4738 H 437.658 -4.28496 0.094318 0
M  V30 4739 H 441.842 -4.88632 0.869024 0
M  V30 4740 H 437.098 -5.79392 1.9523 0
M  V30 4741 H 441.272 -6.40881 2.72478 0
M  V30 4742 H 438.899 -6.86162 3.27239 0
M  V30 4743 N 440.474 -0.00167713 -1.576 0
M  V30 4744 C 441.704 0.692754 -1.94639 0
M  V30 4745 C 442.112 1.67744 -0.87513 0
M  V30 4746 O 441.455 1.8305 0.154382 0
M  V30 4747 C 441.517 1.47881 -3.27676 0
M  V30 4748 C 441.181 0.655518 -4.52274 0
M  V30 4749 C 442.178 -0.0575214 -5.19868 0
M  V30 4750 C 439.863 0.600994 -4.98692 0
M  V30 4751 C 441.857 -0.814052 -6.3218 0
M  V30 4752 C 439.544 -0.15926 -6.10892 0
M  V30 4753 C 440.542 -0.865515 -6.77494 0
M  V30 4754 O 440.23 -1.61336 -7.87544 0
M  V30 4755 H 439.962 0.197792 -0.646417 0
M  V30 4756 H 442.516 -0.049423 -2.05341 0
M  V30 4757 H 440.746 2.2655 -3.13388 0
M  V30 4758 H 442.435 2.05874 -3.49816 0
M  V30 4759 H 443.201 -0.0245611 -4.84994 0
M  V30 4760 H 439.08 1.14025 -4.46676 0
M  V30 4761 H 442.624 -1.36584 -6.84098 0
M  V30 4762 H 438.521 -0.194035 -6.45208 0
M  V30 4763 H 439.289 -1.53025 -8.04068 0
M  V30 4764 N 441.952 1.55251 0.271103 0
M  V30 4765 C 442.862 1.9136 1.35714 0
M  V30 4766 C 443.878 0.811075 1.5394 0
M  V30 4767 O 445.054 1.11031 1.6803 0
M  V30 4768 C 442.119 2.1798 2.69603 0
M  V30 4769 C 441.18 3.4153 2.60107 0
M  V30 4770 C 440.413 3.66871 3.8761 0
M  V30 4771 O 440.636 2.94689 4.8838 0
M  V30 4772 O 439.57 4.60405 3.87699 0
M  V30 4773 H 443.396 2.83815 1.08088 0
M  V30 4774 H 440.981 1.41821 0.469792 0
M  V30 4775 H 442.863 2.36518 3.48765 0
M  V30 4776 H 441.538 1.28708 2.97012 0
M  V30 4777 H 440.445 3.28325 1.79314 0
M  V30 4778 H 441.778 4.31027 2.37647 0
M  V30 4779 N 443.43 -0.535701 1.48216 0
M  V30 4780 C 444.678 -1.28928 1.55634 0
M  V30 4781 C 444.999 -1.93645 0.229514 0
M  V30 4782 O 444.269 -1.81038 -0.74846 0
M  V30 4783 H 442.849 -0.47884 0.573342 0
M  V30 4784 H 445.511 -0.623853 1.84646 0
M  V30 4785 H 444.607 -2.07157 2.33436 0
M  V30 4786 N 444.908 -1.36708 -0.784132 0
M  V30 4787 C 446.319 -1.27947 -1.35965 0
M  V30 4788 C 446.67 0.0784013 -1.96043 0
M  V30 4789 O 445.795 0.979989 -1.92938 0
M  V30 4790 C 446.39 -2.31689 -2.47195 0
M  V30 4791 C 444.949 -2.26601 -3.00548 0
M  V30 4792 C 444.096 -2.16184 -1.73666 0
M  V30 4793 H 447.047 -1.4751 -0.585358 0
M  V30 4794 H 447.068 -1.95638 -3.26352 0
M  V30 4795 H 446.58 -3.30506 -2.03439 0
M  V30 4796 H 444.681 -1.31268 -3.48711 0
M  V30 4797 H 444.794 -3.19508 -3.57004 0
M  V30 4798 H 443.158 -1.62524 -1.96107 0
M  V30 4799 H 443.941 -3.16896 -1.32031 0
M  V30 4800 N 446.386 1.0089 -1.21074 0
M  V30 4801 C 447.316 2.1145 -0.990523 0
M  V30 4802 C 448.297 1.69897 0.0831699 0
M  V30 4803 O 449.482 1.94052 -0.0758853 0
M  V30 4804 C 446.612 3.42914 -0.550177 0
M  V30 4805 C 445.566 3.98244 -1.56799 0
M  V30 4806 C 444.892 5.25568 -0.984013 0
M  V30 4807 C 446.192 4.30752 -2.95381 0
M  V30 4808 H 447.886 2.3013 -1.91521 0
M  V30 4809 H 445.432 1.10592 -0.92225 0
M  V30 4810 H 447.385 4.19653 -0.383305 0
M  V30 4811 H 446.109 3.24014 0.41015 0
M  V30 4812 H 444.768 3.23621 -1.72236 0
M  V30 4813 H 444.416 5.02998 -0.0155216 0
M  V30 4814 H 444.116 5.63551 -1.66384 0
M  V30 4815 H 445.64 6.04955 -0.828378 0
M  V30 4816 H 447.054 4.98349 -2.8341 0
M  V30 4817 H 445.451 4.79869 -3.60341 0
M  V30 4818 H 446.521 3.39192 -3.46521 0
M  V30 4819 N 447.864 1.01787 1.20321 0
M  V30 4820 C 449.092 0.727194 1.937 0
M  V30 4821 C 449.507 -0.712305 1.74848 0
M  V30 4822 O 448.864 -1.48327 1.06327 0
M  V30 4823 C 448.915 1.05497 3.45764 0
M  V30 4824 O 448.636 2.43794 3.64 0
M  V30 4825 C 450.137 0.785534 4.36285 0
M  V30 4826 H 447.357 0.266939 0.615617 0
M  V30 4827 H 449.901 1.35939 1.52777 0
M  V30 4828 H 448.056 0.468158 3.84561 0
M  V30 4829 H 448.47 2.55656 4.57974 0
M  V30 4830 H 449.944 1.06495 5.4163 0
M  V30 4831 H 450.421 -0.280273 4.38305 0
M  V30 4832 H 451.027 1.35456 4.03152 0
M  V30 4833 N 449.342 -1.36122 0.79427 0
M  V30 4834 C 450.572 -2.03067 0.380437 0
M  V30 4835 C 450.98 -1.60018 -1.00949 0
M  V30 4836 O 450.323 -0.787425 -1.65968 0
M  V30 4837 C 450.385 -3.57587 0.37034 0
M  V30 4838 C 450.049 -4.23855 1.70867 0
M  V30 4839 C 451.046 -4.46404 2.66496 0
M  V30 4840 C 448.731 -4.61229 1.9893 0
M  V30 4841 C 450.725 -5.05412 3.88378 0
M  V30 4842 C 448.412 -5.19953 3.21079 0
M  V30 4843 C 449.41 -5.41985 4.15621 0
M  V30 4844 O 449.098 -5.99475 5.35616 0
M  V30 4845 H 448.83 -0.658168 0.154243 0
M  V30 4846 H 451.384 -1.7498 1.0757 0
M  V30 4847 H 449.614 -3.84814 -0.381444 0
M  V30 4848 H 451.303 -4.05895 -0.0194894 0
M  V30 4849 H 452.069 -4.17921 2.46103 0
M  V30 4850 H 447.948 -4.43402 1.26158 0
M  V30 4851 H 451.492 -5.22524 4.62185 0
M  V30 4852 H 447.389 -5.47862 3.41347 0
M  V30 4853 H 448.157 -6.17937 5.36745 0
M  V30 4854 N 450.82 -0.546701 -1.47814 0
M  V30 4855 C 451.73 0.21026 -2.33656 0
M  V30 4856 C 452.746 0.922413 -1.47538 0
M  V30 4857 O 453.922 0.893652 -1.80488 0
M  V30 4858 C 450.987 1.23348 -3.24016 0
M  V30 4859 C 450.048 0.529883 -4.26017 0
M  V30 4860 C 449.281 1.50435 -5.12059 0
M  V30 4861 O 449.504 2.73837 -5.00369 0
M  V30 4862 O 448.438 1.03459 -5.92942 0
M  V30 4863 H 452.264 -0.493605 -2.99662 0
M  V30 4864 H 449.849 -0.307427 -1.46203 0
M  V30 4865 H 451.731 1.82438 -3.79861 0
M  V30 4866 H 450.406 1.91945 -2.60651 0
M  V30 4867 H 449.313 -0.101948 -3.73961 0
M  V30 4868 H 450.646 -0.11445 -4.92067 0
M  V30 4869 N 452.299 1.55045 -0.282633 0
M  V30 4870 C 453.246 2.22822 0.601566 0
M  V30 4871 C 454.216 1.20431 1.14392 0
M  V30 4872 O 455.401 1.48996 1.19184 0
M  V30 4873 C 452.541 2.95873 1.77632 0
M  V30 4874 C 451.654 4.12999 1.26711 0
M  V30 4875 C 450.789 4.73676 2.40426 0
M  V30 4876 C 449.828 5.82981 1.86545 0
M  V30 4877 N 448.965 6.3769 2.93762 0
M  V30 4878 H 453.805 2.97995 0.0169528 0
M  V30 4879 H 451.342 1.471 -0.00339964 0
M  V30 4880 H 453.3 3.36447 2.46697 0
M  V30 4881 H 451.93 2.2311 2.33285 0
M  V30 4882 H 450.982 3.77494 0.469314 0
M  V30 4883 H 452.294 4.91803 0.832518 0
M  V30 4884 H 451.448 5.17008 3.17471 0
M  V30 4885 H 450.187 3.94164 2.87203 0
M  V30 4886 H 449.192 5.39092 1.07983 0
M  V30 4887 H 450.417 6.64366 1.40694 0
M  V30 4888 H 448.363 5.61069 3.39908 0
M  V30 4889 H 448.28 7.11788 2.54744 0
M  V30 4890 H 449.548 6.8568 3.7076 0
M  V30 4891 N 453.777 0.010035 1.57597 0
M  V30 4892 C 454.707 -0.976857 2.12084 0
M  V30 4893 C 455.688 -1.35191 1.03235 0
M  V30 4894 O 456.873 -1.43389 1.3097 0
M  V30 4895 C 454.003 -2.26548 2.63236 0
M  V30 4896 C 452.957 -2.03175 3.76701 0
M  V30 4897 C 452.283 -3.38138 4.14206 0
M  V30 4898 C 453.583 -1.38625 5.03568 0
M  V30 4899 H 455.277 -0.523145 2.94794 0
M  V30 4900 H 452.823 -0.250195 1.4181 0
M  V30 4901 H 454.776 -2.95952 2.99984 0
M  V30 4902 H 453.5 -2.74051 1.77661 0
M  V30 4903 H 452.159 -1.36195 3.40362 0
M  V30 4904 H 451.807 -3.83363 3.25641 0
M  V30 4905 H 451.507 -3.23312 4.90656 0
M  V30 4906 H 453.031 -4.08841 4.53521 0
M  V30 4907 H 454.445 -1.98 5.38023 0
M  V30 4908 H 452.842 -1.34256 5.84889 0
M  V30 4909 H 453.912 -0.356722 4.83586 0
M  V30 4910 N 455.255 -1.55392 -0.262866 0
M  V30 4911 C 456.203 -1.8977 -1.345 0
M  V30 4912 C 457.197 -0.775063 -1.50629 0
M  V30 4913 O 458.403 -0.959519 -1.52293 0
M  V30 4914 H 454.778 -0.602467 -0.450041 0
M  V30 4915 H 456.749 -2.80147 -1.02762 0
M  V30 4916 C 455.498 -2.19501 -2.69657 0
M  V30 4917 H 454.821 -3.05378 -2.5804 0
M  V30 4918 H 456.261 -2.47469 -3.44289 0
M  V30 4919 C 454.72 -1.00597 -3.21531 0
M  V30 4920 O 455.25 -0.245768 -4.00947 0
M  V30 4921 N 453.456 -0.800911 -2.79345 0
M  V30 4922 H 453.003 -1.42079 -2.14875 0
M  V30 4923 H 452.961 -0.00697996 -3.14399 0
M  V30 4924 N 456.733 0.527833 -1.48498 0
M  V30 4925 C 457.683 1.62844 -1.5958 0
M  V30 4926 C 458.667 1.54397 -0.452809 0
M  V30 4927 O 459.859 1.62381 -0.704364 0
M  V30 4928 C 456.988 3.01557 -1.64067 0
M  V30 4929 C 456.074 3.151 -2.83853 0
M  V30 4930 N 456.465 2.9861 -4.08247 0
M  V30 4931 C 454.763 3.46158 -2.8123 0
M  V30 4932 C 455.464 3.15626 -4.88626 0
M  V30 4933 N 454.44 3.43298 -4.21483 0
M  V30 4934 H 458.242 1.48708 -2.53502 0
M  V30 4935 H 455.756 0.733343 -1.44899 0
M  V30 4936 H 457.753 3.8062 -1.70101 0
M  V30 4937 H 456.413 3.16783 -0.712636 0
M  V30 4938 H 457.424 2.75329 -4.3865 0
M  V30 4939 H 454.101 3.67728 -1.97692 0
M  V30 4940 H 455.491 3.07596 -5.97356 0
M  V30 4941 N 458.211 1.37122 0.776871 0
M  V30 4942 C 459.488 1.22586 1.52421 0
M  V30 4943 C 459.868 -0.182726 2.10308 0
M  V30 4944 O 459.216 -1.18979 1.9508 0
M  V30 4945 C 459.426 2.31782 2.60918 0
M  V30 4946 C 460.774 2.69071 3.2846 0
M  V30 4947 O 461.798 2.3092 2.71209 0
M  V30 4948 O 460.657 3.3478 4.31954 0
M  V30 4949 H 457.751 0.478045 0.674835 0
M  V30 4950 H 460.297 1.48888 0.814275 0
M  V30 4951 H 459.069 3.26131 2.16227 0
M  V30 4952 H 458.692 2.06916 3.39517 0
M  V30 4953 N 459.689 -1.00246 1.21608 0
M  V30 4954 C 460.619 -2.10921 1.00172 0
M  V30 4955 C 461.6 -1.69938 -0.0741587 0
M  V30 4956 O 462.785 -1.94009 0.0861753 0
M  V30 4957 C 459.915 -3.42618 0.568355 0
M  V30 4958 C 458.869 -3.97407 1.58909 0
M  V30 4959 C 458.195 -5.25038 1.01187 0
M  V30 4960 C 459.495 -4.2918 2.97661 0
M  V30 4961 H 461.189 -2.29112 1.92739 0
M  V30 4962 H 458.735 -1.10101 0.928102 0
M  V30 4963 H 460.688 -4.19444 0.405555 0
M  V30 4964 H 459.412 -3.24227 -0.392961 0
M  V30 4965 H 458.071 -3.22703 1.73949 0
M  V30 4966 H 457.719 -5.02982 0.0421965 0
M  V30 4967 H 457.419 -5.62661 1.6937 0
M  V30 4968 H 458.943 -6.04507 0.860448 0
M  V30 4969 H 460.357 -4.96839 2.86049 0
M  V30 4970 H 458.754 -4.77952 3.6288 0
M  V30 4971 H 459.824 -3.3735 3.48315 0
M  V30 4972 N 461.167 -1.02423 -1.1978 0
M  V30 4973 C 462.397 -0.736387 -1.93031 0
M  V30 4974 C 462.805 0.708023 -1.75453 0
M  V30 4975 O 462.148 1.4927 -1.07071 0
M  V30 4976 C 462.21 -1.00194 -3.45255 0
M  V30 4977 C 461.874 -2.43698 -3.86601 0
M  V30 4978 C 462.871 -3.41814 -3.91738 0
M  V30 4979 C 460.556 -2.77975 -4.18372 0
M  V30 4980 C 462.55 -4.72265 -4.28071 0
M  V30 4981 C 460.237 -4.08636 -4.54378 0
M  V30 4982 C 461.235 -5.05592 -4.59201 0
M  V30 4983 O 460.923 -6.33914 -4.94376 0
M  V30 4984 H 460.655 -0.269116 -0.620123 0
M  V30 4985 H 463.209 -1.37043 -1.52998 0
M  V30 4986 H 461.439 -0.310747 -3.85449 0
M  V30 4987 H 463.128 -0.704488 -3.9974 0
M  V30 4988 H 463.894 -3.16671 -3.67348 0
M  V30 4989 H 459.773 -2.0319 -4.13805 0
M  V30 4990 H 463.317 -5.4794 -4.3175 0
M  V30 4991 H 459.214 -4.33556 -4.78226 0
M  V30 4992 H 459.982 -6.38317 -5.12341 0
M  V30 4993 N 462.645 1.35699 -0.801477 0
M  V30 4994 C 463.891 1.99643 -0.389135 0
M  V30 4995 C 464.246 1.62447 1.03095 0
M  V30 4996 O 463.539 0.875064 1.7045 0
M  V30 4997 C 463.733 3.53828 -0.504041 0
M  V30 4998 C 463.562 4.06 -1.93375 0
M  V30 4999 C 462.332 4.35592 -2.561 0
M  V30 5000 C 464.53 4.24905 -2.89759 0
M  V30 5001 N 462.512 4.73663 -3.90534 0
M  V30 5002 C 463.883 4.65914 -4.09052 0
M  V30 5003 C 465.938 4.07101 -2.86658 0
M  V30 5004 C 464.641 4.90984 -5.25669 0
M  V30 5005 C 466.667 4.33324 -4.02472 0
M  V30 5006 C 466.029 4.74601 -5.20512 0
M  V30 5007 H 462.128 0.758552 -0.19006 0
M  V30 5008 H 464.712 1.64493 -1.04164 0
M  V30 5009 H 462.883 3.88219 0.118437 0
M  V30 5010 H 464.615 4.04645 -0.0667794 0
M  V30 5011 H 461.37 4.25728 -2.07492 0
M  V30 5012 H 461.794 4.96965 -4.59734 0
M  V30 5013 H 466.436 3.74335 -1.96552 0
M  V30 5014 H 464.154 5.22626 -6.1635 0
M  V30 5015 H 467.74 4.21107 -4.01447 0
M  V30 5016 H 466.62 4.94497 -6.08639 0
M  V30 5017 N 464.123 0.554532 1.47522 0
M  V30 5018 C 465.055 -0.232106 2.28022 0
M  V30 5019 C 466.068 -0.881865 1.36847 0
M  V30 5020 O 467.257 -0.756168 1.61692 0
M  V30 5021 C 464.357 -1.34604 3.11022 0
M  V30 5022 C 463.53 -0.793582 4.30141 0
M  V30 5023 C 462.589 -1.79168 4.94758 0
M  V30 5024 O 461.615 -1.33886 5.5323 0
M  V30 5025 N 462.817 -3.12495 4.89211 0
M  V30 5026 H 465.582 0.458407 2.96173 0
M  V30 5027 H 463.143 0.390433 1.57122 0
M  V30 5028 H 465.135 -2.01243 3.51118 0
M  V30 5029 H 463.705 -1.93983 2.45131 0
M  V30 5030 H 462.925 0.0495025 3.94169 0
M  V30 5031 H 464.213 -0.403776 5.07195 0
M  V30 5032 H 463.611 -3.51931 4.42901 0
M  V30 5033 H 462.168 -3.74698 5.33333 0
M  V30 5034 N 465.601 -1.54893 0.290851 0
M  V30 5035 C 466.85 -1.99111 -0.322113 0
M  V30 5036 C 467.163 -1.18283 -1.55784 0
M  V30 5037 O 468.369 -1.5272 -2.24475 0
M  V30 5038 C 466.825 -3.54442 -0.624438 0
M  V30 5039 C 466.433 -4.44066 0.592373 0
M  V30 5040 C 468.177 -4.07211 -1.19916 0
M  V30 5041 C 466.084 -5.90812 0.263762 0
M  V30 5042 H 465.014 -0.743712 -0.124133 0
M  V30 5043 H 467.665 -1.79132 0.39797 0
M  V30 5044 H 466.047 -3.70281 -1.40384 0
M  V30 5045 H 467.221 -4.39999 1.36886 0
M  V30 5046 H 465.536 -4.02015 1.08502 0
M  V30 5047 H 468.133 -5.14407 -1.45909 0
M  V30 5048 H 468.476 -3.57196 -2.13815 0
M  V30 5049 H 469.009 -3.94873 -0.481687 0
M  V30 5050 H 465.748 -6.44955 1.17105 0
M  V30 5051 H 465.268 -5.97911 -0.475655 0
M  V30 5052 H 466.947 -6.46852 -0.138354 0
M  V30 5053 N 467.08 -0.0183926 -1.57589 0
M  V30 5054 C 468.357 0.700621 -1.82622 0
M  V30 5055 C 468.737 1.90951 -0.90005 0
M  V30 5056 O 468.085 2.28452 0.0469145 0
M  V30 5057 C 468.295 1.08899 -3.31575 0
M  V30 5058 C 469.643 1.48514 -3.9778 0
M  V30 5059 O 470.667 1.18227 -3.36007 0
M  V30 5060 O 469.526 2.04903 -5.06633 0
M  V30 5061 H 466.62 0.342743 -0.752633 0
M  V30 5062 H 469.166 -0.0452548 -1.6964 0
M  V30 5063 H 467.938 0.228113 -3.90635 0
M  V30 5064 H 467.561 1.89338 -3.49624 0
M  V30 5065 N 468.558 1.5553 0.254621 0
M  V30 5066 C 469.488 1.9268 1.31897 0
M  V30 5067 C 470.469 0.790797 1.506 0
M  V30 5068 O 471.654 1.05045 1.63337 0
M  V30 5069 C 468.784 2.21477 2.67517 0
M  V30 5070 C 467.738 3.37256 2.63519 0
M  V30 5071 C 467.064 3.51576 4.02862 0
M  V30 5072 C 468.364 4.73157 2.21179 0
M  V30 5073 H 470.058 2.81832 1.01051 0
M  V30 5074 H 467.604 1.35599 0.484662 0
M  V30 5075 H 469.557 2.46055 3.42104 0
M  V30 5076 H 468.281 1.29144 2.99982 0
M  V30 5077 H 466.94 3.12675 1.9139 0
M  V30 5078 H 466.588 2.56676 4.32581 0
M  V30 5079 H 466.288 4.2943 4.01078 0
M  V30 5080 H 467.812 3.78467 4.79161 0
M  V30 5081 H 469.226 4.97158 2.85494 0
M  V30 5082 H 467.623 5.54058 2.30521 0
M  V30 5083 H 468.693 4.70739 1.16332 0
M  V30 5084 N 470.036 -0.519951 1.48776 0
M  V30 5085 C 471.313 -1.28123 1.47797 0
M  V30 5086 C 471.693 -2.10196 0.195157 0
M  V30 5087 O 471.041 -2.13167 -0.822925 0
M  V30 5088 C 471.251 -2.15413 2.74587 0
M  V30 5089 C 472.599 -2.75225 3.23321 0
M  V30 5090 O 473.623 -2.25694 2.75574 0
M  V30 5091 O 472.482 -3.65346 4.06429 0
M  V30 5092 H 469.576 -0.578793 0.590701 0
M  V30 5093 H 472.122 -0.535779 1.6102 0
M  V30 5094 H 470.894 -1.54617 3.59457 0
M  V30 5095 H 470.517 -2.97186 2.64132 0
M  V30 5096 N 471.514 -1.37532 -0.769588 0
M  V30 5097 C 472.763 -1.32183 -1.5235 0
M  V30 5098 C 473.076 0.0906555 -1.9539 0
M  V30 5099 O 474.282 0.266628 -2.70188 0
M  V30 5100 C 472.738 -2.32029 -2.75119 0
M  V30 5101 C 472.346 -3.78816 -2.3917 0
M  V30 5102 C 474.09 -2.35694 -3.53056 0
M  V30 5103 C 471.997 -4.70388 -3.58453 0
M  V30 5104 H 470.927 -0.491275 -0.571984 0
M  V30 5105 H 473.578 -1.63004 -0.842739 0
M  V30 5106 H 471.96 -1.94229 -3.45096 0
M  V30 5107 H 473.134 -4.25466 -1.76962 0
M  V30 5108 H 471.449 -3.78117 -1.74402 0
M  V30 5109 H 474.046 -3.01312 -4.41718 0
M  V30 5110 H 474.389 -1.37117 -3.93071 0
M  V30 5111 H 474.922 -2.72212 -2.90078 0
M  V30 5112 H 471.661 -5.70102 -3.23518 0
M  V30 5113 H 471.181 -4.28442 -4.19758 0
M  V30 5114 H 472.86 -4.87628 -4.25239 0
M  V30 5115 N 472.992 0.995999 -1.22138 0
M  V30 5116 C 473.942 2.06988 -0.956042 0
M  V30 5117 C 474.926 1.60636 0.0921576 0
M  V30 5118 O 476.118 1.76607 -0.117958 0
M  V30 5119 C 473.247 3.39148 -0.532335 0
M  V30 5120 C 472.333 3.92142 -1.61509 0
M  V30 5121 N 472.724 4.18397 -2.84214 0
M  V30 5122 C 471.022 4.20514 -1.48606 0
M  V30 5123 C 471.723 4.61425 -3.54206 0
M  V30 5124 N 470.699 4.64934 -2.81669 0
M  V30 5125 H 474.501 2.25223 -1.88816 0
M  V30 5126 H 472.015 1.17748 -1.11845 0
M  V30 5127 H 474.012 4.15642 -0.323574 0
M  V30 5128 H 472.672 3.22314 0.392921 0
M  V30 5129 H 473.683 4.06682 -3.20671 0
M  V30 5130 H 470.36 4.12769 -0.626762 0
M  V30 5131 H 471.75 4.90387 -4.59315 0
M  V30 5132 N 474.47 1.03057 1.19235 0
M  V30 5133 C 475.717 0.728019 1.88961 0
M  V30 5134 C 476.045 -0.743515 1.79728 0
M  V30 5135 O 475.3 -1.55729 1.1852 0
M  V30 5136 C 475.599 1.1268 3.39172 0
M  V30 5137 C 475.265 2.5969 3.68608 0
M  V30 5138 C 473.927 2.99854 3.76352 0
M  V30 5139 C 476.279 3.54793 3.81801 0
M  V30 5140 C 473.607 4.34031 3.94758 0
M  V30 5141 C 475.959 4.88675 4.0172 0
M  V30 5142 C 474.623 5.28526 4.07697 0
M  V30 5143 H 473.893 0.266401 0.691456 0
M  V30 5144 H 476.54 1.29373 1.41191 0
M  V30 5145 H 474.845 0.479722 3.88852 0
M  V30 5146 H 476.542 0.870203 3.91444 0
M  V30 5147 H 473.132 2.27575 3.63191 0
M  V30 5148 H 477.316 3.24914 3.7516 0
M  V30 5149 H 472.572 4.6444 3.97625 0
M  V30 5150 H 476.746 5.6228 4.1087 0
M  V30 5151 H 474.373 6.32506 4.21712 0
M  V30 5152 N 475.948 -1.35272 0.808662 0
M  V30 5153 C 477.196 -1.98316 0.389233 0
M  V30 5154 C 477.517 -1.64465 -1.04767 0
M  V30 5155 O 476.787 -0.928175 -1.72516 0
M  V30 5156 H 475.367 -0.733585 0.140935 0
M  V30 5157 H 478.029 -1.6515 1.03496 0
M  V30 5158 H 477.125 -3.08123 0.496631 0
M  V30 5159 N 477.426 -0.562348 -1.47226 0
M  V30 5160 C 478.373 0.182461 -2.30078 0
M  V30 5161 C 479.343 0.903503 -1.39377 0
M  V30 5162 O 480.528 0.898188 -1.68337 0
M  V30 5163 C 477.668 1.20322 -3.23445 0
M  V30 5164 C 476.781 0.487717 -4.29238 0
M  V30 5165 C 475.916 1.49422 -5.09752 0
M  V30 5166 C 474.955 0.763976 -6.07314 0
M  V30 5167 N 474.092 1.71755 -6.80768 0
M  V30 5168 H 478.932 -0.530169 -2.93246 0
M  V30 5169 H 476.469 -0.273276 -1.44539 0
M  V30 5170 H 478.427 1.80768 -3.76004 0
M  V30 5171 H 477.057 1.88382 -2.6213 0
M  V30 5172 H 476.109 -0.231374 -3.79696 0
M  V30 5173 H 477.421 -0.0841003 -4.98729 0
M  V30 5174 H 476.575 2.17206 -5.66486 0
M  V30 5175 H 475.314 2.09995 -4.40174 0
M  V30 5176 H 474.319 0.0722344 -5.49753 0
M  V30 5177 H 475.544 0.16391 -6.78902 0
M  V30 5178 H 473.49 2.31177 -6.13916 0
M  V30 5179 H 473.407 1.19802 -7.46447 0
M  V30 5180 H 474.675 2.38638 -7.42073 0
M  V30 5181 N 478.904 1.54736 -0.299062 0
M  V30 5182 C 480.134 2.04215 0.312992 0
M  V30 5183 C 480.542 1.17596 1.48215 0
M  V30 5184 O 479.885 0.193835 1.82674 0
M  V30 5185 C 479.947 3.49696 0.833862 0
M  V30 5186 C 479.611 4.56518 -0.20977 0
M  V30 5187 C 480.608 5.09442 -1.03756 0
M  V30 5188 C 478.293 5.01073 -0.35091 0
M  V30 5189 C 480.287 6.05459 -1.99244 0
M  V30 5190 C 477.974 5.9691 -1.30924 0
M  V30 5191 C 478.972 6.48987 -2.1285 0
M  V30 5192 O 478.66 7.42947 -3.07059 0
M  V30 5193 H 478.392 0.672128 0.0722494 0
M  V30 5194 H 480.946 2.00718 -0.436043 0
M  V30 5195 H 479.176 3.5051 1.63339 0
M  V30 5196 H 480.865 3.82381 1.36159 0
M  V30 5197 H 481.631 4.75816 -0.939376 0
M  V30 5198 H 477.51 4.60168 0.276813 0
M  V30 5199 H 481.054 6.46031 -2.63229 0
M  V30 5200 H 476.951 6.29953 -1.40815 0
M  V30 5201 H 477.719 7.60743 -3.02015 0
M  V30 5202 N 480.382 0.0267497 1.57577 0
M  V30 5203 C 481.628 -0.653371 1.91987 0
M  V30 5204 C 481.961 -1.71915 0.903263 0
M  V30 5205 O 481.236 -1.94358 -0.0743387 0
M  V30 5206 C 481.519 -1.272 3.36886 0
M  V30 5207 C 481.372 -0.215938 4.49281 0
M  V30 5208 C 482.691 -2.19069 3.81703 0
M  V30 5209 H 479.81 -0.236047 0.698177 0
M  V30 5210 H 482.452 0.0835236 1.89816 0
M  V30 5211 H 480.602 -1.90005 3.38866 0
M  V30 5212 H 482.274 0.41449 4.59434 0
M  V30 5213 H 480.517 0.458855 4.31366 0
M  V30 5214 H 481.188 -0.688347 5.47691 0
M  V30 5215 H 483.664 -1.66253 3.81444 0
M  V30 5216 H 482.54 -2.59307 4.83788 0
M  V30 5217 H 482.801 -3.08087 3.17072 0
M  V30 5218 N 481.861 -1.55662 -0.24637 0
M  V30 5219 C 482.794 -1.85332 -1.33143 0
M  V30 5220 C 483.772 -0.708464 -1.46354 0
M  V30 5221 O 484.956 -0.954274 -1.6256 0
M  V30 5222 C 482.083 -2.0385 -2.70487 0
M  V30 5223 C 481.129 -3.26488 -2.74423 0
M  V30 5224 S 481.962 -4.83124 -2.30979 0
M  V30 5225 C 483.118 -5.04647 -3.70246 0
M  V30 5226 H 483.351 -2.77077 -1.07777 0
M  V30 5227 H 480.884 -1.47776 -0.44738 0
M  V30 5228 H 482.842 -2.15202 -3.49569 0
M  V30 5229 H 481.503 -1.12947 -2.9309 0
M  V30 5230 H 480.696 -3.36413 -3.7529 0
M  V30 5231 H 480.298 -3.13864 -2.03385 0
M  V30 5232 H 482.59 -4.92023 -4.65746 0
M  V30 5233 H 483.533 -6.06625 -3.65255 0
M  V30 5234 H 483.941 -4.32491 -3.62784 0
M  V30 5235 N 483.339 0.512053 -1.4905 0
M  V30 5236 C 484.271 1.63121 -1.6101 0
M  V30 5237 C 485.284 1.55145 -0.493352 0
M  V30 5238 O 486.473 1.61278 -0.764955 0
M  V30 5239 C 483.573 3.01863 -1.54052 0
M  V30 5240 C 482.746 3.35138 -2.81072 0
M  V30 5241 C 481.805 4.5324 -2.67319 0
M  V30 5242 O 480.831 4.55571 -3.41238 0
M  V30 5243 N 482.033 5.52495 -1.78127 0
M  V30 5244 H 484.798 1.53292 -2.5753 0
M  V30 5245 H 482.359 0.699706 -1.45999 0
M  V30 5246 H 484.351 3.78774 -1.42521 0
M  V30 5247 H 482.921 3.05675 -0.654345 0
M  V30 5248 H 482.141 2.4723 -3.07036 0
M  V30 5249 H 483.429 3.54162 -3.65304 0
M  V30 5250 H 482.827 5.53403 -1.17308 0
M  V30 5251 H 481.384 6.28553 -1.72525 0
M  V30 5252 N 484.817 1.37938 0.762283 0
M  V30 5253 C 485.764 1.34467 1.87583 0
M  V30 5254 C 486.734 0.208633 1.64785 0
M  V30 5255 O 487.919 0.399494 1.86571 0
M  V30 5256 C 485.059 1.16692 3.24772 0
M  V30 5257 C 484.172 2.39608 3.59461 0
M  V30 5258 C 483.307 2.14631 4.85908 0
M  V30 5259 C 482.346 3.33364 5.13357 0
M  V30 5260 N 481.483 3.07877 6.30996 0
M  V30 5261 H 486.323 2.29669 1.89885 0
M  V30 5262 H 483.86 1.14116 0.928219 0
M  V30 5263 H 485.818 1.04405 4.03925 0
M  V30 5264 H 484.448 0.251333 3.2182 0
M  V30 5265 H 483.5 2.626 2.75219 0
M  V30 5266 H 484.812 3.28128 3.75678 0
M  V30 5267 H 483.966 1.99429 5.72986 0
M  V30 5268 H 482.705 1.23463 4.71814 0
M  V30 5269 H 481.71 3.49094 4.24751 0
M  V30 5270 H 482.935 4.25395 5.29354 0
M  V30 5271 H 480.881 2.19348 6.18241 0
M  V30 5272 H 480.798 3.89944 6.47673 0
M  V30 5273 H 482.066 2.96313 7.20985 0
M  V30 5274 N 486.295 -0.989507 1.22664 0
M  V30 5275 C 487.258 -2.06183 1.00106 0
M  V30 5276 C 488.258 -1.60765 -0.0337726 0
M  V30 5277 O 489.448 -1.72989 0.205072 0
M  V30 5278 C 486.58 -3.37021 0.51279 0
M  V30 5279 H 487.773 -2.27629 1.95256 0
M  V30 5280 H 485.326 -1.16158 1.0458 0
M  V30 5281 H 486.061 -3.21261 -0.442917 0
M  V30 5282 H 485.846 -3.71323 1.25942 0
M  V30 5283 H 487.336 -4.1591 0.375315 0
M  V30 5284 N 487.773 -1.03688 -1.18687 0
M  V30 5285 C 488.721 -0.618292 -2.24232 0
M  V30 5286 C 489.715 0.353045 -1.6568 0
M  V30 5287 O 490.921 0.220749 -1.78641 0
M  V30 5288 H 487.296 -0.181711 -0.729716 0
M  V30 5289 H 489.267 -1.51893 -2.56848 0
M  V30 5290 C 488.016 0.00677342 -3.47699 0
M  V30 5291 H 487.339 -0.731692 -3.93047 0
M  V30 5292 H 488.779 0.262492 -4.23187 0
M  V30 5293 C 487.238 1.25572 -3.12623 0
M  V30 5294 O 487.768 2.34691 -3.26011 0
M  V30 5295 N 485.974 1.14755 -2.66982 0
M  V30 5296 H 485.521 0.259601 -2.56289 0
M  V30 5297 H 485.479 1.98412 -2.43885 0
M  V30 5298 N 489.251 1.34841 -0.815825 0
M  V30 5299 C 490.214 2.27959 -0.238185 0
M  V30 5300 C 491.214 1.49983 0.579816 0
M  V30 5301 O 492.404 1.69617 0.396953 0
M  V30 5302 C 489.536 3.34314 0.666876 0
M  V30 5303 H 490.729 2.80558 -1.05958 0
M  V30 5304 H 488.282 1.44852 -0.587156 0
M  V30 5305 H 489.017 2.86916 1.5116 0
M  V30 5306 H 488.802 3.92014 0.0819106 0
M  V30 5307 H 490.292 4.0379 1.06506 0
M  V30 5308 N 490.729 0.570148 1.46925 0
M  V30 5309 C 491.975 0.0510284 2.02736 0
M  V30 5310 C 492.308 -1.3006 1.44215 0
M  V30 5311 O 491.583 -1.84932 0.602521 0
M  V30 5312 C 491.866 -0.028215 3.60089 0
M  V30 5313 C 491.719 1.35142 4.29018 0
M  V30 5314 C 493.038 -0.735181 4.33916 0
M  V30 5315 H 490.157 0.0200178 0.736728 0
M  V30 5316 H 492.799 0.73493 1.75211 0
M  V30 5317 H 490.949 -0.610648 3.83671 0
M  V30 5318 H 492.621 1.97806 4.16738 0
M  V30 5319 H 490.864 1.9226 3.88868 0
M  V30 5320 H 491.535 1.24857 5.37694 0
M  V30 5321 H 494.011 -0.240519 4.15404 0
M  V30 5322 H 492.887 -0.759622 5.43618 0
M  V30 5323 H 493.148 -1.79397 4.04066 0
M  V30 5324 N 492.207 -1.54576 0.307264 0
M  V30 5325 C 493.453 -2.0056 -0.300612 0
M  V30 5326 C 493.786 -1.1953 -1.53057 0
M  V30 5327 O 493.061 -0.27337 -1.92569 0
M  V30 5328 C 493.344 -3.54167 -0.650987 0
M  V30 5329 C 493.197 -4.45933 0.588539 0
M  V30 5330 C 494.516 -4.14645 -1.47506 0
M  V30 5331 H 491.635 -0.729075 -0.107788 0
M  V30 5332 H 494.277 -1.85286 0.420606 0
M  V30 5333 H 492.427 -3.67313 -1.26544 0
M  V30 5334 H 494.099 -4.44683 1.22697 0
M  V30 5335 H 492.342 -4.16274 1.22058 0
M  V30 5336 H 493.013 -5.51189 0.299153 0
M  V30 5337 H 495.489 -4.04973 -0.955821 0
M  V30 5338 H 494.365 -5.22269 -1.68899 0
M  V30 5339 H 494.626 -3.66921 -2.4662 0
M  V30 5340 N 493.685 -0.035106 -1.57561 0
M  V30 5341 C 494.962 0.681212 -1.83354 0
M  V30 5342 C 495.342 1.89986 -0.920252 0
M  V30 5343 O 494.69 2.28489 0.0226815 0
M  V30 5344 C 494.9 1.05376 -3.32712 0
M  V30 5345 C 496.248 1.44286 -3.99333 0
M  V30 5346 O 497.272 1.14656 -3.37242 0
M  V30 5347 O 496.131 1.99518 -5.08778 0
M  V30 5348 H 493.225 0.334741 -0.756226 0
M  V30 5349 H 495.771 -0.0632448 -1.69582 0
M  V30 5350 H 494.543 0.186668 -3.90854 0
M  V30 5351 H 494.166 1.85619 -3.51613 0
M  V30 5352 N 495.163 1.55791 0.238111 0
M  V30 5353 C 496.388 1.8244 0.986432 0
M  V30 5354 C 496.813 0.613314 1.7782 0
M  V30 5355 O 496.171 -0.437767 1.75935 0
M  V30 5356 C 496.219 3.06917 1.893 0
M  V30 5357 O 495.323 2.84449 2.98601 0
M  V30 5358 H 494.664 0.601975 0.280218 0
M  V30 5359 H 497.194 2.02987 0.256437 0
M  V30 5360 H 497.204 3.36583 2.30598 0
M  V30 5361 H 495.879 3.947 1.31091 0
M  V30 5362 H 494.456 2.65972 2.61368 0
M  V30 5363 N 496.642 -0.504142 1.49319 0
M  V30 5364 C 497.89 -1.25598 1.58334 0
M  V30 5365 C 498.211 -1.93114 0.270538 0
M  V30 5366 O 497.481 -1.82585 -0.709891 0
M  V30 5367 H 496.061 -0.466571 0.58337 0
M  V30 5368 H 498.723 -0.584547 1.85928 0
M  V30 5369 H 497.819 -2.02159 2.37778 0
M  V30 5370 N 498.12 -1.38341 -0.754957 0
M  V30 5371 C 499.348 -1.37704 -1.54419 0
M  V30 5372 C 499.763 0.0335243 -1.8877 0
M  V30 5373 O 499.12 0.999773 -1.52679 0
M  V30 5374 C 499.171 -2.23136 -2.84416 0
M  V30 5375 O 498.892 -3.58697 -2.51531 0
M  V30 5376 C 500.393 -2.30664 -3.78562 0
M  V30 5377 H 497.613 -0.471061 -0.477852 0
M  V30 5378 H 500.157 -1.81902 -0.934446 0
M  V30 5379 H 498.312 -1.82403 -3.41772 0
M  V30 5380 H 498.726 -4.03665 -3.34896 0
M  V30 5381 H 500.2 -2.9473 -4.66732 0
M  V30 5382 H 500.677 -1.3199 -4.18898 0
M  V30 5383 H 501.283 -2.71781 -3.27131 0
M  V30 5384 N 499.598 0.982988 -1.23187 0
M  V30 5385 C 500.823 1.76455 -1.08988 0
M  V30 5386 C 501.248 1.84726 0.354691 0
M  V30 5387 O 500.606 1.30699 1.25649 0
M  V30 5388 C 500.654 3.17094 -1.71708 0
M  V30 5389 O 499.758 4.00648 -0.977477 0
M  V30 5390 H 499.099 0.542988 -0.382177 0
M  V30 5391 H 501.629 1.23413 -1.63188 0
M  V30 5392 H 501.639 3.67684 -1.76841 0
M  V30 5393 H 500.314 3.10389 -2.76823 0
M  V30 5394 H 498.891 3.59161 -1.0029 0
M  V30 5395 N 501.076 1.04316 1.18135 0
M  V30 5396 C 502.304 0.768117 1.92113 0
M  V30 5397 C 502.719 -0.675057 1.76319 0
M  V30 5398 O 502.076 -1.46038 1.09449 0
M  V30 5399 C 502.127 1.12808 3.43448 0
M  V30 5400 O 501.848 2.5146 3.58747 0
M  V30 5401 C 503.349 0.8779 4.3452 0
M  V30 5402 H 500.569 0.279937 0.609817 0
M  V30 5403 H 503.113 1.39149 1.49859 0
M  V30 5404 H 501.268 0.549623 3.83481 0
M  V30 5405 H 501.682 2.65313 4.52448 0
M  V30 5406 H 503.156 1.17959 5.39249 0
M  V30 5407 H 503.633 -0.187239 4.38801 0
M  V30 5408 H 504.239 1.43977 4.00188 0
M  V30 5409 N 502.554 -1.34406 0.822964 0
M  V30 5410 C 503.803 -1.97542 0.407458 0
M  V30 5411 C 504.116 -1.65973 -1.035 0
M  V30 5412 O 505.322 -2.22598 -1.55442 0
M  V30 5413 C 503.778 -3.53463 0.677623 0
M  V30 5414 C 503.386 -3.93925 2.1337 0
M  V30 5415 C 505.13 -4.23229 0.328284 0
M  V30 5416 C 503.037 -5.42759 2.34876 0
M  V30 5417 H 501.967 -0.739207 0.148623 0
M  V30 5418 H 504.618 -1.53248 1.00932 0
M  V30 5419 H 503 -3.96 0.00558965 0
M  V30 5420 H 504.174 -3.62494 2.8449 0
M  V30 5421 H 502.489 -3.37097 2.44448 0
M  V30 5422 H 505.086 -5.32659 0.466794 0
M  V30 5423 H 505.429 -4.09899 -0.727224 0
M  V30 5424 H 505.962 -3.86169 0.954896 0
M  V30 5425 H 502.701 -5.61075 3.38932 0
M  V30 5426 H 502.221 -5.75704 1.68299 0
M  V30 5427 H 503.9 -6.0944 2.17236 0
M  V30 5428 N 504.032 -0.577932 -1.46621 0
M  V30 5429 C 505.26 -0.0671642 -2.06791 0
M  V30 5430 C 505.675 1.23571 -1.42743 0
M  V30 5431 O 505.032 1.74602 -0.531062 0
M  V30 5432 C 505.083 0.110357 -3.61332 0
M  V30 5433 O 504.804 -1.14095 -4.22982 0
M  V30 5434 C 506.305 0.656025 -4.38419 0
M  V30 5435 H 503.525 -0.0552732 -0.66872 0
M  V30 5436 H 506.069 -0.797242 -1.8832 0
M  V30 5437 H 504.224 0.790637 -3.79246 0
M  V30 5438 H 504.638 -0.951742 -5.15793 0
M  V30 5439 H 506.112 0.729438 -5.47159 0
M  V30 5440 H 506.589 1.67195 -4.06131 0
M  V30 5441 H 507.195 0.0107692 -4.25299 0
M  V30 5442 N 505.51 1.54411 -0.315457 0
M  V30 5443 C 506.473 2.22713 0.54142 0
M  V30 5444 C 507.473 1.2179 1.04995 0
M  V30 5445 O 508.663 1.46426 0.943667 0
M  V30 5446 C 505.795 2.92485 1.75116 0
M  V30 5447 H 506.988 2.99849 -0.0555508 0
M  V30 5448 H 504.541 1.56159 -0.0664453 0
M  V30 5449 H 505.276 2.19466 2.38758 0
M  V30 5450 H 505.061 3.66483 1.39401 0
M  V30 5451 H 506.551 3.44548 2.35959 0
M  V30 5452 N 506.988 0.0434614 1.5754 0
M  V30 5453 C 508.399 -0.493343 1.80064 0
M  V30 5454 C 508.75 -1.71388 0.955023 0
M  V30 5455 O 507.875 -2.15736 0.169434 0
M  V30 5456 C 508.47 -0.90179 3.26578 0
M  V30 5457 C 507.029 -1.38362 3.50047 0
M  V30 5458 C 506.176 -0.355129 2.75017 0
M  V30 5459 H 509.127 0.2694 1.56397 0
M  V30 5460 H 509.148 -1.76523 3.37075 0
M  V30 5461 H 508.66 -0.013271 3.88098 0
M  V30 5462 H 506.761 -2.29159 2.93798 0
M  V30 5463 H 506.874 -1.3811 4.58762 0
M  V30 5464 H 505.238 -0.826348 2.40922 0
M  V30 5465 H 506.021 0.525172 3.39259 0
M  V30 5466 N 508.466 -1.55915 -0.229846 0
M  V30 5467 C 509.694 -1.82617 -0.972562 0
M  V30 5468 C 510.109 -0.621488 -1.78278 0
M  V30 5469 O 509.466 0.409956 -1.77836 0
M  V30 5470 C 509.517 -3.0774 -1.89679 0
M  V30 5471 O 509.238 -4.23559 -1.11934 0
M  V30 5472 C 510.739 -3.47368 -2.75409 0
M  V30 5473 H 507.959 -0.60727 -0.285419 0
M  V30 5474 H 510.503 -2.02996 -0.247579 0
M  V30 5475 H 508.658 -2.89361 -2.57583 0
M  V30 5476 H 509.072 -4.94586 -1.74599 0
M  V30 5477 H 510.546 -4.37977 -3.35977 0
M  V30 5478 H 511.023 -2.68737 -3.47386 0
M  V30 5479 H 511.629 -3.68158 -2.12931 0
M  V30 5480 N 509.944 0.496216 -1.49584 0
M  V30 5481 C 511.169 1.27865 -1.63295 0
M  V30 5482 C 511.594 1.85592 -0.306156 0
M  V30 5483 O 510.952 1.66092 0.726851 0
M  V30 5484 C 511 2.38128 -2.7079 0
M  V30 5485 O 510.104 3.42108 -2.30296 0
M  V30 5486 H 509.445 0.377279 -0.546403 0
M  V30 5487 H 511.975 0.593497 -1.95803 0
M  V30 5488 H 511.985 2.8382 -2.93104 0
M  V30 5489 H 510.66 1.95479 -3.67098 0
M  V30 5490 H 509.237 3.02301 -2.18331 0
M  V30 5491 N 511.423 1.38739 0.74761 0
M  V30 5492 C 512.67 1.35274 1.50689 0
M  V30 5493 C 512.998 -0.0553359 1.94421 0
M  V30 5494 O 512.253 -1.03365 1.66175 0
M  V30 5495 C 512.552 2.25992 2.7688 0
M  V30 5496 C 512.218 3.73854 2.5208 0
M  V30 5497 C 510.88 4.14145 2.45025 0
M  V30 5498 C 513.232 4.67427 2.30568 0
M  V30 5499 C 510.56 5.4609 2.14483 0
M  V30 5500 C 512.912 5.99635 2.01545 0
M  V30 5501 C 511.576 6.39004 1.92951 0
M  V30 5502 H 510.846 0.495003 0.55141 0
M  V30 5503 H 513.493 1.71145 0.859158 0
M  V30 5504 H 511.798 1.83196 3.46333 0
M  V30 5505 H 513.495 2.20611 3.34861 0
M  V30 5506 H 510.085 3.41913 2.58444 0
M  V30 5507 H 514.269 4.3714 2.34994 0
M  V30 5508 H 509.525 5.75528 2.06342 0
M  V30 5509 H 513.699 6.71678 1.83906 0
M  V30 5510 H 511.326 7.41165 1.6905 0
M  V30 5511 N 512.901 -0.976442 1.23707 0
M  V30 5512 C 513.831 -2.08749 1.04624 0
M  V30 5513 C 514.812 -1.70057 -0.0380956 0
M  V30 5514 O 515.997 -1.93782 0.127308 0
M  V30 5515 C 513.127 -3.41335 0.640902 0
M  V30 5516 C 512.081 -3.93947 1.67302 0
M  V30 5517 C 511.407 -5.22774 1.12301 0
M  V30 5518 C 512.707 -4.22769 3.06697 0
M  V30 5519 H 514.401 -2.24972 1.97555 0
M  V30 5520 H 511.947 -1.08108 0.951247 0
M  V30 5521 H 513.9 -4.18489 0.494434 0
M  V30 5522 H 512.624 -3.24988 -0.324099 0
M  V30 5523 H 511.283 -3.18941 1.80755 0
M  V30 5524 H 510.931 -5.0278 0.148877 0
M  V30 5525 H 510.631 -5.58942 1.81267 0
M  V30 5526 H 512.155 -6.02546 0.988479 0
M  V30 5527 H 513.569 -4.90659 2.96524 0
M  V30 5528 H 511.966 -4.70147 3.72937 0
M  V30 5529 H 513.036 -3.29885 3.55392 0
M  V30 5530 N 514.379 -1.04941 -1.1758 0
M  V30 5531 C 515.327 -0.64204 -2.23563 0
M  V30 5532 C 516.321 0.335453 -1.66045 0
M  V30 5533 O 517.527 0.20179 -1.78865 0
M  V30 5534 H 513.902 -0.18944 -0.727748 0
M  V30 5535 H 515.873 -1.54609 -2.55223 0
M  V30 5536 C 514.622 -0.0301051 -3.47687 0
M  V30 5537 H 513.945 -0.773339 -3.92249 0
M  V30 5538 H 515.385 0.217592 -4.23441 0
M  V30 5539 C 513.844 1.2225 -3.13937 0
M  V30 5540 O 514.374 2.3122 -3.28482 0
M  V30 5541 N 512.58 1.11917 -2.68185 0
M  V30 5542 H 512.127 0.232403 -2.5655 0
M  V30 5543 H 512.085 1.95814 -2.45976 0
M  V30 5544 N 515.857 1.33968 -0.830081 0
M  V30 5545 C 516.804 2.29387 -0.255008 0
M  V30 5546 C 517.774 1.53923 0.624243 0
M  V30 5547 O 518.959 1.82262 0.564372 0
M  V30 5548 C 516.099 3.4034 0.571209 0
M  V30 5549 C 515.212 4.30729 -0.331083 0
M  V30 5550 C 514.347 5.2879 0.505389 0
M  V30 5551 C 513.386 6.10819 -0.395843 0
M  V30 5552 N 512.523 7.00948 0.401979 0
M  V30 5553 H 517.363 2.77972 -1.07404 0
M  V30 5554 H 514.9 1.36785 -0.541133 0
M  V30 5555 H 516.858 4.03361 1.06562 0
M  V30 5556 H 515.488 2.9297 1.35529 0
M  V30 5557 H 514.54 3.68507 -0.943759 0
M  V30 5558 H 515.852 4.88181 -1.02377 0
M  V30 5559 H 515.006 5.97297 1.06399 0
M  V30 5560 H 513.745 4.71894 1.23155 0
M  V30 5561 H 512.75 5.41238 -0.966529 0
M  V30 5562 H 513.975 6.69797 -1.12023 0
M  V30 5563 H 511.921 6.46512 1.11168 0
M  V30 5564 H 511.838 7.55643 -0.232167 0
M  V30 5565 H 513.106 7.73774 0.943102 0
M  V30 5566 N 517.335 0.585699 1.46312 0
M  V30 5567 C 518.582 0.0724211 2.0237 0
M  V30 5568 C 518.91 -1.28868 1.45683 0
M  V30 5569 O 518.165 -1.85853 0.612945 0
M  V30 5570 C 518.464 -0.0401312 3.57377 0
M  V30 5571 C 518.13 1.25376 4.33119 0
M  V30 5572 C 516.792 1.60824 4.5353 0
M  V30 5573 C 519.144 2.10987 4.76586 0
M  V30 5574 C 516.472 2.81676 5.14661 0
M  V30 5575 C 518.824 3.31068 5.39052 0
M  V30 5576 C 517.488 3.66794 5.5769 0
M  V30 5577 H 516.758 0.0265007 0.740526 0
M  V30 5578 H 519.405 0.762935 1.75646 0
M  V30 5579 H 517.71 -0.813791 3.83255 0
M  V30 5580 H 519.407 -0.453078 3.98432 0
M  V30 5581 H 515.997 0.967808 4.1753 0
M  V30 5582 H 520.181 1.84904 4.60569 0
M  V30 5583 H 515.437 3.0949 5.27282 0
M  V30 5584 H 519.611 3.97672 5.71691 0
M  V30 5585 H 517.238 4.60529 6.04828 0
M  V30 5586 N 518.813 -1.54241 0.323641 0
M  V30 5587 C 520.06 -2.0057 -0.27891 0
M  V30 5588 C 520.388 -1.21181 -1.52136 0
M  V30 5589 O 519.643 -0.282043 -1.93657 0
M  V30 5590 C 519.942 -3.5129 -0.658031 0
M  V30 5591 C 519.608 -4.48281 0.485252 0
M  V30 5592 C 518.27 -4.74519 0.799055 0
M  V30 5593 C 520.622 -5.05909 1.25322 0
M  V30 5594 C 517.95 -5.55643 1.88354 0
M  V30 5595 C 520.302 -5.88215 2.32779 0
M  V30 5596 C 518.966 -6.12755 2.64741 0
M  V30 5597 H 518.236 -0.733938 -0.10206 0
M  V30 5598 H 520.883 -1.862 0.447435 0
M  V30 5599 H 519.188 -3.63388 -1.4648 0
M  V30 5600 H 520.885 -3.84578 -1.1358 0
M  V30 5601 H 517.475 -4.27979 0.230593 0
M  V30 5602 H 521.659 -4.8562 1.02404 0
M  V30 5603 H 516.915 -5.72888 2.13564 0
M  V30 5604 H 521.089 -6.31888 2.92729 0
M  V30 5605 H 518.716 -6.75404 3.48904 0
M  V30 5606 N 520.291 -0.0518155 -1.57515 0
M  V30 5607 C 521.707 0.304735 -1.56664 0
M  V30 5608 C 521.907 1.71395 -1.05953 0
M  V30 5609 O 520.963 2.42123 -0.716414 0
M  V30 5610 C 522.276 0.132614 -3.00407 0
M  V30 5611 C 523.824 0.20367 -3.12337 0
M  V30 5612 C 524.299 0.0600706 -4.57961 0
M  V30 5613 N 525.79 0.116326 -4.63054 0
M  V30 5614 C 526.525 0.0293363 -5.73392 0
M  V30 5615 N 526.021 -0.110038 -6.92713 0
M  V30 5616 N 527.814 0.0849651 -5.62036 0
M  V30 5617 H 519.965 -0.973056 -1.888 0
M  V30 5618 H 522.228 -0.377781 -0.869474 0
M  V30 5619 H 521.934 -0.839019 -3.41546 0
M  V30 5620 H 521.808 0.893376 -3.66468 0
M  V30 5621 H 524.195 1.16578 -2.71097 0
M  V30 5622 H 524.276 -0.587857 -2.48954 0
M  V30 5623 H 523.92 -0.898715 -4.99886 0
M  V30 5624 H 523.85 0.87075 -5.19351 0
M  V30 5625 H 526.341 0.22327 -3.7724 0
M  V30 5626 H 526.654 -0.169104 -7.72615 0
M  V30 5627 H 524.999 -0.145132 -6.94848 0
M  V30 5628 H 528.19 0.192411 -4.67704 0
M  V30 5629 H 528.363 0.0137131 -6.47999 0
M  V30 5630 N 521.769 1.56035 0.221574 0
M  V30 5631 C 523.046 1.69837 0.970301 0
M  V30 5632 C 523.426 0.599065 2.02421 0
M  V30 5633 O 522.774 -0.393929 2.25079 0
M  V30 5634 C 522.984 3.11148 1.58076 0
M  V30 5635 C 524.332 3.70555 2.07302 0
M  V30 5636 O 525.356 3.14109 1.6797 0
M  V30 5637 O 524.215 4.69562 2.79596 0
M  V30 5638 H 521.309 0.691727 0.453257 0
M  V30 5639 H 523.855 1.68353 0.213358 0
M  V30 5640 H 522.627 3.82617 0.819759 0
M  V30 5641 H 522.25 3.16749 2.40324 0
M  V30 5642 N 523.247 -0.488276 1.49845 0
M  V30 5643 C 524.18 -1.60651 1.62069 0
M  V30 5644 C 525.158 -1.5568 0.469308 0
M  V30 5645 O 526.342 -1.75553 0.686551 0
M  V30 5646 C 523.469 -2.99197 1.58741 0
M  V30 5647 C 522.515 -3.22385 2.79232 0
M  V30 5648 S 523.348 -3.04133 4.40753 0
M  V30 5649 C 524.504 -4.45052 4.4009 0
M  V30 5650 H 524.737 -1.50039 2.56662 0
M  V30 5651 H 522.27 -0.674371 1.38894 0
M  V30 5652 H 524.228 -3.79081 1.57506 0
M  V30 5653 H 522.889 -3.07213 0.654136 0
M  V30 5654 H 522.082 -4.23557 2.73159 0
M  V30 5655 H 521.684 -2.50245 2.77945 0
M  V30 5656 H 523.976 -5.37375 4.12594 0
M  V30 5657 H 524.919 -4.56172 5.41583 0
M  V30 5658 H 525.327 -4.26327 3.70008 0
M  V30 5659 N 524.725 -1.39134 -0.740242 0
M  V30 5660 C 525.673 -1.3757 -1.87556 0
M  V30 5661 C 526.667 -0.259593 -1.67399 0
M  V30 5662 O 527.873 -0.429349 -1.74804 0
M  V30 5663 H 524.248 -0.42947 -0.6173 0
M  V30 5664 H 526.219 -2.33345 -1.85991 0
M  V30 5665 C 524.968 -1.23087 -3.25184 0
M  V30 5666 H 524.291 -2.08237 -3.41288 0
M  V30 5667 H 525.731 -1.26049 -4.0483 0
M  V30 5668 C 524.19 0.0611471 -3.36845 0
M  V30 5669 O 524.72 1.03328 -3.88183 0
M  V30 5670 N 522.926 0.122454 -2.90342 0
M  V30 5671 H 522.473 -0.669329 -2.48752 0
M  V30 5672 H 522.431 0.986463 -2.98523 0
M  V30 5673 N 526.204 0.969867 -1.24223 0
M  V30 5674 C 527.45 1.7151 -1.08223 0
M  V30 5675 C 527.783 1.90478 0.37838 0
M  V30 5676 O 527.058 1.4647 1.27971 0
M  V30 5677 C 527.341 3.10714 -1.82013 0
M  V30 5678 C 527.194 2.9925 -3.35811 0
M  V30 5679 C 528.513 4.10332 -1.59108 0
M  V30 5680 H 525.632 0.622499 -0.394543 0
M  V30 5681 H 528.274 1.1284 -1.52863 0
M  V30 5682 H 526.424 3.608 -1.44068 0
M  V30 5683 H 528.096 2.56608 -3.83341 0
M  V30 5684 H 526.339 2.35512 -3.64303 0
M  V30 5685 H 527.01 3.97857 -3.82641 0
M  V30 5686 H 529.486 3.69097 -1.92111 0
M  V30 5687 H 528.362 5.05804 -2.13198 0
M  V30 5688 H 528.623 4.38926 -0.528832 0
M  V30 5689 N 527.682 1.05563 1.17022 0
M  V30 5690 C 528.931 0.763036 1.8671 0
M  V30 5691 C 529.244 -0.712857 1.82147 0
M  V30 5692 O 530.45 -1.11955 2.47343 0
M  V30 5693 C 528.906 1.31474 3.35026 0
M  V30 5694 C 528.514 2.82034 3.48081 0
M  V30 5695 C 530.258 1.09935 4.10018 0
M  V30 5696 C 528.165 3.30486 4.90442 0
M  V30 5697 H 527.095 0.281747 0.699382 0
M  V30 5698 H 529.746 1.2734 1.32124 0
M  V30 5699 H 528.128 0.732171 3.89173 0
M  V30 5700 H 529.302 3.46178 3.04133 0
M  V30 5701 H 527.617 3.02156 2.86515 0
M  V30 5702 H 530.214 1.43632 5.15048 0
M  V30 5703 H 530.557 0.0373072 4.16283 0
M  V30 5704 H 531.09 1.64732 3.62089 0
M  V30 5705 H 527.829 4.36137 4.89352 0
M  V30 5706 H 527.349 2.71086 5.35044 0
M  V30 5707 H 529.028 3.25382 5.59227 0
M  V30 5708 N 529.16 -1.33526 0.837174 0
M  V30 5709 C 530.107 -2.29248 0.267169 0
M  V30 5710 C 531.077 -1.54252 -0.616071 0
M  V30 5711 O 532.262 -1.82559 -0.554699 0
M  V30 5712 C 529.402 -3.40638 -0.553152 0
M  V30 5713 C 528.515 -4.30548 0.353921 0
M  V30 5714 C 527.65 -5.29051 -0.477339 0
M  V30 5715 C 526.689 -6.106 0.42823 0
M  V30 5716 N 525.826 -7.01152 -0.364801 0
M  V30 5717 H 530.666 -2.77398 1.08877 0
M  V30 5718 H 528.203 -1.36496 0.54838 0
M  V30 5719 H 530.161 -4.03921 -1.04422 0
M  V30 5720 H 528.791 -2.93685 -1.33973 0
M  V30 5721 H 527.843 -3.68001 0.963289 0
M  V30 5722 H 529.155 -4.87631 1.04964 0
M  V30 5723 H 528.309 -5.97853 -1.0323 0
M  V30 5724 H 527.048 -4.72541 -1.2065 0
M  V30 5725 H 526.053 -5.40718 0.995219 0
M  V30 5726 H 527.278 -6.69193 1.15573 0
M  V30 5727 H 525.224 -6.47092 -1.07738 0
M  V30 5728 H 525.141 -7.5551 0.272238 0
M  V30 5729 H 526.409 -7.74263 -0.902054 0
M  V30 5730 N 530.638 -0.59345 -1.46 0
M  V30 5731 C 531.884 -0.0832754 -2.02629 0
M  V30 5732 C 532.217 1.27749 -1.46266 0
M  V30 5733 O 531.492 1.8395 -0.631866 0
M  V30 5734 C 531.775 -0.0290756 -3.60088 0
M  V30 5735 C 531.628 -1.41951 -4.26814 0
M  V30 5736 C 532.947 0.666055 -4.35031 0
M  V30 5737 H 530.066 -0.031736 -0.736316 0
M  V30 5738 H 532.708 -0.762711 -1.74019 0
M  V30 5739 H 530.858 0.549532 -3.84594 0
M  V30 5740 H 532.53 -2.04411 -4.13538 0
M  V30 5741 H 530.773 -1.98422 -3.8576 0
M  V30 5742 H 531.444 -1.33395 -5.3564 0
M  V30 5743 H 533.92 0.174401 -4.15734 0
M  V30 5744 H 532.796 0.673041 -5.44758 0
M  V30 5745 H 533.057 1.72946 -4.06869 0
M  V30 5746 N 532.116 1.54067 -0.331816 0
M  V30 5747 C 533.527 1.86059 0.15454 0
M  V30 5748 C 533.878 1.25331 1.50952 0
M  V30 5749 O 533.003 0.562441 2.08963 0
M  V30 5750 C 533.598 3.37581 0.287192 0
M  V30 5751 C 532.157 3.69493 0.717773 0
M  V30 5752 C 531.304 2.76863 -0.155569 0
M  V30 5753 H 534.255 1.48797 -0.55182 0
M  V30 5754 H 534.276 3.63744 1.11671 0
M  V30 5755 H 533.788 3.81751 -0.699131 0
M  V30 5756 H 531.889 3.3086 1.71354 0
M  V30 5757 H 532.002 4.76315 0.5158 0
M  V30 5758 H 530.366 2.51995 0.370213 0
M  V30 5759 H 531.149 3.23861 -1.13881 0
M  V30 5760 N 533.594 0.0601682 1.57485 0
M  V30 5761 C 534.841 -0.611594 1.93043 0
M  V30 5762 C 535.169 -1.70317 0.939274 0
M  V30 5763 O 534.424 -1.95644 -0.046996 0
M  V30 5764 C 534.723 -1.23831 3.35262 0
M  V30 5765 C 534.389 -0.274037 4.50066 0
M  V30 5766 C 533.051 -0.00872394 4.81199 0
M  V30 5767 C 535.403 0.386308 5.19766 0
M  V30 5768 C 532.731 0.924218 5.79375 0
M  V30 5769 C 535.083 1.3075 6.1894 0
M  V30 5770 C 533.747 1.58139 6.48497 0
M  V30 5771 H 533.017 -0.223798 0.706396 0
M  V30 5772 H 535.664 0.128566 1.91068 0
M  V30 5773 H 533.969 -2.05394 3.33647 0
M  V30 5774 H 535.666 -1.76517 3.60059 0
M  V30 5775 H 532.256 -0.491008 4.25778 0
M  V30 5776 H 536.44 0.194436 4.95919 0
M  V30 5777 H 531.696 1.1438 6.00606 0
M  V30 5778 H 535.87 1.82519 6.72056 0
M  V30 5779 H 533.497 2.30593 7.24383 0
M  V30 5780 N 535.072 -1.5615 -0.213296 0
M  V30 5781 C 536.002 -1.96109 -1.26742 0
M  V30 5782 C 536.983 -0.830448 -1.48451 0
M  V30 5783 O 538.168 -1.09339 -1.60495 0
M  V30 5784 C 535.298 -2.28492 -2.61551 0
M  V30 5785 C 534.252 -3.44124 -2.54485 0
M  V30 5786 C 533.578 -3.62134 -3.93399 0
M  V30 5787 C 534.878 -4.78855 -2.08556 0
M  V30 5788 H 536.572 -2.84412 -0.935434 0
M  V30 5789 H 534.118 -1.36836 -0.44854 0
M  V30 5790 H 536.071 -2.55039 -3.3546 0
M  V30 5791 H 534.795 -1.37052 -2.96453 0
M  V30 5792 H 533.454 -3.17639 -1.83033 0
M  V30 5793 H 533.102 -2.68055 -4.25623 0
M  V30 5794 H 532.802 -4.39913 -3.89551 0
M  V30 5795 H 534.326 -3.91038 -4.68958 0
M  V30 5796 H 535.74 -5.04552 -2.72213 0
M  V30 5797 H 534.137 -5.59975 -2.1575 0
M  V30 5798 H 535.207 -4.73657 -1.03811 0
M  V30 5799 N 536.55 0.480323 -1.50102 0
M  V30 5800 C 537.961 1.06142 -1.53593 0
M  V30 5801 C 538.312 1.93335 -0.334055 0
M  V30 5802 O 537.437 2.09188 0.55403 0
M  V30 5803 C 538.032 1.9317 -2.78336 0
M  V30 5804 C 536.591 2.46405 -2.84538 0
M  V30 5805 C 535.738 1.24521 -2.4777 0
M  V30 5806 H 538.689 0.26333 -1.565 0
M  V30 5807 H 538.71 2.78123 -2.59669 0
M  V30 5808 H 538.222 1.29683 -3.65792 0
M  V30 5809 H 536.323 3.13472 -2.01411 0
M  V30 5810 H 536.436 2.82143 -3.87211 0
M  V30 5811 H 534.8 1.57706 -2.00003 0
M  V30 5812 H 535.583 0.627102 -3.37524 0
M  V30 5813 N 538.028 1.39524 0.732853 0
M  V30 5814 C 538.958 1.41153 1.86005 0
M  V30 5815 C 539.939 0.274614 1.67869 0
M  V30 5816 O 541.124 0.480745 1.88155 0
M  V30 5817 C 538.254 1.25638 3.23778 0
M  V30 5818 C 537.208 2.36752 3.56556 0
M  V30 5819 C 536.534 2.06326 4.93289 0
M  V30 5820 C 537.834 3.79069 3.5931 0
M  V30 5821 H 539.528 2.35484 1.84899 0
M  V30 5822 H 537.074 1.13348 0.888162 0
M  V30 5823 H 539.027 1.25398 4.0231 0
M  V30 5824 H 537.751 0.277772 3.25417 0
M  V30 5825 H 536.41 2.36213 2.80355 0
M  V30 5826 H 536.058 1.06897 4.9151 0
M  V30 5827 H 535.758 2.80757 5.16187 0
M  V30 5828 H 537.282 2.07739 5.74175 0
M  V30 5829 H 538.696 3.81526 4.27914 0
M  V30 5830 H 537.093 4.52878 3.93728 0
M  V30 5831 H 538.163 4.09893 2.59068 0
M  V30 5832 N 539.506 -0.963266 1.24736 0
M  V30 5833 C 540.736 -1.73913 1.11524 0
M  V30 5834 C 541.144 -1.86218 -0.334612 0
M  V30 5835 O 540.487 -1.3531 -1.24245 0
M  V30 5836 C 540.549 -3.17501 1.68622 0
M  V30 5837 C 540.213 -3.28655 3.17546 0
M  V30 5838 C 541.21 -3.13637 4.14642 0
M  V30 5839 C 538.895 -3.52753 3.5759 0
M  V30 5840 C 540.889 -3.2255 5.49764 0
M  V30 5841 C 538.576 -3.61303 4.92852 0
M  V30 5842 C 539.574 -3.46214 5.88748 0
M  V30 5843 O 539.262 -3.5443 7.2155 0
M  V30 5844 H 538.994 -0.552057 0.390139 0
M  V30 5845 H 541.548 -1.2177 1.65412 0
M  V30 5846 H 539.778 -3.70969 1.09172 0
M  V30 5847 H 541.467 -3.76914 1.50635 0
M  V30 5848 H 542.233 -2.94899 3.85045 0
M  V30 5849 H 538.112 -3.63561 2.83451 0
M  V30 5850 H 541.656 -3.1069 6.24594 0
M  V30 5851 H 537.553 -3.79556 5.22118 0
M  V30 5852 H 538.321 -3.71116 7.29531 0
M  V30 5853 N 540.985 -1.06182 -1.16461 0
M  V30 5854 C 542.231 -0.779015 -1.87241 0
M  V30 5855 C 542.564 0.692715 -1.81425 0
M  V30 5856 O 541.839 1.5074 -1.22913 0
M  V30 5857 C 542.122 -1.2728 -3.36856 0
M  V30 5858 C 541.975 -2.80821 -3.51368 0
M  V30 5859 C 543.294 -0.879799 -4.31216 0
M  V30 5860 H 540.413 -0.284464 -0.679889 0
M  V30 5861 H 543.055 -1.31755 -1.36896 0
M  V30 5862 H 541.205 -0.814673 -3.79862 0
M  V30 5863 H 542.877 -3.34833 -3.17308 0
M  V30 5864 H 541.12 -3.19606 -2.93316 0
M  V30 5865 H 541.791 -3.10435 -4.56436 0
M  V30 5866 H 544.267 -1.27436 -3.96105 0
M  V30 5867 H 543.143 -1.25278 -5.34412 0
M  V30 5868 H 543.404 0.215372 -4.41575 0
M  V30 5869 N 542.463 1.3308 -0.844243 0
M  V30 5870 C 543.691 2.01808 -0.456203 0
M  V30 5871 C 544.106 1.63498 0.944131 0
M  V30 5872 O 543.463 0.85102 1.61443 0
M  V30 5873 C 543.514 3.56922 -0.573513 0
M  V30 5874 O 543.235 3.93851 -1.91868 0
M  V30 5875 C 544.736 4.42922 -0.183125 0
M  V30 5876 H 541.956 0.646273 -0.180477 0
M  V30 5877 H 544.5 1.69891 -1.1383 0
M  V30 5878 H 542.655 3.87352 0.0607367 0
M  V30 5879 H 543.069 4.88564 -1.90802 0
M  V30 5880 H 544.543 5.51093 -0.316241 0
M  V30 5881 H 545.02 4.30386 0.875477 0
M  V30 5882 H 545.626 4.1786 -0.792027 0
M  V30 5883 N 543.941 0.601185 1.45683 0
M  V30 5884 C 545.169 0.100054 2.06658 0
M  V30 5885 C 545.584 -1.21285 1.44691 0
M  V30 5886 O 544.941 -1.73735 0.558772 0
M  V30 5887 C 544.992 -0.0528579 3.61461 0
M  V30 5888 O 544.713 1.20809 4.21114 0
M  V30 5889 C 546.214 -0.586193 4.39407 0
M  V30 5890 H 543.434 0.065905 0.667756 0
M  V30 5891 H 545.978 0.827101 1.87028 0
M  V30 5892 H 544.133 -0.730203 3.80456 0
M  V30 5893 H 544.547 1.03368 5.14213 0
M  V30 5894 H 546.021 -0.642297 5.4825 0
M  V30 5895 H 546.498 -1.60713 4.0874 0
M  V30 5896 H 547.104 0.0568935 4.25262 0
M  V30 5897 N 545.419 -1.53889 0.339982 0
M  V30 5898 C 546.659 -2.02765 -0.258011 0
M  V30 5899 C 547.023 -1.22249 -1.48051 0
M  V30 5900 O 548.224 -1.61007 -2.15245 0
M  V30 5901 C 546.495 -3.5286 -0.567872 0
M  V30 5902 S 548.054 -4.23647 -1.14318 0
M  V30 5903 H 544.872 -0.706814 -0.0770389 0
M  V30 5904 H 547.474 -1.89594 0.476917 0
M  V30 5905 H 546.178 -4.09073 0.329745 0
M  V30 5906 H 545.709 -3.70144 -1.33256 0
M  V30 5907 H 547.724 -4.32676 -2.42911 0
M  V30 5908 N 546.897 -0.0685191 -1.57451 0
M  V30 5909 C 548.174 0.642167 -1.84758 0
M  V30 5910 C 548.554 1.87991 -0.960344 0
M  V30 5911 O 547.902 2.28485 -0.0257894 0
M  V30 5912 C 548.112 0.982946 -3.34872 0
M  V30 5913 C 549.46 1.35784 -4.02303 0
M  V30 5914 O 550.484 1.07477 -3.39598 0
M  V30 5915 O 549.343 1.88681 -5.12895 0
M  V30 5916 H 546.437 0.318625 -0.763156 0
M  V30 5917 H 548.983 -0.0992015 -1.6941 0
M  V30 5918 H 547.755 0.10372 -3.91163 0
M  V30 5919 H 547.378 1.78119 -3.55471 0
M  V30 5920 N 548.375 1.56261 0.205012 0
M  V30 5921 C 549.323 1.94631 1.27364 0
M  V30 5922 C 550.317 0.830434 1.47649 0
M  V30 5923 O 551.523 1.01538 1.48627 0
M  V30 5924 H 547.898 0.618755 0.427371 0
M  V30 5925 H 549.869 2.83768 0.922941 0
M  V30 5926 C 548.618 2.29358 2.61324 0
M  V30 5927 H 547.941 3.14744 2.46528 0
M  V30 5928 H 549.381 2.60076 3.34868 0
M  V30 5929 C 547.84 1.12461 3.17575 0
M  V30 5930 O 548.37 0.394407 3.99759 0
M  V30 5931 N 546.576 0.904036 2.7618 0
M  V30 5932 H 546.123 1.49956 2.09454 0
M  V30 5933 H 546.081 0.123662 3.14157 0
M  V30 5934 N 549.853 -0.472356 1.50355 0
M  V30 5935 C 551.13 -1.23356 1.51798 0
M  V30 5936 C 551.51 -2.09469 0.26193 0
M  V30 5937 O 550.858 -2.15677 -0.754691 0
M  V30 5938 C 551.068 -2.06568 2.81302 0
M  V30 5939 C 552.416 -2.648 3.31913 0
M  V30 5940 O 553.44 -2.16812 2.82614 0
M  V30 5941 O 552.299 -3.52231 4.17846 0
M  V30 5942 H 549.393 -0.559707 0.608816 0
M  V30 5943 H 551.939 -0.48428 1.62643 0
M  V30 5944 H 550.711 -1.43103 3.64194 0
M  V30 5945 H 550.334 -2.88633 2.73454 0
M  V30 5946 N 551.331 -1.39911 -0.725443 0
M  V30 5947 C 552.608 -1.28158 -1.47766 0
M  V30 5948 C 552.988 0.104545 -2.10841 0
M  V30 5949 O 552.336 1.11657 -1.99361 0
M  V30 5950 C 552.546 -2.41306 -2.52135 0
M  V30 5951 C 553.894 -2.81076 -3.18247 0
M  V30 5952 O 554.918 -2.40827 -2.62452 0
M  V30 5953 O 553.777 -3.50581 -4.19231 0
M  V30 5954 H 550.871 -0.502761 -0.656628 0
M  V30 5955 H 553.417 -1.51808 -0.758456 0
M  V30 5956 H 552.189 -3.33932 -2.03974 0
M  V30 5957 H 551.812 -2.19374 -3.31603 0
M  V30 5958 N 552.809 0.956637 -1.25245 0
M  V30 5959 C 553.739 2.07058 -1.07931 0
M  V30 5960 C 554.72 1.70096 0.0110361 0
M  V30 5961 O 555.905 1.93555 -0.158121 0
M  V30 5962 C 553.035 3.40272 -0.695124 0
M  V30 5963 C 551.989 3.91235 -1.73549 0
M  V30 5964 C 551.315 5.20921 -1.20604 0
M  V30 5965 C 552.615 4.17837 -3.13385 0
M  V30 5966 H 554.309 2.218 -2.01109 0
M  V30 5967 H 551.855 1.06581 -0.968326 0
M  V30 5968 H 553.808 4.1765 -0.560949 0
M  V30 5969 H 552.532 3.25462 0.272355 0
M  V30 5970 H 551.191 3.16025 -1.85807 0
M  V30 5971 H 550.839 5.02479 -0.228846 0
M  V30 5972 H 550.539 5.55987 -1.90136 0
M  V30 5973 H 552.063 6.00897 -1.08421 0
M  V30 5974 H 553.477 4.8588 -3.04292 0
M  V30 5975 H 551.874 4.64154 -3.80369 0
M  V30 5976 H 552.944 3.2419 -3.60595 0
M  V30 5977 N 554.287 1.06798 1.15896 0
M  V30 5978 C 555.698 0.811355 1.68149 0
M  V30 5979 C 556.049 -0.664339 1.8461 0
M  V30 5980 O 555.174 -1.51485 1.54535 0
M  V30 5981 C 555.769 1.46624 3.05429 0
M  V30 5982 C 554.328 1.25726 3.54781 0
M  V30 5983 C 553.475 1.53949 2.3064 0
M  V30 5984 H 556.426 1.23078 1.00187 0
M  V30 5985 H 556.447 0.88437 3.7008 0
M  V30 5986 H 555.959 2.54025 2.93416 0
M  V30 5987 H 554.06 0.20322 3.72045 0
M  V30 5988 H 554.173 1.97354 4.36564 0
M  V30 5989 H 552.537 0.96025 2.35905 0
M  V30 5990 H 553.32 2.6252 2.2122 0
M  V30 5991 N 555.766 -1.3263 0.851289 0
M  V30 5992 C 556.994 -2.01563 0.466899 0
M  V30 5993 C 557.409 -1.63996 -0.935447 0
M  V30 5994 O 556.766 -0.85957 -1.6099 0
M  V30 5995 C 556.817 -3.56613 0.592433 0
M  V30 5996 O 556.538 -3.92828 1.93954 0
M  V30 5997 C 558.039 -4.42818 0.206612 0
M  V30 5998 H 555.259 -0.645307 0.183902 0
M  V30 5999 H 557.803 -1.69285 1.1473 0
M  V30 6000 H 555.958 -3.87379 -0.0401936 0
M  V30 6001 H 556.372 -4.87545 1.9339 0
M  V30 6002 H 557.846 -5.50918 0.345462 0
M  V30 6003 H 558.323 -4.30844 -0.85264 0
M  V30 6004 H 558.929 -4.17434 0.814176 0
M  V30 6005 N 557.244 -0.608902 -1.45362 0
M  V30 6006 C 558.174 0.0964526 -2.33301 0
M  V30 6007 C 559.155 0.857444 -1.46908 0
M  V30 6008 O 560.34 0.827735 -1.75676 0
M  V30 6009 C 557.47 1.09354 -3.29635 0
M  V30 6010 C 556.424 0.445676 -4.25673 0
M  V30 6011 C 555.75 1.5511 -5.11708 0
M  V30 6012 C 557.05 -0.633972 -5.18438 0
M  V30 6013 H 558.744 -0.637829 -2.92527 0
M  V30 6014 H 556.29 -0.308178 -1.40664 0
M  V30 6015 H 558.243 1.59556 -3.90025 0
M  V30 6016 H 556.967 1.85843 -2.6857 0
M  V30 6017 H 555.626 -0.0354897 -3.66583 0
M  V30 6018 H 555.274 2.30631 -4.4701 0
M  V30 6019 H 554.974 1.12311 -5.76767 0
M  V30 6020 H 556.498 2.05537 -5.74967 0
M  V30 6021 H 557.912 -0.215974 -5.72893 0
M  V30 6022 H 556.309 -0.983789 -5.91981 0
M  V30 6023 H 557.379 -1.51005 -4.60788 0
M  V30 6024 N 558.722 1.53707 -0.348139 0
M  V30 6025 C 559.632 2.28881 0.514857 0
M  V30 6026 C 560.648 1.34168 1.10793 0
M  V30 6027 O 561.824 1.6721 1.12262 0
M  V30 6028 C 558.889 3.05042 1.64774 0
M  V30 6029 C 557.95 4.15389 1.08398 0
M  V30 6030 C 557.183 4.87909 2.16287 0
M  V30 6031 O 557.406 4.60137 3.3709 0
M  V30 6032 O 556.34 5.74254 1.80323 0
M  V30 6033 H 560.166 3.03547 -0.0963699 0
M  V30 6034 H 557.751 1.48972 -0.113043 0
M  V30 6035 H 559.633 3.52656 2.30677 0
M  V30 6036 H 558.308 2.33228 2.24469 0
M  V30 6037 H 557.215 3.72068 0.389341 0
M  V30 6038 H 558.548 4.89318 0.531829 0
M  V30 6039 N 560.2 0.0768682 1.57412 0
M  V30 6040 C 561.447 -0.591085 1.93681 0
M  V30 6041 C 561.775 -1.69311 0.957286 0
M  V30 6042 O 561.03 -1.95682 -0.0262428 0
M  V30 6043 C 561.329 -1.20268 3.36557 0
M  V30 6044 C 560.995 -0.226286 4.50332 0
M  V30 6045 C 559.657 0.0423142 4.81181 0
M  V30 6046 C 562.009 0.441415 5.19327 0
M  V30 6047 C 559.337 0.985616 5.78362 0
M  V30 6048 C 561.689 1.37307 6.17519 0
M  V30 6049 C 560.353 1.65009 6.46783 0
M  V30 6050 H 559.623 -0.216293 0.70873 0
M  V30 6051 H 562.27 0.148824 1.90921 0
M  V30 6052 H 560.575 -2.01844 3.35807 0
M  V30 6053 H 562.272 -1.72688 3.61911 0
M  V30 6054 H 558.862 -0.445821 4.26275 0
M  V30 6055 H 563.046 0.247023 4.95685 0
M  V30 6056 H 558.302 1.20743 5.99359 0
M  V30 6057 H 562.476 1.89637 6.70083 0
M  V30 6058 H 560.103 2.38263 7.21897 0
M  V30 6059 N 561.678 -1.56367 -0.196722 0
M  V30 6060 C 562.628 -1.9082 -1.24787 0
M  V30 6061 C 563.612 -0.773719 -1.41076 0
M  V30 6062 O 564.804 -1.03655 -1.43474 0
M  V30 6063 C 561.933 -2.24982 -2.59303 0
M  V30 6064 C 561.019 -3.44882 -2.46814 0
M  V30 6065 N 561.41 -4.62835 -2.04003 0
M  V30 6066 C 559.708 -3.48988 -2.77711 0
M  V30 6067 C 560.409 -5.44993 -2.03366 0
M  V30 6068 N 559.385 -4.85356 -2.44807 0
M  V30 6069 H 563.187 -2.79516 -0.908175 0
M  V30 6070 H 560.701 -1.57265 -0.405166 0
M  V30 6071 H 562.698 -2.47848 -3.35227 0
M  V30 6072 H 561.358 -1.37611 -2.94098 0
M  V30 6073 H 562.369 -4.87532 -1.74738 0
M  V30 6074 H 559.046 -2.72029 -3.16712 0
M  V30 6075 H 560.436 -6.49464 -1.72181 0
M  V30 6076 N 563.156 0.464375 -1.50603 0
M  V30 6077 C 564.381 1.24372 -1.65971 0
M  V30 6078 C 564.806 1.84901 -0.345453 0
M  V30 6079 O 564.164 1.67596 0.691457 0
M  V30 6080 C 564.212 2.32331 -2.7578 0
M  V30 6081 O 563.316 3.37146 -2.375 0
M  V30 6082 H 562.657 0.365604 -0.554283 0
M  V30 6083 H 565.187 0.55183 -1.97018 0
M  V30 6084 H 565.197 2.77539 -2.99059 0
M  V30 6085 H 563.872 1.87648 -3.71162 0
M  V30 6086 H 562.449 2.97602 -2.24694 0
M  V30 6087 N 564.634 1.40294 0.718013 0
M  V30 6088 C 566.05 1.2227 1.02577 0
M  V30 6089 C 566.25 0.0961976 2.0127 0
M  V30 6090 O 565.306 -0.546695 2.46511 0
M  V30 6091 C 566.619 2.56348 1.57182 0
M  V30 6092 C 568.167 2.6334 1.69178 0
M  V30 6093 C 568.642 3.9768 2.27188 0
M  V30 6094 N 570.133 3.99409 2.34578 0
M  V30 6095 C 570.868 5.00141 2.8044 0
M  V30 6096 N 570.364 6.11268 3.26073 0
M  V30 6097 N 572.157 4.87511 2.79802 0
M  V30 6098 H 564.308 2.12304 0.0637899 0
M  V30 6099 H 566.571 0.943632 0.0909036 0
M  V30 6100 H 566.277 3.3942 0.921262 0
M  V30 6101 H 566.151 2.77266 2.55741 0
M  V30 6102 H 568.538 1.80641 2.33351 0
M  V30 6103 H 568.619 2.46255 0.692247 0
M  V30 6104 H 568.263 4.80817 1.63638 0
M  V30 6105 H 568.193 4.12093 3.27852 0
M  V30 6106 H 570.684 3.19162 2.02346 0
M  V30 6107 H 570.997 6.84023 3.59628 0
M  V30 6108 H 569.342 6.14837 3.24038 0
M  V30 6109 H 572.533 3.9979 2.43487 0
M  V30 6110 H 572.706 5.66158 3.15228 0
M  V30 6111 N 566.112 -0.949982 1.2575 0
M  V30 6112 C 567.06 -2.06869 1.06339 0
M  V30 6113 C 568.054 -1.69399 -0.00708901 0
M  V30 6114 O 569.26 -1.79383 0.148897 0
M  V30 6115 H 565.635 -0.677197 0.326969 0
M  V30 6116 H 567.606 -2.20396 2.01167 0
M  V30 6117 C 566.355 -3.40503 0.703769 0
M  V30 6118 H 565.678 -3.69807 1.51931 0
M  V30 6119 H 567.118 -4.19623 0.607677 0
M  V30 6120 C 565.577 -3.31685 -0.5905 0
M  V30 6121 O 566.107 -3.67085 -1.63131 0
M  V30 6122 N 564.313 -2.84797 -0.577859 0
M  V30 6123 H 563.86 -2.56186 0.26951 0
M  V30 6124 H 563.818 -2.79279 -1.44398 0
M  V30 6125 N 567.59 -1.07411 -1.15328 0
M  V30 6126 C 568.538 -0.689316 -2.22151 0
M  V30 6127 C 569.532 0.300156 -1.6672 0
M  V30 6128 O 570.738 0.163804 -1.79253 0
M  V30 6129 H 567.113 -0.204834 -0.723566 0
M  V30 6130 H 569.084 -1.59988 -2.51886 0
M  V30 6131 C 567.833 -0.103848 -3.47545 0
M  V30 6132 H 567.156 -0.856367 -3.90521 0
M  V30 6133 H 568.596 0.127725 -4.23808 0
M  V30 6134 C 567.055 1.15563 -3.1646 0
M  V30 6135 O 567.585 2.242 -3.33312 0
M  V30 6136 N 565.791 1.06203 -2.70498 0
M  V30 6137 H 565.338 0.177933 -2.56985 0
M  V30 6138 H 565.296 1.90553 -2.50074 0
M  V30 6139 N 569.068 1.32177 -0.85831 0
M  V30 6140 C 570.015 2.28794 -0.303607 0
M  V30 6141 C 570.985 1.55213 0.591453 0
M  V30 6142 O 572.17 1.83418 0.525585 0
M  V30 6143 C 569.31 3.41475 0.49889 0
M  V30 6144 C 568.423 4.2993 -0.422373 0
M  V30 6145 C 567.558 5.29743 0.393111 0
M  V30 6146 C 566.597 6.09842 -0.525317 0
M  V30 6147 N 565.734 7.01643 0.253208 0
M  V30 6148 H 570.574 2.75631 -1.13276 0
M  V30 6149 H 568.111 1.35606 -0.570026 0
M  V30 6150 H 570.069 4.05531 0.979826 0
M  V30 6151 H 568.699 2.95779 1.29284 0
M  V30 6152 H 567.751 3.66422 -1.02171 0
M  V30 6153 H 569.063 4.85899 -1.12709 0
M  V30 6154 H 568.217 5.9942 0.937056 0
M  V30 6155 H 566.956 4.744 1.13117 0
M  V30 6156 H 565.961 5.39066 -1.08112 0
M  V30 6157 H 567.186 6.6727 -1.26205 0
M  V30 6158 H 565.132 6.48725 0.974295 0
M  V30 6159 H 565.049 7.54981 -0.392398 0
M  V30 6160 H 566.317 7.756 0.778761 0
M  V30 6161 N 570.547 0.616602 1.45037 0
M  V30 6162 C 571.777 0.121791 2.06241 0
M  V30 6163 C 572.185 -1.20289 1.46038 0
M  V30 6164 O 571.528 -1.7456 0.572242 0
M  V30 6165 C 571.59 -0.0827345 3.59405 0
M  V30 6166 C 571.254 1.16153 4.41993 0
M  V30 6167 C 572.251 2.08183 4.76399 0
M  V30 6168 C 569.936 1.39288 4.82601 0
M  V30 6169 C 571.93 3.21668 5.5028 0
M  V30 6170 C 569.617 2.53073 5.56235 0
M  V30 6171 C 570.615 3.44091 5.89992 0
M  V30 6172 O 570.303 4.55894 6.6213 0
M  V30 6173 H 570.035 0.0701667 0.672349 0
M  V30 6174 H 572.589 0.846877 1.87129 0
M  V30 6175 H 570.819 -0.862812 3.76952 0
M  V30 6176 H 572.508 -0.530273 4.02421 0
M  V30 6177 H 573.274 1.91538 4.45576 0
M  V30 6178 H 569.153 0.693396 4.55755 0
M  V30 6179 H 572.697 3.92733 5.76547 0
M  V30 6180 H 568.594 2.69667 5.86472 0
M  V30 6181 H 569.362 4.5469 6.80587 0
M  V30 6182 N 572.025 -1.5352 0.356285 0
M  V30 6183 C 573.253 -2.05534 -0.237328 0
M  V30 6184 C 573.668 -1.23043 -1.43199 0
M  V30 6185 O 573.025 -0.268821 -1.80509 0
M  V30 6186 C 573.076 -3.55791 -0.639933 0
M  V30 6187 O 572.797 -4.35154 0.507233 0
M  V30 6188 C 574.298 -4.24027 -1.29292 0
M  V30 6189 H 571.518 -0.669585 -0.0435572 0
M  V30 6190 H 574.062 -1.97988 0.511963 0
M  V30 6191 H 572.217 -3.63518 -1.33915 0
M  V30 6192 H 572.631 -5.24178 0.18375 0
M  V30 6193 H 574.105 -5.30509 -1.52527 0
M  V30 6194 H 574.582 -3.77166 -2.25039 0
M  V30 6195 H 575.188 -4.20527 -0.63539 0
M  V30 6196 N 573.503 -0.0852151 -1.57369 0
M  V30 6197 C 574.433 0.874556 -2.16503 0
M  V30 6198 C 575.414 1.30111 -1.09568 0
M  V30 6199 O 576.599 1.36977 -1.37662 0
M  V30 6200 C 573.729 2.13731 -2.73745 0
M  V30 6201 C 572.683 1.84971 -3.85966 0
M  V30 6202 C 572.009 3.17991 -4.29867 0
M  V30 6203 C 573.309 1.14442 -5.09608 0
M  V30 6204 H 575.003 0.381899 -2.96954 0
M  V30 6205 H 572.549 0.18225 -1.42842 0
M  V30 6206 H 574.502 2.81302 -3.13763 0
M  V30 6207 H 573.226 2.65263 -1.90534 0
M  V30 6208 H 571.885 1.19801 -3.46473 0
M  V30 6209 H 571.533 3.6739 -3.4356 0
M  V30 6210 H 571.233 2.99534 -5.05523 0
M  V30 6211 H 572.757 3.86737 -4.72511 0
M  V30 6212 H 574.171 1.72105 -5.46857 0
M  V30 6213 H 572.568 1.06197 -5.90629 0
M  V30 6214 H 573.638 0.12559 -4.84737 0
M  V30 6215 N 574.981 1.5647 0.188427 0
M  V30 6216 C 575.891 1.98285 1.2538 0
M  V30 6217 C 576.907 0.891535 1.49424 0
M  V30 6218 O 578.083 1.19782 1.61908 0
M  V30 6219 C 575.148 2.31965 2.57669 0
M  V30 6220 C 574.209 3.54838 2.41638 0
M  V30 6221 C 573.442 3.86901 3.67618 0
M  V30 6222 O 573.665 3.20163 4.72072 0
M  V30 6223 O 572.599 4.80309 3.62749 0
M  V30 6224 H 576.425 2.89145 0.928912 0
M  V30 6225 H 574.01 1.44112 0.393955 0
M  V30 6226 H 575.892 2.54673 3.35737 0
M  V30 6227 H 574.567 1.44271 2.89771 0
M  V30 6228 H 573.474 3.37369 1.61658 0
M  V30 6229 H 574.807 4.43019 2.14465 0
M  V30 6230 N 576.459 -0.456382 1.50847 0
M  V30 6231 C 577.87 -1.03685 1.55262 0
M  V30 6232 C 578.221 -1.92779 0.364771 0
M  V30 6233 O 577.346 -2.10043 -0.52068 0
M  V30 6234 C 577.941 -1.88718 2.81374 0
M  V30 6235 C 576.5 -2.41847 2.88422 0
M  V30 6236 C 575.647 -1.20564 2.49719 0
M  V30 6237 H 578.598 -0.238399 1.56899 0
M  V30 6238 H 578.619 -2.73957 2.6406 0
M  V30 6239 H 578.131 -1.23847 3.67809 0
M  V30 6240 H 576.232 -3.10228 2.06372 0
M  V30 6241 H 576.345 -2.75947 3.9165 0
M  V30 6242 H 574.709 -1.54504 2.02486 0
M  V30 6243 H 575.492 -0.573326 3.38479 0
M  V30 6244 N 577.937 -1.40673 -0.710563 0
M  V30 6245 C 578.847 -1.43663 -1.85467 0
M  V30 6246 C 579.863 -0.328721 -1.70867 0
M  V30 6247 O 581.039 -0.574098 -1.93044 0
M  V30 6248 C 578.104 -1.30226 -3.21313 0
M  V30 6249 C 577.165 -2.51204 -3.48131 0
M  V30 6250 C 576.398 -2.38398 -4.77495 0
M  V30 6251 O 576.621 -1.40048 -5.5294 0
M  V30 6252 O 575.555 -3.2787 -5.04762 0
M  V30 6253 H 579.381 -2.40156 -1.859 0
M  V30 6254 H 576.966 -1.22049 -0.861652 0
M  V30 6255 H 578.848 -1.2496 -4.02446 0
M  V30 6256 H 577.523 -0.368419 -3.21597 0
M  V30 6257 H 576.43 -2.62048 -2.66987 0
M  V30 6258 H 577.763 -3.43366 -3.52648 0
M  V30 6259 N 579.415 0.9433 -1.26252 0
M  V30 6260 C 580.662 1.68925 -1.11672 0
M  V30 6261 C 580.99 1.91499 0.340329 0
M  V30 6262 O 580.245 1.49189 1.26653 0
M  V30 6263 C 580.544 3.07073 -1.82868 0
M  V30 6264 C 580.21 3.04262 -3.32769 0
M  V30 6265 C 578.872 3.03203 -3.7366 0
M  V30 6266 C 581.224 2.96729 -4.28487 0
M  V30 6267 C 578.552 2.92373 -5.0866 0
M  V30 6268 C 580.904 2.87442 -5.63525 0
M  V30 6269 C 579.568 2.84724 -6.03729 0
M  V30 6270 H 578.838 0.618141 -0.408635 0
M  V30 6271 H 581.485 1.10124 -1.56668 0
M  V30 6272 H 579.79 3.69486 -1.30335 0
M  V30 6273 H 581.487 3.63635 -1.69029 0
M  V30 6274 H 578.077 3.05865 -3.00241 0
M  V30 6275 H 582.261 2.96658 -3.97879 0
M  V30 6276 H 577.517 2.88645 -5.38975 0
M  V30 6277 H 581.691 2.80576 -6.37377 0
M  V30 6278 H 579.318 2.76089 -7.08293 0
M  V30 6279 N 580.893 1.08022 1.14757 0
M  V30 6280 C 582.123 0.827646 1.89298 0
M  V30 6281 C 582.531 -0.623506 1.78631 0
M  V30 6282 O 581.874 -1.43991 1.14071 0
M  V30 6283 C 581.936 1.16553 3.40082 0
M  V30 6284 C 581.6 2.61866 3.74533 0
M  V30 6285 C 582.597 3.60116 3.74984 0
M  V30 6286 C 580.282 2.97619 4.04633 0
M  V30 6287 C 582.276 4.92151 4.05051 0
M  V30 6288 C 579.963 4.2985 4.34364 0
M  V30 6289 C 580.961 5.26926 4.34555 0
M  V30 6290 O 580.649 6.5678 4.63568 0
M  V30 6291 H 580.381 0.298396 0.606577 0
M  V30 6292 H 582.935 1.44187 1.46285 0
M  V30 6293 H 581.165 0.494296 3.83528 0
M  V30 6294 H 582.854 0.894407 3.95923 0
M  V30 6295 H 583.62 3.33837 3.51821 0
M  V30 6296 H 579.499 2.22702 4.03639 0
M  V30 6297 H 583.043 5.67915 4.05115 0
M  V30 6298 H 578.94 4.55879 4.56995 0
M  V30 6299 H 579.708 6.62035 4.81303 0
M  V30 6300 N 582.371 -1.3172 0.865308 0
M  V30 6301 C 583.304 -2.26687 0.262376 0
M  V30 6302 C 584.282 -1.50894 -0.605787 0
M  V30 6303 O 585.466 -1.79982 -0.56024 0
M  V30 6304 C 582.593 -3.3281 -0.628915 0
M  V30 6305 C 581.639 -4.26172 0.167278 0
M  V30 6306 S 582.472 -5.12797 1.54272 0
M  V30 6307 C 583.628 -6.22438 0.657427 0
M  V30 6308 H 583.861 -2.77478 1.0674 0
M  V30 6309 H 581.394 -1.39414 0.663555 0
M  V30 6310 H 583.352 -3.94426 -1.13747 0
M  V30 6311 H 582.013 -2.80782 -1.40785 0
M  V30 6312 H 581.206 -5.01392 -0.51203 0
M  V30 6313 H 580.808 -3.69029 0.607777 0
M  V30 6314 H 583.1 -6.77368 -0.133925 0
M  V30 6315 H 584.043 -6.9451 1.38061 0
M  V30 6316 H 584.451 -5.64043 0.227044 0
M  V30 6317 N 583.85 -0.624285 -1.44708 0
M  V30 6318 C 585.127 -0.0572781 -1.95516 0
M  V30 6319 C 585.507 1.41516 -1.56641 0
M  V30 6320 O 584.855 2.12614 -0.837111 0
M  V30 6321 C 585.065 -0.272944 -3.47931 0
M  V30 6322 C 586.413 -0.162529 -4.24289 0
M  V30 6323 O 587.437 -0.203946 -3.55616 0
M  V30 6324 O 586.296 -0.0616847 -5.46465 0
M  V30 6325 H 583.389 0.0262219 -0.826584 0
M  V30 6326 H 585.936 -0.695512 -1.54793 0
M  V30 6327 H 584.707 -1.29492 -3.69253 0
M  V30 6328 H 584.331 0.399756 -3.95585 0
M  V30 6329 N 585.328 1.53329 -0.364422 0
M  V30 6330 C 586.739 1.86345 0.115039 0
M  V30 6331 C 587.09 1.28505 1.4826 0
M  V30 6332 O 586.215 0.606639 2.07723 0
M  V30 6333 C 586.81 3.38114 0.215522 0
M  V30 6334 C 585.369 3.70932 0.639237 0
M  V30 6335 C 584.516 2.76471 -0.214261 0
M  V30 6336 H 587.467 1.47593 -0.583258 0
M  V30 6337 H 587.488 3.66031 1.0393 0
M  V30 6338 H 587 3.80182 -0.779948 0
M  V30 6339 H 585.101 3.3442 1.64298 0
M  V30 6340 H 585.214 4.77302 0.41465 0
M  V30 6341 H 583.578 2.52724 0.316678 0
M  V30 6342 H 584.361 3.21373 -1.20725 0
M  V30 6343 N 586.806 0.0935595 1.57322 0
M  V30 6344 C 587.736 -0.863062 2.16964 0
M  V30 6345 C 588.717 -1.29528 1.10256 0
M  V30 6346 O 589.902 -1.36245 1.38387 0
M  V30 6347 C 587.032 -2.12276 2.74875 0
M  V30 6348 C 585.986 -1.82921 3.86942 0
M  V30 6349 C 585.312 -3.15707 4.31548 0
M  V30 6350 C 586.612 -1.11737 5.10208 0
M  V30 6351 H 588.306 -0.366145 2.97153 0
M  V30 6352 H 585.852 -0.174673 1.42937 0
M  V30 6353 H 587.805 -2.79634 3.1525 0
M  V30 6354 H 586.529 -2.64248 1.91938 0
M  V30 6355 H 585.188 -1.17961 3.47103 0
M  V30 6356 H 584.836 -3.65563 3.45504 0
M  V30 6357 H 584.536 -2.96849 5.07104 0
M  V30 6358 H 586.06 -3.84226 4.74555 0
M  V30 6359 H 587.474 -1.69203 5.47762 0
M  V30 6360 H 585.871 -1.03064 5.91183 0
M  V30 6361 H 586.941 -0.0998818 4.84797 0
M  V30 6362 N 588.284 -1.56567 -0.180126 0
M  V30 6363 C 589.509 -1.85975 -0.918041 0
M  V30 6364 C 589.934 -0.678888 -1.75422 0
M  V30 6365 O 589.292 0.372168 -1.77439 0
M  V30 6366 C 589.34 -3.13731 -1.77779 0
M  V30 6367 O 588.444 -2.95335 -2.87838 0
M  V30 6368 H 587.785 -0.61196 -0.257683 0
M  V30 6369 H 590.315 -2.03798 -0.180923 0
M  V30 6370 H 590.325 -3.4491 -2.17948 0
M  V30 6371 H 589 -3.99293 -1.16352 0
M  V30 6372 H 587.577 -2.7549 -2.51316 0
M  V30 6373 N 589.762 0.448376 -1.51087 0
M  V30 6374 C 591.039 1.20926 -1.53741 0
M  V30 6375 C 591.419 2.09025 -0.295222 0
M  V30 6376 O 590.767 2.16851 0.720283 0
M  V30 6377 C 590.977 2.02067 -2.84552 0
M  V30 6378 C 592.325 2.59486 -3.36084 0
M  V30 6379 O 593.349 2.12289 -2.86028 0
M  V30 6380 O 592.208 3.45539 -4.23397 0
M  V30 6381 H 589.302 0.549951 -0.617643 0
M  V30 6382 H 591.848 0.458344 -1.63393 0
M  V30 6383 H 590.62 1.37291 -3.66425 0
M  V30 6384 H 590.243 2.84246 -2.78011 0
M  V30 6385 N 591.24 1.41047 0.703093 0
M  V30 6386 C 592.489 1.39301 1.4587 0
M  V30 6387 C 592.802 0.00267077 1.956 0
M  V30 6388 O 594.008 -0.137414 2.71152 0
M  V30 6389 C 592.464 2.44891 2.63735 0
M  V30 6390 C 592.072 3.89796 2.20824 0
M  V30 6391 C 593.816 2.5227 3.41409 0
M  V30 6392 C 591.723 4.86955 3.35602 0
M  V30 6393 H 590.653 0.518005 0.547893 0
M  V30 6394 H 593.304 1.66839 0.764009 0
M  V30 6395 H 591.686 2.10472 3.35436 0
M  V30 6396 H 592.86 4.33424 1.56461 0
M  V30 6397 H 591.175 3.86008 1.56163 0
M  V30 6398 H 593.772 3.22044 4.26839 0
M  V30 6399 H 594.115 1.55714 3.86081 0
M  V30 6400 H 594.648 2.85742 2.7676 0
M  V30 6401 H 591.387 5.84888 2.9595 0
M  V30 6402 H 590.907 4.47982 3.98839 0
M  V30 6403 H 592.586 5.07361 4.01489 0
M  V30 6404 N 592.718 -0.936591 1.26751 0
M  V30 6405 C 593.995 -1.66094 1.03306 0
M  V30 6406 C 594.375 -2.06568 -0.435058 0
M  V30 6407 O 593.723 -1.79305 -1.41641 0
M  V30 6408 C 593.933 -2.86969 1.98619 0
M  V30 6409 C 595.281 -3.58516 2.27489 0
M  V30 6410 O 596.305 -2.97082 1.96522 0
M  V30 6411 O 595.164 -4.69181 2.80235 0
M  V30 6412 H 592.258 -0.727568 0.393158 0
M  V30 6413 H 594.804 -0.987914 1.3798 0
M  V30 6414 H 593.576 -2.53985 2.9767 0
M  V30 6415 H 593.199 -3.61996 1.64454 0
M  V30 6416 N 594.196 -1.08629 -1.14182 0
M  V30 6417 C 595.607 -0.838003 -1.66836 0
M  V30 6418 C 595.958 0.634885 -1.85644 0
M  V30 6419 O 595.083 1.49008 -1.56926 0
M  V30 6420 C 595.678 -1.51465 -3.03058 0
M  V30 6421 C 594.237 -1.31355 -3.52736 0
M  V30 6422 C 593.384 -1.57599 -2.28162 0
M  V30 6423 H 596.335 -1.24656 -0.982165 0
M  V30 6424 H 596.356 -0.943134 -3.68626 0
M  V30 6425 H 595.868 -2.58661 -2.89337 0
M  V30 6426 H 593.969 -0.262384 -3.71675 0
M  V30 6427 H 594.082 -2.04275 -4.33369 0
M  V30 6428 H 592.446 -0.997659 -2.34348 0
M  V30 6429 H 593.229 -2.66006 -2.17015 0
M  V30 6430 N 595.674 1.31259 -0.872281 0
M  V30 6431 C 596.637 2.26744 -0.334656 0
M  V30 6432 C 597.637 1.52307 0.515681 0
M  V30 6433 O 598.827 1.71148 0.324656 0
M  V30 6434 C 595.959 3.36841 0.524482 0
M  V30 6435 H 597.152 2.75812 -1.17762 0
M  V30 6436 H 594.705 1.42232 -0.648064 0
M  V30 6437 H 595.44 2.93069 1.38855 0
M  V30 6438 H 595.225 3.92009 -0.0844299 0
M  V30 6439 H 596.715 4.07944 0.892838 0
M  V30 6440 N 597.152 0.631951 1.44375 0
M  V30 6441 C 598.082 -0.0593243 2.33425 0
M  V30 6442 C 599.063 -0.833964 1.48253 0
M  V30 6443 O 600.248 -0.799682 1.76971 0
M  V30 6444 C 597.378 -1.04096 3.31333 0
M  V30 6445 C 596.332 -0.377899 4.26328 0
M  V30 6446 C 595.658 -1.4695 5.14111 0
M  V30 6447 C 596.958 0.716371 5.17364 0
M  V30 6448 H 598.652 0.684287 2.91475 0
M  V30 6449 H 596.198 0.330518 1.40156 0
M  V30 6450 H 598.151 -1.53331 3.92514 0
M  V30 6451 H 596.875 -1.81547 2.71493 0
M  V30 6452 H 595.534 0.0938054 3.6648 0
M  V30 6453 H 595.182 -2.2349 4.50623 0
M  V30 6454 H 594.882 -1.03121 5.78481 0
M  V30 6455 H 596.406 -1.96363 5.78164 0
M  V30 6456 H 597.82 0.307089 5.72477 0
M  V30 6457 H 596.217 1.07784 5.90341 0
M  V30 6458 H 597.287 1.58316 4.58327 0
M  V30 6459 N 598.631 -1.53133 0.372548 0
M  V30 6460 C 599.871 -2.03267 -0.214943 0
M  V30 6461 C 600.235 -1.25362 -1.45425 0
M  V30 6462 O 601.436 -1.65536 -2.11781 0
M  V30 6463 C 599.707 -3.53985 -0.492897 0
M  V30 6464 S 601.266 -4.25977 -1.05307 0
M  V30 6465 H 598.084 -0.708289 -0.062029 0
M  V30 6466 H 600.686 -1.88539 0.517025 0
M  V30 6467 H 599.39 -4.08282 0.416442 0
M  V30 6468 H 598.921 -3.72887 -1.25375 0
M  V30 6469 H 600.936 -4.37731 -2.33679 0
M  V30 6470 N 600.109 -0.101901 -1.5727 0
M  V30 6471 C 601.042 0.891377 -2.10071 0
M  V30 6472 C 602.02 1.27197 -1.01291 0
M  V30 6473 O 603.204 1.37602 -1.28833 0
M  V30 6474 C 600.331 2.19049 -2.58331 0
M  V30 6475 C 599.377 1.95925 -3.78834 0
M  V30 6476 S 600.21 1.19106 -5.22086 0
M  V30 6477 C 601.366 2.50234 -5.73702 0
M  V30 6478 H 601.599 0.442212 -2.93993 0
M  V30 6479 H 599.132 0.111529 -1.53997 0
M  V30 6480 H 601.09 2.937 -2.86793 0
M  V30 6481 H 599.751 2.61086 -1.74622 0
M  V30 6482 H 598.944 2.92143 -4.10693 0
M  V30 6483 H 598.546 1.29401 -3.50901 0
M  V30 6484 H 600.838 3.46173 -5.82384 0
M  V30 6485 H 601.781 2.22944 -6.72088 0
M  V30 6486 H 602.189 2.58818 -5.01671 0
M  V30 6487 N 601.587 1.56661 0.17182 0
M  V30 6488 C 602.517 1.99401 1.21498 0
M  V30 6489 C 603.498 0.869516 1.46197 0
M  V30 6490 O 604.683 1.13556 1.57539 0
M  V30 6491 C 601.813 2.35346 2.55401 0
M  V30 6492 C 600.767 3.5075 2.45272 0
M  V30 6493 C 600.093 3.72437 3.8366 0
M  V30 6494 C 601.393 4.84216 1.95787 0
M  V30 6495 H 603.087 2.86792 0.859699 0
M  V30 6496 H 600.633 1.37977 0.412103 0
M  V30 6497 H 602.586 2.63843 3.2858 0
M  V30 6498 H 601.31 1.44864 2.92715 0
M  V30 6499 H 599.969 3.2238 1.74547 0
M  V30 6500 H 599.617 2.79246 4.18367 0
M  V30 6501 H 599.317 4.50087 3.77751 0
M  V30 6502 H 600.841 4.03334 4.58426 0
M  V30 6503 H 602.255 5.11592 2.5874 0
M  V30 6504 H 600.652 5.65498 2.00827 0
M  V30 6505 H 601.722 4.76243 0.912159 0
M  V30 6506 N 603.065 -0.440357 1.51323 0
M  V30 6507 C 604.295 -1.21079 1.67402 0
M  V30 6508 C 604.703 -1.85555 0.369599 0
M  V30 6509 O 604.046 -1.71375 -0.661525 0
M  V30 6510 C 604.108 -2.33839 2.73056 0
M  V30 6511 C 603.772 -1.89755 4.15743 0
M  V30 6512 C 604.769 -1.40268 5.0062 0
M  V30 6513 C 602.454 -1.97539 4.61826 0
M  V30 6514 C 604.448 -0.991474 6.29642 0
M  V30 6515 C 602.135 -1.56029 5.90845 0
M  V30 6516 C 603.133 -1.06915 6.7458 0
M  V30 6517 O 602.821 -0.659933 8.01187 0
M  V30 6518 H 602.553 -0.371133 0.56501 0
M  V30 6519 H 605.107 -0.528409 1.98487 0
M  V30 6520 H 603.337 -3.05345 2.37279 0
M  V30 6521 H 605.026 -2.95713 2.78044 0
M  V30 6522 H 605.792 -1.33652 4.66221 0
M  V30 6523 H 601.671 -2.34713 3.96776 0
M  V30 6524 H 605.215 -0.607425 6.9495 0
M  V30 6525 H 601.112 -1.62315 6.24759 0
M  V30 6526 H 601.88 -0.786052 8.14717 0
M  V30 6527 N 604.543 -1.41418 -0.695603 0
M  V30 6528 C 605.792 -1.40073 -1.4513 0
M  V30 6529 C 606.105 -0.0130439 -1.95596 0
M  V30 6530 O 607.311 0.123032 -2.71221 0
M  V30 6531 C 605.767 -2.46286 -2.62433 0
M  V30 6532 C 605.375 -3.90962 -2.18753 0
M  V30 6533 C 607.119 -2.54077 -3.40066 0
M  V30 6534 C 605.026 -4.88728 -3.33015 0
M  V30 6535 H 603.956 -0.520903 -0.545138 0
M  V30 6536 H 606.607 -1.67242 -0.75515 0
M  V30 6537 H 604.989 -2.12248 -3.34315 0
M  V30 6538 H 606.163 -4.34248 -1.54161 0
M  V30 6539 H 604.478 -3.86831 -1.54114 0
M  V30 6540 H 607.075 -3.24303 -4.25125 0
M  V30 6541 H 607.418 -1.5776 -3.8525 0
M  V30 6542 H 607.951 -2.87206 -2.75241 0
M  V30 6543 H 604.69 -5.86449 -2.92844 0
M  V30 6544 H 604.21 -4.50091 -3.96457 0
M  V30 6545 H 605.889 -5.09483 -3.98793 0
M  V30 6546 N 606.021 0.929856 -1.27246 0
M  V30 6547 C 606.951 2.04722 -1.12299 0
M  V30 6548 C 607.932 1.70082 -0.0250464 0
M  V30 6549 O 609.117 1.93176 -0.199141 0
M  V30 6550 C 606.247 3.38721 -0.767145 0
M  V30 6551 C 605.201 3.87466 -1.81808 0
M  V30 6552 C 604.527 5.18246 -1.31626 0
M  V30 6553 C 605.827 4.11095 -3.22177 0
M  V30 6554 H 607.521 2.17485 -2.05769 0
M  V30 6555 H 605.067 1.04503 -0.990715 0
M  V30 6556 H 607.02 4.16366 -0.649413 0
M  V30 6557 H 605.744 3.25967 0.203259 0
M  V30 6558 H 604.403 3.12012 -1.92468 0
M  V30 6559 H 604.051 5.01881 -0.335378 0
M  V30 6560 H 603.751 5.51829 -2.01887 0
M  V30 6561 H 605.275 5.98462 -1.21143 0
M  V30 6562 H 606.689 4.79316 -3.1453 0
M  V30 6563 H 605.086 4.55982 -3.90129 0
M  V30 6564 H 606.156 3.16468 -3.67391 0
M  V30 6565 N 607.499 1.09233 1.13605 0
M  V30 6566 C 608.91 0.846839 1.6639 0
M  V30 6567 C 609.261 -0.625031 1.85978 0
M  V30 6568 O 608.386 -1.48173 1.57714 0
M  V30 6569 C 608.981 1.5307 3.0225 0
M  V30 6570 C 607.54 1.33223 3.52035 0
M  V30 6571 C 606.687 1.58806 2.27323 0
M  V30 6572 H 609.638 1.25175 0.975541 0
M  V30 6573 H 609.659 0.96267 3.68121 0
M  V30 6574 H 609.171 2.60192 2.87961 0
M  V30 6575 H 607.272 0.282091 3.71531 0
M  V30 6576 H 607.385 2.0657 4.32279 0
M  V30 6577 H 605.749 1.01007 2.33815 0
M  V30 6578 H 606.532 2.67153 2.15602 0
M  V30 6579 N 608.977 -1.30795 0.87923 0
M  V30 6580 C 610.223 -1.96653 0.495519 0
M  V30 6581 C 610.556 -1.69282 -0.951703 0
M  V30 6582 O 609.831 -0.994374 -1.6716 0
M  V30 6583 C 610.114 -3.51898 0.764174 0
M  V30 6584 C 609.967 -3.88808 2.2616 0
M  V30 6585 C 611.286 -4.39462 0.236825 0
M  V30 6586 H 608.405 -0.7143 0.181507 0
M  V30 6587 H 611.047 -1.54765 1.10217 0
M  V30 6588 H 609.197 -3.87709 0.247841 0
M  V30 6589 H 610.869 -3.63051 2.8459 0
M  V30 6590 H 609.112 -3.37082 2.73053 0
M  V30 6591 H 609.783 -4.97086 2.4002 0
M  V30 6592 H 612.259 -4.10528 0.678683 0
M  V30 6593 H 611.135 -5.47018 0.454176 0
M  V30 6594 H 611.396 -4.33621 -0.861683 0
M  V30 6595 N 610.455 -0.639598 -1.44038 0
M  V30 6596 C 611.732 -0.078012 -1.95444 0
M  V30 6597 C 612.112 1.39847 -1.58133 0
M  V30 6598 O 611.46 2.11714 -0.859614 0
M  V30 6599 C 611.67 -0.309832 -3.47622 0
M  V30 6600 C 613.018 -0.207521 -4.24093 0
M  V30 6601 O 614.042 -0.241653 -3.55379 0
M  V30 6602 O 612.901 -0.119641 -5.46369 0
M  V30 6603 H 609.995 0.0174534 -0.826816 0
M  V30 6604 H 612.541 -0.711891 -1.54046 0
M  V30 6605 H 611.313 -1.33401 -3.67858 0
M  V30 6606 H 610.936 0.357777 -3.95987 0
M  V30 6607 N 611.933 1.52934 -0.380664 0
M  V30 6608 C 613.182 2.00651 0.205477 0
M  V30 6609 C 613.495 1.27164 1.48623 0
M  V30 6610 O 614.701 1.65547 2.15189 0
M  V30 6611 C 613.157 3.57479 0.416726 0
M  V30 6612 C 612.765 4.39857 -0.850268 0
M  V30 6613 C 614.509 4.13509 0.959702 0
M  V30 6614 C 612.416 5.88269 -0.607773 0
M  V30 6615 H 611.346 0.749684 0.0805614 0
M  V30 6616 H 613.997 1.76508 -0.501732 0
M  V30 6617 H 612.379 3.77836 1.18557 0
M  V30 6618 H 613.553 4.31269 -1.62307 0
M  V30 6619 H 611.868 3.95005 -1.31756 0
M  V30 6620 H 614.465 5.22039 1.15669 0
M  V30 6621 H 614.808 3.69054 1.92626 0
M  V30 6622 H 615.341 3.9701 0.250645 0
M  V30 6623 H 612.08 6.3703 -1.54509 0
M  V30 6624 H 611.6 5.99667 0.126247 0
M  V30 6625 H 613.279 6.46558 -0.239014 0
M  V30 6626 N 613.412 0.11024 1.57214 0
M  V30 6627 C 614.689 -0.592956 1.86396 0
M  V30 6628 C 615.069 -1.85379 1.00985 0
M  V30 6629 O 614.417 -2.28337 0.0863592 0
M  V30 6630 C 614.627 -0.893816 3.3736 0
M  V30 6631 C 615.975 -1.25069 4.05762 0
M  V30 6632 O 616.999 -0.984356 3.42329 0
M  V30 6633 O 615.858 -1.75017 5.17718 0
M  V30 6634 H 612.952 -0.29828 0.771335 0
M  V30 6635 H 615.498 0.144083 1.69087 0
M  V30 6636 H 614.27 2.6031e-05 3.913 0
M  V30 6637 H 613.893 -1.68631 3.60068 0
M  V30 6638 N 614.89 -1.56749 -0.16351 0
M  V30 6639 C 616.167 -1.73321 -0.906599 0
M  V30 6640 C 616.547 -0.673779 -2.00059 0
M  V30 6641 O 615.895 0.310121 -2.26386 0
M  V30 6642 C 616.105 -3.168 -1.46419 0
M  V30 6643 C 617.453 -3.77993 -1.93407 0
M  V30 6644 O 618.477 -3.20127 -1.56196 0
M  V30 6645 O 617.336 -4.79615 -2.61976 0
M  V30 6646 H 614.43 -0.708073 -0.427272 0
M  V30 6647 H 616.976 -1.69029 -0.150727 0
M  V30 6648 H 615.748 -3.85396 -0.677189 0
M  V30 6649 H 615.371 -3.2545 -2.28403 0
M  V30 6650 N 616.368 0.432326 -1.51554 0
M  V30 6651 C 617.316 1.54572 -1.73811 0
M  V30 6652 C 618.31 1.58246 -0.604539 0
M  V30 6653 O 619.516 1.6193 -0.786041 0
M  V30 6654 H 615.891 0.513626 -0.549265 0
M  V30 6655 H 617.862 1.32977 -2.67132 0
M  V30 6656 C 616.611 2.92181 -1.88483 0
M  V30 6657 H 615.934 2.90088 -2.75116 0
M  V30 6658 H 617.374 3.69439 -2.08065 0
M  V30 6659 C 615.833 3.3065 -0.645909 0
M  V30 6660 O 616.363 4.01216 0.197093 0
M  V30 6661 N 614.569 2.86464 -0.488538 0
M  V30 6662 H 614.116 2.29209 -1.17562 0
M  V30 6663 H 614.074 3.12565 0.339156 0
M  V30 6664 N 617.846 1.41785 0.688094 0
M  V30 6665 C 619.074 1.44915 1.47673 0
M  V30 6666 C 619.489 0.0565786 1.88715 0
M  V30 6667 O 618.846 -0.92579 1.57275 0
M  V30 6668 C 618.897 2.36452 2.73446 0
M  V30 6669 O 618.618 3.7029 2.34131 0
M  V30 6670 C 620.119 2.48463 3.67125 0
M  V30 6671 H 617.339 0.493324 0.454832 0
M  V30 6672 H 619.883 1.86153 0.846594 0
M  V30 6673 H 618.038 1.98502 3.3268 0
M  V30 6674 H 618.452 4.19183 3.15255 0
M  V30 6675 H 619.926 3.16662 4.52138 0
M  V30 6676 H 620.403 1.51826 4.12123 0
M  V30 6677 H 621.009 2.8708 3.13792 0
M  V30 6678 N 619.324 -0.923095 1.27737 0
M  V30 6679 C 620.571 -1.67127 1.14345 0
M  V30 6680 C 620.899 -1.92017 -0.30982 0
M  V30 6681 O 620.154 -1.51185 -1.24264 0
M  V30 6682 C 620.453 -3.04125 1.8773 0
M  V30 6683 C 620.119 -2.98929 3.37568 0
M  V30 6684 C 618.781 -2.9722 3.78436 0
M  V30 6685 C 621.133 -2.89875 4.33154 0
M  V30 6686 C 618.461 -2.84244 5.13247 0
M  V30 6687 C 620.813 -2.7844 5.68026 0
M  V30 6688 C 619.477 -2.75083 6.08182 0
M  V30 6689 H 618.747 -0.611562 0.418417 0
M  V30 6690 H 621.394 -1.07618 1.584 0
M  V30 6691 H 619.699 -3.67366 1.36196 0
M  V30 6692 H 621.396 -3.609 1.74792 0
M  V30 6693 H 617.986 -3.0105 3.05069 0
M  V30 6694 H 622.17 -2.9029 4.02548 0
M  V30 6695 H 617.426 -2.80034 5.43499 0
M  V30 6696 H 621.6 -2.70401 6.4176 0
M  V30 6697 H 619.227 -2.64786 7.12596 0
M  V30 6698 N 620.802 -1.09834 -1.13024 0
M  V30 6699 C 622.051 -0.831806 -1.83749 0
M  V30 6700 C 622.364 0.644763 -1.84668 0
M  V30 6701 O 623.57 1.02697 -2.51327 0
M  V30 6702 C 622.026 -1.43817 -3.29916 0
M  V30 6703 C 621.634 -2.94759 -3.37374 0
M  V30 6704 C 623.378 -1.25077 -4.05655 0
M  V30 6705 C 621.285 -3.48461 -4.77838 0
M  V30 6706 H 620.215 -0.30751 -0.688443 0
M  V30 6707 H 622.866 -1.32156 -1.27307 0
M  V30 6708 H 621.248 -0.876106 -3.86187 0
M  V30 6709 H 622.422 -3.57228 -2.91076 0
M  V30 6710 H 620.737 -3.12581 -2.75103 0
M  V30 6711 H 623.334 -1.62649 -5.09362 0
M  V30 6712 H 623.677 -0.191782 -4.15858 0
M  V30 6713 H 624.21 -1.78057 -3.55725 0
M  V30 6714 H 620.949 -4.53998 -4.72828 0
M  V30 6715 H 620.469 -2.90757 -5.24615 0
M  V30 6716 H 622.148 -3.45914 -5.46766 0
M  V30 6717 N 622.28 1.30327 -0.886154 0
M  V30 6718 C 623.21 2.30549 -0.370028 0
M  V30 6719 C 624.191 1.61039 0.547751 0
M  V30 6720 O 625.376 1.8864 0.461353 0
M  V30 6721 C 622.506 3.44808 0.415275 0
M  V30 6722 C 621.46 4.26024 -0.41085 0
M  V30 6723 C 620.786 5.32347 0.501128 0
M  V30 6724 C 622.086 4.95433 -1.65359 0
M  V30 6725 H 623.78 2.73969 -1.20754 0
M  V30 6726 H 621.326 1.3171 -0.582097 0
M  V30 6727 H 623.279 4.13986 0.78699 0
M  V30 6728 H 622.003 3.00197 1.28644 0
M  V30 6729 H 620.662 3.58535 -0.764719 0
M  V30 6730 H 620.31 4.83982 1.37004 0
M  V30 6731 H 620.01 5.87581 -0.0478356 0
M  V30 6732 H 621.534 6.0438 0.869333 0
M  V30 6733 H 622.948 5.5712 -1.35239 0
M  V30 6734 H 621.345 5.60537 -2.14284 0
M  V30 6735 H 622.415 4.21493 -2.39733 0
M  V30 6736 N 623.758 0.647228 1.43697 0
M  V30 6737 C 625.006 0.157876 2.01482 0
M  V30 6738 C 625.327 -1.23039 1.51282 0
M  V30 6739 O 624.597 -1.82071 0.722982 0
M  V30 6740 H 623.177 0.0553745 0.744945 0
M  V30 6741 H 625.839 0.83755 1.75986 0
M  V30 6742 H 624.935 0.137895 3.11795 0
M  V30 6743 N 625.236 -1.5273 0.388769 0
M  V30 6744 C 626.513 -1.93981 -0.251133 0
M  V30 6745 C 626.893 -1.32418 -1.64404 0
M  V30 6746 O 626.241 -0.492074 -2.23139 0
M  V30 6747 C 626.451 -3.47891 -0.27802 0
M  V30 6748 C 627.799 -4.21559 -0.507229 0
M  V30 6749 O 628.823 -3.54394 -0.358252 0
M  V30 6750 O 627.682 -5.40626 -0.799094 0
M  V30 6751 H 624.776 -0.812157 -0.15598 0
M  V30 6752 H 627.322 -1.63809 0.443237 0
M  V30 6753 H 626.094 -3.8503 0.697669 0
M  V30 6754 H 625.717 -3.84364 -1.01733 0
M  V30 6755 N 626.714 -0.118576 -1.57153 0
M  V30 6756 C 628.125 0.40687 -1.82213 0
M  V30 6757 C 628.476 1.66636 -1.03571 0
M  V30 6758 O 627.601 2.14682 -0.272171 0
M  V30 6759 C 628.196 0.744949 -3.30509 0
M  V30 6760 C 626.755 1.21503 -3.5625 0
M  V30 6761 C 625.902 0.223511 -2.76398 0
M  V30 6762 H 628.853 -0.343712 -1.54933 0
M  V30 6763 H 628.874 1.6024 -3.45114 0
M  V30 6764 H 628.386 -0.171911 -3.87719 0
M  V30 6765 H 626.487 2.1488 -3.04396 0
M  V30 6766 H 626.6 1.16065 -4.64829 0
M  V30 6767 H 624.964 0.71046 -2.44591 0
M  V30 6768 H 625.747 -0.686439 -3.36367 0
M  V30 6769 N 628.193 1.56834 0.155195 0
M  V30 6770 C 629.44 1.82898 0.869179 0
M  V30 6771 C 629.768 0.698194 1.81537 0
M  V30 6772 O 629.023 -0.313404 1.93174 0
M  V30 6773 C 629.322 3.15239 1.68402 0
M  V30 6774 C 628.988 4.42123 0.885341 0
M  V30 6775 C 627.65 4.76583 0.664971 0
M  V30 6776 C 630.002 5.20178 0.326234 0
M  V30 6777 C 627.33 5.86566 -0.125346 0
M  V30 6778 C 629.682 6.3099 -0.45108 0
M  V30 6779 C 628.346 6.64006 -0.682102 0
M  V30 6780 H 627.616 0.66927 0.318055 0
M  V30 6781 H 630.263 1.91036 0.133241 0
M  V30 6782 H 628.568 3.02515 2.48982 0
M  V30 6783 H 630.265 3.32618 2.23978 0
M  V30 6784 H 626.855 4.15102 1.06716 0
M  V30 6785 H 631.039 4.93936 0.483787 0
M  V30 6786 H 626.295 6.10594 -0.313915 0
M  V30 6787 H 630.469 6.9067 -0.89149 0
M  V30 6788 H 628.096 7.49065 -1.29636 0
M  V30 6789 N 629.671 -0.424282 1.51781 0
M  V30 6790 C 630.604 -1.53633 1.68737 0
M  V30 6791 C 631.582 -1.53549 0.534915 0
M  V30 6792 O 632.766 -1.72483 0.760391 0
M  V30 6793 C 629.893 -2.92195 1.71288 0
M  V30 6794 C 628.939 -3.10251 2.92654 0
M  V30 6795 S 629.772 -2.85166 4.53256 0
M  V30 6796 C 630.928 -4.25986 4.58571 0
M  V30 6797 H 631.161 -1.39018 2.62795 0
M  V30 6798 H 628.694 -0.614854 1.41629 0
M  V30 6799 H 630.652 -3.72059 1.73443 0
M  V30 6800 H 629.313 -3.04162 0.783847 0
M  V30 6801 H 628.506 -4.1159 2.90877 0
M  V30 6802 H 628.108 -2.38231 2.88308 0
M  V30 6803 H 630.4 -5.19392 4.35015 0
M  V30 6804 H 631.343 -4.32792 5.60444 0
M  V30 6805 H 631.751 -4.1025 3.87757 0
M  V30 6806 N 631.149 -1.42148 -0.680565 0
M  V30 6807 C 632.565 -1.24947 -0.992995 0
M  V30 6808 C 632.765 -0.149527 -2.00944 0
M  V30 6809 O 631.821 0.481145 -2.47873 0
M  V30 6810 C 633.134 -2.60426 -1.5033 0
M  V30 6811 C 634.682 -2.67733 -1.62137 0
M  V30 6812 C 635.157 -4.03564 -2.16565 0
M  V30 6813 N 636.648 -4.05488 -2.23905 0
M  V30 6814 C 637.383 -5.07401 -2.67081 0
M  V30 6815 N 636.879 -6.19698 -3.09751 0
M  V30 6816 N 638.672 -4.94758 -2.66778 0
M  V30 6817 H 630.823 -2.12399 -0.0074788 0
M  V30 6818 H 633.086 -0.94571 -0.0658529 0
M  V30 6819 H 632.792 -3.41743 -0.830947 0
M  V30 6820 H 632.666 -2.83949 -2.483 0
M  V30 6821 H 635.053 -1.86765 -2.2848 0
M  V30 6822 H 635.134 -2.48004 -0.626713 0
M  V30 6823 H 634.778 -4.84987 -1.50833 0
M  V30 6824 H 634.708 -4.20641 -3.1681 0
M  V30 6825 H 637.199 -3.24415 -1.93812 0
M  V30 6826 H 637.512 -6.93318 -3.41365 0
M  V30 6827 H 635.857 -6.23212 -3.07623 0
M  V30 6828 H 639.048 -4.06105 -2.32801 0
M  V30 6829 H 639.221 -5.74317 -3.00107 0
M  V30 6830 N 632.627 0.916307 -1.28225 0
M  V30 6831 C 633.574 2.01841 -1.11932 0
M  V30 6832 C 634.544 1.66091 -0.0171604 0
M  V30 6833 O 635.729 1.89934 -0.181617 0
M  V30 6834 C 632.869 3.36065 -0.784504 0
M  V30 6835 C 631.982 3.847 -1.96544 0
M  V30 6836 C 631.117 5.07423 -1.57149 0
M  V30 6837 C 630.156 5.48384 -2.71922 0
M  V30 6838 N 629.293 6.62298 -2.33037 0
M  V30 6839 H 634.133 2.1511 -2.06232 0
M  V30 6840 H 631.67 1.05366 -1.02647 0
M  V30 6841 H 633.628 4.13272 -0.571148 0
M  V30 6842 H 632.258 3.22571 0.121565 0
M  V30 6843 H 631.31 3.03673 -2.291 0
M  V30 6844 H 632.622 4.1102 -2.82603 0
M  V30 6845 H 631.776 5.92165 -1.32004 0
M  V30 6846 H 630.515 4.82906 -0.682153 0
M  V30 6847 H 629.52 4.62184 -2.97768 0
M  V30 6848 H 630.745 5.7489 -3.61494 0
M  V30 6849 H 628.691 6.39416 -1.4657 0
M  V30 6850 H 628.608 6.8833 -3.12631 0
M  V30 6851 H 629.876 7.50352 -2.11169 0
M  V30 6852 N 634.105 1.10431 1.1244 0
M  V30 6853 C 635.335 0.867612 1.87499 0
M  V30 6854 C 635.743 -0.585475 1.79913 0
M  V30 6855 O 635.086 -1.41539 1.171 0
M  V30 6856 C 635.148 1.2374 3.37533 0
M  V30 6857 C 634.812 2.69751 3.68895 0
M  V30 6858 C 635.809 3.67988 3.67261 0
M  V30 6859 C 633.494 3.06135 3.98229 0
M  V30 6860 C 635.488 5.00632 3.9452 0
M  V30 6861 C 633.175 4.38967 4.25149 0
M  V30 6862 C 634.173 5.36025 4.23281 0
M  V30 6863 O 633.861 6.66465 4.49533 0
M  V30 6864 H 633.593 0.311196 0.600111 0
M  V30 6865 H 636.147 1.47257 1.43194 0
M  V30 6866 H 634.377 0.575537 3.82393 0
M  V30 6867 H 636.066 0.978187 3.93937 0
M  V30 6868 H 636.832 3.41224 3.44661 0
M  V30 6869 H 632.711 2.31214 3.98825 0
M  V30 6870 H 636.255 5.7638 3.92978 0
M  V30 6871 H 632.152 4.6547 4.47223 0
M  V30 6872 H 632.92 6.72095 4.67152 0
M  V30 6873 N 635.583 -1.29855 0.893053 0
M  V30 6874 C 636.83 -1.95826 0.515585 0
M  V30 6875 C 637.158 -1.70451 -0.936842 0
M  V30 6876 O 636.413 -1.00657 -1.67829 0
M  V30 6877 C 636.712 -3.49515 0.746588 0
M  V30 6878 C 636.378 -3.94955 2.17535 0
M  V30 6879 C 635.04 -4.07073 2.56603 0
M  V30 6880 C 637.392 -4.18536 3.10607 0
M  V30 6881 C 634.72 -4.40138 3.87938 0
M  V30 6882 C 637.072 -4.53073 4.41484 0
M  V30 6883 C 635.736 -4.634 4.80434 0
M  V30 6884 H 635.006 -0.71658 0.188666 0
M  V30 6885 H 637.653 -1.54574 1.13045 0
M  V30 6886 H 635.958 -3.9177 0.0487551 0
M  V30 6887 H 637.655 -3.98644 0.434009 0
M  V30 6888 H 634.245 -3.86035 1.86212 0
M  V30 6889 H 638.429 -4.08646 2.81641 0
M  V30 6890 H 633.685 -4.46335 4.17846 0
M  V30 6891 H 637.859 -4.70269 5.13634 0
M  V30 6892 H 635.486 -4.88775 5.82239 0
M  V30 6893 N 637.061 -0.65484 -1.43351 0
M  V30 6894 C 638.289 -0.176685 -2.06144 0
M  V30 6895 C 638.704 1.15831 -1.49093 0
M  V30 6896 O 638.061 1.71542 -0.622868 0
M  V30 6897 C 638.112 -0.0813326 -3.61408 0
M  V30 6898 O 637.833 -1.36355 -4.1634 0
M  V30 6899 C 639.334 0.422706 -4.4128 0
M  V30 6900 H 636.554 -0.0906429 -0.66485 0
M  V30 6901 H 639.098 -0.895945 -1.83829 0
M  V30 6902 H 637.253 0.588496 -3.82904 0
M  V30 6903 H 637.667 -1.22381 -5.10023 0
M  V30 6904 H 639.141 0.438375 -5.50257 0
M  V30 6905 H 639.618 1.45432 -4.14423 0
M  V30 6906 H 640.224 -0.214687 -4.24758 0
M  V30 6907 N 638.539 1.52521 -0.396863 0
M  V30 6908 C 639.785 2.01971 0.183169 0
M  V30 6909 C 640.118 1.2825 1.45827 0
M  V30 6910 O 639.393 0.385179 1.90648 0
M  V30 6911 C 639.676 3.5736 0.443391 0
M  V30 6912 C 639.529 4.41743 -0.84753 0
M  V30 6913 C 640.848 4.22539 1.2308 0
M  V30 6914 H 637.967 0.734119 0.0650976 0
M  V30 6915 H 640.609 1.82519 -0.527918 0
M  V30 6916 H 638.759 3.74066 1.04914 0
M  V30 6917 H 640.431 4.36773 -1.48414 0
M  V30 6918 H 638.674 4.0845 -1.4612 0
M  V30 6919 H 639.345 5.48507 -0.620003 0
M  V30 6920 H 641.821 4.09857 0.718084 0
M  V30 6921 H 640.697 5.31227 1.38162 0
M  V30 6922 H 640.958 3.80675 2.24808 0
M  V30 6923 N 640.017 0.126909 1.57088 0
M  V30 6924 C 641.264 -0.529168 1.95464 0
M  V30 6925 C 641.592 -1.6618 1.01067 0
M  V30 6926 O 640.847 -1.95667 0.0360254 0
M  V30 6927 C 641.146 -1.095 3.40212 0
M  V30 6928 C 640.812 -0.0829015 4.50824 0
M  V30 6929 C 639.474 0.195377 4.80803 0
M  V30 6930 C 641.826 0.606411 5.1766 0
M  V30 6931 C 639.154 1.16912 5.74933 0
M  V30 6932 C 641.506 1.56884 6.12838 0
M  V30 6933 C 640.17 1.85502 6.41206 0
M  V30 6934 H 639.44 -0.193636 0.715252 0
M  V30 6935 H 642.087 0.209489 1.90351 0
M  V30 6936 H 640.392 -1.91058 3.42059 0
M  V30 6937 H 642.089 -1.61087 3.67222 0
M  V30 6938 H 638.679 -0.309979 4.27478 0
M  V30 6939 H 642.863 0.404597 4.94648 0
M  V30 6940 H 638.119 1.3975 5.95214 0
M  V30 6941 H 642.293 2.10859 6.6371 0
M  V30 6942 H 639.92 2.61109 7.13951 0
M  V30 6943 N 641.495 -1.56914 -0.146875 0
M  V30 6944 C 642.772 -1.74273 -0.888165 0
M  V30 6945 C 643.152 -0.69496 -1.99333 0
M  V30 6946 O 642.5 0.286093 -2.26702 0
M  V30 6947 C 642.71 -3.18336 -1.43051 0
M  V30 6948 C 644.058 -3.80024 -1.89387 0
M  V30 6949 O 645.082 -3.21765 -1.52792 0
M  V30 6950 O 643.941 -4.82367 -2.56874 0
M  V30 6951 H 641.035 -0.712565 -0.419738 0
M  V30 6952 H 643.581 -1.6918 -0.132791 0
M  V30 6953 H 642.353 -3.86092 -0.636274 0
M  V30 6954 H 641.976 -3.27854 -2.24938 0
M  V30 6955 N 642.974 0.416227 -1.52004 0
M  V30 6956 C 644.204 1.18401 -1.69307 0
M  V30 6957 C 644.612 1.84943 -0.399072 0
M  V30 6958 O 643.955 1.72406 0.634177 0
M  V30 6959 C 644.017 2.29465 -2.76742 0
M  V30 6960 C 643.681 1.83117 -4.18709 0
M  V30 6961 C 644.678 1.32286 -5.02789 0
M  V30 6962 C 642.363 1.90167 -4.64911 0
M  V30 6963 C 644.357 0.891178 -6.31139 0
M  V30 6964 C 642.044 1.4661 -5.93253 0
M  V30 6965 C 643.042 0.961696 -6.76196 0
M  V30 6966 O 642.73 0.532388 -8.02135 0
M  V30 6967 H 642.462 0.362098 -0.570843 0
M  V30 6968 H 645.016 0.496764 -1.99302 0
M  V30 6969 H 643.246 3.01531 -2.42107 0
M  V30 6970 H 644.935 2.91252 -2.82713 0
M  V30 6971 H 645.701 1.26218 -4.68288 0
M  V30 6972 H 641.58 2.28371 -4.00459 0
M  V30 6973 H 645.124 0.496788 -6.95829 0
M  V30 6974 H 641.021 1.52355 -6.27263 0
M  V30 6975 H 641.789 0.656339 -8.15864 0
M  V30 6976 N 644.452 1.42507 0.673017 0
M  V30 6977 C 645.362 1.4853 1.81593 0
M  V30 6978 C 646.378 0.373907 1.69935 0
M  V30 6979 O 647.554 0.625078 1.91454 0
M  V30 6980 C 644.619 1.387 3.17747 0
M  V30 6981 C 643.68 2.60346 3.41348 0
M  V30 6982 C 642.913 2.50975 4.71007 0
M  V30 6983 O 643.136 1.54659 5.49033 0
M  V30 6984 O 642.07 3.41138 4.95892 0
M  V30 6985 H 645.896 2.45001 1.79467 0
M  V30 6986 H 643.481 1.2429 0.82899 0
M  V30 6987 H 645.363 1.35586 3.98992 0
M  V30 6988 H 644.038 0.453555 3.20507 0
M  V30 6989 H 642.945 2.69034 2.59945 0
M  V30 6990 H 644.278 3.52595 3.43421 0
M  V30 6991 N 645.93 -0.909495 1.28709 0
M  V30 6992 C 646.877 -2.01245 1.13 0
M  V30 6993 C 647.847 -1.6608 0.0259684 0
M  V30 6994 O 649.032 -1.89835 0.191687 0
M  V30 6995 C 646.172 -3.35644 0.802315 0
M  V30 6996 C 645.285 -3.83653 1.98582 0
M  V30 6997 C 644.42 -5.06582 1.59837 0
M  V30 6998 C 643.459 -5.46934 2.74827 0
M  V30 6999 N 642.596 -6.61053 2.36546 0
M  V30 7000 H 647.436 -2.14013 2.0737 0
M  V30 7001 H 644.973 -1.0482 1.03205 0
M  V30 7002 H 646.931 -4.12963 0.593057 0
M  V30 7003 H 645.561 -3.22631 -0.104457 0
M  V30 7004 H 644.613 -3.02454 2.30708 0
M  V30 7005 H 645.925 -4.09515 2.84779 0
M  V30 7006 H 645.079 -5.91457 1.35143 0
M  V30 7007 H 643.818 -4.82537 0.707753 0
M  V30 7008 H 642.823 -4.60599 3.00215 0
M  V30 7009 H 644.048 -5.72965 3.64538 0
M  V30 7010 H 641.994 -6.3863 1.49959 0
M  V30 7011 H 641.911 -6.86662 3.16277 0
M  V30 7012 H 643.179 -7.49221 2.15146 0
M  V30 7013 N 647.408 -1.11026 -1.11852 0
M  V30 7014 C 648.318 -0.777252 -2.2135 0
M  V30 7015 C 649.334 0.227821 -1.72502 0
M  V30 7016 O 650.51 0.0650587 -2.01295 0
M  V30 7017 C 647.575 -0.220668 -3.45997 0
M  V30 7018 C 646.636 -1.2838 -4.09655 0
M  V30 7019 C 645.869 -0.753678 -5.28352 0
M  V30 7020 O 646.092 0.417779 -5.68868 0
M  V30 7021 O 645.026 -1.51647 -5.82483 0
M  V30 7022 H 648.852 -1.69141 -2.5224 0
M  V30 7023 H 646.437 -0.885836 -1.20305 0
M  V30 7024 H 648.319 0.0855756 -4.21313 0
M  V30 7025 H 646.994 0.666262 -3.16769 0
M  V30 7026 H 645.901 -1.64299 -3.3609 0
M  V30 7027 H 647.234 -2.14396 -4.43052 0
M  V30 7028 N 648.886 1.2938 -0.899927 0
M  V30 7029 C 650.111 2.00228 -0.540692 0
M  V30 7030 C 650.536 1.66909 0.867359 0
M  V30 7031 O 649.894 0.893824 1.57735 0
M  V30 7032 C 649.942 3.52921 -0.740232 0
M  V30 7033 O 649.046 4.11879 0.207154 0
M  V30 7034 H 648.387 0.629505 -0.211233 0
M  V30 7035 H 650.917 1.6487 -1.21158 0
M  V30 7036 H 650.927 4.0287 -0.644973 0
M  V30 7037 H 649.602 3.76508 -1.76677 0
M  V30 7038 H 648.179 3.72845 0.0643315 0
M  V30 7039 N 650.364 0.662433 1.43002 0
M  V30 7040 C 651.61 0.179857 2.02001 0
M  V30 7041 C 651.943 -1.20625 1.52195 0
M  V30 7042 O 651.218 -1.80726 0.718911 0
M  V30 7043 C 651.501 0.200845 3.59539 0
M  V30 7044 C 651.354 1.62153 4.19555 0
M  V30 7045 C 652.673 -0.457738 4.37713 0
M  V30 7046 H 649.792 0.0668305 0.733964 0
M  V30 7047 H 652.434 0.84487 1.70182 0
M  V30 7048 H 650.584 -0.365411 3.86778 0
M  V30 7049 H 652.256 2.23908 4.03315 0
M  V30 7050 H 650.499 2.16601 3.75854 0
M  V30 7051 H 651.17 1.58799 5.28665 0
M  V30 7052 H 653.646 0.0241495 4.16093 0
M  V30 7053 H 652.522 -0.412363 5.47349 0
M  V30 7054 H 652.783 -1.53336 4.14657 0
M  V30 7055 N 651.842 -1.52309 0.404946 0
M  V30 7056 C 653.09 -2.01368 -0.17186 0
M  V30 7057 C 653.411 -1.29261 -1.46002 0
M  V30 7058 O 652.681 -0.41729 -1.91404 0
M  V30 7059 H 651.261 -0.744034 -0.0664993 0
M  V30 7060 H 653.923 -1.87263 0.540228 0
M  V30 7061 H 653.019 -3.09888 -0.370957 0
M  V30 7062 N 653.32 -0.135238 -1.57019 0
M  V30 7063 C 654.567 0.518794 -1.95742 0
M  V30 7064 C 654.895 1.65642 -1.01947 0
M  V30 7065 O 654.15 1.95645 -0.0464016 0
M  V30 7066 C 654.449 1.07694 -3.40788 0
M  V30 7067 C 654.115 0.058992 -4.50861 0
M  V30 7068 C 652.777 -0.220872 -4.80693 0
M  V30 7069 C 655.129 -0.633856 -5.17331 0
M  V30 7070 C 652.457 -1.19959 -5.74305 0
M  V30 7071 C 654.809 -1.60131 -6.11997 0
M  V30 7072 C 653.473 -1.889 -6.40213 0
M  V30 7073 H 652.743 0.18984 -0.716269 0
M  V30 7074 H 655.39 -0.219581 -1.90237 0
M  V30 7075 H 653.695 1.89241 -3.43067 0
M  V30 7076 H 655.392 1.59137 -3.68071 0
M  V30 7077 H 651.982 0.287304 -4.27636 0
M  V30 7078 H 656.166 -0.430823 -4.94427 0
M  V30 7079 H 651.422 -1.42905 -5.94465 0
M  V30 7080 H 655.596 -2.14376 -6.62583 0
M  V30 7081 H 653.223 -2.64891 -7.12556 0
M  V30 7082 N 654.798 1.5699 0.138552 0
M  V30 7083 C 655.761 1.97984 1.15478 0
M  V30 7084 C 656.761 0.867416 1.35398 0
M  V30 7085 O 657.951 1.13387 1.32246 0
M  V30 7086 C 655.083 2.3031 2.51337 0
M  V30 7087 H 656.276 2.88953 0.802896 0
M  V30 7088 H 653.829 1.51555 0.382189 0
M  V30 7089 H 654.564 1.42159 2.91481 0
M  V30 7090 H 654.349 3.11425 2.38237 0
M  V30 7091 H 655.839 2.62834 3.24512 0
M  V30 7092 N 656.276 -0.40816 1.52223 0
M  V30 7093 C 657.522 -1.15673 1.66576 0
M  V30 7094 C 657.855 -1.90141 0.394996 0
M  V30 7095 O 657.13 -1.84798 -0.606613 0
M  V30 7096 C 657.413 -2.15042 2.88841 0
M  V30 7097 C 657.266 -1.44465 4.25969 0
M  V30 7098 C 658.585 -3.15699 3.0663 0
M  V30 7099 H 655.704 -0.41916 0.606196 0
M  V30 7100 H 658.346 -0.442348 1.84779 0
M  V30 7101 H 656.496 -2.75964 2.73452 0
M  V30 7102 H 658.168 -0.866544 4.53088 0
M  V30 7103 H 656.411 -0.746612 4.27327 0
M  V30 7104 H 657.082 -2.16976 5.07568 0
M  V30 7105 H 659.558 -2.64854 3.20923 0
M  V30 7106 H 658.434 -3.82491 3.9369 0
M  V30 7107 H 658.695 -3.83481 2.19987 0
M  V30 7108 N 657.755 -1.42862 -0.66545 0
M  V30 7109 C 658.718 -1.46756 -1.76055 0
M  V30 7110 C 659.718 -0.353866 -1.56858 0
M  V30 7111 O 660.908 -0.615099 -1.62979 0
M  V30 7112 C 658.04 -1.30829 -3.14796 0
M  V30 7113 H 659.233 -2.44271 -1.73987 0
M  V30 7114 H 656.786 -1.29447 -0.875965 0
M  V30 7115 H 657.521 -0.342733 -3.22484 0
M  V30 7116 H 657.306 -2.11551 -3.30134 0
M  V30 7117 H 658.796 -1.36458 -3.94676 0
M  V30 7118 N 659.233 0.902656 -1.29189 0
M  V30 7119 C 660.18 2.00643 -1.14066 0
M  V30 7120 C 661.15 1.66064 -0.0347756 0
M  V30 7121 O 662.335 1.8973 -0.201752 0
M  V30 7122 C 659.475 3.35214 -0.820104 0
M  V30 7123 C 658.588 3.82594 -2.00614 0
M  V30 7124 C 657.723 5.05727 -1.62522 0
M  V30 7125 C 656.762 5.45469 -2.77724 0
M  V30 7126 N 655.899 6.59789 -2.40048 0
M  V30 7127 H 660.739 2.1291 -2.08502 0
M  V30 7128 H 658.276 1.04271 -1.03759 0
M  V30 7129 H 660.234 4.12643 -0.614949 0
M  V30 7130 H 658.864 3.22682 0.0873452 0
M  V30 7131 H 657.916 3.01226 -2.32308 0
M  V30 7132 H 659.228 4.07999 -2.86946 0
M  V30 7133 H 658.382 5.90732 -1.38277 0
M  V30 7134 H 657.121 4.82155 -0.733333 0
M  V30 7135 H 656.126 4.59 -3.02653 0
M  V30 7136 H 657.351 5.71024 -3.67572 0
M  V30 7137 H 655.297 6.37826 -1.53343 0
M  V30 7138 H 655.214 6.84975 -3.19914 0
M  V30 7139 H 656.482 7.4807 -2.19116 0
M  V30 7140 N 660.711 1.11618 1.11262 0
M  V30 7141 C 661.659 0.771291 2.1944 0
M  V30 7142 C 662.653 -0.238073 1.67719 0
M  V30 7143 O 663.859 -0.0971628 1.79738 0
M  V30 7144 H 660.234 0.231548 0.715465 0
M  V30 7145 H 662.205 1.69226 2.45775 0
M  V30 7146 C 660.954 0.232765 3.4692 0
M  V30 7147 H 660.277 1.00072 3.87073 0
M  V30 7148 H 661.717 0.0296561 4.2399 0
M  V30 7149 C 660.176 -1.03738 3.20531 0
M  V30 7150 O 660.706 -2.11675 3.41404 0
M  V30 7151 N 658.912 -0.960906 2.74253 0
M  V30 7152 H 658.459 -0.0824323 2.57468 0
M  V30 7153 H 658.417 -1.8114 2.56974 0
M  V30 7154 N 662.189 -1.289 0.906776 0
M  V30 7155 C 663.119 -2.29932 0.406659 0
M  V30 7156 C 664.1 -1.6189 -0.522061 0
M  V30 7157 O 665.285 -1.8935 -0.431283 0
M  V30 7158 C 662.415 -3.45425 -0.360366 0
M  V30 7159 C 661.369 -4.25316 0.478574 0
M  V30 7160 C 660.695 -5.33076 -0.416373 0
M  V30 7161 C 661.995 -4.92739 1.7322 0
M  V30 7162 H 663.689 -2.72013 1.25097 0
M  V30 7163 H 661.235 -1.30768 0.602977 0
M  V30 7164 H 663.188 -4.15186 -0.721029 0
M  V30 7165 H 661.912 -3.02206 -1.23852 0
M  V30 7166 H 660.571 -3.57273 0.821662 0
M  V30 7167 H 660.219 -4.86101 -1.29287 0
M  V30 7168 H 659.919 -5.8743 0.141309 0
M  V30 7169 H 661.443 -6.05686 -0.773072 0
M  V30 7170 H 662.857 -5.54898 1.44086 0
M  V30 7171 H 661.254 -5.57057 2.23175 0
M  V30 7172 H 662.324 -4.17625 2.46408 0
M  V30 7173 O 663.706 -0.809245 -1.39762 0
M  V30 7174 H 664.397 -0.38643 -1.89806 0
M  V30 END ATOM
M  V30 BEGIN BOND
M  V30 END BOND
M  V30 END CTAB
M  END
$$$$
