drugbank_target|Q9NY47 Voltage-dependent calcium channel subunit alpha-2/delta-2 (DB00270; DB00996; DB01023; DB01054; DB01244; DB08872)
 OpenBabel12092120143D

  0  0  0     0  0            999 V3000
M  V30 BEGIN CTAB
M  V30 COUNTS 18115 18336 0 0 0
M  V30 BEGIN ATOM
M  V30 1 H -0.908 1.98254 -0.117106 0
M  V30 2 N 0 1.576 0 0
M  V30 3 C 0.933 2.03868 1.02534 0
M  V30 4 C 1.911 0.928543 1.3348 0
M  V30 5 O 3.095 1.19667 1.45644 0
M  V30 6 C 0.222 2.43627 2.35294 0
M  V30 7 C -0.732 3.65373 2.2001 0
M  V30 8 S 0.101 5.13292 1.52614 0
M  V30 9 C 1.257 5.56322 2.86805 0
M  V30 10 H 1.49 2.90518 0.631377 0
M  V30 11 H -0.977 1.52953 0.210867 0
M  V30 12 H 0.981 2.67203 3.11629 0
M  V30 13 H -0.358 1.57376 2.7183 0
M  V30 14 H -1.165 3.90944 3.18086 0
M  V30 15 H -1.563 3.418 1.51819 0
M  V30 16 H 0.729 5.58782 3.83104 0
M  V30 17 H 1.672 6.56266 2.65933 0
M  V30 18 H 2.08 4.83886 2.90714 0
M  V30 19 N 1.4781 -0.272755 1.55222 0
M  V30 20 C 2.4411 -1.32041 1.87344 0
M  V30 21 C 3.4411 -1.42342 0.74803 0
M  V30 22 O 4.6311 -1.41488 1.0162 0
M  V30 23 C 1.7631 -2.70173 2.07893 0
M  V30 24 H 2.9561 -1.04789 2.80997 0
M  V30 25 H 0.5091 -0.51083 1.47717 0
M  V30 26 H 1.2441 -3.02605 1.16622 0
M  V30 27 H 1.0291 -2.64082 2.89833 0
M  V30 28 H 2.5191 -3.45869 2.34017 0
M  V30 29 N 2.9562 -1.48159 -0.537278 0
M  V30 30 C 4.2022 -1.56035 -1.29541 0
M  V30 31 C 4.5352 -0.230377 -1.92829 0
M  V30 32 O 3.8102 0.762952 -1.78911 0
M  V30 33 C 4.0932 -2.69323 -2.39034 0
M  V30 34 C 3.9462 -4.12002 -1.80485 0
M  V30 35 C 5.2652 -2.78408 -3.40847 0
M  V30 36 H 2.3842 -0.567992 -0.469632 0
M  V30 37 H 5.0262 -1.80302 -0.599277 0
M  V30 38 H 3.1762 -2.48763 -2.98412 0
M  V30 39 H 4.8482 -4.43981 -1.25215 0
M  V30 40 H 3.0912 -4.19344 -1.11055 0
M  V30 41 H 3.7622 -4.87077 -2.59731 0
M  V30 42 H 6.2382 -2.97012 -2.91416 0
M  V30 43 H 5.1142 -3.59416 -4.14863 0
M  V30 44 H 5.3752 -1.86269 -4.00944 0
M  V30 45 N 4.4343 0.785586 -1.36625 0
M  V30 46 C 5.8453 1.36101 -1.27803 0
M  V30 47 C 6.1963 1.96035 0.0804875 0
M  V30 48 O 5.3213 1.92834 0.982042 0
M  V30 49 C 5.9163 2.47442 -2.31426 0
M  V30 50 C 4.4753 3.00789 -2.26281 0
M  V30 51 C 3.6223 1.73896 -2.15999 0
M  V30 52 H 6.5733 0.586928 -1.47448 0
M  V30 53 H 6.5943 3.2656 -1.95291 0
M  V30 54 H 6.1063 2.03791 -3.30289 0
M  V30 55 H 4.2073 3.48851 -1.30896 0
M  V30 56 H 4.3203 3.57343 -3.19128 0
M  V30 57 H 2.6843 1.9628 -1.62316 0
M  V30 58 H 3.4673 1.32368 -3.16755 0
M  V30 59 N 5.9124 1.20967 1.01018 0
M  V30 60 C 6.8754 0.965918 2.07853 0
M  V30 61 C 7.8754 -0.0610545 1.60684 0
M  V30 62 O 9.0654 0.175681 1.73312 0
M  V30 63 C 6.1974 0.455513 3.37843 0
M  V30 64 H 7.3904 1.91365 2.3091 0
M  V30 65 H 4.9434 1.02594 1.17916 0
M  V30 66 H 5.6784 -0.497381 3.20463 0
M  V30 67 H 5.4634 1.19622 3.73407 0
M  V30 68 H 6.9534 0.304667 4.16487 0
M  V30 69 N 7.3905 -1.2043 1.01659 0
M  V30 70 C 8.8065 -1.41852 0.731442 0
M  V30 71 C 9.0065 -1.89358 -0.688898 0
M  V30 72 O 8.0625 -2.06247 -1.45666 0
M  V30 73 C 9.3755 -2.44019 1.75714 0
M  V30 74 C 10.9235 -2.57785 1.77527 0
M  V30 75 C 11.3985 -3.63194 2.79023 0
M  V30 76 N 12.8895 -3.70678 2.77763 0
M  V30 77 C 13.6245 -4.51897 3.52954 0
M  V30 78 N 13.1205 -5.36921 4.37821 0
M  V30 79 N 14.9135 -4.4643 3.41551 0
M  V30 80 H 7.0645 -0.879093 1.93354 0
M  V30 81 H 9.3275 -0.448425 0.835236 0
M  V30 82 H 9.0335 -2.1611 2.77469 0
M  V30 83 H 8.9075 -3.43007 1.56927 0
M  V30 84 H 11.2945 -2.85023 0.764569 0
M  V30 85 H 11.3755 -1.58992 2.00387 0
M  V30 86 H 11.0195 -3.36699 3.80258 0
M  V30 87 H 10.9495 -4.61609 2.53425 0
M  V30 88 H 13.4405 -3.09944 2.16201 0
M  V30 89 H 13.7535 -5.95981 4.91962 0
M  V30 90 H 12.0985 -5.36424 4.41899 0
M  V30 91 H 15.2895 -3.79042 2.74672 0
M  V30 92 H 15.4625 -5.09491 4.00404 0
M  V30 93 N 8.8686 -0.792821 -1.36206 0
M  V30 94 C 10.0966 -0.378825 -2.03402 0
M  V30 95 C 10.5116 1.00586 -1.59774 0
M  V30 96 O 9.8686 1.64574 -0.788764 0
M  V30 97 C 9.9196 -0.43683 -3.58851 0
M  V30 98 O 9.6406 -1.76691 -4.00889 0
M  V30 99 C 11.1416 -0.0138943 -4.43298 0
M  V30 100 H 8.3616 -0.155673 -0.652692 0
M  V30 101 H 10.9056 -1.07261 -1.74113 0
M  V30 102 H 9.0606 0.208575 -3.86838 0
M  V30 103 H 9.4746 -1.72011 -4.95492 0
M  V30 104 H 10.9486 -0.105615 -5.51899 0
M  V30 105 H 11.4256 1.03915 -4.2673 0
M  V30 106 H 12.0316 -0.63192 -4.20579 0
M  V30 107 N 10.3467 1.47872 -0.545128 0
M  V30 108 C 11.5867 2.04391 -0.0187854 0
M  V30 109 C 11.9507 1.41162 1.30144 0
M  V30 110 O 13.1517 1.88656 1.91474 0
M  V30 111 C 11.4227 3.57299 0.0850867 0
M  V30 112 S 12.9817 4.35221 0.559302 0
M  V30 113 H 9.7997 0.710737 -0.0193301 0
M  V30 114 H 12.4017 1.81395 -0.729125 0
M  V30 115 H 11.1057 4.00847 -0.880351 0
M  V30 116 H 10.6367 3.84773 0.819348 0
M  V30 117 H 12.6517 4.61571 1.82118 0
M  V30 118 N 11.8248 0.280983 1.55075 0
M  V30 119 C 13.0728 -0.333455 1.9933 0
M  V30 120 C 13.3938 -1.55937 1.17085 0
M  V30 121 O 12.6638 -1.94143 0.261805 0
M  V30 122 H 11.2438 -0.126197 0.736263 0
M  V30 123 H 13.9058 0.387678 1.91005 0
M  V30 124 H 13.0018 -0.619292 3.05894 0
M  V30 125 N 13.3029 -1.57598 0.00835791 0
M  V30 126 C 14.2659 -2.07884 -0.965242 0
M  V30 127 C 15.2659 -0.989825 -1.26725 0
M  V30 128 O 16.4559 -1.25218 -1.21104 0
M  V30 129 C 13.5879 -2.52731 -2.28779 0
M  V30 130 H 14.7809 -2.95178 -0.530112 0
M  V30 131 H 12.3339 -1.54458 -0.239283 0
M  V30 132 H 13.0689 -1.68705 -2.76964 0
M  V30 133 H 12.8539 -3.32272 -2.08177 0
M  V30 134 H 14.3439 -2.91933 -2.98605 0
M  V30 135 N 14.781 0.264519 -1.55364 0
M  V30 136 C 16.006 1.01726 -1.80739 0
M  V30 137 C 16.431 1.78836 -0.583044 0
M  V30 138 O 15.789 1.75167 0.467566 0
M  V30 139 C 15.837 1.94482 -3.03659 0
M  V30 140 O 14.941 3.03386 -2.7934 0
M  V30 141 H 14.282 0.290395 -0.597132 0
M  V30 142 H 16.812 0.290854 -2.02522 0
M  V30 143 H 16.822 2.36278 -3.32621 0
M  V30 144 H 15.497 1.37772 -3.92418 0
M  V30 145 H 14.074 2.65844 -2.61498 0
M  V30 146 N 16.2591 1.48442 0.529413 0
M  V30 147 C 17.6751 1.34575 0.858004 0
M  V30 148 C 17.8751 0.3572 1.98309 0
M  V30 149 O 16.9311 -0.221379 2.51528 0
M  V30 150 C 18.2441 2.74617 1.22499 0
M  V30 151 C 19.7921 2.83109 1.33484 0
M  V30 152 C 20.2671 4.23854 1.73526 0
M  V30 153 N 21.7581 4.2653 1.80628 0
M  V30 154 C 22.4931 5.32372 2.12997 0
M  V30 155 N 21.9891 6.48491 2.43786 0
M  V30 156 N 23.7821 5.19766 2.14008 0
M  V30 157 H 15.9331 2.1133 -0.212925 0
M  V30 158 H 18.1961 0.947439 -0.0326199 0
M  V30 159 H 17.9021 3.4852 0.471905 0
M  V30 160 H 17.7761 3.08177 2.17501 0
M  V30 161 H 20.1631 2.09462 2.0787 0
M  V30 162 H 20.2441 2.53168 0.366027 0
M  V30 163 H 19.8881 4.98018 0.997013 0
M  V30 164 H 19.8181 4.5124 2.71459 0
M  V30 165 H 22.3091 3.42772 1.59108 0
M  V30 166 H 22.6221 7.24993 2.67592 0
M  V30 167 H 20.9671 6.51765 2.41304 0
M  V30 168 H 24.1581 4.28066 1.89412 0
M  V30 169 H 24.3311 6.02354 2.38902 0
M  V30 170 N 17.7372 -0.778329 1.37039 0
M  V30 171 C 19.1482 -1.35421 1.28523 0
M  V30 172 C 19.4992 -1.96075 -0.0700901 0
M  V30 173 O 18.6242 -1.93352 -0.971801 0
M  V30 174 C 19.2192 -2.46211 2.32735 0
M  V30 175 C 17.7782 -2.99585 2.27873 0
M  V30 176 C 16.9252 -1.72748 2.16918 0
M  V30 177 H 19.8762 -0.5791 1.47757 0
M  V30 178 H 19.8972 -3.2552 1.9702 0
M  V30 179 H 19.4092 -2.02036 3.31365 0
M  V30 180 H 17.5102 -3.48152 1.32745 0
M  V30 181 H 17.6232 -3.55646 3.21018 0
M  V30 182 H 15.9872 -1.95416 1.63354 0
M  V30 183 H 16.7702 -1.30686 3.17452 0
M  V30 184 N 19.2153 -1.21501 -1.00376 0
M  V30 185 C 20.4633 -1.03095 -1.73827 0
M  V30 186 C 20.7843 0.436341 -1.90055 0
M  V30 187 O 20.0543 1.31466 -1.45236 0
M  V30 188 H 18.6343 -0.378487 -0.644016 0
M  V30 189 H 21.2963 -1.52831 -1.20949 0
M  V30 190 H 20.3923 -1.49991 -2.73695 0
M  V30 191 N 20.6934 1.19889 -1.02296 0
M  V30 192 C 22.1044 1.71124 -0.746568 0
M  V30 193 C 22.4554 1.81939 0.734335 0
M  V30 194 O 21.5804 1.48639 1.57275 0
M  V30 195 C 22.1754 3.10804 -1.34857 0
M  V30 196 C 20.7344 3.59323 -1.1209 0
M  V30 197 C 19.8814 2.3635 -1.45031 0
M  V30 198 H 22.8324 1.04813 -1.19163 0
M  V30 199 H 22.8534 3.73186 -0.742437 0
M  V30 200 H 22.3654 3.029 -2.42638 0
M  V30 201 H 20.4664 3.7255 -0.0610337 0
M  V30 202 H 20.5794 4.4378 -1.80544 0
M  V30 203 H 18.9434 2.39399 -0.869487 0
M  V30 204 H 19.7264 2.31081 -2.53883 0
M  V30 205 N 22.1715 0.800033 1.35784 0
M  V30 206 C 23.1345 0.211565 2.28221 0
M  V30 207 C 24.1345 -0.59728 1.49296 0
M  V30 208 O 25.3245 -0.416721 1.69142 0
M  V30 209 C 22.4565 -0.705846 3.33513 0
M  V30 210 H 23.6495 1.02677 2.81776 0
M  V30 211 H 21.2025 0.570211 1.45528 0
M  V30 212 H 21.9375 -1.54498 2.85133 0
M  V30 213 H 21.7225 -0.127655 3.91892 0
M  V30 214 H 23.2125 -1.11211 4.02519 0
M  V30 215 N 23.6496 -1.47581 0.552962 0
M  V30 216 C 25.0656 -1.5818 0.212424 0
M  V30 217 C 25.2656 -1.55213 -1.28496 0
M  V30 218 O 24.3216 -1.45329 -2.06484 0
M  V30 219 C 25.6346 -2.88865 0.835318 0
M  V30 220 C 27.1826 -3.0244 0.806156 0
M  V30 221 C 27.6576 -4.35819 1.40804 0
M  V30 222 N 29.1486 -4.42444 1.37103 0
M  V30 223 C 29.8836 -5.44202 1.80641 0
M  V30 224 N 29.3796 -6.52795 2.32015 0
M  V30 225 N 31.1726 -5.35222 1.71738 0
M  V30 226 H 23.3236 -1.47753 1.52587 0
M  V30 227 H 25.5866 -0.702941 0.636064 0
M  V30 228 H 25.2926 -2.9676 1.88749 0
M  V30 229 H 25.1666 -3.7579 0.325848 0
M  V30 230 H 27.5536 -2.94144 -0.237317 0
M  V30 231 H 27.6346 -2.17068 1.35334 0
M  V30 232 H 27.2786 -4.44871 2.45056 0
M  V30 233 H 27.2086 -5.19916 0.836338 0
M  V30 234 H 29.6996 -3.6456 0.995202 0
M  V30 235 H 30.0126 -7.26609 2.63171 0
M  V30 236 H 28.3576 -6.53696 2.36023 0
M  V30 237 H 31.5486 -4.49284 1.31382 0
M  V30 238 H 31.7216 -6.14389 2.05987 0
M  V30 239 N 25.1277 -0.289203 -1.54924 0
M  V30 240 C 26.3557 0.326463 -2.04308 0
M  V30 241 C 26.7707 1.48413 -1.16701 0
M  V30 242 O 26.1277 1.81507 -0.190087 0
M  V30 243 C 26.1787 0.794014 -3.52672 0
M  V30 244 O 25.8997 -0.317564 -4.36948 0
M  V30 245 C 27.4007 1.47605 -4.18004 0
M  V30 246 H 24.6207 0.0726272 -0.667058 0
M  V30 247 H 27.1647 -0.425401 -2.00026 0
M  V30 248 H 25.3197 1.49593 -3.57352 0
M  V30 249 H 25.7337 0.0443186 -5.24481 0
M  V30 250 H 27.2077 1.75447 -5.23376 0
M  V30 251 H 27.6847 2.41224 -3.67025 0
M  V30 252 H 28.2907 0.81762 -4.17367 0
M  V30 253 N 26.6058 1.57591 -0.0167156 0
M  V30 254 C 27.5688 2.08393 0.954204 0
M  V30 255 C 28.5688 0.996531 1.26198 0
M  V30 256 O 29.7588 1.25858 1.20438 0
M  V30 257 C 26.8908 2.5394 2.27436 0
M  V30 258 H 28.0838 2.95455 0.514451 0
M  V30 259 H 25.6368 1.54582 0.231089 0
M  V30 260 H 26.3718 1.70171 2.76066 0
M  V30 261 H 26.1568 3.33371 2.06412 0
M  V30 262 H 27.6468 2.93512 2.97053 0
M  V30 263 N 28.0839 -0.256276 1.55502 0
M  V30 264 C 29.4999 -0.604325 1.47716 0
M  V30 265 C 29.6999 -1.88763 0.705039 0
M  V30 266 O 28.7559 -2.51445 0.230613 0
M  V30 267 C 30.0689 -0.715756 2.92057 0
M  V30 268 C 31.6169 -0.808706 3.02372 0
M  V30 269 C 32.0919 -0.951777 4.48001 0
M  V30 270 N 33.5829 -1.01688 4.519 0
M  V30 271 C 34.3179 -1.14668 5.61817 0
M  V30 272 N 33.8139 -1.24261 6.81565 0
M  V30 273 N 35.6069 -1.1791 5.49594 0
M  V30 274 H 27.7579 0.586291 2.04148 0
M  V30 275 H 30.0209 0.201015 0.926443 0
M  V30 276 H 29.7269 0.157027 3.51349 0
M  V30 277 H 29.6009 -1.59071 3.42018 0
M  V30 278 H 31.9879 -1.67195 2.43166 0
M  V30 279 H 32.0689 0.0912063 2.55637 0
M  V30 280 H 31.7129 -0.0931291 5.07815 0
M  V30 281 H 31.6429 -1.86659 4.92408 0
M  V30 282 H 34.1339 -0.954468 3.65648 0
M  V30 283 H 34.4469 -1.34046 7.61086 0
M  V30 284 H 32.7919 -1.21236 6.84344 0
M  V30 285 H 35.9829 -1.10057 4.54978 0
M  V30 286 H 36.1559 -1.27681 6.35296 0
M  V30 287 N 29.562 -1.4872 -0.521534 0
M  V30 288 C 30.973 -1.50607 -1.10337 0
M  V30 289 C 31.324 -0.280612 -1.94183 0
M  V30 290 O 30.449 0.611507 -2.0758 0
M  V30 291 C 31.044 -2.72903 -2.00772 0
M  V30 292 C 29.603 -2.77634 -2.54158 0
M  V30 293 C 28.75 -2.44241 -1.31307 0
M  V30 294 H 31.701 -1.55714 -0.306388 0
M  V30 295 H 31.722 -2.519 -2.85178 0
M  V30 296 H 31.234 -3.62077 -1.39721 0
M  V30 297 H 29.335 -1.92689 -3.18907 0
M  V30 298 H 29.448 -3.79283 -2.92714 0
M  V30 299 H 27.812 -1.95577 -1.63161 0
M  V30 300 H 28.595 -3.35666 -0.719943 0
M  V30 301 N 31.0401 0.771051 -1.3745 0
M  V30 302 C 32.2861 1.53109 -1.339 0
M  V30 303 C 32.6411 1.9225 0.0758401 0
M  V30 304 O 31.9341 1.61264 1.03463 0
M  V30 305 C 32.1281 2.80676 -2.2126 0
M  V30 306 C 31.9571 2.54003 -3.71096 0
M  V30 307 C 30.7271 2.48097 -4.402 0
M  V30 308 C 32.9251 2.21953 -4.63941 0
M  V30 309 N 30.9071 2.13515 -5.75573 0
M  V30 310 C 32.2781 1.97516 -5.87697 0
M  V30 311 C 34.3331 2.08114 -4.5232 0
M  V30 312 C 33.0361 1.60638 -7.01133 0
M  V30 313 C 35.0621 1.72636 -5.65642 0
M  V30 314 C 34.4241 1.4906 -6.88448 0
M  V30 315 H 30.5231 0.56055 -0.54526 0
M  V30 316 H 33.1071 0.899472 -1.72678 0
M  V30 317 H 31.2781 3.41674 -1.84698 0
M  V30 318 H 33.0101 3.46578 -2.08963 0
M  V30 319 H 29.7651 2.63974 -3.93211 0
M  V30 320 H 30.1891 1.98919 -6.47117 0
M  V30 321 H 34.8311 2.25024 -3.57944 0
M  V30 322 H 32.5491 1.42467 -7.95443 0
M  V30 323 H 36.1351 1.62586 -5.58621 0
M  V30 324 H 35.0151 1.22014 -7.7465 0
M  V30 325 N 32.5182 1.22032 0.997298 0
M  V30 326 C 33.9292 1.0397 1.55071 0
M  V30 327 C 34.2802 -0.398192 1.92117 0
M  V30 328 O 33.4052 -1.28254 1.74298 0
M  V30 329 C 34.0002 1.88109 2.81781 0
M  V30 330 C 32.5592 1.74357 3.33581 0
M  V30 331 C 31.7062 1.84846 2.06706 0
M  V30 332 H 34.6572 1.35941 0.818883 0
M  V30 333 H 34.6782 1.39589 3.53971 0
M  V30 334 H 34.1902 2.92754 2.54787 0
M  V30 335 H 32.2912 0.72427 3.65493 0
M  V30 336 H 32.4042 2.56772 4.04481 0
M  V30 337 H 30.7682 1.28238 2.20062 0
M  V30 338 H 31.5512 2.91014 1.82114 0
M  V30 339 N 33.9963 -1.19345 1.0293 0
M  V30 340 C 35.2443 -1.88665 0.724574 0
M  V30 341 C 35.5653 -1.80036 -0.749144 0
M  V30 342 O 34.8353 -1.2111 -1.53978 0
M  V30 343 H 33.4153 -0.698406 0.265025 0
M  V30 344 H 36.0773 -1.44885 1.30362 0
M  V30 345 H 35.1733 -2.94987 1.01926 0
M  V30 346 N 35.4744 -0.807222 -1.35358 0
M  V30 347 C 36.7144 -0.393534 -2.00576 0
M  V30 348 C 37.0784 1.0203 -1.62647 0
M  V30 349 O 38.2794 1.53603 -2.20589 0
M  V30 350 C 36.5504 -0.572017 -3.52793 0
M  V30 351 S 38.1094 -0.248845 -4.38094 0
M  V30 352 H 34.9274 -0.149425 -0.695121 0
M  V30 353 H 37.5294 -1.04961 -1.64935 0
M  V30 354 H 36.2334 -1.60097 -3.77885 0
M  V30 355 H 35.7644 0.099359 -3.93275 0
M  V30 356 H 37.7794 0.943253 -4.87152 0
M  V30 357 N 36.9525 1.47285 -0.560781 0
M  V30 358 C 38.2005 2.02064 -0.0379868 0
M  V30 359 C 38.5215 1.43711 1.31803 0
M  V30 360 O 37.7915 0.61362 1.86042 0
M  V30 361 H 36.3715 0.746918 -0.0110531 0
M  V30 362 H 39.0335 1.80648 -0.731598 0
M  V30 363 H 38.1295 3.12064 0.0474463 0
M  V30 364 N 38.4306 0.297415 1.54768 0
M  V30 365 C 39.8416 -0.195947 1.85669 0
M  V30 366 C 40.1926 -1.53707 1.21937 0
M  V30 367 O 39.3176 -2.10164 0.515754 0
M  V30 368 C 39.9126 -0.362318 3.36857 0
M  V30 369 C 38.4716 -0.799901 3.67802 0
M  V30 370 C 37.6186 0.0938578 2.77141 0
M  V30 371 H 40.5696 0.518538 1.4999 0
M  V30 372 H 40.5906 -1.19745 3.61167 0
M  V30 373 H 40.1026 0.613921 3.83214 0
M  V30 374 H 38.2036 -1.78682 3.26961 0
M  V30 375 H 38.3166 -0.621773 4.75048 0
M  V30 376 H 36.6806 -0.426254 2.51108 0
M  V30 377 H 37.4636 1.06639 3.26318 0
M  V30 378 N 39.9087 -1.5758 0.0250728 0
M  V30 379 C 40.8587 -2.06468 -0.967201 0
M  V30 380 C 41.8427 -0.964376 -1.28797 0
M  V30 381 O 43.0347 -1.22797 -1.27475 0
M  V30 382 C 40.1637 -2.59203 -2.25097 0
M  V30 383 C 39.2497 -3.76157 -1.95874 0
M  V30 384 N 39.6407 -4.86919 -1.36905 0
M  V30 385 C 37.9387 -3.84566 -2.25887 0
M  V30 386 C 38.6397 -5.68172 -1.24724 0
M  V30 387 N 37.6157 -5.14953 -1.74138 0
M  V30 388 H 41.4177 -2.89508 -0.506176 0
M  V30 389 H 38.9317 -1.61399 -0.18004 0
M  V30 390 H 40.9287 -2.92517 -2.97052 0
M  V30 391 H 39.5887 -1.77592 -2.71829 0
M  V30 392 H 40.5997 -5.07256 -1.04459 0
M  V30 393 H 37.2767 -3.13854 -2.75321 0
M  V30 394 H 38.6667 -6.67221 -0.791605 0
M  V30 395 N 41.3868 0.248026 -1.55636 0
M  V30 396 C 42.7978 0.817177 -1.67866 0
M  V30 397 C 43.1488 1.86069 -0.622322 0
M  V30 398 O 42.2738 2.15157 0.231618 0
M  V30 399 C 42.8688 1.489 -3.04326 0
M  V30 400 C 41.4278 2.00587 -3.185 0
M  V30 401 C 40.5748 0.856573 -2.63739 0
M  V30 402 H 43.5258 0.0238579 -1.58682 0
M  V30 403 H 43.5468 2.35698 -2.98708 0
M  V30 404 H 43.0588 0.729279 -3.81186 0
M  V30 405 H 41.1598 2.79443 -2.4646 0
M  V30 406 H 41.2728 2.20402 -4.25393 0
M  V30 407 H 39.6368 1.25678 -2.21534 0
M  V30 408 H 40.4198 0.109953 -3.43124 0
M  V30 409 N 42.8649 1.48995 0.513639 0
M  V30 410 C 44.1129 1.57531 1.26604 0
M  V30 411 C 44.4339 0.258236 1.93283 0
M  V30 412 O 43.7039 -0.721502 1.8213 0
M  V30 413 H 42.2839 0.580387 0.470276 0
M  V30 414 H 44.9459 1.85552 0.596373 0
M  V30 415 H 44.0419 2.36486 2.03669 0
M  V30 416 N 44.343 -0.763751 1.37857 0
M  V30 417 C 45.754 -1.3405 1.29952 0
M  V30 418 C 46.105 -1.96138 -0.0492898 0
M  V30 419 O 45.23 -1.94372 -0.951239 0
M  V30 420 C 45.825 -2.43729 2.35333 0
M  V30 421 C 44.384 -2.97151 2.31037 0
M  V30 422 C 43.531 -1.70438 2.18738 0
M  V30 423 H 46.482 -0.563396 1.48363 0
M  V30 424 H 46.503 -3.23412 2.00462 0
M  V30 425 H 46.015 -1.9851 3.33489 0
M  V30 426 H 44.116 -3.46724 1.3643 0
M  V30 427 H 44.229 -3.52221 3.24772 0
M  V30 428 H 42.593 -1.93673 1.65418 0
M  V30 429 H 43.376 -1.27312 3.18821 0
M  V30 430 N 45.8211 -1.22559 -0.990812 0
M  V30 431 C 47.0691 -1.04933 -1.72724 0
M  V30 432 C 47.3901 0.416158 -1.90508 0
M  V30 433 O 46.6601 1.29918 -1.46622 0
M  V30 434 H 45.2401 -0.385296 -0.639965 0
M  V30 435 H 47.9021 -1.54105 -1.19322 0
M  V30 436 H 46.9981 -1.52886 -2.72089 0
M  V30 437 N 47.2992 1.18797 -1.03562 0
M  V30 438 C 48.5272 1.92599 -0.755869 0
M  V30 439 C 48.9422 1.75886 0.686271 0
M  V30 440 O 48.2992 1.08517 1.46732 0
M  V30 441 C 48.3502 3.44159 -1.10619 0
M  V30 442 O 48.0712 3.60341 -2.4917 0
M  V30 443 C 49.5722 4.3507 -0.850214 0
M  V30 444 H 46.7922 0.611587 -0.276048 0
M  V30 445 H 49.3362 1.50742 -1.38192 0
M  V30 446 H 47.4912 3.83823 -0.525194 0
M  V30 447 H 47.9052 4.54128 -2.62427 0
M  V30 448 H 49.3792 5.39989 -1.14523 0
M  V30 449 H 49.8562 4.38673 0.215176 0
M  V30 450 H 50.4622 4.01097 -1.41426 0
M  V30 451 N 48.7773 0.814389 1.34928 0
M  V30 452 C 50.1933 0.499084 1.51596 0
M  V30 453 C 50.3933 -0.978319 1.76157 0
M  V30 454 O 49.4493 -1.76309 1.80752 0
M  V30 455 C 50.7623 1.35121 2.68631 0
M  V30 456 C 52.3103 1.34746 2.82511 0
M  V30 457 C 52.7853 2.18388 4.0258 0
M  V30 458 N 54.2763 2.15966 4.09772 0
M  V30 459 C 55.0113 2.77437 5.01813 0
M  V30 460 N 54.5073 3.47866 5.99134 0
M  V30 461 N 56.3003 2.67037 4.94619 0
M  V30 462 H 48.4513 1.7711 1.17243 0
M  V30 463 H 50.7143 0.754256 0.574284 0
M  V30 464 H 50.4203 2.40001 2.57085 0
M  V30 465 H 50.2943 1.00991 3.63429 0
M  V30 466 H 52.6813 0.30648 2.93504 0
M  V30 467 H 52.7623 1.72869 1.88547 0
M  V30 468 H 52.4063 3.2253 3.92347 0
M  V30 469 H 52.3363 1.77621 4.9574 0
M  V30 470 H 54.8273 1.64729 3.40107 0
M  V30 471 H 55.1403 3.92038 6.65977 0
M  V30 472 H 53.4853 3.51972 5.99284 0
M  V30 473 H 56.6763 2.11597 4.17546 0
M  V30 474 H 56.8493 3.15232 5.66156 0
M  V30 475 N 50.2554 -1.46986 0.568584 0
M  V30 476 C 51.6714 -1.57946 0.229189 0
M  V30 477 C 51.8714 -1.56567 -1.26843 0
M  V30 478 O 50.9274 -1.47511 -2.04931 0
M  V30 479 C 52.2404 -2.87963 0.865909 0
M  V30 480 C 53.7884 -3.01568 0.838188 0
M  V30 481 C 54.2634 -4.34301 1.45419 0
M  V30 482 N 55.7544 -4.40965 1.41788 0
M  V30 483 C 56.4894 -5.42256 1.86403 0
M  V30 484 N 55.9854 -6.50297 2.38926 0
M  V30 485 N 57.7784 -5.3337 1.77405 0
M  V30 486 H 49.9294 -1.46126 1.54146 0
M  V30 487 H 52.1924 -0.696156 0.643484 0
M  V30 488 H 51.8984 -2.94742 1.91886 0
M  V30 489 H 51.7724 -3.75423 0.365687 0
M  V30 490 H 54.1594 -2.94379 -0.206106 0
M  V30 491 H 54.2404 -2.1562 1.37629 0
M  V30 492 H 53.8844 -4.42247 2.49761 0
M  V30 493 H 53.8144 -5.19 0.891435 0
M  V30 494 H 56.3054 -3.63484 1.03381 0
M  V30 495 H 56.6184 -7.23777 2.70863 0
M  V30 496 H 54.9634 -6.51155 2.42944 0
M  V30 497 H 58.1544 -4.47865 1.3614 0
M  V30 498 H 58.3274 -6.12169 2.12492 0
M  V30 499 N 51.7335 -0.305618 -1.54608 0
M  V30 500 C 53.1445 0.186098 -1.8577 0
M  V30 501 C 53.4955 1.53058 -1.22751 0
M  V30 502 O 52.6205 2.09888 -0.526893 0
M  V30 503 C 53.2155 0.344449 -3.37044 0
M  V30 504 C 51.7745 0.780384 -3.68221 0
M  V30 505 C 50.9215 -0.108554 -2.77087 0
M  V30 506 H 53.8725 -0.526485 -1.49712 0
M  V30 507 H 53.8935 1.17828 -3.61796 0
M  V30 508 H 53.4055 -0.634235 -3.82883 0
M  V30 509 H 51.5065 1.76945 -3.27904 0
M  V30 510 H 51.6195 0.596572 -4.75371 0
M  V30 511 H 49.9835 0.412931 -2.5133 0
M  V30 512 H 50.7665 -1.08368 -3.25747 0
M  V30 513 N 53.2116 1.57565 -0.0334293 0
M  V30 514 C 54.4396 1.9628 0.654347 0
M  V30 515 C 54.8546 0.910138 1.65414 0
M  V30 516 O 54.2116 -0.107595 1.82183 0
M  V30 517 C 54.2626 3.35067 1.35693 0
M  V30 518 O 53.9836 4.36296 0.397191 0
M  V30 519 C 55.4846 3.88439 2.13613 0
M  V30 520 H 52.7046 0.646369 0.180132 0
M  V30 521 H 55.2486 2.04282 -0.0944721 0
M  V30 522 H 53.4036 3.2827 2.05712 0
M  V30 523 H 53.8176 5.1678 0.896597 0
M  V30 524 H 55.2916 4.8788 2.58219 0
M  V30 525 H 55.7686 3.22914 2.97696 0
M  V30 526 H 56.3746 3.98516 1.48543 0
M  V30 527 N 54.6897 -0.239769 1.55765 0
M  V30 528 C 55.9147 -0.988373 1.82335 0
M  V30 529 C 56.3397 -1.77886 0.611421 0
M  V30 530 O 55.6977 -1.75889 -0.439639 0
M  V30 531 C 55.7457 -1.89627 3.06715 0
M  V30 532 O 54.8497 -2.98904 2.84131 0
M  V30 533 H 54.1907 -0.280858 0.601677 0
M  V30 534 H 56.7207 -0.258597 2.02959 0
M  V30 535 H 56.7307 -2.30957 3.36338 0
M  V30 536 H 55.4057 -1.31511 3.9456 0
M  V30 537 H 53.9827 -2.61651 2.65694 0
M  V30 538 N 56.1678 -1.49265 -0.50573 0
M  V30 539 C 57.4158 -1.582 -1.25766 0
M  V30 540 C 57.7368 -0.268482 -1.93143 0
M  V30 541 O 57.0068 0.711833 -1.8251 0
M  V30 542 H 55.5868 -0.582873 -0.467191 0
M  V30 543 H 58.2488 -1.85865 -0.586525 0
M  V30 544 H 57.3448 -2.37563 -2.02412 0
M  V30 545 N 57.6459 0.756429 -1.3826 0
M  V30 546 C 59.0569 1.33359 -1.30661 0
M  V30 547 C 59.4079 1.96161 0.0388875 0
M  V30 548 O 58.5329 1.94874 0.940918 0
M  V30 549 C 59.1279 2.42477 -2.36622 0
M  V30 550 C 57.6869 2.95922 -2.3261 0
M  V30 551 C 56.8339 1.69275 -2.19639 0
M  V30 552 H 59.7849 0.55552 -1.4866 0
M  V30 553 H 59.8059 3.22345 -2.02174 0
M  V30 554 H 59.3179 1.96739 -3.34538 0
M  V30 555 H 57.4189 3.45996 -1.38267 0
M  V30 556 H 57.5319 3.50494 -3.26636 0
M  V30 557 H 55.8959 1.92793 -1.66442 0
M  V30 558 H 56.6789 1.25619 -3.19491 0
M  V30 559 N 59.124 1.23083 0.984299 0
M  V30 560 C 60.535 1.05609 1.5396 0
M  V30 561 C 60.886 -0.377793 1.92528 0
M  V30 562 O 60.011 -1.26398 1.75649 0
M  V30 563 C 60.606 1.91087 2.7977 0
M  V30 564 C 59.165 1.77885 3.31713 0
M  V30 565 C 58.312 1.87028 2.04733 0
M  V30 566 H 61.263 1.36802 0.804419 0
M  V30 567 H 61.284 1.43336 3.5247 0
M  V30 568 H 60.796 2.9544 2.51668 0
M  V30 569 H 58.897 0.762995 3.64704 0
M  V30 570 H 59.01 2.61047 4.01735 0
M  V30 571 H 57.374 1.30565 2.18689 0
M  V30 572 H 58.157 2.92929 1.79017 0
M  V30 573 N 60.6021 -1.18246 1.0419 0
M  V30 574 C 62.0181 -1.40269 0.761366 0
M  V30 575 C 62.2181 -1.90777 -0.648578 0
M  V30 576 O 61.2741 -2.0929 -1.41258 0
M  V30 577 C 62.5871 -2.40237 1.8085 0
M  V30 578 C 64.1351 -2.53961 1.82955 0
M  V30 579 C 64.6101 -3.57194 2.86664 0
M  V30 580 N 66.1011 -3.64702 2.85563 0
M  V30 581 C 66.8361 -4.44309 3.6246 0
M  V30 582 N 66.3321 -5.27514 4.49111 0
M  V30 583 N 68.1251 -4.39084 3.50944 0
M  V30 584 H 60.2761 -0.837882 1.95175 0
M  V30 585 H 62.5391 -0.430608 0.84456 0
M  V30 586 H 62.2451 -2.10176 2.81991 0
M  V30 587 H 62.1191 -3.39601 1.64168 0
M  V30 588 H 64.5061 -2.83338 0.824855 0
M  V30 589 H 64.5871 -1.54706 2.03715 0
M  V30 590 H 64.2311 -3.28558 3.87314 0
M  V30 591 H 64.1611 -4.5613 2.6316 0
M  V30 592 H 66.6521 -3.05289 2.22727 0
M  V30 593 H 66.9651 -5.85411 5.04493 0
M  V30 594 H 65.3101 -5.2693 4.53178 0
M  V30 595 H 68.5011 -3.7313 2.82651 0
M  V30 596 H 68.6741 -5.00883 4.11121 0
M  V30 597 N 62.0802 -0.821533 -1.34494 0
M  V30 598 C 63.4912 -0.467956 -1.8074 0
M  V30 599 C 63.8422 1.01151 -1.68116 0
M  V30 600 O 62.9672 1.78707 -1.22036 0
M  V30 601 C 63.5622 -0.842627 -3.28154 0
M  V30 602 C 62.1212 -0.541439 -3.72485 0
M  V30 603 C 61.2682 -1.06028 -2.56229 0
M  V30 604 H 64.2192 -1.01183 -1.22261 0
M  V30 605 H 64.2402 -0.145876 -3.8022 0
M  V30 606 H 63.7522 -1.91945 -3.37311 0
M  V30 607 H 61.8532 0.526034 -3.68868 0
M  V30 608 H 61.9662 -1.08453 -4.66663 0
M  V30 609 H 60.3302 -0.481892 -2.501 0
M  V30 610 H 61.1132 -2.14352 -2.68157 0
M  V30 611 N 63.5583 1.46682 -0.576371 0
M  V30 612 C 64.4883 2.33028 0.148397 0
M  V30 613 C 65.4693 1.44961 0.889956 0
M  V30 614 O 66.6543 1.73789 0.866662 0
M  V30 615 C 63.7843 3.27117 1.1667 0
M  V30 616 C 62.7383 4.24575 0.540386 0
M  V30 617 C 62.0643 5.08126 1.6647 0
M  V30 618 C 63.3643 5.19722 -0.518331 0
M  V30 619 H 65.0583 2.93875 -0.572509 0
M  V30 620 H 62.6043 1.41315 -0.276768 0
M  V30 621 H 64.5573 3.86374 1.68204 0
M  V30 622 H 63.2813 2.64364 1.9178 0
M  V30 623 H 61.9403 3.66571 0.0461769 0
M  V30 624 H 61.5883 4.41762 2.40531 0
M  V30 625 H 61.2883 5.74122 1.25131 0
M  V30 626 H 62.8123 5.70246 2.18293 0
M  V30 627 H 64.2263 5.73232 -0.0883058 0
M  V30 628 H 62.6233 5.94026 -0.851679 0
M  V30 629 H 63.6933 4.64037 -1.40703 0
M  V30 630 N 65.0364 0.313813 1.54444 0
M  V30 631 C 66.2824 -0.284918 2.01395 0
M  V30 632 C 66.6374 -1.50537 1.19818 0
M  V30 633 O 65.9304 -1.89692 0.269748 0
M  V30 634 C 66.1244 -0.680386 3.50864 0
M  V30 635 C 65.9534 0.500198 4.4691 0
M  V30 636 C 64.7234 0.996248 4.95382 0
M  V30 637 C 66.9214 1.34928 4.96285 0
M  V30 638 N 64.9034 2.14226 5.75309 0
M  V30 639 C 66.2744 2.3426 5.7404 0
M  V30 640 C 68.3294 1.37818 4.78446 0
M  V30 641 C 67.0324 3.36272 6.35856 0
M  V30 642 C 69.0584 2.38695 5.4109 0
M  V30 643 C 68.4204 3.36755 6.18688 0
M  V30 644 H 64.5194 -0.0683689 0.779006 0
M  V30 645 H 67.1034 0.44664 1.89508 0
M  V30 646 H 65.2744 -1.38109 3.63016 0
M  V30 647 H 67.0064 -1.25975 3.84594 0
M  V30 648 H 63.7614 0.56912 4.70168 0
M  V30 649 H 64.1854 2.72005 6.19953 0
M  V30 650 H 68.8274 0.633747 4.18023 0
M  V30 651 H 66.5454 4.11627 6.95405 0
M  V30 652 H 70.1314 2.41721 5.29209 0
M  V30 653 H 69.0114 4.13535 6.66302 0
M  V30 654 N 66.5145 -1.57545 0.0417849 0
M  V30 655 C 67.4445 -2.14009 -0.933929 0
M  V30 656 C 68.4255 -1.05938 -1.33083 0
M  V30 657 O 69.6105 -1.33833 -1.40721 0
M  V30 658 C 66.7405 -2.67747 -2.21199 0
M  V30 659 C 65.6945 -3.80718 -1.95544 0
M  V30 660 C 65.0205 -4.20935 -3.29724 0
M  V30 661 C 66.3205 -5.06258 -1.28452 0
M  V30 662 H 68.0145 -2.95788 -0.463645 0
M  V30 663 H 65.5605 -1.42285 -0.221573 0
M  V30 664 H 67.5135 -3.05886 -2.89848 0
M  V30 665 H 66.2375 -1.83147 -2.70416 0
M  V30 666 H 64.8965 -3.43037 -1.2931 0
M  V30 667 H 64.5445 -3.33298 -3.76724 0
M  V30 668 H 64.2445 -4.9707 -3.13361 0
M  V30 669 H 65.7685 -4.61666 -3.9962 0
M  V30 670 H 67.1825 -5.41903 -1.8712 0
M  V30 671 H 65.5795 -5.87475 -1.22445 0
M  V30 672 H 66.6495 -4.84207 -0.259219 0
M  V30 673 N 67.9926 0.231505 -1.5589 0
M  V30 674 C 68.9226 1.29022 -1.94617 0
M  V30 675 C 69.9036 1.4941 -0.813067 0
M  V30 676 O 71.0886 1.6176 -1.07459 0
M  V30 677 C 68.2186 2.64199 -2.25424 0
M  V30 678 C 67.1726 2.58484 -3.41131 0
M  V30 679 C 66.4986 3.97599 -3.57518 0
M  V30 680 C 67.7986 2.1413 -4.76388 0
M  V30 681 H 69.4926 0.968563 -2.83301 0
M  V30 682 H 67.0386 0.464479 -1.36303 0
M  V30 683 H 68.9916 3.38413 -2.51107 0
M  V30 684 H 67.7156 2.98032 -1.33583 0
M  V30 685 H 66.3746 1.86727 -3.15481 0
M  V30 686 H 66.0226 4.28723 -2.6307 0
M  V30 687 H 65.7226 3.94659 -4.35337 0
M  V30 688 H 67.2466 4.7349 -3.85538 0
M  V30 689 H 68.6606 2.78083 -5.01341 0
M  V30 690 H 67.0576 2.2227 -5.57419 0
M  V30 691 H 68.1276 1.09331 -4.72414 0
M  V30 692 N 69.4707 1.49531 0.497807 0
M  V30 693 C 70.4007 1.6935 1.60757 0
M  V30 694 C 71.3817 0.542218 1.61227 0
M  V30 695 O 72.5667 0.778417 1.77917 0
M  V30 696 C 69.6967 1.76298 2.99226 0
M  V30 697 C 68.6507 2.91248 3.13622 0
M  V30 698 C 67.9767 2.83312 4.53474 0
M  V30 699 C 69.2767 4.3214 2.93346 0
M  V30 700 H 70.9707 2.62263 1.44425 0
M  V30 701 H 68.5167 1.26208 0.693367 0
M  V30 702 H 70.4697 1.88749 3.76765 0
M  V30 703 H 69.1937 0.799871 3.16654 0
M  V30 704 H 67.8527 2.78404 2.38509 0
M  V30 705 H 67.5007 1.84902 4.67782 0
M  V30 706 H 67.2007 3.60465 4.64046 0
M  V30 707 H 68.7247 2.97775 5.33069 0
M  V30 708 H 70.1387 4.45649 3.60652 0
M  V30 709 H 68.5357 5.1054 3.15387 0
M  V30 710 H 69.6057 4.46363 1.89441 0
M  V30 711 N 70.9488 -0.749086 1.3866 0
M  V30 712 C 72.3598 -1.32664 1.31366 0
M  V30 713 C 72.7108 -1.96179 -0.028484 0
M  V30 714 O 71.8358 -1.9537 -0.93057 0
M  V30 715 C 72.4308 -2.41219 2.37905 0
M  V30 716 C 70.9898 -2.94684 2.34176 0
M  V30 717 C 70.1368 -1.68108 2.20533 0
M  V30 718 H 73.0878 -0.547628 1.48952 0
M  V30 719 H 73.1088 -3.21268 2.0388 0
M  V30 720 H 72.6208 -1.94962 3.35576 0
M  V30 721 H 70.7218 -3.45258 1.401 0
M  V30 722 H 70.8348 -3.48757 3.2849 0
M  V30 723 H 69.1988 -1.91907 1.67463 0
M  V30 724 H 69.9818 -1.23923 3.20153 0
M  V30 725 N 72.4269 -1.23603 -0.977757 0
M  V30 726 C 73.3569 -1.04401 -2.0886 0
M  V30 727 C 74.3379 0.0399052 -1.70053 0
M  V30 728 O 75.5229 -0.125246 -1.93796 0
M  V30 729 C 72.6529 -0.637269 -3.41403 0
M  V30 730 C 71.6069 -1.66883 -3.94124 0
M  V30 731 C 70.9329 -1.11745 -5.22893 0
M  V30 732 C 72.2329 -3.06247 -4.23096 0
M  V30 733 H 73.9269 -1.97316 -2.25182 0
M  V30 734 H 71.4729 -0.950096 -1.08209 0
M  V30 735 H 73.4259 -0.48998 -4.18542 0
M  V30 736 H 72.1499 0.327557 -3.24953 0
M  V30 737 H 70.8089 -1.80416 -3.19133 0
M  V30 738 H 70.4569 -0.143527 -5.02795 0
M  V30 739 H 70.1569 -1.80672 -5.59134 0
M  V30 740 H 71.6809 -0.982067 -6.02651 0
M  V30 741 H 73.0949 -2.96001 -4.90975 0
M  V30 742 H 71.4919 -3.72436 -4.70544 0
M  V30 743 H 72.5619 -3.55041 -3.30263 0
M  V30 744 N 73.905 1.17692 -1.04816 0
M  V30 745 C 74.835 2.23777 -0.666791 0
M  V30 746 C 75.816 1.66796 0.33361 0
M  V30 747 O 77.001 1.93039 0.212042 0
M  V30 748 C 74.131 3.47281 -0.0367933 0
M  V30 749 C 73.085 4.17059 -0.961546 0
M  V30 750 C 72.411 5.34342 -0.195626 0
M  V30 751 C 73.711 4.69713 -2.28402 0
M  V30 752 H 75.405 2.55933 -1.55367 0
M  V30 753 H 72.951 1.23019 -0.748484 0
M  V30 754 H 74.904 4.20706 0.241775 0
M  V30 755 H 73.628 3.14381 0.885004 0
M  V30 756 H 72.287 3.45541 -1.22462 0
M  V30 757 H 71.935 4.97692 0.728816 0
M  V30 758 H 71.635 5.81966 -0.811775 0
M  V30 759 H 73.159 6.10553 0.0757473 0
M  V30 760 H 74.573 5.34794 -2.06563 0
M  V30 761 H 72.97 5.279 -2.8538 0
M  V30 762 H 74.04 3.86726 -2.92525 0
M  V30 763 N 75.3831 0.828654 1.34056 0
M  V30 764 C 76.7941 0.477534 1.8049 0
M  V30 765 C 77.1451 -1.00258 1.6865 0
M  V30 766 O 76.2701 -1.78057 1.22982 0
M  V30 767 C 76.8651 0.860018 3.27703 0
M  V30 768 C 75.4241 0.561185 3.72193 0
M  V30 769 C 74.5711 1.07385 2.55663 0
M  V30 770 H 77.5221 1.0183 1.21722 0
M  V30 771 H 77.5431 0.166038 3.80138 0
M  V30 772 H 77.0551 1.93731 3.36288 0
M  V30 773 H 75.1561 -0.506465 3.69142 0
M  V30 774 H 75.2691 1.10926 4.66082 0
M  V30 775 H 73.6331 0.495149 2.49841 0
M  V30 776 H 74.4161 2.15771 2.67016 0
M  V30 777 N 76.8612 -1.46375 0.584142 0
M  V30 778 C 77.7912 -2.33103 -0.136037 0
M  V30 779 C 78.7722 -1.45431 -0.882255 0
M  V30 780 O 79.9572 -1.74246 -0.857434 0
M  V30 781 C 77.0872 -3.27731 -1.14933 0
M  V30 782 C 76.0412 -4.24855 -0.517862 0
M  V30 783 C 75.3672 -5.09001 -1.63773 0
M  V30 784 C 76.6672 -5.19439 0.545886 0
M  V30 785 H 78.3612 -2.93568 0.588086 0
M  V30 786 H 75.9072 -1.41166 0.284259 0
M  V30 787 H 77.8602 -3.87261 -1.66153 0
M  V30 788 H 76.5842 -2.65377 -1.90375 0
M  V30 789 H 75.2432 -3.6659 -0.0267361 0
M  V30 790 H 74.8912 -4.43031 -2.38185 0
M  V30 791 H 74.5912 -5.74777 -1.22085 0
M  V30 792 H 76.1152 -5.71396 -2.15266 0
M  V30 793 H 77.5292 -5.73177 0.118704 0
M  V30 794 H 75.9262 -5.93566 0.88317 0
M  V30 795 H 76.9962 -4.63285 1.43162 0
M  V30 796 N 78.3393 -0.321999 -1.54275 0
M  V30 797 C 79.2693 0.537411 -2.27231 0
M  V30 798 C 80.2503 1.12064 -1.27968 0
M  V30 799 O 81.4353 1.14606 -1.56777 0
M  V30 800 C 78.5653 1.69919 -3.02894 0
M  V30 801 C 77.5193 1.24534 -4.09482 0
M  V30 802 C 76.8453 2.49394 -4.72977 0
M  V30 803 C 78.1453 0.361335 -5.21049 0
M  V30 804 H 79.8393 -0.0711406 -2.99315 0
M  V30 805 H 77.3853 -0.0356555 -1.43956 0
M  V30 806 H 79.3383 2.30668 -3.52662 0
M  V30 807 H 78.0623 2.33431 -2.28424 0
M  V30 808 H 76.7213 0.660782 -3.60596 0
M  V30 809 H 76.3693 3.11265 -3.95124 0
M  V30 810 H 76.0693 2.19718 -5.44975 0
M  V30 811 H 77.5933 3.10908 -5.25517 0
M  V30 812 H 79.0073 0.875072 -5.66582 0
M  V30 813 H 77.4043 0.157428 -5.99893 0
M  V30 814 H 78.4743 -0.60822 -4.8107 0
M  V30 815 N 79.8174 1.5752 -0.0501392 0
M  V30 816 C 80.7804 2.1037 0.909786 0
M  V30 817 C 81.7804 1.02308 1.24056 0
M  V30 818 O 82.9704 1.28385 1.17741 0
M  V30 819 C 80.1024 2.58708 2.21998 0
M  V30 820 H 81.2954 2.96479 0.451665 0
M  V30 821 H 78.8484 1.55038 0.198248 0
M  V30 822 H 79.5834 1.75989 2.72394 0
M  V30 823 H 79.3684 3.37675 1.99295 0
M  V30 824 H 80.8584 2.99747 2.9076 0
M  V30 825 N 81.2955 -0.223234 1.56011 0
M  V30 826 C 82.2585 -1.26014 1.9145 0
M  V30 827 C 83.2585 -1.3989 0.792937 0
M  V30 828 O 84.4485 -1.38184 1.0607 0
M  V30 829 C 81.5805 -2.63422 2.16383 0
M  V30 830 H 82.7735 -0.95796 2.84189 0
M  V30 831 H 80.3265 -0.463576 1.49267 0
M  V30 832 H 81.0615 -2.98741 1.2619 0
M  V30 833 H 80.8465 -2.54728 2.98088 0
M  V30 834 H 82.3365 -3.38249 2.44903 0
M  V30 835 N 82.7736 -1.49793 -0.48987 0
M  V30 836 C 84.1846 -1.52914 -1.07118 0
M  V30 837 C 84.5356 -0.321738 -1.93544 0
M  V30 838 O 83.6606 0.567338 -2.08831 0
M  V30 839 C 84.2556 -2.771 -1.94938 0
M  V30 840 C 82.8146 -2.82963 -2.48212 0
M  V30 841 C 81.9616 -2.46972 -1.26096 0
M  V30 842 H 84.9126 -1.56329 -0.273289 0
M  V30 843 H 84.9336 -2.57892 -2.79771 0
M  V30 844 H 84.4456 -3.64959 -1.32009 0
M  V30 845 H 82.5466 -1.99411 -3.14748 0
M  V30 846 H 82.6596 -3.85406 -2.84603 0
M  V30 847 H 81.0236 -1.98994 -1.58976 0
M  V30 848 H 81.8066 -3.37118 -0.648581 0
M  V30 849 N 84.2517 0.741722 -1.39055 0
M  V30 850 C 85.4997 1.49818 -1.35643 0
M  V30 851 C 85.8207 1.94938 0.0491642 0
M  V30 852 O 85.0907 1.68505 0.999141 0
M  V30 853 H 83.6707 0.555755 -0.499144 0
M  V30 854 H 86.3327 0.880957 -1.73854 0
M  V30 855 H 85.4287 2.38348 -2.01486 0
M  V30 856 N 85.7298 1.2412 0.971189 0
M  V30 857 C 86.6928 1.03156 2.04674 0
M  V30 858 C 87.6928 -0.00990322 1.60797 0
M  V30 859 O 88.8828 0.230729 1.72665 0
M  V30 860 C 86.0148 0.562765 3.36223 0
M  V30 861 H 87.2078 1.98614 2.24705 0
M  V30 862 H 84.7608 1.06293 1.14593 0
M  V30 863 H 85.4958 -0.395176 3.21883 0
M  V30 864 H 85.2808 1.31441 3.69413 0
M  V30 865 H 86.7708 0.437015 4.15307 0
M  V30 866 N 87.2079 -1.17134 1.05439 0
M  V30 867 C 88.4329 -1.91913 0.786396 0
M  V30 868 C 88.8579 -1.7643 -0.652234 0
M  V30 869 O 88.2159 -1.08372 -1.45345 0
M  V30 870 C 88.2639 -3.40921 1.17497 0
M  V30 871 O 87.3679 -4.11244 0.308589 0
M  V30 872 H 86.7089 -0.598215 0.288158 0
M  V30 873 H 89.2389 -1.48457 1.4079 0
M  V30 874 H 89.2489 -3.91668 1.14281 0
M  V30 875 H 87.9239 -3.5151 2.22292 0
M  V30 876 H 86.5009 -3.70731 0.40157 0
M  V30 877 N 88.686 -0.835752 -1.33615 0
M  V30 878 C 89.649 -0.272 -2.2758 0
M  V30 879 C 90.649 0.557487 -1.50827 0
M  V30 880 O 91.839 0.37173 -1.70188 0
M  V30 881 C 88.971 0.617173 -3.35267 0
M  V30 882 H 90.164 -1.10111 -2.78954 0
M  V30 883 H 87.717 -0.608594 -1.43965 0
M  V30 884 H 88.452 1.46884 -2.89129 0
M  V30 885 H 88.237 0.0237066 -3.92093 0
M  V30 886 H 89.727 1.005 -4.05326 0
M  V30 887 N 90.1641 1.46063 -0.591896 0
M  V30 888 C 91.3941 2.06418 -0.0867676 0
M  V30 889 C 91.8021 1.43975 1.22751 0
M  V30 890 O 91.1451 0.542531 1.75506 0
M  V30 891 C 91.2071 3.59213 0.143725 0
M  V30 892 C 90.8711 4.439 -1.08635 0
M  V30 893 C 91.8681 4.79864 -2.00067 0
M  V30 894 C 89.5531 4.84896 -1.31077 0
M  V30 895 C 91.5471 5.55661 -3.12282 0
M  V30 896 C 89.2341 5.6045 -2.43596 0
M  V30 897 C 90.2321 5.95747 -3.34027 0
M  V30 898 O 89.9201 6.69772 -4.4459 0
M  V30 899 H 89.6521 0.673443 -0.0587447 0
M  V30 900 H 92.2061 1.88539 -0.814994 0
M  V30 901 H 90.4361 3.75433 0.926668 0
M  V30 902 H 92.1251 4.01463 0.5985 0
M  V30 903 H 92.8911 4.48763 -1.83947 0
M  V30 904 H 88.7701 4.56867 -0.61594 0
M  V30 905 H 92.3141 5.8313 -3.82891 0
M  V30 906 H 88.2111 5.90965 -2.59674 0
M  V30 907 H 88.9791 6.88207 -4.43073 0
M  V30 908 N 91.6422 0.330177 1.54103 0
M  V30 909 C 92.8672 -0.274893 2.0557 0
M  V30 910 C 93.2922 -1.44487 1.20437 0
M  V30 911 O 92.6502 -1.80021 0.214991 0
M  V30 912 C 92.6982 -0.68079 3.54115 0
M  V30 913 O 91.8022 -1.7824 3.71893 0
M  V30 914 H 91.1432 -0.0483849 0.662235 0
M  V30 915 H 93.6732 0.480508 1.98878 0
M  V30 916 H 93.6832 -0.961635 3.96505 0
M  V30 917 H 92.3582 0.174903 4.15532 0
M  V30 918 H 90.9352 -1.49985 3.41407 0
M  V30 919 N 93.1203 -1.57491 0.0584922 0
M  V30 920 C 94.3673 -1.92978 -0.613648 0
M  V30 921 C 94.6953 -0.937461 -1.70417 0
M  V30 922 O 93.9503 0.049078 -1.95638 0
M  V30 923 C 94.2493 -3.3513 -1.24188 0
M  V30 924 C 93.9153 -4.50037 -0.278826 0
M  V30 925 C 92.5773 -4.81198 -0.0138447 0
M  V30 926 C 94.9293 -5.19807 0.380777 0
M  V30 927 C 92.2573 -5.79473 0.918052 0
M  V30 928 C 94.6093 -6.19079 1.30091 0
M  V30 929 C 93.2733 -6.48665 1.57449 0
M  V30 930 H 92.5433 -0.706157 -0.22455 0
M  V30 931 H 95.1903 -1.91082 0.126533 0
M  V30 932 H 93.4953 -3.33429 -2.05749 0
M  V30 933 H 95.1923 -3.59871 -1.769 0
M  V30 934 H 91.7823 -4.25726 -0.495539 0
M  V30 935 H 95.9663 -4.95939 0.189158 0
M  V30 936 H 91.2223 -6.00727 1.1374 0
M  V30 937 H 95.3963 -6.7225 1.81804 0
M  V30 938 H 93.0233 -7.24628 2.29822 0
M  V30 939 N 94.5984 0.214957 -1.56127 0
M  V30 940 C 96.0094 0.781386 -1.69562 0
M  V30 941 C 96.3604 1.84707 -0.66165 0
M  V30 942 O 95.4854 2.156 0.185927 0
M  V30 943 C 96.0804 1.42411 -3.07416 0
M  V30 944 C 94.6394 1.93786 -3.22683 0
M  V30 945 C 93.7864 0.800438 -2.65496 0
M  V30 946 H 96.7374 -0.00980633 -1.58697 0
M  V30 947 H 96.7584 2.29309 -3.0364 0
M  V30 948 H 96.2704 0.64826 -3.82648 0
M  V30 949 H 94.3714 2.74152 -2.52332 0
M  V30 950 H 94.4844 2.1133 -4.29973 0
M  V30 951 H 92.8484 1.2095 -2.2415 0
M  V30 952 H 93.6314 0.0371471 -3.4328 0
M  V30 953 N 96.0765 1.50051 0.48192 0
M  V30 954 C 97.0085 1.64263 1.59844 0
M  V30 955 C 98.0215 0.52451 1.54119 0
M  V30 956 O 99.2105 0.797293 1.59704 0
M  V30 957 C 96.3105 1.60102 2.98698 0
M  V30 958 C 95.4835 2.87767 3.29407 0
M  V30 959 C 94.5425 2.76397 4.47762 0
M  V30 960 O 93.5685 3.50348 4.48603 0
M  V30 961 N 94.7705 1.89222 5.48794 0
M  V30 962 H 97.5355 2.60566 1.48073 0
M  V30 963 H 95.0965 1.47379 0.670149 0
M  V30 964 H 97.0885 1.50123 3.75826 0
M  V30 965 H 95.6585 0.715798 3.04294 0
M  V30 966 H 94.8785 3.11954 2.40994 0
M  V30 967 H 96.1665 3.72365 3.4673 0
M  V30 968 H 95.5645 1.28434 5.50928 0
M  V30 969 H 94.1215 1.85154 6.24949 0
M  V30 970 N 97.5546 -0.734337 1.39446 0
M  V30 971 C 98.4866 -1.85861 1.34121 0
M  V30 972 C 99.4996 -1.60871 0.249864 0
M  V30 973 O 100.689 -1.71093 0.508865 0
M  V30 974 C 97.7886 -3.21899 1.05991 0
M  V30 975 C 96.9616 -3.74239 2.26415 0
M  V30 976 C 96.0206 -4.88841 1.94733 0
M  V30 977 O 95.0466 -5.02468 2.67422 0
M  V30 978 N 96.2486 -5.73261 0.913884 0
M  V30 979 H 99.0136 -1.90934 2.31007 0
M  V30 980 H 96.5746 -0.915102 1.33557 0
M  V30 981 H 98.5666 -3.96136 0.828147 0
M  V30 982 H 97.1366 -3.12091 0.178361 0
M  V30 983 H 96.3566 -2.91347 2.65539 0
M  V30 984 H 97.6446 -4.05942 3.06738 0
M  V30 985 H 97.0426 -5.64842 0.311476 0
M  V30 986 H 95.5996 -6.47563 0.742015 0
M  V30 987 N 99.0327 -1.24633 -0.964593 0
M  V30 988 C 99.9827 -1.00841 -2.04487 0
M  V30 989 C 100.967 0.0512468 -1.60818 0
M  V30 990 O 102.159 -0.162865 -1.76249 0
M  V30 991 C 99.2877 -0.618474 -3.37683 0
M  V30 992 C 98.3737 -1.71437 -3.87905 0
M  V30 993 N 98.7647 -2.9477 -4.11029 0
M  V30 994 C 97.0627 -1.5926 -4.16596 0
M  V30 995 C 97.7637 -3.65834 -4.52261 0
M  V30 996 N 96.7397 -2.9341 -4.57615 0
M  V30 997 H 100.542 -1.94487 -2.20345 0
M  V30 998 H 98.0557 -1.14805 -1.14863 0
M  V30 999 H 100.053 -0.429247 -4.14684 0
M  V30 1000 H 98.7127 0.310766 -3.23209 0
M  V30 1001 H 99.7237 -3.30917 -3.9839 0
M  V30 1002 H 96.4007 -0.731606 -4.1104 0
M  V30 1003 H 97.7907 -4.71646 -4.78539 0
M  V30 1004 N 100.511 1.16574 -1.06058 0
M  V30 1005 C 101.739 1.90952 -0.796552 0
M  V30 1006 C 102.154 1.77302 0.648808 0
M  V30 1007 O 101.511 1.11605 1.44397 0
M  V30 1008 C 101.562 3.41736 -1.17894 0
M  V30 1009 O 101.283 3.54975 -2.56758 0
M  V30 1010 C 102.784 4.33169 -0.942308 0
M  V30 1011 H 100.004 0.605594 -0.288959 0
M  V30 1012 H 102.548 1.47777 -1.41358 0
M  V30 1013 H 100.703 3.82623 -0.606491 0
M  V30 1014 H 101.117 4.4846 -2.72 0
M  V30 1015 H 102.591 5.37439 -1.25952 0
M  V30 1016 H 103.068 4.3903 0.122078 0
M  V30 1017 H 103.674 3.98007 -1.49902 0
M  V30 1018 N 101.989 0.842826 1.3317 0
M  V30 1019 C 102.922 0.223862 2.27099 0
M  V30 1020 C 103.9 -0.631311 1.49844 0
M  V30 1021 O 105.084 -0.590708 1.79005 0
M  V30 1022 C 102.211 -0.685313 3.31694 0
M  V30 1023 C 101.257 0.094919 4.26394 0
M  V30 1024 S 102.09 1.45546 5.15341 0
M  V30 1025 C 103.246 0.551685 6.23464 0
M  V30 1026 H 103.479 1.02015 2.79249 0
M  V30 1027 H 101.012 0.639797 1.4052 0
M  V30 1028 H 102.97 -1.20426 3.92438 0
M  V30 1029 H 101.631 -1.4553 2.78352 0
M  V30 1030 H 100.824 -0.597059 5.00451 0
M  V30 1031 H 100.426 0.545054 3.70007 0
M  V30 1032 H 102.718 -0.248877 6.77043 0
M  V30 1033 H 103.661 1.26253 6.96754 0
M  V30 1034 H 104.069 0.131275 5.64347 0
M  V30 1035 N 103.467 -1.45747 0.599634 0
M  V30 1036 C 104.399 -2.28628 -0.161879 0
M  V30 1037 C 105.412 -1.39494 -0.839367 0
M  V30 1038 O 106.601 -1.63941 -0.706089 0
M  V30 1039 C 103.701 -3.15014 -1.24976 0
M  V30 1040 C 102.874 -4.32378 -0.660935 0
M  V30 1041 C 101.933 -5.00033 -1.63869 0
M  V30 1042 O 100.959 -5.57085 -1.1681 0
M  V30 1043 N 102.161 -4.98589 -2.97303 0
M  V30 1044 H 104.926 -2.94624 0.549265 0
M  V30 1045 H 102.487 -1.55847 0.438565 0
M  V30 1046 H 104.479 -3.5714 -1.9035 0
M  V30 1047 H 103.049 -2.5098 -1.86354 0
M  V30 1048 H 102.269 -3.9383 0.170688 0
M  V30 1049 H 103.557 -5.08197 -0.247619 0
M  V30 1050 H 102.955 -4.53514 -3.38145 0
M  V30 1051 H 101.512 -5.44603 -3.58121 0
M  V30 1052 N 104.945 -0.338344 -1.53925 0
M  V30 1053 C 105.895 0.536712 -2.21593 0
M  V30 1054 C 106.879 1.07015 -1.20153 0
M  V30 1055 O 108.071 1.00471 -1.45721 0
M  V30 1056 C 105.2 1.68977 -2.98834 0
M  V30 1057 C 104.286 1.17052 -4.07627 0
M  V30 1058 N 104.677 0.372085 -5.0443 0
M  V30 1059 C 102.975 1.44789 -4.21844 0
M  V30 1060 C 103.676 0.0909171 -5.81629 0
M  V30 1061 N 102.652 0.681131 -5.39316 0
M  V30 1062 H 106.454 -0.0804298 -2.9379 0
M  V30 1063 H 103.968 -0.144943 -1.61752 0
M  V30 1064 H 105.965 2.32857 -3.45808 0
M  V30 1065 H 104.625 2.31024 -2.28162 0
M  V30 1066 H 105.636 0.0136217 -5.17898 0
M  V30 1067 H 102.313 2.07313 -3.62391 0
M  V30 1068 H 103.703 -0.552817 -6.69622 0
M  V30 1069 N 106.423 1.57458 -0.0668435 0
M  V30 1070 C 107.669 1.94401 0.598316 0
M  V30 1071 C 108.024 0.946335 1.67518 0
M  V30 1072 O 107.317 -0.0321442 1.91573 0
M  V30 1073 C 107.511 3.35784 1.22409 0
M  V30 1074 C 107.34 4.49212 0.209367 0
M  V30 1075 C 106.11 5.04887 -0.204218 0
M  V30 1076 C 108.308 5.11335 -0.551431 0
M  V30 1077 N 106.29 6.01854 -1.21016 0
M  V30 1078 C 107.661 6.03754 -1.41 0
M  V30 1079 C 109.716 4.94173 -0.608038 0
M  V30 1080 C 108.419 6.80854 -2.32013 0
M  V30 1081 C 110.445 5.71912 -1.50566 0
M  V30 1082 C 109.807 6.63976 -2.35191 0
M  V30 1083 H 105.906 0.758538 0.190114 0
M  V30 1084 H 108.49 1.94175 -0.142832 0
M  V30 1085 H 106.661 3.36757 1.93518 0
M  V30 1086 H 108.393 3.59976 1.84931 0
M  V30 1087 H 105.148 4.73266 0.177908 0
M  V30 1088 H 105.572 6.55035 -1.71049 0
M  V30 1089 H 110.214 4.22788 0.032022 0
M  V30 1090 H 107.932 7.5152 -2.97057 0
M  V30 1091 H 111.518 5.60656 -1.55423 0
M  V30 1092 H 110.398 7.2308 -3.03522 0
M  V30 1093 N 107.901 -0.206675 1.56239 0
M  V30 1094 C 108.864 -1.23976 1.92776 0
M  V30 1095 C 109.864 -1.39041 0.807729 0
M  V30 1096 O 111.054 -1.37051 1.0753 0
M  V30 1097 C 108.186 -2.61112 2.19165 0
M  V30 1098 H 109.379 -0.927764 2.85189 0
M  V30 1099 H 106.932 -0.447718 1.4975 0
M  V30 1100 H 107.667 -2.97386 1.29352 0
M  V30 1101 H 107.452 -2.51552 3.00772 0
M  V30 1102 H 108.942 -3.35633 2.48476 0
M  V30 1103 N 109.379 -1.50304 -0.473955 0
M  V30 1104 C 110.795 -1.37667 -0.807466 0
M  V30 1105 C 110.995 -0.430555 -1.96846 0
M  V30 1106 O 110.051 0.127874 -2.52176 0
M  V30 1107 C 111.364 -2.78974 -1.12223 0
M  V30 1108 C 112.912 -2.87868 -1.22885 0
M  V30 1109 C 113.387 -4.30003 -1.57676 0
M  V30 1110 N 114.878 -4.3294 -1.64673 0
M  V30 1111 C 115.613 -5.3991 -1.93091 0
M  V30 1112 N 115.109 -6.57092 -2.1955 0
M  V30 1113 N 116.902 -5.27351 -1.94569 0
M  V30 1114 H 109.053 -2.10394 0.291212 0
M  V30 1115 H 111.316 -0.945575 0.0677609 0
M  V30 1116 H 111.022 -3.50031 -0.342229 0
M  V30 1117 H 110.896 -3.16038 -2.05913 0
M  V30 1118 H 113.283 -2.17032 -1.99953 0
M  V30 1119 H 113.364 -2.54352 -0.271814 0
M  V30 1120 H 113.008 -5.01375 -0.81149 0
M  V30 1121 H 112.938 -4.61004 -2.54525 0
M  V30 1122 H 115.429 -3.48441 -1.46277 0
M  V30 1123 H 115.742 -7.34425 -2.405 0
M  V30 1124 H 114.087 -6.60272 -2.16948 0
M  V30 1125 H 117.278 -4.34801 -1.73394 0
M  V30 1126 H 117.451 -6.10805 -2.16381 0
M  V30 1127 N 110.857 0.726932 -1.39834 0
M  V30 1128 C 112.273 1.03354 -1.21615 0
M  V30 1129 C 112.473 2.01327 -0.08338 0
M  V30 1130 O 111.529 2.46158 0.56238 0
M  V30 1131 C 112.842 1.58811 -2.55342 0
M  V30 1132 C 114.39 1.70851 -2.62257 0
M  V30 1133 C 114.865 2.29716 -3.96225 0
M  V30 1134 N 116.356 2.37116 -3.97907 0
M  V30 1135 C 117.091 2.83619 -4.98345 0
M  V30 1136 N 116.587 3.29958 -6.09179 0
M  V30 1137 N 118.38 2.82901 -4.8572 0
M  V30 1138 H 110.531 0.0773069 -2.12259 0
M  V30 1139 H 112.794 0.0969102 -0.943034 0
M  V30 1140 H 112.5 0.942855 -3.38826 0
M  V30 1141 H 112.374 2.57502 -2.75632 0
M  V30 1142 H 114.761 2.34497 -1.79152 0
M  V30 1143 H 114.842 0.707913 -2.45809 0
M  V30 1144 H 114.486 1.66696 -4.79765 0
M  V30 1145 H 114.416 3.30469 -4.09997 0
M  V30 1146 H 116.907 2.04374 -3.17868 0
M  V30 1147 H 117.22 3.63976 -6.8172 0
M  V30 1148 H 115.565 3.27946 -6.12761 0
M  V30 1149 H 118.756 2.46027 -3.98231 0
M  V30 1150 H 118.929 3.18827 -5.6414 0
M  V30 1151 N 112.336 1.25143 0.95797 0
M  V30 1152 C 113.266 1.07711 2.07173 0
M  V30 1153 C 114.247 -0.0128462 1.70095 0
M  V30 1154 O 115.432 0.156061 1.93572 0
M  V30 1155 C 112.562 0.691503 3.40346 0
M  V30 1156 C 111.516 1.73132 3.9142 0
M  V30 1157 C 110.842 1.20049 5.21049 0
M  V30 1158 C 112.142 3.1294 4.1817 0
M  V30 1159 H 113.836 2.00873 2.22014 0
M  V30 1160 H 111.382 0.967191 1.06684 0
M  V30 1161 H 113.335 0.556505 4.17709 0
M  V30 1162 H 112.059 -0.275819 3.25433 0
M  V30 1163 H 110.718 1.8547 3.16222 0
M  V30 1164 H 110.366 0.223499 5.02503 0
M  V30 1165 H 110.066 1.89545 5.56189 0
M  V30 1166 H 111.59 1.07782 6.01012 0
M  V30 1167 H 113.004 3.03775 4.86203 0
M  V30 1168 H 111.401 3.79875 4.64559 0
M  V30 1169 H 112.471 3.6025 3.24573 0
M  V30 1170 N 113.814 -1.1601 1.06675 0
M  V30 1171 C 114.724 -2.24156 0.692179 0
M  V30 1172 C 115.74 -1.71507 -0.293513 0
M  V30 1173 O 116.916 -2.009 -0.141861 0
M  V30 1174 C 113.981 -3.46587 0.0884131 0
M  V30 1175 C 113.042 -4.14257 1.12646 0
M  V30 1176 C 112.275 -5.30844 0.551416 0
M  V30 1177 O 112.498 -5.66858 -0.634656 0
M  V30 1178 O 111.432 -5.87848 1.29298 0
M  V30 1179 H 115.258 -2.58513 1.59388 0
M  V30 1180 H 112.843 -1.23599 0.83926 0
M  V30 1181 H 114.725 -4.20679 -0.246361 0
M  V30 1182 H 113.4 -3.13994 -0.786712 0
M  V30 1183 H 112.307 -3.42118 1.51348 0
M  V30 1184 H 113.64 -4.50914 1.97325 0
M  V30 1185 N 115.292 -0.849877 -1.32721 0
M  V30 1186 C 116.224 -0.248332 -2.27851 0
M  V30 1187 C 117.237 0.577218 -1.52224 0
M  V30 1188 O 118.426 0.402489 -1.73903 0
M  V30 1189 C 115.526 0.668107 -3.32249 0
M  V30 1190 C 114.699 -0.120534 -4.37234 0
M  V30 1191 C 113.758 0.720932 -5.21238 0
M  V30 1192 O 112.784 0.156166 -5.68986 0
M  V30 1193 N 113.986 2.03647 -5.43607 0
M  V30 1194 H 116.751 -1.06575 -2.80111 0
M  V30 1195 H 114.312 -0.709395 -1.45531 0
M  V30 1196 H 116.304 1.23627 -3.85355 0
M  V30 1197 H 114.874 1.38621 -2.80184 0
M  V30 1198 H 114.094 -0.870108 -3.84477 0
M  V30 1199 H 115.382 -0.662406 -5.0447 0
M  V30 1200 H 114.78 2.51871 -5.06535 0
M  V30 1201 H 113.337 2.55287 -5.99727 0
M  V30 1202 N 116.77 1.45427 -0.607355 0
M  V30 1203 C 117.68 2.34325 0.113463 0
M  V30 1204 C 118.696 1.51226 0.860617 0
M  V30 1205 O 119.872 1.84029 0.818255 0
M  V30 1206 C 116.937 3.28839 1.09844 0
M  V30 1207 C 115.998 4.27844 0.353271 0
M  V30 1208 C 115.231 5.17842 1.29133 0
M  V30 1209 O 115.454 5.11264 2.52913 0
M  V30 1210 O 114.388 5.96713 0.788523 0
M  V30 1211 H 118.214 2.97364 -0.617094 0
M  V30 1212 H 115.799 1.44807 -0.367619 0
M  V30 1213 H 117.681 3.8708 1.66575 0
M  V30 1214 H 116.356 2.68365 1.81003 0
M  V30 1215 H 115.263 3.7322 -0.256494 0
M  V30 1216 H 116.596 4.91173 -0.317822 0
M  V30 1217 N 118.248 0.346503 1.53744 0
M  V30 1218 C 119.494 -0.249473 2.0126 0
M  V30 1219 C 119.827 -1.49965 1.23386 0
M  V30 1220 O 119.102 -1.91811 0.32229 0
M  V30 1221 C 119.385 -0.560643 3.55709 0
M  V30 1222 C 119.238 0.701836 4.44291 0
M  V30 1223 C 120.557 -1.36905 4.18264 0
M  V30 1224 H 117.676 -0.0891987 0.731582 0
M  V30 1225 H 120.318 0.467624 1.84156 0
M  V30 1226 H 118.468 -1.17156 3.70414 0
M  V30 1227 H 120.14 1.33974 4.41417 0
M  V30 1228 H 118.383 1.32612 4.13033 0
M  V30 1229 H 119.054 0.43933 5.50249 0
M  V30 1230 H 121.53 -0.852448 4.07275 0
M  V30 1231 H 120.406 -1.55553 5.26398 0
M  V30 1232 H 120.667 -2.37203 3.73078 0
M  V30 1233 N 119.726 -1.57421 0.075193 0
M  V30 1234 C 121.003 -1.85029 -0.634329 0
M  V30 1235 C 121.383 -0.968305 -1.87582 0
M  V30 1236 O 120.731 -0.0354749 -2.28472 0
M  V30 1237 C 120.941 -3.35286 -0.968742 0
M  V30 1238 C 122.289 -4.02875 -1.34077 0
M  V30 1239 O 123.313 -3.40051 -1.06037 0
M  V30 1240 O 122.172 -5.13691 -1.86506 0
M  V30 1241 H 119.266 -0.7645 -0.315387 0
M  V30 1242 H 121.812 -1.69366 0.106382 0
M  V30 1243 H 120.584 -3.91203 -0.0871376 0
M  V30 1244 H 120.207 -3.56223 -1.7661 0
M  V30 1245 N 121.204 0.198386 -1.56346 0
M  V30 1246 C 122.452 0.91747 -1.80075 0
M  V30 1247 C 122.773 1.83929 -0.647692 0
M  V30 1248 O 122.043 1.93029 0.334166 0
M  V30 1249 H 120.623 0.341774 -0.664228 0
M  V30 1250 H 123.285 0.204684 -1.93822 0
M  V30 1251 H 122.381 1.51055 -2.7311 0
M  V30 1252 N 122.682 1.50554 0.465978 0
M  V30 1253 C 123.928 1.62038 1.21949 0
M  V30 1254 C 124.261 0.322116 1.9151 0
M  V30 1255 O 123.536 -0.676723 1.82348 0
M  V30 1256 C 123.819 2.80421 2.25912 0
M  V30 1257 C 123.672 4.20144 1.60622 0
M  V30 1258 C 124.991 2.94354 3.27176 0
M  V30 1259 H 122.11 0.589752 0.441998 0
M  V30 1260 H 124.752 1.82956 0.51257 0
M  V30 1261 H 122.902 2.62717 2.86203 0
M  V30 1262 H 124.574 4.49449 1.03889 0
M  V30 1263 H 122.817 4.24165 0.909211 0
M  V30 1264 H 123.488 4.98914 2.36196 0
M  V30 1265 H 125.964 3.10578 2.76913 0
M  V30 1266 H 124.84 3.788 3.97242 0
M  V30 1267 H 125.101 2.05186 3.916 0
M  V30 1268 N 124.16 -0.719506 1.40217 0
M  V30 1269 C 125.093 -1.84298 1.34571 0
M  V30 1270 C 126.071 -1.61149 0.216741 0
M  V30 1271 O 127.255 -1.84212 0.399756 0
M  V30 1272 C 124.382 -3.20568 1.09335 0
M  V30 1273 C 123.428 -3.62551 2.24631 0
M  V30 1274 S 124.261 -3.7012 3.87004 0
M  V30 1275 C 125.417 -5.09154 3.64024 0
M  V30 1276 H 125.65 -1.88807 2.2965 0
M  V30 1277 H 123.183 -0.885901 1.26456 0
M  V30 1278 H 125.141 -3.99246 0.954602 0
M  V30 1279 H 123.802 -3.13696 0.159164 0
M  V30 1280 H 122.995 -4.61483 2.02606 0
M  V30 1281 H 122.597 -2.91119 2.34789 0
M  V30 1282 H 124.889 -5.95955 3.22248 0
M  V30 1283 H 125.832 -5.36213 4.62473 0
M  V30 1284 H 126.24 -4.79562 2.97793 0
M  V30 1285 N 125.638 -1.25649 -0.95132 0
M  V30 1286 C 127.054 -1.02542 -1.223 0
M  V30 1287 C 127.254 0.255715 -1.99871 0
M  V30 1288 O 126.31 0.967558 -2.33226 0
M  V30 1289 C 127.623 -2.25065 -1.99415 0
M  V30 1290 C 129.171 -2.29861 -2.12446 0
M  V30 1291 C 129.646 -3.52048 -2.92961 0
M  V30 1292 N 131.137 -3.52465 -3.00538 0
M  V30 1293 C 131.872 -4.43672 -3.63239 0
M  V30 1294 N 131.368 -5.45157 -4.27523 0
M  V30 1295 N 133.161 -4.31346 -3.60412 0
M  V30 1296 H 125.312 -2.07951 -0.432471 0
M  V30 1297 H 127.575 -0.91339 -0.253816 0
M  V30 1298 H 127.281 -3.18194 -1.49817 0
M  V30 1299 H 127.155 -2.28502 -3.00111 0
M  V30 1300 H 129.542 -1.37252 -2.61239 0
M  V30 1301 H 129.623 -2.3044 -1.11044 0
M  V30 1302 H 129.267 -4.44981 -2.44856 0
M  V30 1303 H 129.197 -3.48715 -3.94596 0
M  V30 1304 H 131.688 -2.79056 -2.54826 0
M  V30 1305 H 132.001 -6.10958 -4.73234 0
M  V30 1306 H 130.346 -5.49025 -4.26141 0
M  V30 1307 H 133.537 -3.51288 -3.09377 0
M  V30 1308 H 133.71 -5.02624 -4.0899 0
M  V30 1309 N 127.117 1.15442 -1.07289 0
M  V30 1310 C 128.366 1.85557 -0.790669 0
M  V30 1311 C 128.679 1.83186 0.685739 0
M  V30 1312 O 129.885 2.48977 1.0827 0
M  V30 1313 C 128.341 3.33038 -1.36433 0
M  V30 1314 C 127.949 3.43856 -2.8717 0
M  V30 1315 C 129.693 4.0834 -1.1601 0
M  V30 1316 C 127.6 4.85482 -3.3773 0
M  V30 1317 H 126.53 0.695122 -0.292098 0
M  V30 1318 H 129.181 1.30219 -1.29287 0
M  V30 1319 H 127.563 3.88043 -0.789864 0
M  V30 1320 H 128.737 2.98961 -3.50655 0
M  V30 1321 H 127.052 2.81998 -3.06376 0
M  V30 1322 H 129.649 5.12859 -1.51262 0
M  V30 1323 H 129.992 4.16182 -0.0991007 0
M  V30 1324 H 130.525 3.59603 -1.70089 0
M  V30 1325 H 127.264 4.82823 -4.43353 0
M  V30 1326 H 126.784 5.30961 -2.78999 0
M  V30 1327 H 128.463 5.54335 -3.33648 0
M  V30 1328 N 128.595 0.856903 1.32268 0
M  V30 1329 C 129.842 0.461386 1.97174 0
M  V30 1330 C 130.17 -0.983491 1.67803 0
M  V30 1331 O 129.425 -1.70541 0.959903 0
M  V30 1332 C 129.724 0.649919 3.51441 0
M  V30 1333 C 129.39 2.0656 4.00804 0
M  V30 1334 C 128.052 2.45279 4.13995 0
M  V30 1335 C 130.404 2.98947 4.26943 0
M  V30 1336 C 127.732 3.75653 4.50668 0
M  V30 1337 C 130.084 4.28822 4.65075 0
M  V30 1338 C 128.748 4.67472 4.76472 0
M  V30 1339 H 128.018 0.168833 0.72151 0
M  V30 1340 H 130.665 1.08739 1.57633 0
M  V30 1341 H 128.97 -0.0593018 3.91755 0
M  V30 1342 H 130.667 0.32391 3.9969 0
M  V30 1343 H 127.257 1.75495 3.91024 0
M  V30 1344 H 131.441 2.70265 4.16258 0
M  V30 1345 H 126.697 4.05379 4.57688 0
M  V30 1346 H 130.871 5.0047 4.84255 0
M  V30 1347 H 128.498 5.68539 5.04646 0
M  V30 1348 N 130.073 -1.45103 0.615059 0
M  V30 1349 C 131.321 -2.01784 0.112955 0
M  V30 1350 C 131.642 -1.48504 -1.26378 0
M  V30 1351 O 130.912 -0.682245 -1.83636 0
M  V30 1352 H 129.492 -0.745993 0.0387668 0
M  V30 1353 H 132.154 -1.77808 0.798141 0
M  V30 1354 H 131.25 -3.12025 0.0684069 0
M  V30 1355 N 131.551 -0.354651 -1.53558 0
M  V30 1356 C 132.799 0.237972 -2.00694 0
M  V30 1357 C 133.12 1.50173 -1.24391 0
M  V30 1358 O 132.39 1.92673 -0.354135 0
M  V30 1359 H 130.97 0.0909256 -0.741446 0
M  V30 1360 H 133.632 -0.478368 -1.88938 0
M  V30 1361 H 132.728 0.47264 -3.085 0
M  V30 1362 N 133.029 1.57378 -0.0835403 0
M  V30 1363 C 134.275 1.94217 0.583733 0
M  V30 1364 C 134.608 0.964653 1.68547 0
M  V30 1365 O 133.883 -0.00422258 1.945 0
M  V30 1366 C 134.166 3.41253 1.14972 0
M  V30 1367 C 134.019 4.49768 0.0538277 0
M  V30 1368 C 135.338 3.89352 2.05166 0
M  V30 1369 H 132.457 0.706233 0.210724 0
M  V30 1370 H 135.099 1.89392 -0.1519 0
M  V30 1371 H 133.249 3.45496 1.77665 0
M  V30 1372 H 134.921 4.57641 -0.579851 0
M  V30 1373 H 133.164 4.29432 -0.614068 0
M  V30 1374 H 133.835 5.49817 0.490452 0
M  V30 1375 H 136.311 3.87189 1.52393 0
M  V30 1376 H 135.187 4.92822 2.41698 0
M  V30 1377 H 135.448 3.27973 2.96456 0
M  V30 1378 N 134.507 -0.190092 1.56449 0
M  V30 1379 C 135.439 -1.25973 1.91477 0
M  V30 1380 C 136.452 -1.41452 0.805931 0
M  V30 1381 O 137.641 -1.41789 1.08435 0
M  V30 1382 C 134.741 -2.63117 2.13594 0
M  V30 1383 C 133.914 -2.69182 3.4476 0
M  V30 1384 C 132.973 -3.87557 3.5593 0
M  V30 1385 O 131.999 -3.74427 4.28711 0
M  V30 1386 N 133.201 -5.03224 2.89388 0
M  V30 1387 H 135.966 -0.962394 2.83828 0
M  V30 1388 H 133.527 -0.379981 1.57378 0
M  V30 1389 H 135.519 -3.40742 2.1835 0
M  V30 1390 H 134.089 -2.85319 1.27719 0
M  V30 1391 H 133.309 -1.77793 3.51828 0
M  V30 1392 H 134.597 -2.70229 4.31107 0
M  V30 1393 H 133.995 -5.16791 2.30094 0
M  V30 1394 H 132.552 -5.78778 2.99764 0
M  V30 1395 N 135.985 -1.50799 -0.457987 0
M  V30 1396 C 136.917 -1.66786 -1.57211 0
M  V30 1397 C 137.93 -0.548962 -1.53265 0
M  V30 1398 O 139.119 -0.8226 -1.58416 0
M  V30 1399 C 136.219 -1.64834 -2.96113 0
M  V30 1400 C 135.392 -2.92971 -3.24787 0
M  V30 1401 C 134.451 -2.83485 -4.43309 0
M  V30 1402 O 133.477 -3.5744 -4.42973 0
M  V30 1403 N 134.679 -1.97929 -5.45714 0
M  V30 1404 H 137.444 -2.62889 -1.43909 0
M  V30 1405 H 135.005 -1.48427 -0.646617 0
M  V30 1406 H 136.997 -1.56084 -3.7339 0
M  V30 1407 H 135.567 -0.764118 -3.03117 0
M  V30 1408 H 134.787 -3.15749 -2.36 0
M  V30 1409 H 136.075 -3.77834 -3.40762 0
M  V30 1410 H 135.473 -1.37182 -5.48815 0
M  V30 1411 H 134.03 -1.95073 -6.21924 0
M  V30 1412 N 137.463 0.71206 -1.40597 0
M  V30 1413 C 138.393 1.83889 -1.43899 0
M  V30 1414 C 139.374 1.67442 -0.299504 0
M  V30 1415 O 140.559 1.87421 -0.508624 0
M  V30 1416 C 137.689 3.21877 -1.30431 0
M  V30 1417 C 136.643 3.53002 -2.42019 0
M  V30 1418 C 135.969 4.90172 -2.13626 0
M  V30 1419 C 137.269 3.53643 -3.84362 0
M  V30 1420 H 138.963 1.81383 -2.38203 0
M  V30 1421 H 136.509 0.871237 -1.14654 0
M  V30 1422 H 138.462 4.00404 -1.31357 0
M  V30 1423 H 137.186 3.24968 -0.326049 0
M  V30 1424 H 135.845 2.76818 -2.40349 0
M  V30 1425 H 135.493 4.89869 -1.14182 0
M  V30 1426 H 135.193 5.11962 -2.88389 0
M  V30 1427 H 136.717 5.71028 -2.1624 0
M  V30 1428 H 138.131 4.22203 -3.87837 0
M  V30 1429 H 136.528 3.86961 -4.58673 0
M  V30 1430 H 137.598 2.52954 -4.13693 0
M  V30 1431 N 138.941 1.26152 0.944643 0
M  V30 1432 C 140.357 1.03189 1.21754 0
M  V30 1433 C 140.557 -0.245112 2.00004 0
M  V30 1434 O 139.613 -0.955176 2.33736 0
M  V30 1435 C 140.926 2.26119 1.98219 0
M  V30 1436 C 142.474 2.30984 2.11224 0
M  V30 1437 C 142.949 3.53597 2.91089 0
M  V30 1438 N 144.44 3.54053 2.98664 0
M  V30 1439 C 145.175 4.45593 3.60881 0
M  V30 1440 N 144.671 5.47416 4.24626 0
M  V30 1441 N 146.464 4.33252 3.58119 0
M  V30 1442 H 138.615 2.08177 0.421437 0
M  V30 1443 H 140.878 0.914723 0.248969 0
M  V30 1444 H 140.584 3.18984 1.48128 0
M  V30 1445 H 140.458 2.3009 2.98895 0
M  V30 1446 H 142.845 1.38635 2.60508 0
M  V30 1447 H 142.926 2.31026 1.09821 0
M  V30 1448 H 142.57 4.46273 2.42493 0
M  V30 1449 H 142.5 3.50802 3.92741 0
M  V30 1450 H 144.991 2.80403 2.53343 0
M  V30 1451 H 145.304 6.13459 4.69987 0
M  V30 1452 H 143.649 5.51278 4.23223 0
M  V30 1453 H 146.84 3.52924 3.0751 0
M  V30 1454 H 147.013 5.04786 4.06319 0
M  V30 1455 N 140.419 -1.14872 1.07899 0
M  V30 1456 C 141.329 -2.2341 0.715915 0
M  V30 1457 C 142.345 -1.71808 -0.275306 0
M  V30 1458 O 143.521 -2.01039 -0.120545 0
M  V30 1459 C 140.586 -3.46474 0.125168 0
M  V30 1460 C 139.647 -4.13039 1.17034 0
M  V30 1461 C 138.88 -5.30229 0.607688 0
M  V30 1462 O 139.103 -5.675 -0.574497 0
M  V30 1463 O 138.037 -5.86444 1.35526 0
M  V30 1464 H 141.863 -2.56808 1.62121 0
M  V30 1465 H 139.448 -1.22702 0.852322 0
M  V30 1466 H 141.33 -4.20917 -0.201729 0
M  V30 1467 H 140.005 -3.14811 -0.753364 0
M  V30 1468 H 138.912 -3.40493 1.54968 0
M  V30 1469 H 140.245 -4.48796 2.02097 0
M  V30 1470 N 141.898 -0.863906 -1.31812 0
M  V30 1471 C 143.147 -0.46801 -1.96195 0
M  V30 1472 C 143.46 0.983474 -1.69077 0
M  V30 1473 O 144.666 1.48523 -2.27273 0
M  V30 1474 C 143.122 -0.785995 -3.51212 0
M  V30 1475 C 142.73 -2.25383 -3.87178 0
M  V30 1476 C 144.474 -0.458274 -4.22019 0
M  V30 1477 C 142.381 -2.51455 -5.3528 0
M  V30 1478 H 141.311 -0.171283 -0.734287 0
M  V30 1479 H 143.962 -1.05597 -1.50072 0
M  V30 1480 H 142.344 -0.127359 -3.95795 0
M  V30 1481 H 143.518 -2.95502 -3.53575 0
M  V30 1482 H 141.833 -2.54698 -3.2942 0
M  V30 1483 H 144.43 -0.630369 -5.30971 0
M  V30 1484 H 144.773 0.600834 -4.11941 0
M  V30 1485 H 145.306 -1.07319 -3.8305 0
M  V30 1486 H 142.045 -3.56025 -5.50387 0
M  V30 1487 H 141.565 -1.85923 -5.70257 0
M  V30 1488 H 143.244 -2.35874 -6.02472 0
M  V30 1489 N 143.376 1.44774 -0.622745 0
M  V30 1490 C 144.606 2.06187 -0.130532 0
M  V30 1491 C 145.014 1.46547 1.19669 0
M  V30 1492 O 144.357 0.579636 1.74316 0
M  V30 1493 C 144.419 3.59437 0.0674983 0
M  V30 1494 C 144.083 4.41496 -1.18026 0
M  V30 1495 C 145.08 4.75512 -2.102 0
M  V30 1496 C 142.765 4.82007 -1.41333 0
M  V30 1497 C 144.759 5.48912 -3.23998 0
M  V30 1498 C 142.446 5.55157 -2.55429 0
M  V30 1499 C 143.444 5.88528 -3.46589 0
M  V30 1500 O 143.132 6.60191 -4.58697 0
M  V30 1501 H 142.864 0.672045 -0.0730162 0
M  V30 1502 H 145.418 1.86768 -0.854802 0
M  V30 1503 H 143.648 3.77314 0.846825 0
M  V30 1504 H 145.337 4.02642 0.513209 0
M  V30 1505 H 146.103 4.4476 -1.93425 0
M  V30 1506 H 141.982 4.55457 -0.712709 0
M  V30 1507 H 145.526 5.74877 -3.95174 0
M  V30 1508 H 141.423 5.85324 -2.72151 0
M  V30 1509 H 142.191 6.78654 -4.57571 0
M  V30 1510 N 144.854 0.36279 1.53368 0
M  V30 1511 C 145.801 -0.485008 2.25646 0
M  V30 1512 C 146.771 -1.07982 1.2621 0
M  V30 1513 O 147.956 -1.11284 1.54986 0
M  V30 1514 C 145.096 -1.62023 3.04701 0
M  V30 1515 C 144.209 -1.05086 4.19024 0
M  V30 1516 C 143.344 -2.15496 4.85525 0
M  V30 1517 C 142.383 -1.5601 5.91884 0
M  V30 1518 N 141.52 -2.60241 6.52088 0
M  V30 1519 H 146.36 0.137864 2.97681 0
M  V30 1520 H 143.897 0.0798061 1.46883 0
M  V30 1521 H 145.855 -2.28887 3.48807 0
M  V30 1522 H 144.485 -2.2138 2.34927 0
M  V30 1523 H 143.537 -0.27259 3.79422 0
M  V30 1524 H 144.849 -0.575926 4.95464 0
M  V30 1525 H 144.003 -2.90186 5.32801 0
M  V30 1526 H 142.742 -2.66341 4.08551 0
M  V30 1527 H 141.747 -0.798338 5.43973 0
M  V30 1528 H 142.972 -1.05994 6.70777 0
M  V30 1529 H 140.918 -3.10304 5.77968 0
M  V30 1530 H 140.835 -2.17426 7.24059 0
M  V30 1531 H 142.103 -3.34641 7.04014 0
M  V30 1532 N 146.332 -1.57332 0.0918853 0
M  V30 1533 C 147.609 -1.85691 -0.614668 0
M  V30 1534 C 147.989 -0.988146 -1.86545 0
M  V30 1535 O 147.337 -0.0597055 -2.28422 0
M  V30 1536 C 147.547 -3.36294 -0.933126 0
M  V30 1537 C 148.895 -4.04275 -1.29796 0
M  V30 1538 O 149.919 -3.41157 -1.02424 0
M  V30 1539 O 148.778 -5.1564 -1.81047 0
M  V30 1540 H 145.872 -0.767802 -0.307261 0
M  V30 1541 H 148.418 -1.69244 0.12434 0
M  V30 1542 H 147.19 -3.91273 -0.0456404 0
M  V30 1543 H 146.813 -3.58076 -1.72822 0
M  V30 1544 N 147.81 0.181792 -1.56548 0
M  V30 1545 C 148.758 1.24461 -1.965 0
M  V30 1546 C 149.752 1.464 -0.852261 0
M  V30 1547 O 150.958 1.47103 -1.03733 0
M  V30 1548 H 147.333 0.418138 -0.625031 0
M  V30 1549 H 149.304 0.880714 -2.85107 0
M  V30 1550 C 148.053 2.57891 -2.33212 0
M  V30 1551 H 147.376 2.41829 -3.18369 0
M  V30 1552 H 148.816 3.3097 -2.65019 0
M  V30 1553 C 147.275 3.15871 -1.17163 0
M  V30 1554 O 147.805 3.9913 -0.453708 0
M  V30 1555 N 146.011 2.74808 -0.944936 0
M  V30 1556 H 145.558 2.07205 -1.53049 0
M  V30 1557 H 145.516 3.13939 -0.170286 0
M  V30 1558 N 149.288 1.51039 0.449983 0
M  V30 1559 C 150.704 1.38934 0.785462 0
M  V30 1560 C 150.904 0.461817 1.96136 0
M  V30 1561 O 149.96 -0.0877389 2.52348 0
M  V30 1562 C 151.273 2.80724 1.0777 0
M  V30 1563 C 152.821 2.89787 1.1829 0
M  V30 1564 C 153.296 4.32457 1.50815 0
M  V30 1565 N 154.787 4.35505 1.57764 0
M  V30 1566 C 155.522 5.42914 1.84477 0
M  V30 1567 N 155.018 6.60502 2.09068 0
M  V30 1568 N 156.811 5.3038 1.86155 0
M  V30 1569 H 148.962 2.09904 -0.324647 0
M  V30 1570 H 151.225 0.944378 -0.0827957 0
M  V30 1571 H 150.931 3.50531 0.286498 0
M  V30 1572 H 150.805 3.19273 2.00859 0
M  V30 1573 H 153.192 2.20186 1.96474 0
M  V30 1574 H 153.273 2.54752 0.231314 0
M  V30 1575 H 152.917 5.02603 0.731622 0
M  V30 1576 H 152.847 4.64995 2.47158 0
M  V30 1577 H 155.338 3.50724 1.40715 0
M  V30 1578 H 155.651 7.38158 2.28785 0
M  V30 1579 H 153.996 6.63639 2.06416 0
M  V30 1580 H 157.187 4.37505 1.66454 0
M  V30 1581 H 157.36 6.1417 2.06637 0
M  V30 1582 N 150.766 -0.704594 1.40972 0
M  V30 1583 C 151.714 -1.83994 1.42299 0
M  V30 1584 C 152.708 -1.66684 0.302111 0
M  V30 1585 O 153.914 -1.73655 0.473697 0
M  V30 1586 H 150.289 -0.606171 0.44504 0
M  V30 1587 H 152.26 -1.79992 2.38003 0
M  V30 1588 C 151.009 -3.21946 1.31323 0
M  V30 1589 H 150.332 -3.35878 2.16855 0
M  V30 1590 H 151.772 -4.01491 1.36311 0
M  V30 1591 C 150.231 -3.36891 0.0245977 0
M  V30 1592 O 150.761 -3.90687 -0.934153 0
M  V30 1593 N 148.967 -2.90559 -0.0485243 0
M  V30 1594 H 148.514 -2.46968 0.732419 0
M  V30 1595 H 148.472 -3.00937 -0.910171 0
M  V30 1596 N 152.244 -1.26651 -0.937939 0
M  V30 1597 C 153.174 -1.10993 -2.05433 0
M  V30 1598 C 154.155 -0.0142161 -1.70094 0
M  V30 1599 O 155.34 -0.186837 -1.93299 0
M  V30 1600 C 152.47 -0.745561 -3.39203 0
M  V30 1601 C 151.424 -1.79337 -3.88616 0
M  V30 1602 C 150.75 -1.28324 -5.19073 0
M  V30 1603 C 152.05 -3.19553 -4.13138 0
M  V30 1604 H 153.744 -2.0438 -2.1879 0
M  V30 1605 H 151.29 -0.984041 -1.05131 0
M  V30 1606 H 153.243 -0.622888 -4.16771 0
M  V30 1607 H 151.967 0.22401 -3.25831 0
M  V30 1608 H 150.626 -1.90477 -3.13231 0
M  V30 1609 H 150.274 -0.303414 -5.02084 0
M  V30 1610 H 149.974 -1.98369 -5.53103 0
M  V30 1611 H 151.498 -1.1733 -5.99221 0
M  V30 1612 H 152.912 -3.11471 -4.81309 0
M  V30 1613 H 151.309 -3.87218 -4.58457 0
M  V30 1614 H 152.379 -3.65368 -3.18801 0
M  V30 1615 N 153.722 1.14298 -1.08507 0
M  V30 1616 C 154.969 1.85359 -0.815373 0
M  V30 1617 C 155.297 1.83001 0.658865 0
M  V30 1618 O 154.552 1.25655 1.50031 0
M  V30 1619 C 154.851 3.33547 -1.28379 0
M  V30 1620 C 154.517 3.56093 -2.76602 0
M  V30 1621 C 153.179 3.61955 -3.17084 0
M  V30 1622 C 155.531 3.64834 -3.72217 0
M  V30 1623 C 152.859 3.74082 -4.51973 0
M  V30 1624 C 155.211 3.78487 -5.06883 0
M  V30 1625 C 153.875 3.82598 -5.46969 0
M  V30 1626 H 153.145 0.678276 -0.298366 0
M  V30 1627 H 155.792 1.35002 -1.35819 0
M  V30 1628 H 154.097 3.86191 -0.660593 0
M  V30 1629 H 155.794 3.86959 -1.05186 0
M  V30 1630 H 152.384 3.52179 -2.4427 0
M  V30 1631 H 156.568 3.59595 -3.42061 0
M  V30 1632 H 151.824 3.75527 -4.82483 0
M  V30 1633 H 155.998 3.84193 -5.80834 0
M  V30 1634 H 153.625 3.91747 -6.51489 0
M  V30 1635 N 155.201 0.870884 1.31352 0
M  V30 1636 C 156.111 0.330783 2.32256 0
M  V30 1637 C 157.127 -0.559767 1.6475 0
M  V30 1638 O 158.303 -0.456263 1.96164 0
M  V30 1639 C 155.368 -0.458137 3.4366 0
M  V30 1640 C 154.429 0.460482 4.26823 0
M  V30 1641 C 153.662 -0.290881 5.32907 0
M  V30 1642 O 153.885 -1.51885 5.49806 0
M  V30 1643 O 152.819 0.351732 6.00871 0
M  V30 1644 H 156.645 1.16718 2.80376 0
M  V30 1645 H 154.23 0.634285 1.35267 0
M  V30 1646 H 156.112 -0.905343 4.1156 0
M  V30 1647 H 154.787 -1.27106 2.97701 0
M  V30 1648 H 153.694 0.956207 3.61673 0
M  V30 1649 H 155.027 1.23903 4.7635 0
M  V30 1650 N 156.679 -1.44442 0.630414 0
M  V30 1651 C 157.925 -2.02351 0.134816 0
M  V30 1652 C 158.258 -1.4947 -1.23986 0
M  V30 1653 O 157.533 -0.678475 -1.82283 0
M  V30 1654 C 157.816 -3.59898 0.120707 0
M  V30 1655 C 157.669 -4.23063 1.52767 0
M  V30 1656 C 158.988 -4.36585 -0.555127 0
M  V30 1657 H 156.107 -0.73527 0.0504646 0
M  V30 1658 H 158.749 -1.72022 0.806751 0
M  V30 1659 H 156.899 -3.85868 -0.451477 0
M  V30 1660 H 158.571 -4.08202 2.14869 0
M  V30 1661 H 156.814 -3.80586 2.08175 0
M  V30 1662 H 157.485 -5.32071 1.46984 0
M  V30 1663 H 159.961 -4.16044 -0.0685429 0
M  V30 1664 H 158.837 -5.46294 -0.534185 0
M  V30 1665 H 159.098 -4.11138 -1.62535 0
M  V30 1666 N 158.157 -0.370918 -1.53173 0
M  V30 1667 C 159.089 0.507823 -2.23503 0
M  V30 1668 C 160.102 1.04182 -1.251 0
M  V30 1669 O 161.291 0.947286 -1.5129 0
M  V30 1670 C 158.391 1.71447 -2.92334 0
M  V30 1671 C 157.564 1.31105 -4.17289 0
M  V30 1672 C 156.623 2.38035 -4.69282 0
M  V30 1673 O 155.649 2.00204 -5.32829 0
M  V30 1674 N 156.851 3.69697 -4.47554 0
M  V30 1675 H 159.616 -0.0946382 -2.99551 0
M  V30 1676 H 157.177 -0.196358 -1.60705 0
M  V30 1677 H 159.169 2.42469 -3.24023 0
M  V30 1678 H 157.739 2.22368 -2.19707 0
M  V30 1679 H 156.959 0.430462 -3.91843 0
M  V30 1680 H 158.247 1.0179 -4.98514 0
M  V30 1681 H 157.645 4.03205 -3.9679 0
M  V30 1682 H 156.202 4.36807 -4.8378 0
M  V30 1683 N 159.635 1.57281 -0.100228 0
M  V30 1684 C 160.545 2.17833 0.870965 0
M  V30 1685 C 161.561 1.14921 1.30649 0
M  V30 1686 O 162.737 1.47313 1.37335 0
M  V30 1687 C 159.802 2.75085 2.1102 0
M  V30 1688 C 158.863 3.9297 1.72838 0
M  V30 1689 C 158.096 4.47482 2.90854 0
M  V30 1690 O 158.319 4.00922 4.05731 0
M  V30 1691 O 157.253 5.38433 2.69023 0
M  V30 1692 H 161.079 3.0124 0.38575 0
M  V30 1693 H 158.664 1.48881 0.124397 0
M  V30 1694 H 160.546 3.11656 2.83634 0
M  V30 1695 H 159.221 1.94721 2.58584 0
M  V30 1696 H 158.128 3.61201 0.973883 0
M  V30 1697 H 159.461 4.74713 1.30033 0
M  V30 1698 N 161.113 -0.173488 1.56642 0
M  V30 1699 C 162.061 -1.23417 1.97157 0
M  V30 1700 C 163.055 -1.45946 0.860013 0
M  V30 1701 O 164.261 -1.46551 1.04512 0
M  V30 1702 H 160.636 -0.414818 0.62724 0
M  V30 1703 H 162.607 -0.865582 2.8557 0
M  V30 1704 C 161.356 -2.5665 2.34576 0
M  V30 1705 H 160.679 -2.40137 3.19647 0
M  V30 1706 H 162.119 -3.2956 2.6677 0
M  V30 1707 C 160.578 -3.15245 1.18836 0
M  V30 1708 O 161.108 -3.98883 0.474869 0
M  V30 1709 N 159.314 -2.74303 0.959497 0
M  V30 1710 H 158.861 -2.0639 1.54146 0
M  V30 1711 H 158.819 -3.13844 0.186932 0
M  V30 1712 N 162.591 -1.51276 -0.441967 0
M  V30 1713 C 163.501 -1.75092 -1.56141 0
M  V30 1714 C 164.517 -0.634963 -1.62001 0
M  V30 1715 O 165.693 -0.916686 -1.79329 0
M  V30 1716 C 162.758 -1.86666 -2.92158 0
M  V30 1717 C 161.819 -3.10506 -2.96453 0
M  V30 1718 C 161.052 -3.21519 -4.25982 0
M  V30 1719 O 161.275 -2.38586 -5.18105 0
M  V30 1720 O 160.209 -4.14465 -4.36466 0
M  V30 1721 H 164.035 -2.70044 -1.38961 0
M  V30 1722 H 161.62 -1.35722 -0.624499 0
M  V30 1723 H 163.502 -1.96292 -3.72891 0
M  V30 1724 H 162.177 -0.949014 -3.09476 0
M  V30 1725 H 161.084 -3.06363 -2.14692 0
M  V30 1726 H 162.417 -4.01945 -2.84079 0
M  V30 1727 N 164.069 0.697108 -1.41344 0
M  V30 1728 C 165.48 1.27697 -1.36199 0
M  V30 1729 C 165.831 1.9615 -0.0443463 0
M  V30 1730 O 164.956 1.98689 0.857419 0
M  V30 1731 C 165.551 2.32223 -2.46694 0
M  V30 1732 C 164.11 2.8579 -2.44952 0
M  V30 1733 C 163.257 1.59807 -2.26621 0
M  V30 1734 H 166.208 0.491968 -1.50882 0
M  V30 1735 H 166.229 3.1348 -2.15664 0
M  V30 1736 H 165.741 1.82373 -3.42581 0
M  V30 1737 H 163.842 3.3982 -1.52817 0
M  V30 1738 H 163.955 3.36325 -3.41207 0
M  V30 1739 H 162.319 1.8556 -1.7447 0
M  V30 1740 H 163.102 1.11956 -3.24532 0
M  V30 1741 N 165.547 1.27147 0.931209 0
M  V30 1742 C 166.479 1.05364 2.03546 0
M  V30 1743 C 167.492 0.0108438 1.62796 0
M  V30 1744 O 168.681 0.25202 1.76712 0
M  V30 1745 C 165.781 0.575566 3.33977 0
M  V30 1746 C 164.954 1.68985 4.03439 0
M  V30 1747 C 164.013 1.20813 5.12143 0
M  V30 1748 O 163.039 1.90712 5.363 0
M  V30 1749 N 164.241 0.0618851 5.80467 0
M  V30 1750 H 167.006 2.00454 2.22796 0
M  V30 1751 H 164.567 1.18666 1.10136 0
M  V30 1752 H 166.559 0.237264 4.04004 0
M  V30 1753 H 165.129 -0.282016 3.11325 0
M  V30 1754 H 164.349 2.19861 3.27192 0
M  V30 1755 H 165.637 2.4378 4.46597 0
M  V30 1756 H 165.035 -0.521621 5.6329 0
M  V30 1757 H 163.592 -0.217264 6.51438 0
M  V30 1758 N 167.025 -1.13721 1.09112 0
M  V30 1759 C 167.972 -2.19031 0.727591 0
M  V30 1760 C 168.942 -1.63555 -0.289656 0
M  V30 1761 O 170.127 -1.90023 -0.172026 0
M  V30 1762 C 167.267 -3.4477 0.15082 0
M  V30 1763 C 166.38 -4.14365 1.22172 0
M  V30 1764 C 165.515 -5.27709 0.608042 0
M  V30 1765 C 164.554 -5.89147 1.66047 0
M  V30 1766 N 163.691 -6.93929 1.06806 0
M  V30 1767 H 168.531 -2.49475 1.62991 0
M  V30 1768 H 166.068 -1.22499 0.81439 0
M  V30 1769 H 168.026 -4.16714 -0.201358 0
M  V30 1770 H 166.656 -3.14787 -0.714783 0
M  V30 1771 H 165.708 -3.40737 1.69122 0
M  V30 1772 H 167.02 -4.56114 2.01895 0
M  V30 1773 H 166.174 -6.06355 0.204523 0
M  V30 1774 H 164.913 -4.872 -0.220769 0
M  V30 1775 H 163.918 -5.09198 2.07357 0
M  V30 1776 H 165.143 -6.31729 2.49189 0
M  V30 1777 H 163.089 -6.55483 0.260476 0
M  V30 1778 H 163.006 -7.34202 1.8023 0
M  V30 1779 H 164.274 -7.76434 0.690644 0
M  V30 1780 N 168.503 -0.877838 -1.30888 0
M  V30 1781 C 169.433 -0.35534 -2.3078 0
M  V30 1782 C 170.414 0.557994 -1.60687 0
M  V30 1783 O 171.599 0.473355 -1.88343 0
M  V30 1784 C 168.729 0.437221 -3.44537 0
M  V30 1785 C 167.683 -0.383715 -4.26276 0
M  V30 1786 C 167.009 0.535014 -5.32017 0
M  V30 1787 C 168.309 -1.62201 -4.96476 0
M  V30 1788 H 170.003 -1.19007 -2.74732 0
M  V30 1789 H 167.549 -0.573698 -1.32078 0
M  V30 1790 H 169.502 0.813334 -4.13477 0
M  V30 1791 H 168.226 1.30553 -2.99372 0
M  V30 1792 H 166.885 -0.741874 -3.59015 0
M  V30 1793 H 166.533 1.40083 -4.831 0
M  V30 1794 H 166.233 -0.0104211 -5.87599 0
M  V30 1795 H 167.757 0.907799 -6.03814 0
M  V30 1796 H 169.171 -1.31689 -5.5797 0
M  V30 1797 H 167.568 -2.10711 -5.61891 0
M  V30 1798 H 168.638 -2.37044 -4.23011 0
M  V30 1799 N 169.982 1.44106 -0.638065 0
M  V30 1800 C 171.228 2.02277 -0.145546 0
M  V30 1801 C 171.561 1.50125 1.23191 0
M  V30 1802 O 170.836 0.688133 1.8192 0
M  V30 1803 C 171.119 3.59829 -0.139791 0
M  V30 1804 C 170.972 4.22247 -1.55008 0
M  V30 1805 C 172.291 4.36873 0.531966 0
M  V30 1806 H 169.41 0.734992 -0.0543632 0
M  V30 1807 H 172.052 1.71592 -0.815863 0
M  V30 1808 H 170.202 3.86102 0.431007 0
M  V30 1809 H 171.874 4.07057 -2.1703 0
M  V30 1810 H 170.117 3.79476 -2.10191 0
M  V30 1811 H 170.788 5.31284 -1.49804 0
M  V30 1812 H 173.264 4.16074 0.0464781 0
M  V30 1813 H 172.14 5.4657 0.505206 0
M  V30 1814 H 172.401 4.11995 1.60352 0
M  V30 1815 N 171.46 0.379036 1.52974 0
M  V30 1816 C 172.37 -0.468639 2.29872 0
M  V30 1817 C 173.386 -1.08067 1.36373 0
M  V30 1818 O 174.562 -1.08871 1.69438 0
M  V30 1819 C 171.627 -1.58594 3.083 0
M  V30 1820 C 170.688 -1.00007 4.17489 0
M  V30 1821 C 169.921 -2.06413 4.92168 0
M  V30 1822 O 170.144 -3.27751 4.66835 0
M  V30 1823 O 169.078 -1.68717 5.7777 0
M  V30 1824 H 172.904 0.157508 3.03291 0
M  V30 1825 H 170.489 0.143035 1.48714 0
M  V30 1826 H 172.371 -2.23525 3.57232 0
M  V30 1827 H 171.046 -2.19724 2.37703 0
M  V30 1828 H 169.953 -0.314299 3.72777 0
M  V30 1829 H 171.286 -0.433135 4.90291 0
M  V30 1830 N 172.938 -1.57226 0.108567 0
M  V30 1831 C 173.885 -2.14756 -0.845481 0
M  V30 1832 C 174.855 -1.06971 -1.27068 0
M  V30 1833 O 176.04 -1.34827 -1.35005 0
M  V30 1834 C 173.18 -2.74298 -2.09415 0
M  V30 1835 C 172.293 -3.96358 -1.71826 0
M  V30 1836 C 171.428 -4.44021 -2.9158 0
M  V30 1837 C 170.467 -5.58637 -2.50181 0
M  V30 1838 N 169.604 -6.01091 -3.62814 0
M  V30 1839 H 174.444 -2.95961 -0.348035 0
M  V30 1840 H 171.981 -1.46226 -0.160106 0
M  V30 1841 H 173.939 -3.06945 -2.82561 0
M  V30 1842 H 172.569 -1.95801 -2.56636 0
M  V30 1843 H 171.621 -3.69939 -0.885947 0
M  V30 1844 H 172.933 -4.79504 -1.37394 0
M  V30 1845 H 172.087 -4.78522 -3.72963 0
M  V30 1846 H 170.826 -3.59803 -3.29231 0
M  V30 1847 H 169.831 -5.23751 -1.67228 0
M  V30 1848 H 171.056 -6.44613 -2.13659 0
M  V30 1849 H 169.002 -5.19817 -4.00158 0
M  V30 1850 H 168.919 -6.79066 -3.32273 0
M  V30 1851 H 170.187 -6.40227 -4.44668 0
M  V30 1852 N 174.416 0.165178 -1.56732 0
M  V30 1853 C 175.662 0.882112 -1.82611 0
M  V30 1854 C 175.995 1.81628 -0.687378 0
M  V30 1855 O 175.27 1.92009 0.310267 0
M  V30 1856 C 175.553 1.67245 -3.18906 0
M  V30 1857 C 175.406 0.760987 -4.43316 0
M  V30 1858 C 176.725 2.63884 -3.52212 0
M  V30 1859 H 173.844 0.319242 -0.664269 0
M  V30 1860 H 176.486 0.148052 -1.89422 0
M  V30 1861 H 174.636 2.29824 -3.1323 0
M  V30 1862 H 176.308 0.147596 -4.61064 0
M  V30 1863 H 174.551 0.0694102 -4.33744 0
M  V30 1864 H 175.222 1.34962 -5.35247 0
M  V30 1865 H 177.698 2.11429 -3.58381 0
M  V30 1866 H 176.574 3.16245 -4.48643 0
M  V30 1867 H 176.835 3.44377 -2.77231 0
M  V30 1868 N 175.894 1.51508 0.433938 0
M  V30 1869 C 176.857 1.72473 1.50949 0
M  V30 1870 C 177.857 0.594725 1.49398 0
M  V30 1871 O 179.047 0.862315 1.5136 0
M  V30 1872 C 176.179 1.78431 2.90474 0
M  V30 1873 H 177.372 2.68467 1.33662 0
M  V30 1874 H 174.925 1.41549 0.662836 0
M  V30 1875 H 175.66 0.842645 3.13161 0
M  V30 1876 H 175.445 2.60558 2.93005 0
M  V30 1877 H 176.935 1.96479 3.68491 0
M  V30 1878 N 177.372 -0.689602 1.41712 0
M  V30 1879 C 178.62 -1.4468 1.4111 0
M  V30 1880 C 178.941 -1.94986 0.0232196 0
M  V30 1881 O 178.211 -1.72097 -0.935913 0
M  V30 1882 H 176.791 -0.536847 0.519427 0
M  V30 1883 H 179.453 -0.815825 1.77004 0
M  V30 1884 H 178.549 -2.30706 2.10193 0
M  V30 1885 N 178.85 -1.27639 -0.924453 0
M  V30 1886 C 180.127 -1.04887 -1.651 0
M  V30 1887 C 180.507 0.415327 -2.06974 0
M  V30 1888 O 179.855 1.39923 -1.80648 0
M  V30 1889 C 180.065 -2.01348 -2.85061 0
M  V30 1890 C 181.413 -2.30899 -3.56329 0
M  V30 1891 O 182.437 -1.99348 -2.95193 0
M  V30 1892 O 181.296 -2.84699 -4.66485 0
M  V30 1893 H 178.39 -0.400083 -0.723784 0
M  V30 1894 H 180.936 -1.38916 -0.974703 0
M  V30 1895 H 179.708 -3.0008 -2.51133 0
M  V30 1896 H 179.331 -1.679 -3.6041 0
M  V30 1897 N 180.328 1.1314 -1.09713 0
M  V30 1898 C 181.577 1.83838 -0.829851 0
M  V30 1899 C 181.89 1.84599 0.646728 0
M  V30 1900 O 183.096 2.51218 1.02965 0
M  V30 1901 C 181.552 3.30069 -1.43466 0
M  V30 1902 C 181.16 3.37688 -2.94399 0
M  V30 1903 C 182.904 4.05788 -1.24645 0
M  V30 1904 C 180.811 4.78209 -3.47952 0
M  V30 1905 H 179.741 0.68877 -0.306777 0
M  V30 1906 H 182.392 1.27448 -1.3202 0
M  V30 1907 H 180.774 3.8628 -0.871996 0
M  V30 1908 H 181.948 2.91456 -3.56918 0
M  V30 1909 H 180.263 2.75436 -3.12289 0
M  V30 1910 H 182.86 5.09535 -1.62107 0
M  V30 1911 H 183.203 4.15878 -0.187357 0
M  V30 1912 H 183.736 3.55915 -1.77678 0
M  V30 1913 H 180.475 4.73311 -4.53495 0
M  V30 1914 H 179.995 5.24924 -2.90198 0
M  V30 1915 H 181.674 5.47133 -3.45332 0
M  V30 1916 N 181.806 0.884767 1.30421 0
M  V30 1917 C 182.716 0.355398 2.31892 0
M  V30 1918 C 183.732 -0.542261 1.65335 0
M  V30 1919 O 184.908 -0.435432 1.96637 0
M  V30 1920 C 181.973 -0.421661 3.44126 0
M  V30 1921 C 181.034 0.505727 4.26311 0
M  V30 1922 C 180.267 -0.234343 5.33185 0
M  V30 1923 O 180.49 -1.46045 5.51386 0
M  V30 1924 O 179.424 0.415443 6.00465 0
M  V30 1925 H 183.25 1.19685 2.79122 0
M  V30 1926 H 180.835 0.648596 1.34587 0
M  V30 1927 H 182.717 -0.861641 4.12497 0
M  V30 1928 H 181.392 -1.23942 2.99032 0
M  V30 1929 H 180.299 0.994513 3.60639 0
M  V30 1930 H 181.632 1.28948 4.75009 0
M  V30 1931 N 183.284 -1.43765 0.645699 0
M  V30 1932 C 184.509 -2.06767 0.161883 0
M  V30 1933 C 184.934 -1.48034 -1.16049 0
M  V30 1934 O 184.292 -0.587369 -1.71522 0
M  V30 1935 C 184.34 -3.60519 0.0762003 0
M  V30 1936 O 183.444 -4.00982 -0.963721 0
M  V30 1937 H 182.785 -0.657675 0.091429 0
M  V30 1938 H 185.315 -1.84397 0.886499 0
M  V30 1939 H 185.325 -4.07853 -0.109604 0
M  V30 1940 H 184 -4.02646 1.04157 0
M  V30 1941 H 182.577 -3.65253 -0.751312 0
M  V30 1942 N 184.763 -0.387143 -1.52771 0
M  V30 1943 C 185.693 0.440551 -2.29306 0
M  V30 1944 C 186.674 1.06535 -1.32606 0
M  V30 1945 O 187.859 1.07853 -1.61497 0
M  V30 1946 C 184.989 1.56919 -3.09829 0
M  V30 1947 C 183.943 1.07054 -4.14395 0
M  V30 1948 C 183.269 2.29109 -4.83129 0
M  V30 1949 C 184.569 0.140015 -5.22112 0
M  V30 1950 H 186.263 -0.198026 -2.98744 0
M  V30 1951 H 183.809 -0.09668 -1.43675 0
M  V30 1952 H 185.762 2.15503 -3.62128 0
M  V30 1953 H 184.486 2.23532 -2.3812 0
M  V30 1954 H 183.145 0.507247 -3.63074 0
M  V30 1955 H 182.793 2.94227 -4.0797 0
M  V30 1956 H 182.493 1.96406 -5.53804 0
M  V30 1957 H 184.017 2.88339 -5.38231 0
M  V30 1958 H 185.431 0.633978 -5.69784 0
M  V30 1959 H 183.828 -0.0971485 -6.00021 0
M  V30 1960 H 184.898 -0.811711 -4.78058 0
M  V30 1961 N 186.241 1.57166 -0.116904 0
M  V30 1962 C 187.171 2.18222 0.830759 0
M  V30 1963 C 188.152 1.12167 1.27877 0
M  V30 1964 O 189.337 1.40394 1.34176 0
M  V30 1965 C 186.467 2.77996 2.08172 0
M  V30 1966 C 185.421 3.89614 1.77157 0
M  V30 1967 C 184.747 4.36187 3.09265 0
M  V30 1968 C 186.047 5.1181 1.04151 0
M  V30 1969 H 187.741 2.97664 0.321992 0
M  V30 1970 H 185.287 1.4318 0.153434 0
M  V30 1971 H 187.24 3.19366 2.74924 0
M  V30 1972 H 185.964 1.9584 2.6137 0
M  V30 1973 H 184.623 3.48816 1.12796 0
M  V30 1974 H 184.271 3.50893 3.60393 0
M  V30 1975 H 183.971 5.11455 2.89288 0
M  V30 1976 H 185.495 4.80207 3.77139 0
M  V30 1977 H 186.909 5.50214 1.61052 0
M  V30 1978 H 185.306 5.92648 0.942762 0
M  V30 1979 H 186.376 4.84892 0.0279022 0
M  V30 1980 N 187.719 -0.156864 1.56817 0
M  V30 1981 C 188.996 -0.899244 1.73704 0
M  V30 1982 C 189.376 -1.99771 0.682254 0
M  V30 1983 O 188.724 -2.26515 -0.300522 0
M  V30 1984 C 188.934 -1.45075 3.17418 0
M  V30 1985 C 190.282 -1.91802 3.7881 0
M  V30 1986 O 191.306 -1.54838 3.20786 0
M  V30 1987 O 190.165 -2.5994 4.80722 0
M  V30 1988 H 187.259 -0.424267 0.709878 0
M  V30 1989 H 189.805 -0.143561 1.69092 0
M  V30 1990 H 188.577 -0.660846 3.85679 0
M  V30 1991 H 188.2 -2.27021 3.26416 0
M  V30 1992 N 189.197 -1.51736 -0.425897 0
M  V30 1993 C 190.613 -1.40166 -0.76326 0
M  V30 1994 C 190.813 -0.492962 -1.95377 0
M  V30 1995 O 189.869 0.0475815 -2.52455 0
M  V30 1996 C 191.182 -2.82403 -1.03291 0
M  V30 1997 C 192.73 -2.91632 -1.13665 0
M  V30 1998 C 193.205 -4.34801 -1.43916 0
M  V30 1999 N 194.696 -4.3796 -1.50816 0
M  V30 2000 C 195.431 -5.4578 -1.75817 0
M  V30 2001 N 194.927 -6.63744 -1.98534 0
M  V30 2002 N 196.72 -5.33274 -1.77694 0
M  V30 2003 H 188.871 -2.09361 0.358 0
M  V30 2004 H 191.134 -0.942941 0.0978094 0
M  V30 2005 H 190.84 -3.50943 -0.230696 0
M  V30 2006 H 190.714 -3.22428 -1.95754 0
M  V30 2007 H 193.101 -2.23284 -1.92947 0
M  V30 2008 H 193.182 -2.55088 -0.190756 0
M  V30 2009 H 192.826 -5.03703 -0.65157 0
M  V30 2010 H 192.756 -4.68868 -2.39729 0
M  V30 2011 H 195.247 -3.52919 -1.35118 0
M  V30 2012 H 195.56 -7.41704 -2.17013 0
M  V30 2013 H 193.905 -6.66839 -1.95832 0
M  V30 2014 H 197.096 -4.40098 -1.59473 0
M  V30 2015 H 197.269 -6.1738 -1.9684 0
M  V30 2016 N 190.675 0.682077 -1.42076 0
M  V30 2017 C 191.622 1.79578 -1.44984 0
M  V30 2018 C 192.592 1.6332 -0.302614 0
M  V30 2019 O 193.777 1.83978 -0.505633 0
M  V30 2020 C 190.917 3.1756 -1.35091 0
M  V30 2021 C 190.03 3.45156 -2.59791 0
M  V30 2022 C 189.165 4.72826 -2.42093 0
M  V30 2023 C 188.204 4.93433 -3.62202 0
M  V30 2024 N 187.341 6.12338 -3.43491 0
M  V30 2025 H 192.181 1.76427 -2.40161 0
M  V30 2026 H 189.718 0.861376 -1.19242 0
M  V30 2027 H 191.676 3.97287 -1.27354 0
M  V30 2028 H 190.306 3.19854 -0.435133 0
M  V30 2029 H 189.358 2.59736 -2.77923 0
M  V30 2030 H 190.67 3.5628 -3.49094 0
M  V30 2031 H 189.824 5.60631 -2.319 0
M  V30 2032 H 188.563 4.63973 -1.50268 0
M  V30 2033 H 187.568 4.04073 -3.72834 0
M  V30 2034 H 188.793 5.04136 -4.54998 0
M  V30 2035 H 186.739 6.04672 -2.54377 0
M  V30 2036 H 186.656 6.2429 -4.26377 0
M  V30 2037 H 187.924 7.02841 -3.37097 0
M  V30 2038 N 192.153 1.28127 0.917671 0
M  V30 2039 C 193.399 1.15223 1.66888 0
M  V30 2040 C 193.732 -0.299293 1.9188 0
M  V30 2041 O 193.007 -1.21805 1.51637 0
M  V30 2042 C 193.29 1.94706 3.02922 0
M  V30 2043 C 193.143 3.47898 2.85109 0
M  V30 2044 C 194.462 1.75939 4.03402 0
M  V30 2045 H 191.581 0.419946 0.605652 0
M  V30 2046 H 194.223 1.57398 1.06423 0
M  V30 2047 H 192.373 1.58864 3.54534 0
M  V30 2048 H 194.045 3.93624 2.40537 0
M  V30 2049 H 192.288 3.7373 2.20246 0
M  V30 2050 H 192.959 3.98765 3.81694 0
M  V30 2051 H 195.435 2.07209 3.60837 0
M  V30 2052 H 194.311 2.33931 4.96556 0
M  V30 2053 H 194.572 0.709877 4.36364 0
M  V30 2054 N 193.631 -1.12557 1.10312 0
M  V30 2055 C 194.563 -2.17971 0.708625 0
M  V30 2056 C 195.576 -1.60806 -0.254027 0
M  V30 2057 O 196.765 -1.78458 -0.0386891 0
M  V30 2058 C 193.865 -3.38891 0.0248198 0
M  V30 2059 C 193.038 -4.25548 1.01132 0
M  V30 2060 C 192.097 -5.24972 0.35924 0
M  V30 2061 O 191.123 -5.60174 1.00965 0
M  V30 2062 N 192.325 -5.73747 -0.882847 0
M  V30 2063 H 195.09 -2.52427 1.61557 0
M  V30 2064 H 192.651 -1.27967 0.991771 0
M  V30 2065 H 194.643 -4.02485 -0.422852 0
M  V30 2066 H 193.213 -3.02596 -0.784514 0
M  V30 2067 H 192.433 -3.58589 1.6373 0
M  V30 2068 H 193.721 -4.80294 1.67914 0
M  V30 2069 H 193.119 -5.4731 -1.43065 0
M  V30 2070 H 191.676 -6.39234 -1.27369 0
M  V30 2071 N 195.109 -0.891671 -1.2995 0
M  V30 2072 C 196.072 -0.36828 -2.26222 0
M  V30 2073 C 197.072 0.493014 -1.53056 0
M  V30 2074 O 198.262 0.299213 -1.71611 0
M  V30 2075 C 195.394 0.47442 -3.37583 0
M  V30 2076 H 196.587 -1.21844 -2.74033 0
M  V30 2077 H 194.14 -0.669107 -1.41254 0
M  V30 2078 H 194.875 1.34489 -2.95099 0
M  V30 2079 H 194.66 -0.142615 -3.91841 0
M  V30 2080 H 196.15 0.83218 -4.09224 0
M  V30 2081 N 196.587 1.43421 -0.653314 0
M  V30 2082 C 197.517 2.33487 0.0246656 0
M  V30 2083 C 198.498 1.49475 0.811863 0
M  V30 2084 O 199.683 1.78139 0.773322 0
M  V30 2085 C 196.813 3.32841 0.99166 0
M  V30 2086 C 195.767 4.26842 0.314568 0
M  V30 2087 C 195.093 5.16236 1.39302 0
M  V30 2088 C 196.393 5.16243 -0.793095 0
M  V30 2089 H 198.087 2.90427 -0.727481 0
M  V30 2090 H 195.633 1.39649 -0.351287 0
M  V30 2091 H 197.586 3.94747 1.47487 0
M  V30 2092 H 196.31 2.74158 1.77497 0
M  V30 2093 H 194.969 3.663 -0.148199 0
M  V30 2094 H 194.617 4.53891 2.16776 0
M  V30 2095 H 194.317 5.79948 0.945223 0
M  V30 2096 H 195.841 5.81015 1.87759 0
M  V30 2097 H 197.255 5.71958 -0.392039 0
M  V30 2098 H 195.652 5.88676 -1.16536 0
M  V30 2099 H 196.722 4.55927 -1.65103 0
M  V30 2100 N 198.065 0.39524 1.52563 0
M  V30 2101 C 199.012 -0.437036 2.26624 0
M  V30 2102 C 199.982 -1.05281 1.28472 0
M  V30 2103 O 201.167 -1.07971 1.57311 0
M  V30 2104 C 198.307 -1.55524 3.08069 0
M  V30 2105 C 197.42 -0.961745 4.21158 0
M  V30 2106 C 196.555 -2.05149 4.89987 0
M  V30 2107 C 195.594 -1.4342 5.95061 0
M  V30 2108 N 194.731 -2.46351 6.57462 0
M  V30 2109 H 199.571 0.200976 2.97322 0
M  V30 2110 H 197.108 0.110944 1.46681 0
M  V30 2111 H 199.066 -2.21437 3.53584 0
M  V30 2112 H 197.696 -2.16348 2.3957 0
M  V30 2113 H 196.748 -0.192048 3.79915 0
M  V30 2114 H 198.06 -0.470701 4.96574 0
M  V30 2115 H 197.214 -2.78819 5.38837 0
M  V30 2116 H 195.953 -2.57615 4.14109 0
M  V30 2117 H 194.958 -0.682774 5.45544 0
M  V30 2118 H 196.183 -0.917416 6.72875 0
M  V30 2119 H 194.129 -2.97975 5.8442 0
M  V30 2120 H 194.046 -2.02019 7.28508 0
M  V30 2121 H 195.314 -3.19633 7.10954 0
M  V30 2122 N 199.544 -1.57102 0.125237 0
M  V30 2123 C 200.96 -1.57915 -0.231322 0
M  V30 2124 C 201.16 -1.13833 -1.66266 0
M  V30 2125 O 200.216 -0.828581 -2.38518 0
M  V30 2126 C 201.529 -3.00699 0.00766489 0
M  V30 2127 C 203.077 -3.12947 -0.0577483 0
M  V30 2128 C 203.552 -4.57742 0.153626 0
M  V30 2129 N 205.043 -4.63092 0.0998073 0
M  V30 2130 C 205.778 -5.72905 0.238174 0
M  V30 2131 N 205.274 -6.91445 0.433057 0
M  V30 2132 N 207.067 -5.6182 0.177308 0
M  V30 2133 H 199.218 -1.84055 1.06007 0
M  V30 2134 H 201.481 -0.850905 0.417929 0
M  V30 2135 H 201.187 -3.3726 0.997431 0
M  V30 2136 H 201.061 -3.70236 -0.721452 0
M  V30 2137 H 203.448 -2.7624 -1.03804 0
M  V30 2138 H 203.529 -2.4594 0.70335 0
M  V30 2139 H 203.173 -4.95149 1.13092 0
M  V30 2140 H 203.103 -5.22848 -0.627534 0
M  V30 2141 H 205.594 -3.77871 -0.047051 0
M  V30 2142 H 205.907 -7.70985 0.529332 0
M  V30 2143 H 204.252 -6.93415 0.469109 0
M  V30 2144 H 207.443 -4.68093 0.0259748 0
M  V30 2145 H 207.616 -6.47357 0.288582 0
M  V30 2146 N 201.022 0.148545 -1.56898 0
M  V30 2147 C 201.952 1.18524 -2.01182 0
M  V30 2148 C 202.933 1.4489 -0.891123 0
M  V30 2149 O 204.118 1.55836 -1.15882 0
M  V30 2150 C 201.248 2.51879 -2.39112 0
M  V30 2151 C 200.202 2.40038 -3.54353 0
M  V30 2152 C 199.528 3.78089 -3.78091 0
M  V30 2153 C 200.828 1.88577 -4.87069 0
M  V30 2154 H 202.522 0.817029 -2.88036 0
M  V30 2155 H 200.068 0.391575 -1.38574 0
M  V30 2156 H 202.021 3.24627 -2.68692 0
M  V30 2157 H 200.745 2.90532 -1.49193 0
M  V30 2158 H 199.404 1.69742 -3.24936 0
M  V30 2159 H 199.052 4.14175 -2.85426 0
M  V30 2160 H 198.752 3.71028 -4.55645 0
M  V30 2161 H 200.276 4.52387 -4.10095 0
M  V30 2162 H 201.69 2.51117 -5.15377 0
M  V30 2163 H 200.087 1.9241 -5.68417 0
M  V30 2164 H 201.157 0.84136 -4.77545 0
M  V30 2165 N 202.5 1.5196 0.417844 0
M  V30 2166 C 203.463 1.74065 1.49111 0
M  V30 2167 C 204.463 0.610537 1.48758 0
M  V30 2168 O 205.653 0.87832 1.50437 0
M  V30 2169 C 202.785 1.81502 2.88565 0
M  V30 2170 H 203.978 2.69869 1.30807 0
M  V30 2171 H 201.531 1.42244 0.647785 0
M  V30 2172 H 202.266 0.875813 3.1225 0
M  V30 2173 H 202.051 2.63651 2.90225 0
M  V30 2174 H 203.541 2.00376 3.66387 0
M  V30 2175 N 203.978 -0.674533 1.42435 0
M  V30 2176 C 205.255 -1.4305 1.33402 0
M  V30 2177 C 205.635 -2.11081 -0.0284674 0
M  V30 2178 O 204.983 -2.03257 -1.04397 0
M  V30 2179 C 205.193 -2.43272 2.50239 0
M  V30 2180 C 206.541 -3.07907 2.92367 0
M  V30 2181 O 207.565 -2.53599 2.50132 0
M  V30 2182 O 206.424 -4.0632 3.65467 0
M  V30 2183 H 203.518 -0.638076 0.526106 0
M  V30 2184 H 206.064 -0.703235 1.54443 0
M  V30 2185 H 204.836 -1.91803 3.41068 0
M  V30 2186 H 204.459 -3.23479 2.31186 0
M  V30 2187 N 205.456 -1.28612 -0.910864 0
M  V30 2188 C 206.419 -1.12803 -1.9952 0
M  V30 2189 C 207.419 -0.0668264 -1.60661 0
M  V30 2190 O 208.609 -0.312847 -1.71368 0
M  V30 2191 C 205.741 -0.72254 -3.33155 0
M  V30 2192 H 206.934 -2.09109 -2.14973 0
M  V30 2193 H 204.487 -1.11639 -1.09391 0
M  V30 2194 H 205.222 0.241152 -3.23402 0
M  V30 2195 H 205.007 -1.48916 -3.62721 0
M  V30 2196 H 206.497 -0.634666 -4.12749 0
M  V30 2197 N 206.934 1.1197 -1.10907 0
M  V30 2198 C 207.897 2.16031 -0.765707 0
M  V30 2199 C 208.897 1.59393 0.212235 0
M  V30 2200 O 210.087 1.74196 -0.0115441 0
M  V30 2201 C 207.219 3.40632 -0.135053 0
M  V30 2202 H 208.412 2.47919 -1.68748 0
M  V30 2203 H 205.965 1.27061 -0.910226 0
M  V30 2204 H 206.7 3.14348 0.797218 0
M  V30 2205 H 206.485 3.8302 -0.838937 0
M  V30 2206 H 207.975 4.17505 0.0892469 0
M  V30 2207 N 208.412 0.89855 1.29475 0
M  V30 2208 C 209.322 0.379974 2.31502 0
M  V30 2209 C 210.338 -0.524695 1.659 0
M  V30 2210 O 211.514 -0.414551 1.97087 0
M  V30 2211 C 208.579 -0.385138 3.44554 0
M  V30 2212 C 207.64 0.550914 4.2575 0
M  V30 2213 C 206.873 -0.177778 5.33404 0
M  V30 2214 O 207.096 -1.40189 5.52904 0
M  V30 2215 O 206.03 0.479106 5.9999 0
M  V30 2216 H 209.856 1.22639 2.77837 0
M  V30 2217 H 207.441 0.662834 1.33891 0
M  V30 2218 H 209.323 -0.817841 4.13388 0
M  V30 2219 H 207.998 -1.20763 3.0033 0
M  V30 2220 H 206.905 1.03271 3.59564 0
M  V30 2221 H 208.238 1.33979 4.73614 0
M  V30 2222 N 209.89 -1.43072 0.660911 0
M  V30 2223 C 210.838 -2.32569 -0.0378199 0
M  V30 2224 C 211.832 -1.49046 -0.805092 0
M  V30 2225 O 213.038 -1.65206 -0.714624 0
M  V30 2226 H 209.413 -0.75136 -0.031019 0
M  V30 2227 H 211.384 -2.89216 0.734609 0
M  V30 2228 C 210.133 -3.33453 -0.985124 0
M  V30 2229 H 209.456 -3.97752 -0.404147 0
M  V30 2230 H 210.896 -3.98691 -1.44297 0
M  V30 2231 C 209.355 -2.64642 -2.08486 0
M  V30 2232 O 209.885 -2.46776 -3.16961 0
M  V30 2233 N 208.091 -2.23891 -1.8526 0
M  V30 2234 H 207.638 -2.38621 -0.970449 0
M  V30 2235 H 207.596 -1.78181 -2.59034 0
M  V30 2236 N 211.368 -0.403325 -1.52352 0
M  V30 2237 C 212.615 0.174347 -2.01748 0
M  V30 2238 C 212.943 1.45636 -1.2892 0
M  V30 2239 O 212.198 1.9193 -0.382258 0
M  V30 2240 C 212.497 0.474665 -3.54234 0
M  V30 2241 C 212.163 -0.717458 -4.45155 0
M  V30 2242 C 210.825 -1.04447 -4.69728 0
M  V30 2243 C 213.177 -1.51432 -4.98716 0
M  V30 2244 C 210.505 -2.16963 -5.45109 0
M  V30 2245 C 212.857 -2.6302 -5.75329 0
M  V30 2246 C 211.521 -2.96213 -5.98175 0
M  V30 2247 H 210.791 0.0637981 -0.738248 0
M  V30 2248 H 213.438 -0.543553 -1.83624 0
M  V30 2249 H 211.743 1.27406 -3.70506 0
M  V30 2250 H 213.44 0.934496 -3.89959 0
M  V30 2251 H 210.03 -0.452596 -4.26204 0
M  V30 2252 H 214.214 -1.27491 -4.79645 0
M  V30 2253 H 209.47 -2.43034 -5.61021 0
M  V30 2254 H 213.644 -3.25158 -6.15829 0
M  V30 2255 H 211.271 -3.83516 -6.56368 0
M  V30 2256 N 212.846 1.57033 -0.133567 0
M  V30 2257 C 213.778 2.13176 0.841944 0
M  V30 2258 C 214.791 1.07794 1.22001 0
M  V30 2259 O 215.98 1.35117 1.16643 0
M  V30 2260 C 213.08 2.62847 2.13926 0
M  V30 2261 C 212.253 3.92486 1.93064 0
M  V30 2262 C 211.312 4.27605 3.0666 0
M  V30 2263 O 210.338 4.96168 2.78937 0
M  V30 2264 N 211.54 3.861 4.33483 0
M  V30 2265 H 214.305 2.97503 0.362192 0
M  V30 2266 H 211.866 1.61821 0.05042 0
M  V30 2267 H 213.858 2.83363 2.88942 0
M  V30 2268 H 212.428 1.83319 2.53205 0
M  V30 2269 H 211.648 3.80732 1.02159 0
M  V30 2270 H 212.936 4.77225 1.76447 0
M  V30 2271 H 212.334 3.30828 4.58878 0
M  V30 2272 H 210.891 4.11694 5.05323 0
M  V30 2273 N 214.325 -0.140222 1.56975 0
M  V30 2274 C 215.272 -1.17292 1.98774 0
M  V30 2275 C 216.242 -1.4232 0.856408 0
M  V30 2276 O 217.427 -1.54541 1.119 0
M  V30 2277 C 214.567 -2.49973 2.37923 0
M  V30 2278 C 213.68 -2.32062 3.64378 0
M  V30 2279 C 212.815 -3.57825 3.926 0
M  V30 2280 C 211.854 -3.3498 5.12303 0
M  V30 2281 N 210.991 -4.52891 5.36502 0
M  V30 2282 H 215.831 -0.809472 2.86795 0
M  V30 2283 H 213.368 -0.388237 1.41884 0
M  V30 2284 H 215.326 -3.27346 2.58652 0
M  V30 2285 H 213.956 -2.84252 1.52972 0
M  V30 2286 H 213.008 -1.45711 3.51387 0
M  V30 2287 H 214.32 -2.11145 4.51906 0
M  V30 2288 H 213.474 -4.43624 4.13863 0
M  V30 2289 H 212.213 -3.81753 3.03506 0
M  V30 2290 H 211.218 -2.4757 4.90906 0
M  V30 2291 H 212.443 -3.12444 6.02956 0
M  V30 2292 H 210.389 -4.76979 4.50363 0
M  V30 2293 H 210.306 -4.35001 6.18312 0
M  V30 2294 H 211.574 -5.39884 5.62268 0
M  V30 2295 N 215.803 -1.52179 -0.40978 0
M  V30 2296 C 216.766 -1.74853 -1.48186 0
M  V30 2297 C 217.766 -0.618417 -1.48433 0
M  V30 2298 O 218.956 -0.886286 -1.49969 0
M  V30 2299 C 216.088 -1.8303 -2.87598 0
M  V30 2300 H 217.281 -2.70559 -1.29374 0
M  V30 2301 H 214.834 -1.42586 -0.640233 0
M  V30 2302 H 215.569 -0.89236 -3.11781 0
M  V30 2303 H 215.354 -2.65187 -2.88822 0
M  V30 2304 H 216.844 -2.02316 -3.65319 0
M  V30 2305 N 217.281 0.66697 -1.42791 0
M  V30 2306 C 218.231 1.77313 -1.43332 0
M  V30 2307 C 219.215 1.5801 -0.303586 0
M  V30 2308 O 220.407 1.68356 -0.546385 0
M  V30 2309 C 217.536 3.15822 -1.34578 0
M  V30 2310 C 216.622 3.40721 -2.52528 0
M  V30 2311 N 217.013 3.36162 -3.77927 0
M  V30 2312 C 215.311 3.71387 -2.46956 0
M  V30 2313 C 216.012 3.60762 -4.56318 0
M  V30 2314 N 214.988 3.81908 -3.86843 0
M  V30 2315 H 218.79 1.72193 -2.38174 0
M  V30 2316 H 216.304 0.868114 -1.3725 0
M  V30 2317 H 218.301 3.951 -1.33048 0
M  V30 2318 H 216.961 3.22133 -0.407453 0
M  V30 2319 H 217.972 3.15885 -4.10411 0
M  V30 2320 H 214.649 3.84897 -1.61743 0
M  V30 2321 H 216.039 3.63132 -5.65318 0
M  V30 2322 N 218.759 1.29093 0.90403 0
M  V30 2323 C 220.175 1.07011 1.1841 0
M  V30 2324 C 220.375 -0.181358 2.00682 0
M  V30 2325 O 219.431 -0.880331 2.36657 0
M  V30 2326 C 220.744 2.32311 1.90924 0
M  V30 2327 C 222.292 2.37587 2.03768 0
M  V30 2328 C 222.767 3.62679 2.79693 0
M  V30 2329 N 224.258 3.63376 2.87249 0
M  V30 2330 C 224.993 4.56848 3.46522 0
M  V30 2331 N 224.489 5.60648 4.06996 0
M  V30 2332 N 226.282 4.44426 3.44154 0
M  V30 2333 H 218.433 2.09412 0.354993 0
M  V30 2334 H 220.696 0.922181 0.219742 0
M  V30 2335 H 220.402 3.23536 1.37905 0
M  V30 2336 H 220.276 2.39483 2.91424 0
M  V30 2337 H 222.663 1.46853 2.55965 0
M  V30 2338 H 222.744 2.34403 1.02415 0
M  V30 2339 H 222.388 4.53762 2.28173 0
M  V30 2340 H 222.318 3.63119 3.81381 0
M  V30 2341 H 224.809 2.88321 2.44293 0
M  V30 2342 H 225.122 6.28101 4.50232 0
M  V30 2343 H 223.467 5.64463 4.05471 0
M  V30 2344 H 226.658 3.62529 2.96126 0
M  V30 2345 H 226.831 5.17457 3.90054 0
M  V30 2346 N 220.237 -1.11381 1.11499 0
M  V30 2347 C 221.483 -1.83597 0.875423 0
M  V30 2348 C 221.838 -1.83048 -0.592555 0
M  V30 2349 O 221.131 -1.27304 -1.43193 0
M  V30 2350 C 221.325 -3.30026 1.37177 0
M  V30 2351 C 221.154 -3.44837 2.88647 0
M  V30 2352 C 219.924 -3.57825 3.56776 0
M  V30 2353 C 222.122 -3.3907 3.86699 0
M  V30 2354 N 220.104 -3.61113 4.96458 0
M  V30 2355 C 221.475 -3.48986 5.12454 0
M  V30 2356 C 223.53 -3.22605 3.7925 0
M  V30 2357 C 222.233 -3.44135 6.31636 0
M  V30 2358 C 224.259 -3.19072 4.97943 0
M  V30 2359 C 223.621 -3.29559 6.22551 0
M  V30 2360 H 219.72 -0.687044 0.37349 0
M  V30 2361 H 222.304 -1.33265 1.41946 0
M  V30 2362 H 220.475 -3.78874 0.854919 0
M  V30 2363 H 222.207 -3.90153 1.07529 0
M  V30 2364 H 218.962 -3.60414 3.07244 0
M  V30 2365 H 219.386 -3.66394 5.69284 0
M  V30 2366 H 224.028 -3.13382 2.83816 0
M  V30 2367 H 221.746 -3.52126 7.27347 0
M  V30 2368 H 225.332 -3.07498 4.93899 0
M  V30 2369 H 224.212 -3.26815 7.12855 0
M  V30 2370 N 221.715 -0.905404 -1.28997 0
M  V30 2371 C 222.647 -0.344748 -2.26592 0
M  V30 2372 C 223.66 0.512135 -1.54535 0
M  V30 2373 O 224.849 0.328368 -1.75454 0
M  V30 2374 C 221.949 0.526587 -3.34784 0
M  V30 2375 C 221.122 -0.305871 -4.36329 0
M  V30 2376 C 220.181 0.499209 -5.23827 0
M  V30 2377 O 219.207 -0.0853004 -5.69136 0
M  V30 2378 N 220.409 1.80408 -5.51755 0
M  V30 2379 H 223.174 -1.18359 -2.75338 0
M  V30 2380 H 220.735 -0.770481 -1.42391 0
M  V30 2381 H 222.727 1.07171 -3.90252 0
M  V30 2382 H 221.297 1.26613 -2.85811 0
M  V30 2383 H 220.517 -1.0324 -3.80441 0
M  V30 2384 H 221.805 -0.875773 -5.01206 0
M  V30 2385 H 221.203 2.3016 -5.16762 0
M  V30 2386 H 219.76 2.29621 -6.10014 0
M  V30 2387 N 223.193 1.4272 -0.668489 0
M  V30 2388 C 224.47 1.95248 -0.117373 0
M  V30 2389 C 224.85 1.60919 1.36632 0
M  V30 2390 O 224.198 0.902095 2.09939 0
M  V30 2391 C 224.408 3.46927 -0.379806 0
M  V30 2392 C 225.756 4.23588 -0.292923 0
M  V30 2393 O 226.78 3.5482 -0.313204 0
M  V30 2394 O 225.639 5.46017 -0.229697 0
M  V30 2395 H 222.733 0.827 0.00079152 0
M  V30 2396 H 225.279 1.52581 -0.742783 0
M  V30 2397 H 224.051 3.65096 -1.40786 0
M  V30 2398 H 223.674 3.96627 0.277923 0
M  V30 2399 N 224.671 0.411399 1.52136 0
M  V30 2400 C 225.619 -0.427633 2.28635 0
M  V30 2401 C 226.613 -1.04383 1.33419 0
M  V30 2402 O 227.819 -0.981772 1.50868 0
M  V30 2403 H 224.194 -0.156689 0.735495 0
M  V30 2404 H 226.165 0.238761 2.97443 0
M  V30 2405 C 224.914 -1.53082 3.12188 0
M  V30 2406 H 224.237 -1.06601 3.85326 0
M  V30 2407 H 225.677 -2.09167 3.68816 0
M  V30 2408 C 224.136 -2.49946 2.25895 0
M  V30 2409 O 224.666 -3.53884 1.90076 0
M  V30 2410 N 222.872 -2.2021 1.8962 0
M  V30 2411 H 222.419 -1.35719 2.18948 0
M  V30 2412 H 222.377 -2.85266 1.32176 0
M  V30 2413 N 226.149 -1.5696 0.141893 0
M  V30 2414 C 227.398 -1.95135 -0.510427 0
M  V30 2415 C 227.711 -1.02896 -1.66348 0
M  V30 2416 O 228.917 -1.30629 -2.38009 0
M  V30 2417 C 227.373 -3.46876 -0.959427 0
M  V30 2418 C 226.981 -4.47691 0.166419 0
M  V30 2419 C 228.725 -3.93927 -1.58183 0
M  V30 2420 C 226.632 -5.90636 -0.300565 0
M  V30 2421 H 225.562 -0.728494 -0.194454 0
M  V30 2422 H 228.213 -1.8211 0.22542 0
M  V30 2423 H 226.595 -3.55215 -1.75038 0
M  V30 2424 H 227.769 -4.51043 0.94325 0
M  V30 2425 H 226.084 -4.10527 0.696905 0
M  V30 2426 H 228.681 -4.98158 -1.94275 0
M  V30 2427 H 229.024 -3.3519 -2.46888 0
M  V30 2428 H 229.557 -3.88484 -0.855863 0
M  V30 2429 H 226.296 -6.5318 0.550989 0
M  V30 2430 H 225.816 -5.90655 -1.04338 0
M  V30 2431 H 227.495 -6.42588 -0.754265 0
M  V30 2432 N 227.627 0.131896 -1.57047 0
M  V30 2433 C 228.574 1.16236 -1.99393 0
M  V30 2434 C 229.544 1.41863 -0.863943 0
M  V30 2435 O 230.729 1.53946 -1.12718 0
M  V30 2436 C 227.869 2.48708 -2.39245 0
M  V30 2437 C 226.982 2.30127 -3.65603 0
M  V30 2438 C 226.117 3.55738 -3.94492 0
M  V30 2439 C 225.156 3.32259 -5.14073 0
M  V30 2440 N 224.293 4.50039 -5.38896 0
M  V30 2441 H 229.133 0.794251 -2.87221 0
M  V30 2442 H 226.67 0.380707 -1.42088 0
M  V30 2443 H 228.628 3.25969 -2.60384 0
M  V30 2444 H 227.258 2.83437 -1.54478 0
M  V30 2445 H 226.31 1.43845 -3.52154 0
M  V30 2446 H 227.622 2.08746 -4.5302 0
M  V30 2447 H 226.776 4.41423 -4.1621 0
M  V30 2448 H 225.515 3.80138 -3.05526 0
M  V30 2449 H 224.52 2.44963 -4.92212 0
M  V30 2450 H 225.745 3.09242 -6.04604 0
M  V30 2451 H 223.691 4.74584 -4.52886 0
M  V30 2452 H 223.608 4.31716 -6.2061 0
M  V30 2453 H 224.876 5.36895 -5.65123 0
M  V30 2454 N 229.106 1.52395 0.401703 0
M  V30 2455 C 230.016 1.7917 1.51444 0
M  V30 2456 C 231.032 0.677691 1.6026 0
M  V30 2457 O 232.208 0.963909 1.76835 0
M  V30 2458 C 229.273 1.94347 2.87107 0
M  V30 2459 C 228.334 3.18257 2.88116 0
M  V30 2460 C 227.567 3.32701 4.17308 0
M  V30 2461 O 227.79 2.52238 5.11598 0
M  V30 2462 O 226.724 4.25891 4.25324 0
M  V30 2463 H 230.55 2.73633 1.31752 0
M  V30 2464 H 228.135 1.3733 0.588296 0
M  V30 2465 H 230.017 2.06109 3.67555 0
M  V30 2466 H 228.692 1.03073 3.06851 0
M  V30 2467 H 227.599 3.11947 2.06494 0
M  V30 2468 H 228.932 4.09336 2.73322 0
M  V30 2469 N 230.584 -0.659388 1.43143 0
M  V30 2470 C 231.494 -1.80167 1.50256 0
M  V30 2471 C 232.51 -1.69571 0.390106 0
M  V30 2472 O 233.686 -1.90849 0.643319 0
M  V30 2473 C 230.751 -3.16409 1.41725 0
M  V30 2474 C 229.812 -3.38848 2.63591 0
M  V30 2475 C 229.045 -4.68591 2.55458 0
M  V30 2476 O 229.268 -5.47532 1.59891 0
M  V30 2477 O 228.202 -4.92614 3.45854 0
M  V30 2478 H 232.028 -1.77121 2.46702 0
M  V30 2479 H 229.613 -0.817092 1.25076 0
M  V30 2480 H 231.495 -3.9768 1.39387 0
M  V30 2481 H 230.17 -3.20059 0.484118 0
M  V30 2482 H 229.077 -2.57366 2.71502 0
M  V30 2483 H 230.41 -3.4004 3.55856 0
M  V30 2484 N 232.062 -1.29571 -0.897171 0
M  V30 2485 C 233.339 -1.08365 -1.62839 0
M  V30 2486 C 233.719 0.371331 -2.07808 0
M  V30 2487 O 233.067 1.3606 -1.83576 0
M  V30 2488 C 233.277 -2.0735 -2.80726 0
M  V30 2489 C 234.625 -2.38406 -3.51351 0
M  V30 2490 O 235.649 -2.05564 -2.90898 0
M  V30 2491 O 234.508 -2.9453 -4.60341 0
M  V30 2492 H 231.602 -0.415345 -0.715134 0
M  V30 2493 H 234.148 -1.40952 -0.945018 0
M  V30 2494 H 232.92 -3.05339 -2.44711 0
M  V30 2495 H 232.543 -1.75507 -3.56767 0
M  V30 2496 N 233.54 1.10788 -1.12088 0
M  V30 2497 C 234.789 1.82036 -0.868659 0
M  V30 2498 C 235.102 1.85929 0.607426 0
M  V30 2499 O 236.308 2.53346 0.97613 0
M  V30 2500 C 234.764 3.26951 -1.50435 0
M  V30 2501 C 234.372 3.31367 -3.01496 0
M  V30 2502 C 236.116 4.03053 -1.33225 0
M  V30 2503 C 234.023 4.7072 -3.58017 0
M  V30 2504 H 232.953 0.682108 -0.321318 0
M  V30 2505 H 235.604 1.24618 -1.34694 0
M  V30 2506 H 233.986 3.84343 -0.953735 0
M  V30 2507 H 235.16 2.83819 -3.6302 0
M  V30 2508 H 233.475 2.6875 -3.18061 0
M  V30 2509 H 236.072 5.05981 -1.72878 0
M  V30 2510 H 236.415 4.15387 -0.275529 0
M  V30 2511 H 236.948 3.52066 -1.85188 0
M  V30 2512 H 233.687 4.63585 -4.63432 0
M  V30 2513 H 233.207 5.1865 -3.01268 0
M  V30 2514 H 234.886 5.39685 -3.56859 0
M  V30 2515 N 235.018 0.912232 1.28515 0
M  V30 2516 C 236.264 0.545405 1.95328 0
M  V30 2517 C 236.597 -0.908313 1.71649 0
M  V30 2518 O 235.872 -1.64575 1.03659 0
M  V30 2519 C 236.155 0.853483 3.4984 0
M  V30 2520 C 236.008 2.35982 3.82926 0
M  V30 2521 C 237.327 0.348589 4.38717 0
M  V30 2522 H 234.446 0.199626 0.709449 0
M  V30 2523 H 237.088 1.1412 1.5191 0
M  V30 2524 H 235.238 0.34643 3.86952 0
M  V30 2525 H 236.91 2.93738 3.55691 0
M  V30 2526 H 235.153 2.81543 3.30024 0
M  V30 2527 H 235.824 2.52593 4.90816 0
M  V30 2528 H 238.3 0.78294 4.08668 0
M  V30 2529 H 237.176 0.593242 5.45685 0
M  V30 2530 H 237.437 -0.751049 4.35674 0
M  V30 2531 N 236.496 -1.42363 0.676048 0
M  V30 2532 C 237.726 -2.05561 0.206967 0
M  V30 2533 C 238.134 -1.50887 -1.14148 0
M  V30 2534 O 237.477 -0.643933 -1.72044 0
M  V30 2535 C 237.539 -3.5944 0.0659508 0
M  V30 2536 C 237.203 -4.36812 1.34331 0
M  V30 2537 C 238.2 -4.67383 2.27704 0
M  V30 2538 C 235.885 -4.76429 1.59125 0
M  V30 2539 C 237.879 -5.36509 3.44147 0
M  V30 2540 C 235.566 -5.45294 2.75857 0
M  V30 2541 C 236.564 -5.75259 3.68193 0
M  V30 2542 O 236.252 -6.42712 4.82883 0
M  V30 2543 H 235.984 -0.668872 0.0979084 0
M  V30 2544 H 238.538 -1.83467 0.923531 0
M  V30 2545 H 236.768 -3.80197 -0.706204 0
M  V30 2546 H 238.457 -4.0427 -0.363418 0
M  V30 2547 H 239.223 -4.37275 2.09799 0
M  V30 2548 H 235.102 -4.52498 0.881258 0
M  V30 2549 H 238.646 -5.59814 4.16238 0
M  V30 2550 H 234.543 -5.7482 2.93688 0
M  V30 2551 H 235.311 -6.61204 4.82444 0
M  V30 2552 N 237.974 -0.419461 -1.51915 0
M  V30 2553 C 239.204 0.151915 -2.06041 0
M  V30 2554 C 239.612 1.38539 -1.28855 0
M  V30 2555 O 238.955 1.80592 -0.336463 0
M  V30 2556 C 239.017 0.557119 -3.55157 0
M  V30 2557 C 238.681 -0.567054 -4.53468 0
M  V30 2558 C 239.678 -1.43379 -4.99738 0
M  V30 2559 C 237.363 -0.742693 -4.96779 0
M  V30 2560 C 239.357 -2.46102 -5.87973 0
M  V30 2561 C 237.044 -1.77322 -5.84808 0
M  V30 2562 C 238.042 -2.63078 -6.30301 0
M  V30 2563 O 237.73 -3.64364 -7.16585 0
M  V30 2564 H 237.462 0.0193293 -0.675724 0
M  V30 2565 H 240.016 -0.592073 -1.96682 0
M  V30 2566 H 238.246 1.35355 -3.62238 0
M  V30 2567 H 239.935 1.05759 -3.9188 0
M  V30 2568 H 240.701 -1.30954 -4.66986 0
M  V30 2569 H 236.58 -0.0848307 -4.60922 0
M  V30 2570 H 240.124 -3.13071 -6.23404 0
M  V30 2571 H 236.021 -1.89773 -6.16974 0
M  V30 2572 H 236.789 -3.60731 -7.34721 0
M  V30 2573 N 239.452 1.56882 -0.150215 0
M  V30 2574 C 240.729 1.87844 0.545327 0
M  V30 2575 C 241.109 1.0567 1.82749 0
M  V30 2576 O 240.457 0.144442 2.28043 0
M  V30 2577 C 240.667 3.39526 0.80767 0
M  V30 2578 C 242.015 4.08814 1.14703 0
M  V30 2579 O 243.039 3.44723 0.896917 0
M  V30 2580 O 241.898 5.22004 1.61784 0
M  V30 2581 H 238.992 0.778677 0.278553 0
M  V30 2582 H 241.538 1.68666 -0.187068 0
M  V30 2583 H 240.31 3.91173 -0.0996096 0
M  V30 2584 H 239.933 3.64243 1.59413 0
M  V30 2585 N 240.93 -0.123565 1.57115 0
M  V30 2586 C 241.893 -1.13583 1.99076 0
M  V30 2587 C 242.893 -1.34564 0.880296 0
M  V30 2588 O 244.083 -1.31158 1.14644 0
M  V30 2589 C 241.215 -2.49128 2.32698 0
M  V30 2590 H 242.408 -0.775287 2.89706 0
M  V30 2591 H 239.961 -0.36771 1.51913 0
M  V30 2592 H 240.696 -2.90111 1.44934 0
M  V30 2593 H 240.481 -2.35255 3.13684 0
M  V30 2594 H 241.971 -3.2199 2.65918 0
M  V30 2595 N 242.408 -1.52605 -0.393616 0
M  V30 2596 C 243.355 -1.77055 -1.48054 0
M  V30 2597 C 244.325 -0.61358 -1.54352 0
M  V30 2598 O 245.51 -0.852806 -1.70681 0
M  V30 2599 C 242.65 -1.94108 -2.85335 0
M  V30 2600 C 241.763 -3.21792 -2.88226 0
M  V30 2601 C 240.898 -3.29188 -4.16904 0
M  V30 2602 C 239.937 -4.51013 -4.13828 0
M  V30 2603 N 239.074 -4.55716 -5.34105 0
M  V30 2604 H 243.914 -2.69815 -1.26506 0
M  V30 2605 H 241.451 -1.33683 -0.61379 0
M  V30 2606 H 243.409 -2.01979 -3.65049 0
M  V30 2607 H 242.039 -1.04713 -3.05344 0
M  V30 2608 H 241.091 -3.23015 -2.00911 0
M  V30 2609 H 242.403 -4.11557 -2.8182 0
M  V30 2610 H 241.557 -3.36216 -5.05018 0
M  V30 2611 H 240.296 -2.37389 -4.26026 0
M  V30 2612 H 239.301 -4.44115 -3.24102 0
M  V30 2613 H 240.526 -5.44123 -4.06333 0
M  V30 2614 H 238.472 -3.66807 -5.43865 0
M  V30 2615 H 238.389 -5.39346 -5.29756 0
M  V30 2616 H 239.657 -4.66993 -6.2413 0
M  V30 2617 N 243.887 0.651787 -1.4349 0
M  V30 2618 C 244.85 1.74647 -1.48429 0
M  V30 2619 C 245.85 1.56513 -0.368817 0
M  V30 2620 O 247.04 1.62385 -0.630623 0
M  V30 2621 C 244.172 3.13533 -1.33827 0
M  V30 2622 H 245.365 1.71649 -2.4592 0
M  V30 2623 H 242.918 0.863573 -1.30277 0
M  V30 2624 H 243.653 3.22142 -0.37349 0
M  V30 2625 H 243.438 3.28101 -2.14691 0
M  V30 2626 H 244.928 3.93356 -1.40218 0
M  V30 2627 N 245.365 1.30045 0.890287 0
M  V30 2628 C 246.642 1.09227 1.62262 0
M  V30 2629 C 247.022 -0.360305 2.08002 0
M  V30 2630 O 246.37 -1.35084 1.84295 0
M  V30 2631 C 246.58 2.08835 2.79623 0
M  V30 2632 C 247.928 2.40266 3.50082 0
M  V30 2633 O 248.952 2.07104 2.89804 0
M  V30 2634 O 247.811 2.96967 4.58773 0
M  V30 2635 H 244.905 0.419132 0.712922 0
M  V30 2636 H 247.451 1.41451 0.937529 0
M  V30 2637 H 246.223 3.06633 2.43089 0
M  V30 2638 H 245.846 1.77397 3.55832 0
M  V30 2639 N 246.843 -1.10192 1.12674 0
M  V30 2640 C 247.806 -2.14786 0.799979 0
M  V30 2641 C 248.806 -1.59711 -0.18685 0
M  V30 2642 O 249.996 -1.74156 0.0392558 0
M  V30 2643 C 247.128 -3.40374 0.189228 0
M  V30 2644 H 248.321 -2.45203 1.72671 0
M  V30 2645 H 245.874 -1.25597 0.930326 0
M  V30 2646 H 246.609 -3.15577 -0.747107 0
M  V30 2647 H 246.394 -3.81637 0.899766 0
M  V30 2648 H 247.884 -4.17594 -0.0228143 0
M  V30 2649 N 248.321 -0.919034 -1.28029 0
M  V30 2650 C 249.231 -0.416756 -2.30869 0
M  V30 2651 C 250.247 0.498235 -1.66714 0
M  V30 2652 O 251.423 0.383144 -1.97722 0
M  V30 2653 C 248.488 0.330274 -3.45123 0
M  V30 2654 C 247.549 -0.618578 -4.2482 0
M  V30 2655 C 246.782 0.0928959 -5.33619 0
M  V30 2656 O 247.005 1.31375 -5.55065 0
M  V30 2657 O 245.939 -0.574499 -5.99152 0
M  V30 2658 H 249.765 -1.27043 -2.75851 0
M  V30 2659 H 247.35 -0.684052 -1.3282 0
M  V30 2660 H 249.232 0.751972 -4.14636 0
M  V30 2661 H 247.907 1.1597 -3.02213 0
M  V30 2662 H 246.814 -1.08978 -3.57875 0
M  V30 2663 H 248.147 -1.41497 -4.71423 0
M  V30 2664 N 249.799 1.42003 -0.683588 0
M  V30 2665 C 250.729 2.33487 -0.024866 0
M  V30 2666 C 251.71 1.51163 0.779975 0
M  V30 2667 O 252.895 1.79739 0.735362 0
M  V30 2668 C 250.025 3.3487 0.920836 0
M  V30 2669 C 248.979 4.27414 0.223958 0
M  V30 2670 C 248.305 5.19074 1.2832 0
M  V30 2671 C 249.605 5.14445 -0.90242 0
M  V30 2672 H 251.299 2.88819 -0.788921 0
M  V30 2673 H 248.845 1.38873 -0.38083 0
M  V30 2674 H 250.798 3.97787 1.39081 0
M  V30 2675 H 249.522 2.77861 1.71642 0
M  V30 2676 H 248.181 3.65904 -0.225864 0
M  V30 2677 H 247.829 4.58387 2.071 0
M  V30 2678 H 247.529 5.81822 0.821995 0
M  V30 2679 H 249.053 5.84867 1.75392 0
M  V30 2680 H 250.467 5.70998 -0.513272 0
M  V30 2681 H 248.864 5.86072 -1.28997 0
M  V30 2682 H 249.934 4.52322 -1.74737 0
M  V30 2683 N 251.277 0.427512 1.51691 0
M  V30 2684 C 252.554 -0.201684 1.94557 0
M  V30 2685 C 252.934 -1.60981 1.36559 0
M  V30 2686 O 252.282 -2.21814 0.548702 0
M  V30 2687 C 252.492 -0.189394 3.48486 0
M  V30 2688 C 253.84 -0.39978 4.22714 0
M  V30 2689 O 254.864 -0.267945 3.55191 0
M  V30 2690 O 253.723 -0.661249 5.42485 0
M  V30 2691 H 250.817 -0.135261 0.815864 0
M  V30 2692 H 253.363 0.484782 1.62628 0
M  V30 2693 H 252.135 0.795431 3.8313 0
M  V30 2694 H 251.758 -0.919187 3.86829 0
M  V30 2695 N 252.755 -1.56801 0.158532 0
M  V30 2696 C 254.032 -1.88131 -0.535357 0
M  V30 2697 C 254.412 -1.06638 -1.82186 0
M  V30 2698 O 253.76 -0.156533 -2.27963 0
M  V30 2699 C 253.97 -3.39949 -0.789653 0
M  V30 2700 C 255.318 -4.09416 -1.12533 0
M  V30 2701 O 256.342 -3.45194 -0.878622 0
M  V30 2702 O 255.201 -5.22855 -1.59014 0
M  V30 2703 H 252.295 -0.780143 -0.27442 0
M  V30 2704 H 254.841 -1.68564 0.19601 0
M  V30 2705 H 253.613 -3.91115 0.120353 0
M  V30 2706 H 253.236 -3.65084 -1.57479 0
M  V30 2707 N 254.233 0.115231 -1.57178 0
M  V30 2708 C 255.644 0.67197 -1.74188 0
M  V30 2709 C 255.995 1.80125 -0.777777 0
M  V30 2710 O 255.12 2.16346 0.0484376 0
M  V30 2711 C 255.715 1.22573 -3.1585 0
M  V30 2712 C 254.274 1.72872 -3.34353 0
M  V30 2713 C 253.421 0.629972 -2.70049 0
M  V30 2714 H 256.372 -0.110712 -1.58313 0
M  V30 2715 H 256.393 2.09535 -3.17609 0
M  V30 2716 H 255.905 0.403598 -3.85996 0
M  V30 2717 H 254.006 2.5755 -2.69256 0
M  V30 2718 H 254.119 1.83557 -4.42542 0
M  V30 2719 H 252.483 1.0645 -2.31388 0
M  V30 2720 H 253.266 -0.181241 -3.42821 0
M  V30 2721 N 255.711 1.52812 0.385517 0
M  V30 2722 C 256.621 1.80766 1.49535 0
M  V30 2723 C 257.637 0.694651 1.59532 0
M  V30 2724 O 258.813 0.982611 1.75803 0
M  V30 2725 C 255.878 1.97381 2.85029 0
M  V30 2726 C 254.939 3.21295 2.84724 0
M  V30 2727 C 254.172 3.37108 4.13756 0
M  V30 2728 O 254.395 2.5765 5.08893 0
M  V30 2729 O 253.329 4.30378 4.20783 0
M  V30 2730 H 257.155 2.75015 1.28842 0
M  V30 2731 H 254.74 1.37946 0.573697 0
M  V30 2732 H 256.622 2.09996 3.65349 0
M  V30 2733 H 255.297 1.06322 3.05741 0
M  V30 2734 H 254.204 3.1412 2.03174 0
M  V30 2735 H 255.537 4.12212 2.68965 0
M  V30 2736 N 257.189 -0.644168 1.43834 0
M  V30 2737 C 258.414 -1.43642 1.49605 0
M  V30 2738 C 258.839 -1.8773 0.117913 0
M  V30 2739 O 258.197 -1.57938 -0.890239 0
M  V30 2740 C 258.245 -2.6416 2.45463 0
M  V30 2741 O 257.349 -3.63538 1.94714 0
M  V30 2742 H 256.69 -0.430329 0.50568 0
M  V30 2743 H 259.22 -0.787448 1.8884 0
M  V30 2744 H 259.23 -3.11864 2.63068 0
M  V30 2745 H 257.905 -2.31414 3.45572 0
M  V30 2746 H 256.482 -3.2273 1.86814 0
M  V30 2747 N 258.668 -1.30515 -0.883378 0
M  V30 2748 C 259.578 -1.18959 -2.02203 0
M  V30 2749 C 260.594 -0.109172 -1.73657 0
M  V30 2750 O 261.77 -0.324413 -1.9877 0
M  V30 2751 C 258.835 -0.883871 -3.35244 0
M  V30 2752 C 257.896 -2.04982 -3.77201 0
M  V30 2753 C 257.129 -1.75859 -5.03894 0
M  V30 2754 O 257.352 -0.687276 -5.66244 0
M  V30 2755 O 256.286 -2.61146 -5.42297 0
M  V30 2756 H 260.112 -2.14616 -2.1488 0
M  V30 2757 H 257.697 -1.10124 -1.0096 0
M  V30 2758 H 259.579 -0.728644 -4.15053 0
M  V30 2759 H 258.254 0.0427798 -3.23672 0
M  V30 2760 H 257.161 -2.26038 -2.9809 0
M  V30 2761 H 258.494 -2.95825 -3.93381 0
M  V30 2762 N 260.146 1.09593 -1.13257 0
M  V30 2763 C 261.423 1.78293 -0.804432 0
M  V30 2764 C 261.803 1.99004 0.70431 0
M  V30 2765 O 261.151 1.59007 1.641 0
M  V30 2766 C 261.361 3.10707 -1.5894 0
M  V30 2767 C 262.709 3.85443 -1.78099 0
M  V30 2768 O 263.733 3.20454 -1.55525 0
M  V30 2769 O 262.592 5.02108 -2.15753 0
M  V30 2770 H 259.686 0.773156 -0.293528 0
M  V30 2771 H 262.232 1.16164 -1.23709 0
M  V30 2772 H 261.004 2.91106 -2.61482 0
M  V30 2773 H 260.627 3.80558 -1.15157 0
M  V30 2774 N 261.624 0.925811 1.2754 0
M  V30 2775 C 262.87 0.566092 1.94739 0
M  V30 2776 C 263.203 -0.890057 1.72603 0
M  V30 2777 O 262.478 -1.63467 1.05399 0
M  V30 2778 C 262.761 0.89054 3.48915 0
M  V30 2779 C 262.614 2.4003 3.80402 0
M  V30 2780 C 263.933 0.395101 4.38323 0
M  V30 2781 H 261.052 0.20714 0.707292 0
M  V30 2782 H 263.694 1.15725 1.50691 0
M  V30 2783 H 261.844 0.387452 3.86563 0
M  V30 2784 H 263.516 2.97494 3.52555 0
M  V30 2785 H 261.759 2.85028 3.2702 0
M  V30 2786 H 262.43 2.57785 4.8811 0
M  V30 2787 H 264.906 0.826241 4.07814 0
M  V30 2788 H 263.782 0.651086 5.45025 0
M  V30 2789 H 264.043 -0.704798 4.36446 0
M  V30 2790 N 263.102 -1.41638 0.69111 0
M  V30 2791 C 264.012 -2.34588 0.0233487 0
M  V30 2792 C 265.028 -1.55987 -0.770984 0
M  V30 2793 O 266.204 -1.88486 -0.709569 0
M  V30 2794 C 263.269 -3.34684 -0.904851 0
M  V30 2795 C 262.33 -4.29176 -0.103225 0
M  V30 2796 C 261.563 -5.2449 -0.987216 0
M  V30 2797 O 261.786 -5.2514 -2.22674 0
M  V30 2798 O 260.72 -6.00295 -0.439281 0
M  V30 2799 H 264.546 -2.93261 0.789416 0
M  V30 2800 H 262.131 -1.42417 0.45142 0
M  V30 2801 H 264.013 -3.96133 -1.43724 0
M  V30 2802 H 262.688 -2.78461 -1.65049 0
M  V30 2803 H 261.595 -3.71089 0.473655 0
M  V30 2804 H 262.928 -4.88484 0.60365 0
M  V30 2805 N 264.58 -0.43555 -1.51462 0
M  V30 2806 C 265.996 -0.0877501 -1.59359 0
M  V30 2807 C 266.196 1.4027 -1.4466 0
M  V30 2808 O 265.252 2.17243 -1.28693 0
M  V30 2809 C 266.565 -0.606264 -2.94525 0
M  V30 2810 C 268.113 -0.566548 -3.0783 0
M  V30 2811 C 268.588 -1.06201 -4.45517 0
M  V30 2812 N 270.079 -1.01992 -4.51832 0
M  V30 2813 C 270.814 -1.37417 -5.5669 0
M  V30 2814 N 270.31 -1.80119 -6.68976 0
M  V30 2815 N 272.103 -1.29245 -5.47039 0
M  V30 2816 H 264.254 -1.40533 -1.59261 0
M  V30 2817 H 266.517 -0.578992 -0.750648 0
M  V30 2818 H 266.223 -1.64901 -3.10645 0
M  V30 2819 H 266.097 -0.0302097 -3.77188 0
M  V30 2820 H 268.484 0.467208 -2.91378 0
M  V30 2821 H 268.565 -1.17898 -2.2701 0
M  V30 2822 H 268.209 -2.09422 -4.62715 0
M  V30 2823 H 268.139 -0.426127 -5.24873 0
M  V30 2824 H 270.63 -0.706308 -3.71241 0
M  V30 2825 H 270.943 -2.05392 -7.45006 0
M  V30 2826 H 269.288 -1.84044 -6.70189 0
M  V30 2827 H 272.479 -0.957522 -4.58202 0
M  V30 2828 H 272.652 -1.57182 -6.28648 0
M  V30 2829 N 266.058 1.56714 -0.166846 0
M  V30 2830 C 267.306 1.96358 0.478305 0
M  V30 2831 C 267.627 1.0537 1.6408 0
M  V30 2832 O 266.897 0.119154 1.95537 0
M  V30 2833 H 265.477 0.725065 0.179692 0
M  V30 2834 H 268.139 1.93329 -0.246985 0
M  V30 2835 H 267.235 3.00547 0.841292 0
M  V30 2836 N 267.536 -0.106894 1.57237 0
M  V30 2837 C 268.761 -0.830287 1.90055 0
M  V30 2838 C 269.186 -1.72064 0.75998 0
M  V30 2839 O 268.544 -1.78982 -0.288991 0
M  V30 2840 C 268.592 -1.6295 3.21683 0
M  V30 2841 O 267.696 -2.73748 3.08441 0
M  V30 2842 H 267.037 -0.228855 0.623315 0
M  V30 2843 H 269.567 -0.085658 2.04421 0
M  V30 2844 H 269.577 -2.01621 3.54701 0
M  V30 2845 H 268.252 -0.975989 4.04286 0
M  V30 2846 H 266.829 -2.38192 2.86913 0
M  V30 2847 N 269.014 -1.53014 -0.377408 0
M  V30 2848 C 269.961 -1.78616 -1.46168 0
M  V30 2849 C 270.931 -0.629917 -1.53692 0
M  V30 2850 O 272.116 -0.870861 -1.69766 0
M  V30 2851 C 269.256 -1.97123 -2.8326 0
M  V30 2852 C 268.369 -3.24831 -2.84796 0
M  V30 2853 C 267.504 -3.33591 -4.13389 0
M  V30 2854 C 266.543 -4.55377 -4.09021 0
M  V30 2855 N 265.68 -4.61355 -5.29241 0
M  V30 2856 H 270.52 -2.71142 -1.23637 0
M  V30 2857 H 268.057 -1.34326 -0.599577 0
M  V30 2858 H 270.015 -2.05839 -3.62886 0
M  V30 2859 H 268.645 -1.07946 -3.04216 0
M  V30 2860 H 267.697 -3.25128 -1.97474 0
M  V30 2861 H 269.009 -4.14523 -2.77439 0
M  V30 2862 H 268.163 -3.41554 -5.01424 0
M  V30 2863 H 266.902 -2.41894 -4.23484 0
M  V30 2864 H 265.907 -4.47527 -3.19373 0
M  V30 2865 H 267.132 -5.48402 -4.00539 0
M  V30 2866 H 265.078 -3.72554 -5.39944 0
M  V30 2867 H 264.995 -5.44935 -5.24006 0
M  V30 2868 H 266.263 -4.73586 -6.19141 0
M  V30 2869 N 270.492 0.636531 -1.44174 0
M  V30 2870 C 271.455 1.73063 -1.50273 0
M  V30 2871 C 272.455 1.56113 -0.385397 0
M  V30 2872 O 273.645 1.61707 -0.64781 0
M  V30 2873 C 270.777 3.12096 -1.37145 0
M  V30 2874 H 271.97 1.69031 -2.47727 0
M  V30 2875 H 269.523 0.849706 -1.31186 0
M  V30 2876 H 270.258 3.21728 -0.407636 0
M  V30 2877 H 270.043 3.25805 -2.18159 0
M  V30 2878 H 271.533 3.91846 -1.44382 0
M  V30 2879 N 271.97 1.30982 0.876444 0
M  V30 2880 C 273.195 1.23373 1.66715 0
M  V30 2881 C 273.62 -0.19885 1.87046 0
M  V30 2882 O 272.978 -1.1427 1.40756 0
M  V30 2883 C 273.026 1.97644 3.01611 0
M  V30 2884 O 272.13 1.30935 3.91062 0
M  V30 2885 H 271.471 0.426279 0.509099 0
M  V30 2886 H 274.001 1.72944 1.09323 0
M  V30 2887 H 274.011 2.06992 3.51594 0
M  V30 2888 H 272.686 3.01829 2.86133 0
M  V30 2889 H 271.263 1.29996 3.49507 0
M  V30 2890 N 273.449 -1.08991 1.13837 0
M  V30 2891 C 274.677 -1.85011 0.926202 0
M  V30 2892 C 275.092 -1.8135 -0.525127 0
M  V30 2893 O 274.449 -1.21287 -1.36366 0
M  V30 2894 C 274.5 -3.32802 1.41155 0
M  V30 2895 O 274.221 -3.36444 2.80601 0
M  V30 2896 C 275.722 -4.25649 1.23847 0
M  V30 2897 H 272.942 -0.584249 0.32999 0
M  V30 2898 H 275.486 -1.37688 1.51202 0
M  V30 2899 H 273.641 -3.77536 0.868631 0
M  V30 2900 H 274.055 -4.28657 3.02248 0
M  V30 2901 H 275.529 -5.27485 1.62675 0
M  V30 2902 H 276.006 -4.38828 0.18065 0
M  V30 2903 H 276.612 -3.86735 1.76964 0
M  V30 2904 N 274.927 -0.932562 -1.27047 0
M  V30 2905 C 275.857 -0.452902 -2.29066 0
M  V30 2906 C 276.838 0.489338 -1.62909 0
M  V30 2907 O 278.023 0.393046 -1.90181 0
M  V30 2908 C 275.153 0.290698 -3.46081 0
M  V30 2909 C 274.107 -0.564168 -4.24265 0
M  V30 2910 C 273.433 0.308886 -5.33807 0
M  V30 2911 C 274.733 -1.83112 -4.89149 0
M  V30 2912 H 276.427 -1.30552 -2.69437 0
M  V30 2913 H 273.973 -0.629201 -1.29526 0
M  V30 2914 H 275.926 0.637233 -4.16554 0
M  V30 2915 H 274.65 1.17738 -3.0464 0
M  V30 2916 H 273.309 -0.893477 -3.55545 0
M  V30 2917 H 272.957 1.19467 -4.88607 0
M  V30 2918 H 272.657 -0.259633 -5.87026 0
M  V30 2919 H 274.181 0.650884 -6.07121 0
M  V30 2920 H 275.595 -1.55236 -5.51883 0
M  V30 2921 H 273.992 -2.34353 -5.52448 0
M  V30 2922 H 275.062 -2.54772 -4.12576 0
M  V30 2923 N 276.405 1.4127 -0.698611 0
M  V30 2924 C 277.821 1.55241 -0.370462 0
M  V30 2925 C 278.021 1.67351 1.12231 0
M  V30 2926 O 277.077 1.65363 1.90818 0
M  V30 2927 C 278.39 2.78997 -1.12165 0
M  V30 2928 C 279.938 2.92797 -1.1063 0
M  V30 2929 C 280.413 4.19445 -1.8393 0
M  V30 2930 N 281.904 4.26409 -1.80914 0
M  V30 2931 C 282.639 5.23271 -2.34467 0
M  V30 2932 N 282.135 6.26145 -2.96504 0
M  V30 2933 N 283.928 5.15232 -2.24706 0
M  V30 2934 H 276.079 1.31654 -1.66676 0
M  V30 2935 H 278.342 0.635393 -0.703548 0
M  V30 2936 H 278.048 2.76268 -2.17644 0
M  V30 2937 H 277.922 3.70606 -0.702209 0
M  V30 2938 H 280.309 2.95039 -0.0597713 0
M  V30 2939 H 280.39 2.02353 -1.56483 0
M  V30 2940 H 280.034 4.17964 -2.88563 0
M  V30 2941 H 279.964 5.08866 -1.35509 0
M  V30 2942 H 282.455 3.527 -1.35687 0
M  V30 2943 H 282.768 6.96451 -3.34927 0
M  V30 2944 H 281.113 6.26638 -3.00583 0
M  V30 2945 H 284.304 4.33789 -1.7591 0
M  V30 2946 H 284.477 5.90552 -2.66745 0
M  V30 2947 N 277.883 0.443576 1.51229 0
M  V30 2948 C 278.813 -0.355142 2.30783 0
M  V30 2949 C 279.794 -1.0154 1.36468 0
M  V30 2950 O 280.979 -1.01785 1.65389 0
M  V30 2951 C 278.109 -1.45312 3.15439 0
M  V30 2952 C 277.063 -0.916002 4.18083 0
M  V30 2953 C 276.389 -2.1102 4.91299 0
M  V30 2954 C 277.689 0.0538602 5.22272 0
M  V30 2955 H 279.383 0.308767 2.97804 0
M  V30 2956 H 276.929 0.149937 1.43217 0
M  V30 2957 H 278.882 -2.01914 3.69876 0
M  V30 2958 H 277.606 -2.14541 2.46252 0
M  V30 2959 H 276.265 -0.372145 3.64706 0
M  V30 2960 H 275.913 -2.78882 4.18609 0
M  V30 2961 H 275.613 -1.75717 5.60712 0
M  V30 2962 H 277.137 -2.68164 5.48562 0
M  V30 2963 H 278.551 -0.422069 5.71744 0
M  V30 2964 H 276.948 0.319776 5.99247 0
M  V30 2965 H 278.018 0.98858 4.74716 0
M  V30 2966 N 279.361 -1.56624 0.175154 0
M  V30 2967 C 280.638 -1.88688 -0.515373 0
M  V30 2968 C 281.018 -1.08564 -1.81044 0
M  V30 2969 O 280.366 -0.180703 -2.27784 0
M  V30 2970 C 280.576 -3.40768 -0.753552 0
M  V30 2971 C 281.924 -4.10587 -1.08184 0
M  V30 2972 O 282.948 -3.46106 -0.841961 0
M  V30 2973 O 281.807 -5.24512 -1.53459 0
M  V30 2974 H 278.901 -0.78301 -0.26613 0
M  V30 2975 H 281.447 -1.68347 0.213877 0
M  V30 2976 H 280.219 -3.90965 0.161829 0
M  V30 2977 H 279.842 -3.66733 -1.53598 0
M  V30 2978 N 280.839 0.0985539 -1.57292 0
M  V30 2979 C 282.086 0.802678 -1.85912 0
M  V30 2980 C 282.414 1.78901 -0.763186 0
M  V30 2981 O 281.669 1.94178 0.243559 0
M  V30 2982 C 281.968 1.56927 -3.21105 0
M  V30 2983 C 281.634 0.725376 -4.45027 0
M  V30 2984 C 280.296 0.492726 -4.78671 0
M  V30 2985 C 282.648 0.138493 -5.21016 0
M  V30 2986 C 279.976 -0.336727 -5.85733 0
M  V30 2987 C 282.328 -0.678264 -6.28953 0
M  V30 2988 C 280.992 -0.921039 -6.61115 0
M  V30 2989 H 280.262 0.293721 -0.680301 0
M  V30 2990 H 282.909 0.0642841 -1.91392 0
M  V30 2991 H 281.214 2.37914 -3.11294 0
M  V30 2992 H 282.911 2.11841 -3.40477 0
M  V30 2993 H 279.501 0.916815 -4.18679 0
M  V30 2994 H 283.685 0.305404 -4.95359 0
M  V30 2995 H 278.941 -0.533836 -6.09065 0
M  V30 2996 H 283.115 -1.1399 -6.87007 0
M  V30 2997 H 280.742 -1.56556 -7.43905 0
M  V30 2998 N 282.317 1.53212 0.369288 0
M  V30 2999 C 283.566 1.68436 1.10961 0
M  V30 3000 C 283.879 0.440738 1.9057 0
M  V30 3001 O 285.085 0.473446 2.6734 0
M  V30 3002 C 283.541 2.97744 2.0218 0
M  V30 3003 C 283.149 4.29355 1.279 0
M  V30 3004 C 284.893 3.22334 2.76226 0
M  V30 3005 C 282.8 5.49755 2.17999 0
M  V30 3006 H 281.73 0.627568 0.41794 0
M  V30 3007 H 284.381 1.79713 0.370884 0
M  V30 3008 H 282.763 2.8026 2.79768 0
M  V30 3009 H 283.937 4.57458 0.554007 0
M  V30 3010 H 282.252 4.11179 0.657311 0
M  V30 3011 H 284.849 4.09471 3.43857 0
M  V30 3012 H 285.192 2.38238 3.41392 0
M  V30 3013 H 285.725 3.40475 2.05723 0
M  V30 3014 H 282.464 6.36318 1.57417 0
M  V30 3015 H 281.984 5.25937 2.88359 0
M  V30 3016 H 283.663 5.84401 2.77641 0
M  V30 3017 N 283.795 -0.628877 1.44509 0
M  V30 3018 C 284.705 -1.7694 1.54044 0
M  V30 3019 C 285.721 -1.68705 0.425987 0
M  V30 3020 O 286.897 -1.89442 0.683656 0
M  V30 3021 C 283.962 -3.13332 1.48405 0
M  V30 3022 C 283.023 -3.33181 2.70719 0
M  V30 3023 C 282.256 -4.63067 2.6534 0
M  V30 3024 O 282.479 -5.44017 1.71469 0
M  V30 3025 O 281.413 -4.85167 3.56226 0
M  V30 3026 H 285.239 -1.71848 2.50403 0
M  V30 3027 H 282.824 -0.790378 1.26781 0
M  V30 3028 H 284.706 -3.94634 1.47791 0
M  V30 3029 H 283.381 -3.1896 0.551898 0
M  V30 3030 H 282.288 -2.51549 2.769 0
M  V30 3031 H 283.621 -3.32416 3.62988 0
M  V30 3032 N 285.273 -1.31445 -0.869486 0
M  V30 3033 C 286.55 -1.11795 -1.60503 0
M  V30 3034 C 286.93 0.327168 -2.08549 0
M  V30 3035 O 286.278 1.32135 -1.8642 0
M  V30 3036 C 286.488 -2.13258 -2.76265 0
M  V30 3037 C 287.836 -2.45805 -3.46215 0
M  V30 3038 O 288.86 -2.11688 -2.86473 0
M  V30 3039 O 287.719 -3.04228 -4.5399 0
M  V30 3040 H 284.813 -0.430421 -0.706163 0
M  V30 3041 H 287.359 -1.42925 -0.914907 0
M  V30 3042 H 286.131 -3.10461 -2.3818 0
M  V30 3043 H 285.754 -1.83035 -3.52964 0
M  V30 3044 N 286.751 1.08385 -1.14413 0
M  V30 3045 C 288.162 1.62258 -0.923535 0
M  V30 3046 C 288.513 1.88691 0.537595 0
M  V30 3047 O 287.638 1.64454 1.40655 0
M  V30 3048 C 288.233 2.94781 -1.67002 0
M  V30 3049 C 286.792 3.45437 -1.495 0
M  V30 3050 C 285.939 2.19668 -1.69238 0
M  V30 3051 H 288.89 0.916086 -1.2959 0
M  V30 3052 H 288.911 3.63229 -1.13334 0
M  V30 3053 H 288.423 2.7551 -2.73342 0
M  V30 3054 H 286.524 3.6981 -0.455097 0
M  V30 3055 H 286.637 4.22173 -2.2651 0
M  V30 3056 H 285.001 2.28849 -1.11804 0
M  V30 3057 H 285.784 2.02905 -2.7692 0
M  V30 3058 N 288.23 0.939286 1.26551 0
M  V30 3059 C 289.178 0.43815 2.28436 0
M  V30 3060 C 290.172 -0.483587 1.62351 0
M  V30 3061 O 291.378 -0.362009 1.76322 0
M  V30 3062 H 287.753 0.123149 0.741848 0
M  V30 3063 H 289.724 1.31002 2.68106 0
M  V30 3064 C 288.473 -0.283052 3.46546 0
M  V30 3065 H 287.796 0.417043 3.97619 0
M  V30 3066 H 289.236 -0.597948 4.19763 0
M  V30 3067 C 287.695 -1.50018 3.01656 0
M  V30 3068 O 288.225 -2.59855 3.0633 0
M  V30 3069 N 286.431 -1.35608 2.57019 0
M  V30 3070 H 285.978 -0.46244 2.53415 0
M  V30 3071 H 285.936 -2.17165 2.27347 0
M  V30 3072 N 289.708 -1.40897 0.706093 0
M  V30 3073 C 290.955 -2.01054 0.241531 0
M  V30 3074 C 291.283 -1.55956 -1.16223 0
M  V30 3075 O 290.538 -0.766336 -1.80072 0
M  V30 3076 C 290.837 -3.5646 0.259099 0
M  V30 3077 C 290.503 -4.21106 1.61184 0
M  V30 3078 C 289.165 -4.38479 1.98216 0
M  V30 3079 C 291.517 -4.57256 2.50132 0
M  V30 3080 C 288.845 -4.89282 3.2376 0
M  V30 3081 C 291.197 -5.09454 3.7502 0
M  V30 3082 C 289.861 -5.25037 4.12181 0
M  V30 3083 H 289.131 -0.73571 0.0883825 0
M  V30 3084 H 291.778 -1.68645 0.907257 0
M  V30 3085 H 290.083 -3.88721 -0.490189 0
M  V30 3086 H 291.78 -4.00826 -0.11804 0
M  V30 3087 H 288.37 -4.07966 1.31384 0
M  V30 3088 H 292.554 -4.43479 2.228 0
M  V30 3089 H 287.81 -4.99531 3.52532 0
M  V30 3090 H 291.984 -5.36404 4.44121 0
M  V30 3091 H 289.611 -5.64164 5.09532 0
M  V30 3092 N 291.186 -0.45159 -1.50991 0
M  V30 3093 C 292.133 0.352625 -2.2809 0
M  V30 3094 C 293.103 1.0044 -1.32291 0
M  V30 3095 O 294.288 1.02058 -1.6121 0
M  V30 3096 C 291.428 1.43983 -3.13629 0
M  V30 3097 C 290.541 0.804772 -4.24438 0
M  V30 3098 C 289.676 1.86822 -4.97263 0
M  V30 3099 C 288.715 1.21236 -5.99973 0
M  V30 3100 N 287.852 2.2178 -6.66152 0
M  V30 3101 H 292.692 -0.311186 -2.96371 0
M  V30 3102 H 290.229 -0.165308 -1.46168 0
M  V30 3103 H 292.187 2.08161 -3.61559 0
M  V30 3104 H 290.817 2.07307 -2.47434 0
M  V30 3105 H 289.869 0.0509129 -3.80366 0
M  V30 3106 H 291.181 0.286076 -4.97979 0
M  V30 3107 H 290.335 2.58628 -5.48813 0
M  V30 3108 H 289.074 2.42068 -4.23385 0
M  V30 3109 H 288.079 0.479828 -5.47702 0
M  V30 3110 H 289.304 0.667051 -6.75816 0
M  V30 3111 H 287.25 2.76079 -5.95077 0
M  V30 3112 H 287.167 1.74841 -7.35504 0
M  V30 3113 H 288.435 2.93026 -7.22327 0
M  V30 3114 N 292.664 1.56529 -0.183458 0
M  V30 3115 C 293.612 2.19873 0.758845 0
M  V30 3116 C 294.606 1.16638 1.22849 0
M  V30 3117 O 295.812 1.3481 1.19274 0
M  V30 3118 H 292.187 0.7045 0.263029 0
M  V30 3119 H 294.158 2.97724 0.200755 0
M  V30 3120 C 292.907 2.86314 1.9728 0
M  V30 3121 H 292.23 3.65487 1.62047 0
M  V30 3122 H 293.67 3.3409 2.61075 0
M  V30 3123 C 292.129 1.86729 2.80418 0
M  V30 3124 O 292.659 1.36031 3.77966 0
M  V30 3125 N 290.865 1.55216 2.45675 0
M  V30 3126 H 290.412 1.96636 1.66409 0
M  V30 3127 H 290.37 0.888388 3.01588 0
M  V30 3128 N 294.142 -0.090211 1.57342 0
M  V30 3129 C 295.089 -1.10909 2.02405 0
M  V30 3130 C 296.059 -1.39523 0.901252 0
M  V30 3131 O 297.244 -1.50903 1.1676 0
M  V30 3132 C 294.384 -2.42277 2.45755 0
M  V30 3133 C 293.497 -2.20352 3.71576 0
M  V30 3134 C 292.632 -3.45154 4.03785 0
M  V30 3135 C 291.671 -3.18512 5.22701 0
M  V30 3136 N 290.808 -4.35593 5.50639 0
M  V30 3137 H 295.648 -0.71782 2.89225 0
M  V30 3138 H 293.185 -0.342901 1.43048 0
M  V30 3139 H 295.143 -3.18951 2.68935 0
M  V30 3140 H 293.773 -2.79242 1.61938 0
M  V30 3141 H 292.825 -1.34458 3.55844 0
M  V30 3142 H 294.137 -1.96661 4.58395 0
M  V30 3143 H 293.291 -4.30233 4.27767 0
M  V30 3144 H 292.03 -3.71904 3.15498 0
M  V30 3145 H 291.035 -2.31827 4.98534 0
M  V30 3146 H 292.26 -2.93103 6.12591 0
M  V30 3147 H 290.206 -4.6241 4.6531 0
M  V30 3148 H 290.123 -4.1511 6.31838 0
M  V30 3149 H 291.391 -5.21723 5.7916 0
M  V30 3150 N 295.62 -1.53406 -0.361157 0
M  V30 3151 C 296.866 -1.70054 -1.10496 0
M  V30 3152 C 297.199 -0.453278 -1.88836 0
M  V30 3153 O 296.474 0.5495 -1.86576 0
M  V30 3154 C 296.757 -2.95317 -2.06058 0
M  V30 3155 C 296.61 -4.3021 -1.31298 0
M  V30 3156 C 297.929 -3.16193 -3.06121 0
M  V30 3157 H 295.048 -0.618799 -0.400321 0
M  V30 3158 H 297.69 -1.86052 -0.385318 0
M  V30 3159 H 295.84 -2.81809 -2.67425 0
M  V30 3160 H 297.512 -4.55538 -0.726807 0
M  V30 3161 H 295.755 -4.29421 -0.614853 0
M  V30 3162 H 296.426 -5.14 -2.01265 0
M  V30 3163 H 298.902 -3.28916 -2.5486 0
M  V30 3164 H 297.778 -4.05266 -3.70204 0
M  V30 3165 H 298.039 -2.31676 -3.76535 0
M  V30 3166 N 297.098 0.621204 -1.44841 0
M  V30 3167 C 298.046 1.75385 -1.52784 0
M  V30 3168 C 299.04 1.64639 -0.398779 0
M  V30 3169 O 300.246 1.70598 -0.574137 0
M  V30 3170 H 296.621 0.579193 -0.479625 0
M  V30 3171 H 298.592 1.6581 -2.48092 0
M  V30 3172 C 297.341 3.13742 -1.4987 0
M  V30 3173 H 296.664 3.22663 -2.36069 0
M  V30 3174 H 298.104 3.92861 -1.59487 0
M  V30 3175 C 296.563 3.36175 -0.220973 0
M  V30 3176 O 297.093 3.95469 0.704782 0
M  V30 3177 N 295.299 2.90348 -0.120963 0
M  V30 3178 H 294.846 2.42278 -0.875162 0
M  V30 3179 H 294.804 3.05732 0.733168 0
M  V30 3180 N 298.576 1.31904 0.862503 0
M  V30 3181 C 299.806 1.24817 1.64634 0
M  V30 3182 C 300.214 -0.187579 1.88268 0
M  V30 3183 O 299.557 -1.13253 1.44635 0
M  V30 3184 C 299.619 1.92996 3.03303 0
M  V30 3185 C 299.283 3.42336 3.02746 0
M  V30 3186 C 300.28 4.37956 2.80162 0
M  V30 3187 C 297.965 3.84147 3.2363 0
M  V30 3188 C 299.959 5.73361 2.78453 0
M  V30 3189 C 297.646 5.19663 3.21549 0
M  V30 3190 C 298.644 6.14081 2.98988 0
M  V30 3191 O 298.332 7.47118 2.96766 0
M  V30 3192 H 298.064 0.432222 0.519769 0
M  V30 3193 H 300.618 1.7445 1.08427 0
M  V30 3194 H 298.848 1.37922 3.61268 0
M  V30 3195 H 300.537 1.79723 3.63943 0
M  V30 3196 H 301.303 4.06981 2.63802 0
M  V30 3197 H 297.182 3.11083 3.40218 0
M  V30 3198 H 300.726 6.4703 2.60763 0
M  V30 3199 H 296.623 5.5027 3.37451 0
M  V30 3200 H 297.391 7.56382 3.12775 0
M  V30 3201 N 300.054 -1.07777 1.14986 0
M  V30 3202 C 301.279 -1.84558 0.946213 0
M  V30 3203 C 301.704 -1.81323 -0.500362 0
M  V30 3204 O 301.062 -1.20301 -1.35637 0
M  V30 3205 C 301.11 -3.29736 1.45968 0
M  V30 3206 O 300.214 -4.07149 0.65601 0
M  V30 3207 H 299.555 -0.571641 0.33782 0
M  V30 3208 H 302.085 -1.35991 1.52865 0
M  V30 3209 H 302.095 -3.80574 1.47063 0
M  V30 3210 H 300.77 -3.31406 2.51283 0
M  V30 3211 H 299.347 -3.65994 0.714322 0
M  V30 3212 N 301.532 -0.945985 -1.26051 0
M  V30 3213 C 302.762 -0.612136 -1.97323 0
M  V30 3214 C 303.17 0.818171 -1.70595 0
M  V30 3215 O 302.513 1.55777 -0.973613 0
M  V30 3216 C 302.575 -0.780347 -3.50929 0
M  V30 3217 C 302.239 -2.18619 -4.01317 0
M  V30 3218 C 303.236 -3.16209 -4.12683 0
M  V30 3219 C 300.921 -2.50805 -4.35203 0
M  V30 3220 C 302.915 -4.44085 -4.57238 0
M  V30 3221 C 300.602 -3.78912 -4.79446 0
M  V30 3222 C 301.6 -4.75365 -4.90425 0
M  V30 3223 O 301.288 -6.01191 -5.3369 0
M  V30 3224 H 301.02 -0.229134 -0.635982 0
M  V30 3225 H 303.574 -1.27036 -1.61404 0
M  V30 3226 H 301.804 -0.0649864 -3.86645 0
M  V30 3227 H 303.493 -0.448842 -4.03411 0
M  V30 3228 H 304.259 -2.92668 -3.86744 0
M  V30 3229 H 300.138 -1.76463 -4.2589 0
M  V30 3230 H 303.682 -5.19373 -4.65723 0
M  V30 3231 H 299.579 -4.02265 -5.0483 0
M  V30 3232 H 300.347 -6.04442 -5.51899 0
M  V30 3233 N 303.011 1.40521 -0.713556 0
M  V30 3234 C 303.974 2.29098 -0.0684347 0
M  V30 3235 C 304.974 1.45268 0.689472 0
M  V30 3236 O 306.164 1.66205 0.521677 0
M  V30 3237 C 303.296 3.28446 0.913024 0
M  V30 3238 H 304.489 2.87645 -0.84855 0
M  V30 3239 H 302.042 1.48809 -0.47809 0
M  V30 3240 H 302.777 2.74913 1.72027 0
M  V30 3241 H 302.562 3.90327 0.372472 0
M  V30 3242 H 304.052 3.94777 1.36165 0
M  V30 3243 N 304.489 0.459591 1.5075 0
M  V30 3244 C 305.452 -0.329093 2.26825 0
M  V30 3245 C 306.452 -0.930481 1.31144 0
M  V30 3246 O 307.642 -0.801453 1.54669 0
M  V30 3247 C 304.774 -1.46768 3.07688 0
M  V30 3248 H 305.967 0.337924 2.9799 0
M  V30 3249 H 303.52 0.213336 1.54837 0
M  V30 3250 H 304.255 -2.17009 2.40993 0
M  V30 3251 H 304.04 -1.04238 3.77991 0
M  V30 3252 H 305.53 -2.02433 3.65254 0
M  V30 3253 N 305.967 -1.56429 0.191757 0
M  V30 3254 C 307.213 -1.97777 -0.448554 0
M  V30 3255 C 307.546 -1.07847 -1.61501 0
M  V30 3256 O 306.821 -0.129774 -1.94067 0
M  V30 3257 C 307.104 -3.48362 -0.911906 0
M  V30 3258 C 306.957 -4.4907 0.256136 0
M  V30 3259 C 308.276 -4.02561 -1.77857 0
M  V30 3260 H 305.395 -0.719071 -0.161572 0
M  V30 3261 H 308.037 -1.87896 0.282007 0
M  V30 3262 H 306.187 -3.56914 -1.53442 0
M  V30 3263 H 307.859 -4.5256 0.893733 0
M  V30 3264 H 306.102 -4.24181 0.908436 0
M  V30 3265 H 306.773 -5.51889 -0.11053 0
M  V30 3266 H 309.249 -3.96767 -1.25359 0
M  V30 3267 H 308.125 -5.08301 -2.07174 0
M  V30 3268 H 308.386 -3.47616 -2.73158 0
M  V30 3269 N 307.445 0.0818655 -1.57387 0
M  V30 3270 C 308.377 1.12484 -1.997 0
M  V30 3271 C 309.39 1.35564 -0.90146 0
M  V30 3272 O 310.579 1.33982 -1.17945 0
M  V30 3273 C 307.679 2.47778 -2.31213 0
M  V30 3274 C 306.852 2.44793 -3.62485 0
M  V30 3275 C 305.911 3.62117 -3.81782 0
M  V30 3276 O 304.937 3.44005 -4.53486 0
M  V30 3277 N 306.139 4.82094 -3.23367 0
M  V30 3278 H 308.904 0.764585 -2.89783 0
M  V30 3279 H 306.465 0.270664 -1.59621 0
M  V30 3280 H 308.457 3.24891 -2.41304 0
M  V30 3281 H 307.027 2.75843 -1.4707 0
M  V30 3282 H 306.247 1.53134 -3.6324 0
M  V30 3283 H 307.535 2.39889 -4.48699 0
M  V30 3284 H 306.933 4.99713 -2.65148 0
M  V30 3285 H 305.49 5.56753 -3.38923 0
M  V30 3286 N 308.923 1.53595 0.353017 0
M  V30 3287 C 310.172 1.69603 1.09168 0
M  V30 3288 C 310.485 0.460925 1.90092 0
M  V30 3289 O 311.691 0.501774 2.66823 0
M  V30 3290 C 310.147 2.99872 1.9901 0
M  V30 3291 C 309.755 4.30687 1.23339 0
M  V30 3292 C 311.499 3.25246 2.72792 0
M  V30 3293 C 309.406 5.52036 2.12156 0
M  V30 3294 H 308.336 0.631966 0.411261 0
M  V30 3295 H 310.987 1.80096 0.351802 0
M  V30 3296 H 309.369 2.83212 2.7678 0
M  V30 3297 H 310.543 4.58019 0.505456 0
M  V30 3298 H 308.858 4.11853 0.613663 0
M  V30 3299 H 311.455 4.13095 3.39495 0
M  V30 3300 H 311.798 2.41846 3.38846 0
M  V30 3301 H 312.331 3.42638 2.021 0
M  V30 3302 H 309.07 6.37951 1.50659 0
M  V30 3303 H 308.59 5.28966 2.82764 0
M  V30 3304 H 310.269 5.87313 2.71427 0
M  V30 3305 N 310.401 -0.613514 1.45168 0
M  V30 3306 C 311.812 -1.19539 1.43413 0
M  V30 3307 C 312.163 -1.95558 0.158632 0
M  V30 3308 O 311.288 -2.0335 -0.740119 0
M  V30 3309 C 311.883 -2.17445 2.59813 0
M  V30 3310 C 310.442 -2.71022 2.61197 0
M  V30 3311 C 309.589 -1.46323 2.35552 0
M  V30 3312 H 312.54 -0.403163 1.53494 0
M  V30 3313 H 312.561 -3.00373 2.33574 0
M  V30 3314 H 312.073 -1.62089 3.52631 0
M  V30 3315 H 310.174 -3.30332 1.7237 0
M  V30 3316 H 310.287 -3.15859 3.60236 0
M  V30 3317 H 308.651 -1.75072 1.84992 0
M  V30 3318 H 309.434 -0.92844 3.30507 0
M  V30 3319 N 311.879 -1.3236 -0.855495 0
M  V30 3320 C 313.107 -1.2587 -1.64208 0
M  V30 3321 C 313.522 0.173457 -1.88002 0
M  V30 3322 O 312.879 1.11027 -1.44842 0
M  V30 3323 C 312.93 -2.01424 -3.00184 0
M  V30 3324 O 312.651 -3.39051 -2.77445 0
M  V30 3325 C 314.152 -2.01948 -3.94629 0
M  V30 3326 H 311.372 -0.434318 -0.511477 0
M  V30 3327 H 313.916 -1.74469 -1.0668 0
M  V30 3328 H 312.071 -1.56549 -3.5436 0
M  V30 3329 H 312.485 -3.77711 -3.63916 0
M  V30 3330 H 313.959 -2.59297 -4.87308 0
M  V30 3331 H 314.436 -1.00554 -4.27534 0
M  V30 3332 H 315.042 -2.46767 -3.4639 0
M  V30 3333 N 313.357 1.07166 -1.15556 0
M  V30 3334 C 314.634 1.76546 -0.842069 0
M  V30 3335 C 315.014 2.00453 0.661939 0
M  V30 3336 O 314.362 1.62452 1.60691 0
M  V30 3337 C 314.572 3.07266 -1.65495 0
M  V30 3338 C 315.92 3.81578 -1.86234 0
M  V30 3339 O 316.944 3.17083 -1.62287 0
M  V30 3340 O 315.803 4.97419 -2.26355 0
M  V30 3341 H 312.897 0.766756 -0.309862 0
M  V30 3342 H 315.443 1.13514 -1.26145 0
M  V30 3343 H 314.215 2.85494 -2.67598 0
M  V30 3344 H 313.838 3.7803 -1.23203 0
M  V30 3345 N 314.835 0.952656 1.25548 0
M  V30 3346 C 316.084 0.602053 1.92505 0
M  V30 3347 C 316.397 -0.864663 1.75451 0
M  V30 3348 O 317.603 -1.32514 2.36965 0
M  V30 3349 C 316.059 1.02607 3.44963 0
M  V30 3350 C 315.667 2.51519 3.70732 0
M  V30 3351 C 317.411 0.747905 4.1786 0
M  V30 3352 C 315.318 2.87732 5.16686 0
M  V30 3353 H 314.248 0.22146 0.720744 0
M  V30 3354 H 316.899 1.15684 1.42441 0
M  V30 3355 H 315.281 0.399712 3.93978 0
M  V30 3356 H 316.455 3.19157 3.32378 0
M  V30 3357 H 314.77 2.76786 3.11092 0
M  V30 3358 H 317.367 0.994647 5.25367 0
M  V30 3359 H 317.71 -0.315629 4.15102 0
M  V30 3360 H 318.243 1.33452 3.74747 0
M  V30 3361 H 314.982 3.93095 5.24554 0
M  V30 3362 H 314.502 2.24765 5.56094 0
M  V30 3363 H 316.181 2.76817 5.84792 0
M  V30 3364 N 316.313 -1.40141 0.720998 0
M  V30 3365 C 317.543 -2.04798 0.27226 0
M  V30 3366 C 317.951 -1.54442 -1.09289 0
M  V30 3367 O 317.294 -0.698342 -1.69908 0
M  V30 3368 C 317.356 -3.59048 0.18027 0
M  V30 3369 C 317.02 -4.32317 1.48159 0
M  V30 3370 C 318.017 -4.59902 2.42458 0
M  V30 3371 C 315.702 -4.71125 1.74202 0
M  V30 3372 C 317.696 -5.25288 3.61042 0
M  V30 3373 C 315.383 -5.36242 2.93066 0
M  V30 3374 C 316.381 -5.63254 3.86308 0
M  V30 3375 O 316.069 -6.27024 5.03086 0
M  V30 3376 H 315.801 -0.665419 0.119139 0
M  V30 3377 H 318.355 -1.80436 0.981432 0
M  V30 3378 H 316.585 -3.82251 -0.58489 0
M  V30 3379 H 318.274 -4.05221 -0.234618 0
M  V30 3380 H 319.04 -4.30379 2.23604 0
M  V30 3381 H 314.919 -4.49466 1.02477 0
M  V30 3382 H 318.463 -5.46289 4.33837 0
M  V30 3383 H 314.36 -5.65185 3.11826 0
M  V30 3384 H 315.128 -6.4552 5.03235 0
M  V30 3385 N 317.792 -0.46758 -1.50504 0
M  V30 3386 C 318.739 0.328413 -2.28452 0
M  V30 3387 C 319.709 0.990313 -1.33349 0
M  V30 3388 O 320.894 1.00343 -1.62284 0
M  V30 3389 C 318.034 1.40648 -3.15138 0
M  V30 3390 C 317.147 0.759709 -4.25267 0
M  V30 3391 C 316.282 1.81537 -4.99217 0
M  V30 3392 C 315.321 1.14866 -6.01226 0
M  V30 3393 N 314.458 2.14702 -6.68467 0
M  V30 3394 H 319.298 -0.342603 -2.96024 0
M  V30 3395 H 316.835 -0.180801 -1.45985 0
M  V30 3396 H 318.793 2.04315 -3.63746 0
M  V30 3397 H 317.423 2.04671 -2.49619 0
M  V30 3398 H 316.475 0.0105671 -3.80399 0
M  V30 3399 H 317.787 0.233243 -4.98254 0
M  V30 3400 H 316.941 2.52793 -5.51526 0
M  V30 3401 H 315.68 2.37564 -4.25928 0
M  V30 3402 H 314.685 0.42171 -5.4818 0
M  V30 3403 H 315.91 0.595334 -6.76485 0
M  V30 3404 H 313.856 2.69752 -5.97972 0
M  V30 3405 H 313.773 1.6703 -7.37317 0
M  V30 3406 H 315.041 2.85348 -7.25394 0
M  V30 3407 N 319.27 1.56325 -0.20005 0
M  V30 3408 C 320.518 1.97329 0.436547 0
M  V30 3409 C 320.839 1.08826 1.61808 0
M  V30 3410 O 320.109 0.160604 1.95241 0
M  V30 3411 H 318.689 0.728714 0.164272 0
M  V30 3412 H 321.351 1.92761 -0.287937 0
M  V30 3413 H 320.447 3.02264 0.777353 0
M  V30 3414 N 320.748 -0.0735177 1.57428 0
M  V30 3415 C 321.973 -0.789787 1.91774 0
M  V30 3416 C 322.398 -1.70413 0.796306 0
M  V30 3417 O 321.756 -1.79555 -0.250961 0
M  V30 3418 C 321.804 -1.5609 3.25067 0
M  V30 3419 O 320.908 -2.67144 3.14178 0
M  V30 3420 H 320.249 -0.215582 0.628029 0
M  V30 3421 H 322.779 -0.0422781 2.04556 0
M  V30 3422 H 322.789 -1.94052 3.58898 0
M  V30 3423 H 321.464 -0.890015 4.06265 0
M  V30 3424 H 320.041 -2.32052 2.91901 0
M  V30 3425 N 322.226 -1.5378 -0.344866 0
M  V30 3426 C 323.454 -1.74899 -1.10534 0
M  V30 3427 C 323.869 -0.487534 -1.82397 0
M  V30 3428 O 323.226 0.540741 -1.74305 0
M  V30 3429 C 323.277 -2.92822 -2.11984 0
M  V30 3430 O 322.998 -4.14089 -1.43044 0
M  V30 3431 C 324.499 -3.25982 -3.00417 0
M  V30 3432 H 321.719 -0.584426 -0.329678 0
M  V30 3433 H 324.263 -2.006 -0.397474 0
M  V30 3434 H 322.418 -2.69457 -2.78338 0
M  V30 3435 H 322.832 -4.80272 -2.10805 0
M  V30 3436 H 324.306 -4.11848 -3.67539 0
M  V30 3437 H 324.783 -2.42228 -3.66363 0
M  V30 3438 H 325.389 -3.51349 -2.39654 0
M  V30 3439 N 323.704 0.605807 -1.45491 0
M  V30 3440 C 324.95 1.36679 -1.49823 0
M  V30 3441 C 325.283 1.93693 -0.140175 0
M  V30 3442 O 324.558 1.75158 0.845581 0
M  V30 3443 C 324.841 2.51337 -2.57879 0
M  V30 3444 C 324.694 1.99508 -4.03134 0
M  V30 3445 C 326.013 3.53463 -2.62205 0
M  V30 3446 H 323.132 0.495617 -0.545466 0
M  V30 3447 H 325.774 0.682732 -1.7731 0
M  V30 3448 H 323.924 3.09691 -2.34571 0
M  V30 3449 H 325.596 1.45789 -4.37656 0
M  V30 3450 H 323.839 1.30496 -4.13707 0
M  V30 3451 H 324.51 2.82169 -4.74431 0
M  V30 3452 H 326.986 3.04953 -2.83095 0
M  V30 3453 H 325.862 4.31178 -3.39672 0
M  V30 3454 H 326.123 4.09197 -1.67363 0
M  V30 3455 N 325.182 1.32811 0.848464 0
M  V30 3456 C 326.431 1.23075 1.59798 0
M  V30 3457 C 326.744 -0.204419 1.94529 0
M  V30 3458 O 327.95 -0.423701 2.68173 0
M  V30 3459 C 326.406 2.15594 2.88179 0
M  V30 3460 C 326.014 3.64228 2.60849 0
M  V30 3461 C 327.758 2.14709 3.66197 0
M  V30 3462 C 325.665 4.48689 3.85269 0
M  V30 3463 H 324.595 0.457091 0.599653 0
M  V30 3464 H 327.246 1.57813 0.936342 0
M  V30 3465 H 325.628 1.73778 3.55833 0
M  V30 3466 H 326.802 4.14424 2.01467 0
M  V30 3467 H 325.117 3.67306 1.96151 0
M  V30 3468 H 327.714 2.75046 4.58534 0
M  V30 3469 H 328.057 1.13966 4.00397 0
M  V30 3470 H 328.59 2.54837 3.05455 0
M  V30 3471 H 325.329 5.5027 3.56207 0
M  V30 3472 H 324.849 4.03241 4.44024 0
M  V30 3473 H 326.528 4.62006 4.52946 0
M  V30 3474 N 326.66 -1.06551 1.16123 0
M  V30 3475 C 327.59 -2.15935 0.88851 0
M  V30 3476 C 328.571 -1.69306 -0.164135 0
M  V30 3477 O 329.756 -1.94193 -0.0167857 0
M  V30 3478 C 326.886 -3.45149 0.385942 0
M  V30 3479 C 325.84 -4.05271 1.3762 0
M  V30 3480 C 325.166 -5.29664 0.732137 0
M  V30 3481 C 326.466 -4.44355 2.74493 0
M  V30 3482 H 328.16 -2.39006 1.80323 0
M  V30 3483 H 325.706 -1.14866 0.868435 0
M  V30 3484 H 327.659 -4.21004 0.182647 0
M  V30 3485 H 326.383 -3.21689 -0.564274 0
M  V30 3486 H 325.042 -3.3147 1.56599 0
M  V30 3487 H 324.69 -5.02499 -0.224483 0
M  V30 3488 H 324.39 -5.70848 1.39307 0
M  V30 3489 H 325.914 -6.08218 0.538802 0
M  V30 3490 H 327.328 -5.11303 2.59311 0
M  V30 3491 H 325.725 -4.96515 3.37035 0
M  V30 3492 H 326.795 -3.55339 3.29943 0
M  V30 3493 N 328.138 -0.959301 -1.25041 0
M  V30 3494 C 329.086 -0.474437 -2.2771 0
M  V30 3495 C 330.08 0.457697 -1.631 0
M  V30 3496 O 331.286 0.333912 -1.76876 0
M  V30 3497 H 327.661 -0.134936 -0.739795 0
M  V30 3498 H 329.632 -1.35251 -2.65988 0
M  V30 3499 C 328.381 0.227884 -3.46952 0
M  V30 3500 H 327.704 -0.480248 -3.96905 0
M  V30 3501 H 329.144 0.531091 -4.20661 0
M  V30 3502 C 327.603 1.452 -3.04004 0
M  V30 3503 O 328.133 2.54949 -3.10426 0
M  V30 3504 N 326.339 1.31502 -2.59144 0
M  V30 3505 H 325.886 0.422065 -2.54119 0
M  V30 3506 H 325.844 2.13521 -2.30773 0
M  V30 3507 N 329.616 1.39756 -0.72842 0
M  V30 3508 C 330.526 2.34444 -0.0855374 0
M  V30 3509 C 331.542 1.57976 0.729356 0
M  V30 3510 O 332.718 1.90301 0.659346 0
M  V30 3511 C 329.783 3.36965 0.815798 0
M  V30 3512 C 328.844 4.29299 -0.0105996 0
M  V30 3513 C 328.077 5.26923 0.84781 0
M  V30 3514 O 328.3 5.30859 2.08673 0
M  V30 3515 O 327.234 6.01249 0.279969 0
M  V30 3516 H 331.06 2.91065 -0.866892 0
M  V30 3517 H 328.645 1.4117 -0.48902 0
M  V30 3518 H 330.527 3.99804 1.33171 0
M  V30 3519 H 329.202 2.82739 1.57608 0
M  V30 3520 H 328.109 3.69703 -0.571877 0
M  V30 3521 H 329.442 4.86712 -0.73295 0
M  V30 3522 N 331.094 0.475555 1.50254 0
M  V30 3523 C 332.024 -0.30611 2.31485 0
M  V30 3524 C 333.005 -0.986228 1.38591 0
M  V30 3525 O 334.19 -0.982541 1.67511 0
M  V30 3526 C 331.32 -1.38588 3.1845 0
M  V30 3527 C 330.274 -0.827115 4.19932 0
M  V30 3528 C 329.6 -2.00551 4.95665 0
M  V30 3529 C 330.9 0.16463 5.2204 0
M  V30 3530 H 332.594 0.371866 2.97082 0
M  V30 3531 H 330.14 0.180282 1.42867 0
M  V30 3532 H 332.093 -1.94023 3.74076 0
M  V30 3533 H 330.817 -2.09269 2.50747 0
M  V30 3534 H 329.476 -0.294702 3.65414 0
M  V30 3535 H 329.124 -2.6994 4.2443 0
M  V30 3536 H 328.824 -1.63784 5.64313 0
M  V30 3537 H 330.348 -2.56468 5.54127 0
M  V30 3538 H 331.762 -0.300699 5.72511 0
M  V30 3539 H 330.159 0.446813 5.98434 0
M  V30 3540 H 331.229 1.08905 4.72512 0
M  V30 3541 N 332.573 -1.56217 0.208337 0
M  V30 3542 C 333.521 -2.21053 -0.723769 0
M  V30 3543 C 334.515 -1.18578 -1.20978 0
M  V30 3544 O 335.721 -1.36691 -1.17114 0
M  V30 3545 H 332.096 -0.708595 -0.251788 0
M  V30 3546 H 334.067 -2.98006 -0.153365 0
M  V30 3547 C 332.816 -2.89417 -1.927 0
M  V30 3548 H 332.139 -3.68019 -1.56212 0
M  V30 3549 H 333.579 -3.38201 -2.55727 0
M  V30 3550 C 332.038 -1.91166 -2.77411 0
M  V30 3551 O 332.568 -1.42026 -3.75754 0
M  V30 3552 N 330.774 -1.59105 -2.43175 0
M  V30 3553 H 330.321 -1.99259 -1.63259 0
M  V30 3554 H 330.279 -0.936255 -3.00136 0
M  V30 3555 N 334.051 0.0651679 -1.57465 0
M  V30 3556 C 335.297 0.758912 -1.88712 0
M  V30 3557 C 335.652 1.7485 -0.802819 0
M  V30 3558 O 334.945 1.90632 0.192359 0
M  V30 3559 C 335.139 1.50081 -3.24362 0
M  V30 3560 C 334.968 0.584579 -4.45884 0
M  V30 3561 C 333.738 0.219039 -5.04825 0
M  V30 3562 C 335.936 -0.121559 -5.14156 0
M  V30 3563 N 333.918 -0.702222 -6.09871 0
M  V30 3564 C 335.289 -0.899767 -6.13436 0
M  V30 3565 C 337.344 -0.192331 -4.97528 0
M  V30 3566 C 336.047 -1.74218 -6.97883 0
M  V30 3567 C 338.073 -1.02174 -5.82507 0
M  V30 3568 C 337.435 -1.78798 -6.8133 0
M  V30 3569 H 333.534 0.25293 -0.739967 0
M  V30 3570 H 336.118 0.0201744 -1.9469 0
M  V30 3571 H 334.289 2.21023 -3.1938 0
M  V30 3572 H 336.021 2.14409 -3.43236 0
M  V30 3573 H 332.776 0.57336 -4.70117 0
M  V30 3574 H 333.2 -1.15629 -6.67052 0
M  V30 3575 H 337.842 0.385741 -4.21037 0
M  V30 3576 H 335.56 -2.3312 -7.73745 0
M  V30 3577 H 339.146 -1.07957 -5.71696 0
M  V30 3578 H 338.026 -2.41942 -7.45945 0
M  V30 3579 N 335.529 1.53961 0.336706 0
M  V30 3580 C 336.757 1.75483 1.09605 0
M  V30 3581 C 337.172 0.4972 1.82136 0
M  V30 3582 O 336.529 -0.53149 1.74589 0
M  V30 3583 C 336.58 2.93943 2.10428 0
M  V30 3584 O 336.301 4.14842 1.40846 0
M  V30 3585 C 337.802 3.27571 2.98684 0
M  V30 3586 H 335.022 0.586166 0.326574 0
M  V30 3587 H 337.566 2.00808 0.38683 0
M  V30 3588 H 335.721 2.70929 2.76905 0
M  V30 3589 H 336.135 4.81383 2.08255 0
M  V30 3590 H 337.609 4.13791 3.6535 0
M  V30 3591 H 338.086 2.44168 3.65074 0
M  V30 3592 H 338.692 3.52615 2.37787 0
M  V30 3593 N 337.007 -0.598083 1.45811 0
M  V30 3594 C 337.917 -1.73632 1.57763 0
M  V30 3595 C 338.933 -1.67763 0.461676 0
M  V30 3596 O 340.109 -1.87949 0.723685 0
M  V30 3597 C 337.174 -3.10114 1.55018 0
M  V30 3598 C 336.235 -3.27364 2.77726 0
M  V30 3599 C 335.468 -4.57334 2.75102 0
M  V30 3600 O 335.691 -5.40258 1.8297 0
M  V30 3601 O 334.625 -4.77502 3.66437 0
M  V30 3602 H 338.451 -1.66498 2.53992 0
M  V30 3603 H 336.036 -0.763308 1.28429 0
M  V30 3604 H 337.918 -3.9141 1.56129 0
M  V30 3605 H 336.593 -3.17718 0.619431 0
M  V30 3606 H 335.5 -2.45619 2.82174 0
M  V30 3607 H 336.833 -3.24641 3.69958 0
M  V30 3608 N 338.485 -1.33259 -0.841409 0
M  V30 3609 C 339.448 -1.23221 -1.9326 0
M  V30 3610 C 340.448 -0.151895 -1.60081 0
M  V30 3611 O 341.638 -0.403246 -1.69468 0
M  V30 3612 C 338.77 -0.898123 -3.28856 0
M  V30 3613 H 339.963 -2.2021 -2.03587 0
M  V30 3614 H 337.516 -1.17281 -1.03319 0
M  V30 3615 H 338.251 0.0693841 -3.24226 0
M  V30 3616 H 338.036 -1.67934 -3.54317 0
M  V30 3617 H 339.526 -0.852563 -4.08805 0
M  V30 3618 N 339.963 1.05934 -1.16686 0
M  V30 3619 C 340.893 2.1546 -0.899949 0
M  V30 3620 C 341.874 1.69391 0.155154 0
M  V30 3621 O 343.059 1.94199 0.00648693 0
M  V30 3622 C 340.189 3.44939 -0.404241 0
M  V30 3623 C 339.143 4.04536 -1.39767 0
M  V30 3624 C 338.469 5.29268 -0.760216 0
M  V30 3625 C 339.769 4.42893 -2.76845 0
M  V30 3626 H 341.463 2.38046 -1.81588 0
M  V30 3627 H 339.009 1.14404 -0.874514 0
M  V30 3628 H 340.962 4.20901 -0.204971 0
M  V30 3629 H 339.686 3.21983 0.547206 0
M  V30 3630 H 338.345 3.30635 -1.58355 0
M  V30 3631 H 337.993 5.02611 0.197831 0
M  V30 3632 H 337.693 5.70101 -1.42332 0
M  V30 3633 H 339.217 6.07924 -0.57105 0
M  V30 3634 H 340.631 5.09921 -2.62019 0
M  V30 3635 H 339.028 4.94721 -3.39663 0
M  V30 3636 H 340.098 3.53584 -3.31823 0
M  V30 3637 N 341.441 0.965919 1.2453 0
M  V30 3638 C 342.351 0.502154 2.29163 0
M  V30 3639 C 343.367 -0.436017 1.68448 0
M  V30 3640 O 344.543 -0.309497 1.99008 0
M  V30 3641 C 341.608 -0.201956 3.46111 0
M  V30 3642 C 340.669 0.775821 4.22232 0
M  V30 3643 C 339.902 0.105217 5.33596 0
M  V30 3644 O 340.125 -1.10683 5.59558 0
M  V30 3645 O 339.059 0.796475 5.96607 0
M  V30 3646 H 342.885 1.37194 2.70946 0
M  V30 3647 H 340.47 0.732875 1.30189 0
M  V30 3648 H 342.352 -0.597564 4.17142 0
M  V30 3649 H 341.027 -1.04673 3.06309 0
M  V30 3650 H 339.934 1.22185 3.53584 0
M  V30 3651 H 341.267 1.58896 4.65846 0
M  V30 3652 N 342.919 -1.39368 0.735821 0
M  V30 3653 C 343.867 -2.32443 0.0855131 0
M  V30 3654 C 344.861 -1.53104 -0.724954 0
M  V30 3655 O 346.067 -1.68762 -0.626047 0
M  V30 3656 H 342.442 -0.751948 0.00885257 0
M  V30 3657 H 344.413 -2.84916 0.886883 0
M  V30 3658 C 343.162 -3.38206 -0.806983 0
M  V30 3659 H 342.485 -3.99335 -0.19274 0
M  V30 3660 H 343.925 -4.05779 -1.2296 0
M  V30 3661 C 342.384 -2.75321 -1.94165 0
M  V30 3662 O 342.914 -2.63231 -3.03435 0
M  V30 3663 N 341.12 -2.33396 -1.73132 0
M  V30 3664 H 340.667 -2.4343 -0.842596 0
M  V30 3665 H 340.625 -1.91661 -2.49225 0
M  V30 3666 N 344.397 -0.483516 -1.5 0
M  V30 3667 C 345.643 0.0672592 -2.02688 0
M  V30 3668 C 345.976 1.38247 -1.36387 0
M  V30 3669 O 345.251 1.88131 -0.493675 0
M  V30 3670 C 345.534 0.238109 -3.59312 0
M  V30 3671 C 345.387 -1.099 -4.36168 0
M  V30 3672 C 346.706 0.986916 -4.28892 0
M  V30 3673 H 343.825 0.0229696 -0.736642 0
M  V30 3674 H 346.467 -0.631527 -1.79197 0
M  V30 3675 H 344.617 0.8333 -3.79458 0
M  V30 3676 H 346.289 -1.73172 -4.27562 0
M  V30 3677 H 344.532 -1.69261 -3.99416 0
M  V30 3678 H 345.203 -0.932954 -5.44059 0
M  V30 3679 H 347.679 0.482302 -4.13295 0
M  V30 3680 H 346.555 1.07527 -5.38265 0
M  V30 3681 H 346.816 2.0265 -3.92919 0
M  V30 3682 N 345.875 1.56104 -0.216619 0
M  V30 3683 C 347.122 1.98172 0.416416 0
M  V30 3684 C 347.45 1.10413 1.60122 0
M  V30 3685 O 346.705 0.147967 1.9514 0
M  V30 3686 C 347.004 3.45923 0.898464 0
M  V30 3687 C 346.67 4.50559 -0.175288 0
M  V30 3688 C 345.332 4.78897 -0.470271 0
M  V30 3689 C 347.684 5.1334 -0.901728 0
M  V30 3690 C 345.012 5.67299 -1.4963 0
M  V30 3691 C 347.364 6.02853 -1.91705 0
M  V30 3692 C 346.028 6.29537 -2.21901 0
M  V30 3693 H 345.298 0.725164 0.152377 0
M  V30 3694 H 347.945 1.88839 -0.318103 0
M  V30 3695 H 346.25 3.52434 1.71165 0
M  V30 3696 H 347.947 3.75841 1.39803 0
M  V30 3697 H 344.537 4.28551 0.0647806 0
M  V30 3698 H 348.721 4.91521 -0.687072 0
M  V30 3699 H 343.977 5.86239 -1.73592 0
M  V30 3700 H 348.151 6.50552 -2.48505 0
M  V30 3701 H 345.778 6.97835 -3.01548 0
M  V30 3702 N 347.353 -0.0568162 1.57498 0
M  V30 3703 C 348.286 -1.09817 2.00039 0
M  V30 3704 C 349.264 -1.3674 0.879819 0
M  V30 3705 O 350.448 -1.49863 1.14338 0
M  V30 3706 C 347.575 -2.43924 2.34986 0
M  V30 3707 C 346.621 -2.33039 3.57204 0
M  V30 3708 S 347.454 -1.7102 5.07457 0
M  V30 3709 C 348.61 -3.06674 5.45621 0
M  V30 3710 H 348.843 -0.735701 2.88053 0
M  V30 3711 H 346.376 -0.265871 1.52094 0
M  V30 3712 H 348.334 -3.2106 2.55795 0
M  V30 3713 H 346.995 -2.77327 1.47474 0
M  V30 3714 H 346.188 -3.31973 3.79223 0
M  V30 3715 H 345.79 -1.64043 3.36104 0
M  V30 3716 H 348.082 -4.03 5.44608 0
M  V30 3717 H 349.025 -2.8942 6.46252 0
M  V30 3718 H 349.433 -3.07969 4.73091 0
M  V30 3719 N 348.832 -1.54138 -0.328536 0
M  V30 3720 C 349.742 -1.86192 -1.42723 0
M  V30 3721 C 350.758 -0.753382 -1.56844 0
M  V30 3722 O 351.934 -1.04718 -1.72035 0
M  V30 3723 C 348.999 -2.07824 -2.77507 0
M  V30 3724 C 348.06 -3.31641 -2.72603 0
M  V30 3725 C 347.293 -3.52232 -4.00959 0
M  V30 3726 O 347.516 -2.7636 -4.9898 0
M  V30 3727 O 346.45 -4.45699 -4.0452 0
M  V30 3728 H 350.276 -2.79608 -1.18547 0
M  V30 3729 H 347.861 -1.3998 -0.522104 0
M  V30 3730 H 349.743 -2.23411 -3.57303 0
M  V30 3731 H 348.418 -1.17596 -3.01584 0
M  V30 3732 H 347.325 -3.21444 -1.91376 0
M  V30 3733 H 348.658 -4.2191 -2.53481 0
M  V30 3734 N 350.31 0.590341 -1.46126 0
M  V30 3735 C 351.258 1.72105 -1.5647 0
M  V30 3736 C 352.252 1.63756 -0.433612 0
M  V30 3737 O 353.458 1.69342 -0.610194 0
M  V30 3738 H 349.833 0.568889 -0.491802 0
M  V30 3739 H 351.804 1.6051 -2.51553 0
M  V30 3740 C 350.553 3.10493 -1.56491 0
M  V30 3741 H 349.876 3.17583 -2.4286 0
M  V30 3742 H 351.316 3.8939 -1.67785 0
M  V30 3743 C 349.775 3.3563 -0.292231 0
M  V30 3744 O 350.305 3.96875 0.620739 0
M  V30 3745 N 348.511 2.90026 -0.182523 0
M  V30 3746 H 348.058 2.40367 -0.926356 0
M  V30 3747 H 348.016 3.07218 0.668152 0
M  V30 3748 N 351.788 1.33704 0.83433 0
M  V30 3749 C 353.204 1.13137 1.12571 0
M  V30 3750 C 353.404 -0.0747261 2.01361 0
M  V30 3751 O 352.46 -0.753647 2.4099 0
M  V30 3752 C 353.773 2.42105 1.78342 0
M  V30 3753 C 355.321 2.48054 1.90888 0
M  V30 3754 C 355.796 3.76995 2.60075 0
M  V30 3755 N 357.287 3.78092 2.67584 0
M  V30 3756 C 358.022 4.74574 3.21818 0
M  V30 3757 N 357.518 5.81434 3.76705 0
M  V30 3758 N 359.311 4.62044 3.20112 0
M  V30 3759 H 351.462 2.11 0.243489 0
M  V30 3760 H 353.725 0.932532 0.17055 0
M  V30 3761 H 353.431 3.30391 1.20561 0
M  V30 3762 H 353.305 2.54594 2.7832 0
M  V30 3763 H 355.692 1.60215 2.47821 0
M  V30 3764 H 355.773 2.39502 0.898459 0
M  V30 3765 H 355.417 4.65219 2.03799 0
M  V30 3766 H 355.347 3.82825 3.61597 0
M  V30 3767 H 357.838 3.00865 2.28667 0
M  V30 3768 H 358.151 6.51084 4.16305 0
M  V30 3769 H 356.496 5.85163 3.7498 0
M  V30 3770 H 359.687 3.77716 2.76493 0
M  V30 3771 H 359.86 5.37406 3.62076 0
M  V30 3772 N 353.266 -1.05314 1.17247 0
M  V30 3773 C 354.682 -1.30452 0.919473 0
M  V30 3774 C 354.882 -1.9703 -0.42209 0
M  V30 3775 O 353.938 -2.24311 -1.15935 0
M  V30 3776 C 355.251 -2.17551 2.07586 0
M  V30 3777 C 356.799 -2.30937 2.11275 0
M  V30 3778 C 357.274 -3.21396 3.26296 0
M  V30 3779 N 358.765 -3.28981 3.26076 0
M  V30 3780 C 359.5 -3.99095 4.11716 0
M  V30 3781 N 358.996 -4.71648 5.07465 0
M  V30 3782 N 360.789 -3.95247 3.9967 0
M  V30 3783 H 352.94 -0.604988 2.03602 0
M  V30 3784 H 355.203 -0.329368 0.888944 0
M  V30 3785 H 354.909 -1.75921 3.0454 0
M  V30 3786 H 354.783 -3.18182 2.02584 0
M  V30 3787 H 357.17 -2.71809 1.14907 0
M  V30 3788 H 357.251 -1.2994 2.20339 0
M  V30 3789 H 356.895 -2.81238 4.22927 0
M  V30 3790 H 356.825 -4.22395 3.14467 0
M  V30 3791 H 359.316 -2.77286 2.5675 0
M  V30 3792 H 359.629 -5.22705 5.6921 0
M  V30 3793 H 357.974 -4.70594 5.11435 0
M  V30 3794 H 361.165 -3.37691 3.24164 0
M  V30 3795 H 361.338 -4.4962 4.66632 0
M  V30 3796 N 354.744 -0.972509 -1.24016 0
M  V30 3797 C 355.676 -0.464375 -2.24446 0
M  V30 3798 C 356.689 0.4295 -1.57032 0
M  V30 3799 O 357.878 0.234902 -1.76948 0
M  V30 3800 C 354.978 0.348385 -3.37105 0
M  V30 3801 C 354.151 -0.53673 -4.34094 0
M  V30 3802 C 353.21 0.220838 -5.25736 0
M  V30 3803 O 352.236 -0.386867 -5.67884 0
M  V30 3804 N 353.438 1.50907 -5.60542 0
M  V30 3805 H 356.203 -1.32788 -2.68677 0
M  V30 3806 H 353.764 -0.844877 -1.38107 0
M  V30 3807 H 355.756 0.863341 -3.95384 0
M  V30 3808 H 354.326 1.11285 -2.92121 0
M  V30 3809 H 353.546 -1.23261 -3.74433 0
M  V30 3810 H 354.834 -1.14022 -4.95859 0
M  V30 3811 H 354.232 2.02444 -5.28236 0
M  V30 3812 H 352.789 1.96962 -6.21329 0
M  V30 3813 N 356.222 1.38976 -0.743202 0
M  V30 3814 C 357.499 1.94351 -0.220705 0
M  V30 3815 C 357.879 1.67935 1.2791 0
M  V30 3816 O 357.227 1.01211 2.04862 0
M  V30 3817 C 357.437 3.44426 -0.563171 0
M  V30 3818 C 358.785 4.2144 -0.517046 0
M  V30 3819 O 359.809 3.52661 -0.500846 0
M  V30 3820 O 358.668 5.44032 -0.518806 0
M  V30 3821 H 355.762 0.825879 -0.043047 0
M  V30 3822 H 358.308 1.48429 -0.822618 0
M  V30 3823 H 357.08 3.5712 -1.59941 0
M  V30 3824 H 356.703 3.97543 0.0672883 0
M  V30 3825 N 357.7 0.491464 1.49741 0
M  V30 3826 C 359.111 0.0413169 1.86654 0
M  V30 3827 C 359.462 -1.36985 1.40462 0
M  V30 3828 O 358.587 -2.01917 0.778354 0
M  V30 3829 C 359.182 0.0682023 3.38731 0
M  V30 3830 C 357.741 -0.32656 3.74981 0
M  V30 3831 C 356.888 0.444888 2.73708 0
M  V30 3832 H 359.839 0.704733 1.42194 0
M  V30 3833 H 359.86 -0.729322 3.73445 0
M  V30 3834 H 359.372 1.09539 3.72321 0
M  V30 3835 H 357.473 -1.35734 3.46997 0
M  V30 3836 H 357.586 -0.013741 4.79098 0
M  V30 3837 H 355.95 -0.104062 2.54487 0
M  V30 3838 H 356.733 1.47197 3.10142 0
M  V30 3839 N 359.178 -1.55987 0.224894 0
M  V30 3840 C 360.406 -2.02784 -0.410665 0
M  V30 3841 C 360.821 -1.10464 -1.53112 0
M  V30 3842 O 360.178 -0.114871 -1.82138 0
M  V30 3843 C 360.229 -3.49087 -0.939165 0
M  V30 3844 O 359.95 -4.37887 0.136614 0
M  V30 3845 C 361.451 -4.11543 -1.64763 0
M  V30 3846 H 358.671 -0.663484 -0.100148 0
M  V30 3847 H 361.215 -2.01614 0.342326 0
M  V30 3848 H 359.37 -3.50861 -1.64242 0
M  V30 3849 H 359.784 -5.23849 -0.261155 0
M  V30 3850 H 361.258 -5.15673 -1.96939 0
M  V30 3851 H 361.735 -3.56736 -2.56195 0
M  V30 3852 H 362.341 -4.13629 -0.989503 0
M  V30 3853 N 360.656 0.0484629 -1.57525 0
M  V30 3854 C 361.586 1.0549 -2.08313 0
M  V30 3855 C 362.567 1.38929 -0.981463 0
M  V30 3856 O 363.752 1.48151 -1.25558 0
M  V30 3857 C 360.882 2.36162 -2.54646 0
M  V30 3858 C 359.836 2.17016 -3.68901 0
M  V30 3859 C 359.162 3.53278 -4.01371 0
M  V30 3860 C 360.462 1.57219 -4.98076 0
M  V30 3861 H 362.156 0.632195 -2.92649 0
M  V30 3862 H 359.702 0.302654 -1.40784 0
M  V30 3863 H 361.655 3.06882 -2.88793 0
M  V30 3864 H 360.379 2.80456 -1.67368 0
M  V30 3865 H 359.038 1.48733 -3.35073 0
M  V30 3866 H 358.686 3.95185 -3.11188 0
M  V30 3867 H 358.386 3.41299 -4.78318 0
M  V30 3868 H 359.91 4.25391 -4.38035 0
M  V30 3869 H 361.324 2.17832 -5.30304 0
M  V30 3870 H 359.721 1.55871 -5.79503 0
M  V30 3871 H 360.791 0.535956 -4.81929 0
M  V30 3872 N 362.134 1.5431 0.320358 0
M  V30 3873 C 363.064 1.86912 1.3995 0
M  V30 3874 C 364.045 0.726211 1.53819 0
M  V30 3875 O 365.23 0.980233 1.67646 0
M  V30 3876 C 362.36 2.09932 2.7667 0
M  V30 3877 C 361.314 3.25776 2.77586 0
M  V30 3878 C 360.64 3.34173 4.17412 0
M  V30 3879 C 361.94 4.6335 2.41048 0
M  V30 3880 H 363.634 2.77292 1.12914 0
M  V30 3881 H 361.18 1.33421 0.541738 0
M  V30 3882 H 363.133 2.31324 3.52232 0
M  V30 3883 H 361.857 1.16304 3.0519 0
M  V30 3884 H 360.516 3.04276 2.04479 0
M  V30 3885 H 360.164 2.38098 4.43078 0
M  V30 3886 H 359.864 4.12033 4.18931 0
M  V30 3887 H 361.388 3.57803 4.94782 0
M  V30 3888 H 362.802 4.84602 3.06324 0
M  V30 3889 H 361.199 5.43782 2.53813 0
M  V30 3890 H 362.269 4.65381 1.36193 0
M  V30 3891 N 363.613 -0.582584 1.46437 0
M  V30 3892 C 364.859 -1.34064 1.52965 0
M  V30 3893 C 365.214 -1.91566 0.178968 0
M  V30 3894 O 364.507 -1.73526 -0.812365 0
M  V30 3895 C 364.701 -2.48964 2.56421 0
M  V30 3896 C 364.53 -2.02717 4.01417 0
M  V30 3897 C 363.3 -1.87728 4.69134 0
M  V30 3898 C 365.498 -1.58675 4.8921 0
M  V30 3899 N 363.48 -1.35554 5.98747 0
M  V30 3900 C 364.851 -1.18093 6.08649 0
M  V30 3901 C 366.906 -1.46494 4.75861 0
M  V30 3902 C 365.609 -0.665427 7.16215 0
M  V30 3903 C 367.635 -0.96347 5.83499 0
M  V30 3904 C 366.997 -0.567432 7.02111 0
M  V30 3905 H 363.096 -0.483551 0.614575 0
M  V30 3906 H 365.68 -0.663309 1.83053 0
M  V30 3907 H 363.851 -3.1426 2.28244 0
M  V30 3908 H 365.583 -3.15913 2.52944 0
M  V30 3909 H 362.338 -2.09678 4.24655 0
M  V30 3910 H 362.762 -1.11628 6.67734 0
M  V30 3911 H 367.404 -1.75731 3.8455 0
M  V30 3912 H 365.122 -0.360639 8.07295 0
M  V30 3913 H 368.708 -0.873129 5.75211 0
M  V30 3914 H 367.588 -0.185389 7.83981 0
M  V30 3915 N 365.091 -1.34144 -0.827227 0
M  V30 3916 C 366.023 -1.21206 -1.9453 0
M  V30 3917 C 367.036 -0.140176 -1.62195 0
M  V30 3918 O 368.225 -0.391647 -1.7415 0
M  V30 3919 C 365.325 -0.839141 -3.28347 0
M  V30 3920 C 364.498 -2.0051 -3.88734 0
M  V30 3921 C 363.557 -1.61128 -5.00923 0
M  V30 3922 O 362.583 -2.32726 -5.19449 0
M  V30 3923 N 363.785 -0.522958 -5.7814 0
M  V30 3924 H 366.55 -2.17525 -2.06162 0
M  V30 3925 H 364.111 -1.27043 -1.00358 0
M  V30 3926 H 366.103 -0.557556 -4.00841 0
M  V30 3927 H 364.673 0.0337293 -3.12582 0
M  V30 3928 H 363.893 -2.45166 -3.08686 0
M  V30 3929 H 365.181 -2.78498 -4.25812 0
M  V30 3930 H 364.579 0.0723518 -5.65654 0
M  V30 3931 H 363.136 -0.301089 -6.51104 0
M  V30 3932 N 366.569 1.04691 -1.17803 0
M  V30 3933 C 367.815 1.78045 -0.970969 0
M  V30 3934 C 368.148 1.87686 0.498751 0
M  V30 3935 O 367.423 1.38035 1.37027 0
M  V30 3936 C 367.706 3.2166 -1.61884 0
M  V30 3937 C 367.559 3.20001 -3.161 0
M  V30 3938 C 368.878 4.1962 -1.3269 0
M  V30 3939 H 365.997 0.64633 -0.354155 0
M  V30 3940 H 368.639 1.22333 -1.45378 0
M  V30 3941 H 366.789 3.69232 -1.20831 0
M  V30 3942 H 368.461 2.80467 -3.66246 0
M  V30 3943 H 366.704 2.58203 -3.48588 0
M  V30 3944 H 367.375 4.21386 -3.56564 0
M  V30 3945 H 369.851 3.80567 -1.68249 0
M  V30 3946 H 368.727 5.18339 -1.80599 0
M  V30 3947 H 368.988 4.414 -0.248622 0
M  V30 3948 N 368.047 0.979072 1.23499 0
M  V30 3949 C 369.294 0.647219 1.91878 0
M  V30 3950 C 369.622 -0.819074 1.76413 0
M  V30 3951 O 368.877 -1.60616 1.11808 0
M  V30 3952 C 369.176 0.981932 3.43646 0
M  V30 3953 C 368.842 2.43822 3.79291 0
M  V30 3954 C 367.504 2.83622 3.88731 0
M  V30 3955 C 369.856 3.3828 3.96505 0
M  V30 3956 C 367.184 4.16897 4.12812 0
M  V30 3957 C 369.536 4.71197 4.22085 0
M  V30 3958 C 368.2 5.10758 4.29747 0
M  V30 3959 H 367.47 0.236834 0.702133 0
M  V30 3960 H 370.117 1.23268 1.46551 0
M  V30 3961 H 368.422 0.314365 3.90537 0
M  V30 3962 H 370.119 0.703395 3.94783 0
M  V30 3963 H 366.709 2.11966 3.72516 0
M  V30 3964 H 370.893 3.0871 3.88603 0
M  V30 3965 H 366.149 4.47157 4.16966 0
M  V30 3966 H 370.323 5.44348 4.34348 0
M  V30 3967 H 367.95 6.1405 4.48159 0
M  V30 3968 N 369.525 -1.3858 0.750561 0
M  V30 3969 C 370.773 -1.99789 0.30477 0
M  V30 3970 C 371.094 -1.59874 -1.11649 0
M  V30 3971 O 370.364 -0.85417 -1.76297 0
M  V30 3972 H 368.944 -0.738902 0.109694 0
M  V30 3973 H 371.606 -1.69391 0.963983 0
M  V30 3974 H 370.702 -3.09952 0.365499 0
M  V30 3975 N 371.003 -0.499398 -1.49478 0
M  V30 3976 C 372.228 0.044722 -2.07352 0
M  V30 3977 C 372.653 1.30207 -1.35749 0
M  V30 3978 O 372.011 1.76516 -0.413732 0
M  V30 3979 C 372.059 0.283013 -3.59488 0
M  V30 3980 O 371.163 1.35804 -3.89398 0
M  V30 3981 H 370.504 -0.0255147 -0.66351 0
M  V30 3982 H 373.034 -0.698561 -1.92305 0
M  V30 3983 H 373.044 0.515007 -4.04737 0
M  V30 3984 H 371.719 -0.635636 -4.11014 0
M  V30 3985 H 370.296 1.11113 -3.55961 0
M  V30 3986 N 372.481 1.55866 -0.233164 0
M  V30 3987 C 373.444 2.1953 0.658715 0
M  V30 3988 C 374.444 1.16053 1.11303 0
M  V30 3989 O 375.634 1.41218 1.01996 0
M  V30 3990 C 372.766 2.82791 1.90373 0
M  V30 3991 H 373.959 2.99721 0.10347 0
M  V30 3992 H 371.512 1.56291 0.0164245 0
M  V30 3993 H 372.247 2.06501 2.50056 0
M  V30 3994 H 372.032 3.58578 1.58632 0
M  V30 3995 H 373.522 3.31556 2.53891 0
M  V30 3996 N 373.959 -0.0401083 1.57549 0
M  V30 3997 C 375.187 -0.745196 1.93014 0
M  V30 3998 C 375.602 -1.6948 0.831984 0
M  V30 3999 O 374.959 -1.81482 -0.192463 0
M  V30 4000 C 375.01 -1.51176 3.28372 0
M  V30 4001 O 374.731 -0.600284 4.33968 0
M  V30 4002 C 376.232 -2.315 3.78051 0
M  V30 4003 H 373.452 -0.210088 0.637263 0
M  V30 4004 H 375.996 -0.000924689 2.045 0
M  V30 4005 H 374.151 -2.20801 3.18317 0
M  V30 4006 H 374.565 -1.13669 5.12035 0
M  V30 4007 H 376.039 -2.80697 4.75303 0
M  V30 4008 H 376.516 -3.12436 3.08675 0
M  V30 4009 H 377.122 -1.66971 3.91153 0
M  V30 4010 N 375.437 -1.54477 -0.31217 0
M  V30 4011 C 376.685 -1.72884 -1.04668 0
M  V30 4012 C 377.006 -0.511477 -1.88173 0
M  V30 4013 O 376.276 0.474407 -1.90069 0
M  V30 4014 H 374.856 -0.637461 -0.389425 0
M  V30 4015 H 377.518 -1.91807 -0.345852 0
M  V30 4016 H 376.614 -2.61334 -1.70619 0
M  V30 4017 N 376.915 0.57481 -1.46744 0
M  V30 4018 C 378.161 1.3347 -1.52688 0
M  V30 4019 C 378.494 1.93353 -0.181229 0
M  V30 4020 O 377.769 1.76912 0.808237 0
M  V30 4021 C 378.052 2.45811 -2.63152 0
M  V30 4022 C 377.905 1.90912 -4.07275 0
M  V30 4023 C 379.224 3.47822 -2.69644 0
M  V30 4024 H 376.343 0.483935 -0.555856 0
M  V30 4025 H 378.985 0.644968 -1.78718 0
M  V30 4026 H 377.135 3.04646 -2.41088 0
M  V30 4027 H 378.807 1.36473 -4.4065 0
M  V30 4028 H 377.05 1.21691 -4.16382 0
M  V30 4029 H 377.721 2.72042 -4.80309 0
M  V30 4030 H 380.197 2.9888 -2.895 0
M  V30 4031 H 379.073 4.23876 -3.48742 0
M  V30 4032 H 379.334 4.05555 -1.76005 0
M  V30 4033 N 378.394 1.34581 0.820102 0
M  V30 4034 C 379.622 1.3018 1.60813 0
M  V30 4035 C 380.037 -0.123551 1.88395 0
M  V30 4036 O 379.394 -1.07148 1.47735 0
M  V30 4037 C 379.445 2.09312 2.94739 0
M  V30 4038 O 379.166 3.46288 2.68358 0
M  V30 4039 C 380.667 2.1234 3.89136 0
M  V30 4040 H 377.887 0.447726 0.499782 0
M  V30 4041 H 380.431 1.77237 1.02017 0
M  V30 4042 H 378.586 1.65889 3.50085 0
M  V30 4043 H 379 3.87227 3.53774 0
M  V30 4044 H 380.474 2.72126 4.80262 0
M  V30 4045 H 380.951 1.11854 4.24718 0
M  V30 4046 H 381.557 2.55864 3.39726 0
M  V30 4047 N 379.872 -1.04064 1.18357 0
M  V30 4048 C 381.288 -1.2947 0.933258 0
M  V30 4049 C 381.488 -1.97466 -0.401169 0
M  V30 4050 O 380.544 -2.25528 -1.13549 0
M  V30 4051 C 381.857 -2.15337 2.09882 0
M  V30 4052 C 383.405 -2.28683 2.13712 0
M  V30 4053 C 383.88 -3.17917 3.29686 0
M  V30 4054 N 385.371 -3.25504 3.29547 0
M  V30 4055 C 386.106 -3.94706 4.15926 0
M  V30 4056 N 385.602 -4.66239 5.12439 0
M  V30 4057 N 387.395 -3.90986 4.0384 0
M  V30 4058 H 379.546 -0.583359 2.04232 0
M  V30 4059 H 381.809 -0.319921 0.892387 0
M  V30 4060 H 381.515 -1.72682 3.06389 0
M  V30 4061 H 381.389 -3.16015 2.05947 0
M  V30 4062 H 383.776 -2.70575 1.17784 0
M  V30 4063 H 383.857 -1.27596 2.21705 0
M  V30 4064 H 383.501 -2.76736 4.25887 0
M  V30 4065 H 383.431 -4.19036 3.1893 0
M  V30 4066 H 385.922 -2.74547 2.59677 0
M  V30 4067 H 386.235 -5.16638 5.74722 0
M  V30 4068 H 384.58 -4.65143 5.16398 0
M  V30 4069 H 387.771 -3.34234 3.27727 0
M  V30 4070 H 387.944 -4.44646 4.71375 0
M  V30 4071 N 381.35 -0.985608 -1.22978 0
M  V30 4072 C 382.58 -0.674603 -1.95276 0
M  V30 4073 C 382.988 0.763483 -1.73111 0
M  V30 4074 O 382.331 1.52601 -1.02268 0
M  V30 4075 C 382.393 -0.891597 -3.48268 0
M  V30 4076 C 382.057 -2.31275 -3.94158 0
M  V30 4077 C 383.054 -3.29179 -4.02415 0
M  V30 4078 C 380.739 -2.64524 -4.27004 0
M  V30 4079 C 382.733 -4.58407 -4.42879 0
M  V30 4080 C 380.42 -3.93974 -4.67149 0
M  V30 4081 C 381.418 -4.90727 -4.75053 0
M  V30 4082 O 381.106 -6.17865 -5.14294 0
M  V30 4083 H 380.838 -0.249251 -0.628371 0
M  V30 4084 H 383.392 -1.32106 -1.5728 0
M  V30 4085 H 381.622 -0.187962 -3.86243 0
M  V30 4086 H 383.311 -0.576957 -4.01779 0
M  V30 4087 H 384.077 -3.04823 -3.77237 0
M  V30 4088 H 379.956 -1.89923 -4.2006 0
M  V30 4089 H 383.5 -5.33926 -4.48964 0
M  V30 4090 H 379.397 -4.18122 -4.91777 0
M  V30 4091 H 380.165 -6.21694 -5.32389 0
M  V30 4092 N 382.828 1.3818 -0.7579 0
M  V30 4093 C 384.058 2.04004 -0.326463 0
M  V30 4094 C 384.466 1.57286 1.05156 0
M  V30 4095 O 383.809 0.743144 1.67997 0
M  V30 4096 C 383.871 3.58444 -0.275402 0
M  V30 4097 C 383.535 4.28237 -1.59569 0
M  V30 4098 C 384.532 4.53312 -2.54566 0
M  V30 4099 C 382.217 4.66341 -1.86631 0
M  V30 4100 C 384.211 5.15531 -3.74842 0
M  V30 4101 C 381.898 5.28283 -3.0718 0
M  V30 4102 C 382.896 5.52814 -4.01106 0
M  V30 4103 O 382.584 6.13465 -5.19534 0
M  V30 4104 H 382.316 0.662026 -0.136739 0
M  V30 4105 H 384.87 1.7777 -1.02893 0
M  V30 4106 H 383.1 3.83667 0.483337 0
M  V30 4107 H 384.789 4.05701 0.127099 0
M  V30 4108 H 385.555 4.24299 -2.34936 0
M  V30 4109 H 381.434 4.46591 -1.14358 0
M  V30 4110 H 384.978 5.34594 -4.48168 0
M  V30 4111 H 380.875 5.56719 -3.26702 0
M  V30 4112 H 381.643 6.31951 -5.20173 0
M  V30 4113 N 384.306 0.507319 1.49211 0
M  V30 4114 C 385.717 0.0611118 1.866 0
M  V30 4115 C 386.068 -1.35488 1.41907 0
M  V30 4116 O 385.193 -2.0108 0.799726 0
M  V30 4117 C 385.788 0.104125 3.3864 0
M  V30 4118 C 384.347 -0.28677 3.75306 0
M  V30 4119 C 383.494 0.473893 2.73221 0
M  V30 4120 H 386.445 0.719775 1.41439 0
M  V30 4121 H 386.466 -0.689672 3.74198 0
M  V30 4122 H 385.978 1.13482 3.71138 0
M  V30 4123 H 384.079 -1.32046 3.48417 0
M  V30 4124 H 384.192 0.0370745 4.79086 0
M  V30 4125 H 382.556 -0.0770644 2.54583 0
M  V30 4126 H 383.339 1.50478 3.08563 0
M  V30 4127 N 385.784 -1.5574 0.241426 0
M  V30 4128 C 386.747 -2.19877 -0.647063 0
M  V30 4129 C 387.747 -1.16642 -1.10686 0
M  V30 4130 O 388.937 -1.41757 -1.01245 0
M  V30 4131 C 386.069 -2.83797 -1.88871 0
M  V30 4132 H 387.262 -2.99772 -0.087574 0
M  V30 4133 H 384.815 -1.56298 -0.00813574 0
M  V30 4134 H 385.55 -2.07824 -2.48957 0
M  V30 4135 H 385.335 -3.59414 -1.56728 0
M  V30 4136 H 386.825 -3.32898 -2.52129 0
M  V30 4137 N 387.262 0.0317525 -1.57568 0
M  V30 4138 C 388.49 0.734949 -1.93407 0
M  V30 4139 C 388.905 1.69036 -0.84096 0
M  V30 4140 O 388.262 1.81582 0.182836 0
M  V30 4141 C 388.313 1.49432 -3.29169 0
M  V30 4142 O 388.034 0.577261 -4.3428 0
M  V30 4143 C 389.535 2.29492 -3.79273 0
M  V30 4144 H 386.755 0.206706 -0.638368 0
M  V30 4145 H 389.299 -0.00992046 -2.04498 0
M  V30 4146 H 387.454 2.1911 -3.19483 0
M  V30 4147 H 387.868 1.10952 -5.1263 0
M  V30 4148 H 389.342 2.78172 -4.76785 0
M  V30 4149 H 389.819 3.10794 -3.10328 0
M  V30 4150 H 390.425 1.64894 -3.92033 0
M  V30 4151 N 388.74 1.54641 0.303973 0
M  V30 4152 C 390.151 1.64811 0.877163 0
M  V30 4153 C 390.502 0.554838 1.88191 0
M  V30 4154 O 389.627 -0.309033 2.14182 0
M  V30 4155 C 390.222 2.9876 1.59775 0
M  V30 4156 C 388.781 3.11061 2.11938 0
M  V30 4157 C 387.928 2.60479 0.951097 0
M  V30 4158 H 390.879 1.58493 0.0810486 0
M  V30 4159 H 390.9 2.90017 2.46314 0
M  V30 4160 H 390.412 3.7831 0.866226 0
M  V30 4161 H 388.513 2.36225 2.88146 0
M  V30 4162 H 388.626 4.17171 2.35595 0
M  V30 4163 H 386.99 2.16859 1.33583 0
M  V30 4164 H 387.773 3.42504 0.233581 0
M  V30 4165 N 390.218 -0.567019 1.47046 0
M  V30 4166 C 391.464 -1.32434 1.54379 0
M  V30 4167 C 391.819 -1.91365 0.199276 0
M  V30 4168 O 391.112 -1.74378 -0.793915 0
M  V30 4169 C 391.306 -2.4623 2.59047 0
M  V30 4170 C 391.135 -1.98448 4.03545 0
M  V30 4171 C 389.905 -1.82741 4.71098 0
M  V30 4172 C 392.103 -1.53477 4.90866 0
M  V30 4173 N 390.085 -1.29196 6.00151 0
M  V30 4174 C 391.456 -1.1163 6.09868 0
M  V30 4175 C 393.511 -1.41438 4.77388 0
M  V30 4176 C 392.214 -0.589425 7.16881 0
M  V30 4177 C 394.24 -0.901528 5.84488 0
M  V30 4178 C 393.602 -0.492932 7.02673 0
M  V30 4179 H 389.701 -0.477005 0.61967 0
M  V30 4180 H 392.285 -0.643856 1.83746 0
M  V30 4181 H 390.456 -3.11821 2.31564 0
M  V30 4182 H 392.188 -3.13213 2.56281 0
M  V30 4183 H 388.943 -2.05162 4.26855 0
M  V30 4184 H 389.367 -1.0454 6.6888 0
M  V30 4185 H 394.009 -1.71643 3.86392 0
M  V30 4186 H 391.727 -0.274994 8.07632 0
M  V30 4187 H 395.313 -0.812071 5.76105 0
M  V30 4188 H 394.193 -0.102227 7.84133 0
M  V30 4189 N 391.696 -1.35014 -0.812953 0
M  V30 4190 C 393.112 -1.14914 -1.10757 0
M  V30 4191 C 393.312 0.0426818 -2.01455 0
M  V30 4192 O 392.368 0.715212 -2.42159 0
M  V30 4193 C 393.681 -2.44911 -1.74468 0
M  V30 4194 C 395.229 -2.5106 -1.86917 0
M  V30 4195 C 395.704 -3.81085 -2.54044 0
M  V30 4196 N 397.195 -3.82301 -2.61535 0
M  V30 4197 C 397.93 -4.79634 -3.14227 0
M  V30 4198 N 397.426 -5.87353 -3.67407 0
M  V30 4199 N 399.219 -4.67078 -3.12721 0
M  V30 4200 H 391.37 -2.1136 -0.20989 0
M  V30 4201 H 393.633 -0.935128 -0.155692 0
M  V30 4202 H 393.339 -3.32267 -1.15289 0
M  V30 4203 H 393.213 -2.58989 -2.74234 0
M  V30 4204 H 395.6 -1.64137 -2.45241 0
M  V30 4205 H 395.681 -2.40901 -0.860242 0
M  V30 4206 H 395.325 -4.68402 -1.96372 0
M  V30 4207 H 395.255 -3.88529 -3.55461 0
M  V30 4208 H 397.746 -3.04465 -2.23851 0
M  V30 4209 H 398.059 -6.57624 -4.05894 0
M  V30 4210 H 396.404 -5.91054 -3.65623 0
M  V30 4211 H 399.595 -3.82067 -2.70449 0
M  V30 4212 H 399.768 -5.43098 -3.53481 0
M  V30 4213 N 393.175 1.03435 -1.18907 0
M  V30 4214 C 394.138 2.09756 -0.923844 0
M  V30 4215 C 395.138 1.60528 0.093416 0
M  V30 4216 O 396.328 1.73631 -0.140727 0
M  V30 4217 C 393.46 3.38692 -0.387354 0
M  V30 4218 H 394.653 2.34719 -1.86674 0
M  V30 4219 H 392.206 1.19959 -1.00197 0
M  V30 4220 H 392.941 3.19396 0.561845 0
M  V30 4221 H 392.726 3.75742 -1.12074 0
M  V30 4222 H 394.216 4.17016 -0.220694 0
M  V30 4223 N 394.653 0.992116 1.22453 0
M  V30 4224 C 396.064 0.702776 1.72968 0
M  V30 4225 C 396.415 -0.780399 1.80012 0
M  V30 4226 O 395.54 -1.61007 1.44589 0
M  V30 4227 C 396.135 1.26903 3.14135 0
M  V30 4228 C 394.694 1.02909 3.62059 0
M  V30 4229 C 393.841 1.38969 2.39964 0
M  V30 4230 H 396.792 1.16457 1.07812 0
M  V30 4231 H 396.813 0.647223 3.74955 0
M  V30 4232 H 396.325 2.34851 3.08977 0
M  V30 4233 H 394.426 -0.0337979 3.72585 0
M  V30 4234 H 394.539 1.69191 4.48231 0
M  V30 4235 H 392.903 0.808279 2.41535 0
M  V30 4236 H 393.686 2.4792 2.37467 0
M  V30 4237 N 396.131 -1.37776 0.765217 0
M  V30 4238 C 397.078 -2.30342 0.145274 0
M  V30 4239 C 398.048 -1.5077 -0.696971 0
M  V30 4240 O 399.233 -1.79362 -0.650689 0
M  V30 4241 C 396.373 -3.37227 -0.732939 0
M  V30 4242 C 395.486 -4.31819 0.125199 0
M  V30 4243 C 394.621 -5.25777 -0.757107 0
M  V30 4244 C 393.66 -6.12012 0.103963 0
M  V30 4245 N 392.797 -6.98232 -0.735953 0
M  V30 4246 H 397.637 -2.8278 0.940195 0
M  V30 4247 H 395.174 -1.39211 0.475255 0
M  V30 4248 H 397.132 -3.97818 -1.25686 0
M  V30 4249 H 395.762 -2.86171 -1.49353 0
M  V30 4250 H 394.814 -3.7259 0.766865 0
M  V30 4251 H 396.126 -4.92509 0.789683 0
M  V30 4252 H 395.28 -5.91541 -1.34776 0
M  V30 4253 H 394.019 -4.65481 -1.45529 0
M  V30 4254 H 393.024 -5.45233 0.707197 0
M  V30 4255 H 394.249 -6.74379 0.799381 0
M  V30 4256 H 392.195 -6.40472 -1.41887 0
M  V30 4257 H 392.112 -7.55891 -0.128624 0
M  V30 4258 H 393.38 -7.68393 -1.31121 0
M  V30 4259 N 397.609 -0.515225 -1.4894 0
M  V30 4260 C 398.556 0.255567 -2.29381 0
M  V30 4261 C 399.526 0.947387 -1.36432 0
M  V30 4262 O 400.711 0.951288 -1.65394 0
M  V30 4263 C 397.851 1.30551 -3.19453 0
M  V30 4264 C 396.964 0.624029 -4.27469 0
M  V30 4265 C 396.099 1.65563 -5.0474 0
M  V30 4266 C 395.138 0.956802 -6.04576 0
M  V30 4267 N 394.275 1.93326 -6.74959 0
M  V30 4268 H 399.115 -0.436607 -2.94784 0
M  V30 4269 H 396.652 -0.227154 -1.45336 0
M  V30 4270 H 398.61 1.92639 -3.70062 0
M  V30 4271 H 397.24 1.96626 -2.56004 0
M  V30 4272 H 396.292 -0.110459 -3.8024 0
M  V30 4273 H 397.604 0.0746092 -4.98744 0
M  V30 4274 H 396.758 2.35119 -5.59289 0
M  V30 4275 H 395.497 2.23893 -4.3327 0
M  V30 4276 H 394.502 0.247097 -5.49244 0
M  V30 4277 H 395.727 0.379814 -6.78037 0
M  V30 4278 H 393.673 2.50591 -6.06251 0
M  V30 4279 H 393.59 1.43489 -7.42258 0
M  V30 4280 H 394.858 2.62126 -7.34105 0
M  V30 4281 N 399.087 1.5561 -0.249682 0
M  V30 4282 C 400.336 1.98187 0.37479 0
M  V30 4283 C 400.649 1.14111 1.58865 0
M  V30 4284 O 401.855 1.46714 2.28445 0
M  V30 4285 C 400.311 3.52661 0.718192 0
M  V30 4286 C 399.919 4.45481 -0.474428 0
M  V30 4287 C 401.663 4.03888 1.3067 0
M  V30 4288 C 399.57 5.91303 -0.107026 0
M  V30 4289 H 398.5 0.740159 0.143808 0
M  V30 4290 H 401.151 1.80125 -0.350336 0
M  V30 4291 H 399.533 3.66429 1.50152 0
M  V30 4292 H 400.707 4.43473 -1.25172 0
M  V30 4293 H 399.022 4.04751 -0.978052 0
M  V30 4294 H 401.619 5.10358 1.59496 0
M  V30 4295 H 401.962 3.51401 2.23211 0
M  V30 4296 H 402.495 3.93457 0.586211 0
M  V30 4297 H 399.234 6.47833 -0.999642 0
M  V30 4298 H 398.754 5.9644 0.634013 0
M  V30 4299 H 400.433 6.46258 0.309807 0
M  V30 4300 N 400.565 -0.0233959 1.57583 0
M  V30 4301 C 401.842 -0.748794 1.807 0
M  V30 4302 C 402.222 -1.9327 0.849106 0
M  V30 4303 O 401.57 -2.28247 -0.107468 0
M  V30 4304 C 401.78 -1.17651 3.28571 0
M  V30 4305 C 403.128 -1.59008 3.93702 0
M  V30 4306 O 404.152 -1.27094 3.32755 0
M  V30 4307 O 403.011 -2.18264 5.01022 0
M  V30 4308 H 400.105 -0.362578 0.743281 0
M  V30 4309 H 402.651 0.000261958 1.697 0
M  V30 4310 H 401.423 -0.331603 3.89892 0
M  V30 4311 H 401.046 -1.98541 3.44481 0
M  V30 4312 N 402.043 -1.548 -0.295768 0
M  V30 4313 C 402.973 -1.89115 -1.36959 0
M  V30 4314 C 403.954 -0.75059 -1.52644 0
M  V30 4315 O 405.139 -1.00678 -1.66065 0
M  V30 4316 C 402.269 -2.14307 -2.73295 0
M  V30 4317 C 401.223 -3.30151 -2.72368 0
M  V30 4318 C 400.549 -3.40772 -4.12042 0
M  V30 4319 C 401.849 -4.67126 -2.33646 0
M  V30 4320 H 403.543 -2.79053 -1.08488 0
M  V30 4321 H 401.089 -1.34266 -0.520443 0
M  V30 4322 H 403.042 -2.36898 -3.48507 0
M  V30 4323 H 401.766 -1.21145 -3.03301 0
M  V30 4324 H 400.425 -3.0749 -1.99613 0
M  V30 4325 H 400.073 -2.45117 -4.39234 0
M  V30 4326 H 399.773 -4.18645 -4.12322 0
M  V30 4327 H 401.297 -3.6563 -4.89027 0
M  V30 4328 H 402.711 -4.89414 -2.98575 0
M  V30 4329 H 401.108 -5.47751 -2.45129 0
M  V30 4330 H 402.178 -4.67489 -1.28772 0
M  V30 4331 N 403.521 0.559213 -1.47345 0
M  V30 4332 C 404.751 1.33999 -1.57251 0
M  V30 4333 C 405.159 1.87905 -0.220978 0
M  V30 4334 O 404.502 1.65577 0.795617 0
M  V30 4335 C 404.564 2.54798 -2.53611 0
M  V30 4336 C 404.228 2.22192 -3.99349 0
M  V30 4337 C 405.225 1.79607 -4.87891 0
M  V30 4338 C 402.91 2.33613 -4.44669 0
M  V30 4339 C 404.904 1.48868 -6.19772 0
M  V30 4340 C 402.591 2.02487 -5.76578 0
M  V30 4341 C 403.589 1.60183 -6.63951 0
M  V30 4342 O 403.277 1.29451 -7.93409 0
M  V30 4343 H 403.009 0.414858 -0.533731 0
M  V30 4344 H 405.563 0.684465 -1.9366 0
M  V30 4345 H 403.793 3.23235 -2.12265 0
M  V30 4346 H 405.482 3.16873 -2.53666 0
M  V30 4347 H 406.248 1.70278 -4.54126 0
M  V30 4348 H 402.127 2.65501 -3.76869 0
M  V30 4349 H 405.671 1.15775 -6.87926 0
M  V30 4350 H 401.568 2.11448 -6.09885 0
M  V30 4351 H 402.336 1.43098 -8.05894 0
M  V30 4352 N 404.999 1.35443 0.805782 0
M  V30 4353 C 406.276 1.19325 1.54987 0
M  V30 4354 C 406.656 -0.227294 2.09873 0
M  V30 4355 O 406.004 -1.2309 1.92512 0
M  V30 4356 C 406.214 2.26196 2.65775 0
M  V30 4357 C 407.562 2.62043 3.34094 0
M  V30 4358 O 408.586 2.25115 2.76046 0
M  V30 4359 O 407.445 3.25542 4.38958 0
M  V30 4360 H 404.539 0.463623 0.684823 0
M  V30 4361 H 407.085 1.47127 0.845674 0
M  V30 4362 H 405.857 3.21471 2.23096 0
M  V30 4363 H 405.48 1.99667 3.43829 0
M  V30 4364 N 406.477 -1.02803 1.19454 0
M  V30 4365 C 407.723 -1.76478 0.999171 0
M  V30 4366 C 408.056 -1.88456 -0.468828 0
M  V30 4367 O 407.331 -1.40198 -1.34814 0
M  V30 4368 C 407.614 -3.19044 1.66981 0
M  V30 4369 C 407.467 -3.14932 3.21151 0
M  V30 4370 C 408.786 -4.17456 1.39349 0
M  V30 4371 H 405.905 -0.640614 0.364393 0
M  V30 4372 H 408.547 -1.20005 1.47305 0
M  V30 4373 H 406.697 -3.67263 1.2669 0
M  V30 4374 H 408.369 -2.74605 3.70661 0
M  V30 4375 H 406.612 -2.52625 3.52652 0
M  V30 4376 H 407.283 -4.1566 3.63223 0
M  V30 4377 H 409.759 -3.77842 1.74283 0
M  V30 4378 H 408.635 -5.154 1.88823 0
M  V30 4379 H 408.896 -4.40949 0.318813 0
M  V30 4380 N 407.956 -0.998596 -1.21925 0
M  V30 4381 C 409.372 -0.710303 -1.42923 0
M  V30 4382 C 409.572 0.716933 -1.88314 0
M  V30 4383 O 408.628 1.48712 -2.04062 0
M  V30 4384 C 409.941 -1.72072 -2.466 0
M  V30 4385 C 411.489 -1.73681 -2.60392 0
M  V30 4386 C 411.964 -2.73601 -3.67296 0
M  V30 4387 N 413.455 -2.7223 -3.7476 0
M  V30 4388 C 414.19 -3.46206 -4.57087 0
M  V30 4389 N 413.686 -4.29802 -5.43362 0
M  V30 4390 N 415.479 -3.34886 -4.51451 0
M  V30 4391 H 407.63 -1.92028 -0.9077 0
M  V30 4392 H 409.893 -0.828487 -0.460775 0
M  V30 4393 H 409.599 -2.74231 -2.20206 0
M  V30 4394 H 409.473 -1.51818 -3.45299 0
M  V30 4395 H 411.86 -0.722173 -2.86127 0
M  V30 4396 H 411.941 -1.98005 -1.61949 0
M  V30 4397 H 411.585 -3.75217 -3.42307 0
M  V30 4398 H 411.515 -2.46545 -4.65321 0
M  V30 4399 H 414.006 -2.11576 -3.1312 0
M  V30 4400 H 414.319 -4.83061 -6.03218 0
M  V30 4401 H 412.664 -4.33887 -5.42925 0
M  V30 4402 H 415.855 -2.69015 -3.83078 0
M  V30 4403 H 416.028 -3.92796 -5.15379 0
M  V30 4404 N 409.434 1.37368 -0.772513 0
M  V30 4405 C 410.85 1.53059 -0.452231 0
M  V30 4406 C 411.05 1.73065 1.03203 0
M  V30 4407 O 410.106 1.75245 1.81784 0
M  V30 4408 C 411.419 2.72659 -1.26797 0
M  V30 4409 C 412.967 2.86521 -1.25995 0
M  V30 4410 C 413.442 4.09105 -2.05905 0
M  V30 4411 N 414.933 4.16219 -2.03263 0
M  V30 4412 C 415.668 5.10107 -2.61875 0
M  V30 4413 N 415.164 6.09547 -3.29278 0
M  V30 4414 N 416.957 5.02596 -2.51701 0
M  V30 4415 H 409.108 1.22634 -1.7342 0
M  V30 4416 H 411.371 0.597206 -0.736239 0
M  V30 4417 H 411.077 2.64343 -2.31982 0
M  V30 4418 H 410.951 3.66363 -0.897672 0
M  V30 4419 H 413.338 2.94308 -0.216081 0
M  V30 4420 H 413.419 1.93774 -1.66989 0
M  V30 4421 H 413.063 4.0208 -3.10313 0
M  V30 4422 H 412.993 5.00968 -1.62292 0
M  V30 4423 H 415.484 3.45012 -1.54192 0
M  V30 4424 H 415.797 6.77718 -3.71374 0
M  V30 4425 H 414.142 6.09824 -3.33377 0
M  V30 4426 H 417.333 4.23855 -1.98657 0
M  V30 4427 H 417.506 5.75582 -2.97673 0
M  V30 4428 N 410.912 0.523116 1.48665 0
M  V30 4429 C 412.328 0.180511 1.58576 0
M  V30 4430 C 412.528 -1.31597 1.52592 0
M  V30 4431 O 411.584 -2.0937 1.4114 0
M  V30 4432 C 412.897 0.776949 2.90489 0
M  V30 4433 C 414.445 0.745058 3.04003 0
M  V30 4434 C 414.92 1.31995 4.38567 0
M  V30 4435 N 416.411 1.28162 4.45117 0
M  V30 4436 C 417.146 1.6964 5.47731 0
M  V30 4437 N 416.642 2.18816 6.57337 0
M  V30 4438 N 418.435 1.6092 5.38573 0
M  V30 4439 H 410.586 1.4958 1.50797 0
M  V30 4440 H 412.849 0.621772 0.715614 0
M  V30 4441 H 412.555 1.82732 3.00503 0
M  V30 4442 H 412.429 0.25007 3.7637 0
M  V30 4443 H 414.816 -0.296532 2.93606 0
M  V30 4444 H 414.897 1.30933 2.1975 0
M  V30 4445 H 414.541 2.36043 4.49718 0
M  V30 4446 H 414.471 0.731418 5.21496 0
M  V30 4447 H 416.962 0.92155 3.66491 0
M  V30 4448 H 417.275 2.48478 7.31764 0
M  V30 4449 H 415.62 2.22805 6.58318 0
M  V30 4450 H 418.811 1.22304 4.5184 0
M  V30 4451 H 418.984 1.93567 6.18414 0
M  V30 4452 N 412.39 -1.55475 0.257931 0
M  V30 4453 C 413.801 -1.8511 -0.243135 0
M  V30 4454 C 414.152 -1.17986 -1.5676 0
M  V30 4455 O 413.277 -0.462102 -2.11409 0
M  V30 4456 C 413.872 -3.35826 -0.447929 0
M  V30 4457 C 412.431 -3.65647 -0.893245 0
M  V30 4458 C 411.578 -2.7729 0.0232965 0
M  V30 4459 H 414.529 -1.51261 0.480199 0
M  V30 4460 H 414.55 -3.58002 -1.28898 0
M  V30 4461 H 414.062 -3.84652 0.516196 0
M  V30 4462 H 412.163 -3.22308 -1.86945 0
M  V30 4463 H 412.276 -4.73312 -0.742469 0
M  V30 4464 H 410.64 -2.49942 -0.490021 0
M  V30 4465 H 411.423 -3.28926 0.982994 0
M  V30 4466 N 413.868 0.0150385 -1.57593 0
M  V30 4467 C 415.114 0.69849 -1.91031 0
M  V30 4468 C 415.469 1.72208 -0.85804 0
M  V30 4469 O 414.762 1.91147 0.131614 0
M  V30 4470 C 414.956 1.39686 -3.28972 0
M  V30 4471 C 414.785 0.442428 -4.47518 0
M  V30 4472 C 413.555 0.0583223 -5.05266 0
M  V30 4473 C 415.753 -0.285072 -5.13509 0
M  V30 4474 N 413.735 -0.895893 -6.07328 0
M  V30 4475 C 415.106 -1.09447 -6.10263 0
M  V30 4476 C 417.161 -0.350518 -4.96665 0
M  V30 4477 C 415.864 -1.96333 -6.91987 0
M  V30 4478 C 417.89 -1.20655 -5.78962 0
M  V30 4479 C 417.252 -2.00383 -6.75297 0
M  V30 4480 H 413.351 0.22926 -0.747639 0
M  V30 4481 H 415.935 -0.0417748 -1.94655 0
M  V30 4482 H 414.106 2.1075 -3.2625 0
M  V30 4483 H 415.838 2.03381 -3.49883 0
M  V30 4484 H 412.593 0.423506 -4.71703 0
M  V30 4485 H 413.017 -1.36792 -6.63036 0
M  V30 4486 H 417.659 0.251596 -4.22051 0
M  V30 4487 H 415.377 -2.57618 -7.65936 0
M  V30 4488 H 418.963 -1.2609 -5.67972 0
M  V30 4489 H 417.843 -2.65552 -7.3787 0
M  V30 4490 N 415.346 1.54954 0.287554 0
M  V30 4491 C 416.576 1.78622 1.03816 0
M  V30 4492 C 416.984 0.552451 1.80955 0
M  V30 4493 O 416.327 -0.487665 1.77109 0
M  V30 4494 C 416.389 2.94975 2.055 0
M  V30 4495 C 416.053 4.32565 1.47433 0
M  V30 4496 C 417.05 5.12096 0.897436 0
M  V30 4497 C 414.735 4.79195 1.50591 0
M  V30 4498 C 416.729 6.36383 0.359851 0
M  V30 4499 C 414.416 6.03441 0.964459 0
M  V30 4500 C 415.414 6.81872 0.392413 0
M  V30 4501 O 415.102 8.03777 -0.140788 0
M  V30 4502 H 414.834 0.599144 0.313053 0
M  V30 4503 H 417.388 2.02761 0.328225 0
M  V30 4504 H 415.618 2.66493 2.80211 0
M  V30 4505 H 417.307 3.06097 2.6657 0
M  V30 4506 H 418.073 4.77209 0.865841 0
M  V30 4507 H 413.952 4.18167 1.94055 0
M  V30 4508 H 417.496 6.97545 -0.0872951 0
M  V30 4509 H 413.393 6.37813 0.993246 0
M  V30 4510 H 414.161 8.18495 -0.0287617 0
M  V30 4511 N 416.824 -0.551391 1.4764 0
M  V30 4512 C 418.073 -1.30467 1.53822 0
M  V30 4513 C 418.386 -1.94495 0.207661 0
M  V30 4514 O 419.592 -2.71099 0.147533 0
M  V30 4515 C 418.048 -2.36616 2.71184 0
M  V30 4516 C 417.656 -1.78754 4.10793 0
M  V30 4517 C 419.4 -3.13088 2.86663 0
M  V30 4518 C 417.307 -2.82717 5.19447 0
M  V30 4519 H 416.237 -0.490584 0.572576 0
M  V30 4520 H 418.888 -0.58494 1.73927 0
M  V30 4521 H 417.27 -3.11529 2.4447 0
M  V30 4522 H 418.444 -1.10173 4.47435 0
M  V30 4523 H 416.759 -1.14846 4.00249 0
M  V30 4524 H 419.356 -3.90736 3.65007 0
M  V30 4525 H 419.699 -3.67635 1.95321 0
M  V30 4526 H 420.232 -2.45288 3.13175 0
M  V30 4527 H 416.971 -2.33018 6.12685 0
M  V30 4528 H 416.491 -3.4969 4.87316 0
M  V30 4529 H 418.17 -3.46102 5.46646 0
M  V30 4530 N 418.302 -1.35869 -0.798587 0
M  V30 4531 C 419.234 -1.25305 -1.91915 0
M  V30 4532 C 420.247 -0.174548 -1.61862 0
M  V30 4533 O 421.436 -0.428499 -1.73281 0
M  V30 4534 C 418.536 -0.9086 -3.26493 0
M  V30 4535 C 417.709 -2.08711 -3.84394 0
M  V30 4536 C 416.768 -1.71717 -4.97393 0
M  V30 4537 O 415.794 -2.43692 -5.14396 0
M  V30 4538 N 416.996 -0.645473 -5.769 0
M  V30 4539 H 419.761 -2.21849 -2.01502 0
M  V30 4540 H 417.322 -1.29143 -0.976408 0
M  V30 4541 H 419.314 -0.642455 -3.99568 0
M  V30 4542 H 417.884 -0.0325815 -3.12583 0
M  V30 4543 H 417.104 -2.51659 -3.03416 0
M  V30 4544 H 418.392 -2.87468 -4.19809 0
M  V30 4545 H 417.79 -0.047648 -5.6568 0
M  V30 4546 H 416.347 -0.43913 -6.50319 0
M  V30 4547 N 419.78 1.02168 -1.19998 0
M  V30 4548 C 421.028 1.75338 -1.00504 0
M  V30 4549 C 421.349 1.89387 0.464506 0
M  V30 4550 O 420.619 1.43268 1.33608 0
M  V30 4551 H 419.199 0.649564 -0.368885 0
M  V30 4552 H 421.861 1.23205 -1.51018 0
M  V30 4553 H 420.957 2.75892 -1.45912 0
M  V30 4554 N 421.258 1.00505 1.21394 0
M  V30 4555 C 422.221 0.570459 2.21987 0
M  V30 4556 C 423.221 -0.353211 1.56873 0
M  V30 4557 O 424.411 -0.14349 1.73608 0
M  V30 4558 C 421.543 -0.168555 3.40483 0
M  V30 4559 H 422.736 1.46021 2.6195 0
M  V30 4560 H 420.289 0.793565 1.34656 0
M  V30 4561 H 421.024 -1.07374 3.06009 0
M  V30 4562 H 420.809 0.494823 3.88965 0
M  V30 4563 H 422.299 -0.460362 4.15055 0
M  V30 4564 N 422.737 -1.36956 0.779787 0
M  V30 4565 C 423.962 -2.04283 0.358224 0
M  V30 4566 C 424.387 -1.58422 -1.01411 0
M  V30 4567 O 423.745 -0.748179 -1.65142 0
M  V30 4568 C 423.793 -3.58152 0.419479 0
M  V30 4569 O 422.897 -4.08342 -0.577142 0
M  V30 4570 H 422.238 -0.645967 0.153698 0
M  V30 4571 H 424.768 -1.75108 1.05822 0
M  V30 4572 H 424.778 -4.07041 0.279636 0
M  V30 4573 H 423.453 -3.90886 1.42061 0
M  V30 4574 H 422.03 -3.70751 -0.399755 0
M  V30 4575 N 424.215 -0.530993 -1.48385 0
M  V30 4576 C 425.44 0.000729535 -2.074 0
M  V30 4577 C 425.865 1.27298 -1.3848 0
M  V30 4578 O 425.223 1.75599 -0.451081 0
M  V30 4579 C 425.271 0.206697 -3.60007 0
M  V30 4580 O 424.375 1.27514 -3.92191 0
M  V30 4581 H 423.716 -0.039583 -0.662819 0
M  V30 4582 H 426.246 -0.739194 -1.9078 0
M  V30 4583 H 426.256 0.42904 -4.05738 0
M  V30 4584 H 424.931 -0.722675 -4.09573 0
M  V30 4585 H 423.508 1.03537 -3.58238 0
M  V30 4586 N 425.693 1.55336 -0.266172 0
M  V30 4587 C 427.104 1.85236 0.233315 0
M  V30 4588 C 427.455 1.18816 1.56132 0
M  V30 4589 O 426.58 0.473307 2.11161 0
M  V30 4590 C 427.175 3.36059 0.430113 0
M  V30 4591 C 425.734 3.66116 0.873842 0
M  V30 4592 C 424.881 2.77274 -0.0380016 0
M  V30 4593 H 427.832 1.51004 -0.488214 0
M  V30 4594 H 427.853 3.58681 1.26998 0
M  V30 4595 H 427.365 3.84373 -0.536588 0
M  V30 4596 H 425.466 3.23295 1.85233 0
M  V30 4597 H 425.579 4.73699 0.717358 0
M  V30 4598 H 423.943 2.50198 0.476759 0
M  V30 4599 H 424.726 3.284 -1.00042 0
M  V30 4600 N 427.171 -0.0066808 1.57599 0
M  V30 4601 C 428.118 -1.00024 2.08 0
M  V30 4602 C 429.088 -1.34549 0.973943 0
M  V30 4603 O 430.273 -1.44502 1.24595 0
M  V30 4604 C 427.413 -2.2891 2.58252 0
M  V30 4605 C 426.526 -2.00346 3.82734 0
M  V30 4606 C 425.661 -3.23265 4.21513 0
M  V30 4607 C 424.7 -2.90357 5.3885 0
M  V30 4608 N 423.837 -4.05793 5.72954 0
M  V30 4609 H 428.677 -0.563499 2.92624 0
M  V30 4610 H 426.214 -0.266592 1.44664 0
M  V30 4611 H 428.172 -3.04247 2.85464 0
M  V30 4612 H 426.802 -2.70265 1.76512 0
M  V30 4613 H 425.854 -1.15406 3.62471 0
M  V30 4614 H 427.166 -1.72086 4.68175 0
M  V30 4615 H 426.32 -4.06953 4.49971 0
M  V30 4616 H 425.059 -3.54657 3.34768 0
M  V30 4617 H 424.064 -2.05075 5.10122 0
M  V30 4618 H 425.289 -2.60219 6.27266 0
M  V30 4619 H 423.235 -4.37094 4.89167 0
M  V30 4620 H 423.152 -3.81034 6.52954 0
M  V30 4621 H 424.42 -4.90289 6.06001 0
M  V30 4622 N 428.649 -1.55105 -0.279332 0
M  V30 4623 C 429.926 -1.66119 -1.03267 0
M  V30 4624 C 430.306 -0.523525 -2.04505 0
M  V30 4625 O 429.654 0.477194 -2.23462 0
M  V30 4626 C 429.864 -3.05067 -1.69515 0
M  V30 4627 C 431.212 -3.62606 -2.20912 0
M  V30 4628 O 432.236 -3.07659 -1.79512 0
M  V30 4629 O 431.095 -4.58861 -2.96831 0
M  V30 4630 H 428.189 -0.674429 -0.478618 0
M  V30 4631 H 430.735 -1.67446 -0.275694 0
M  V30 4632 H 429.507 -3.79311 -0.9612 0
M  V30 4633 H 429.13 -3.07611 -2.51915 0
M  V30 4634 N 430.127 0.543554 -1.4793 0
M  V30 4635 C 431.06 1.66556 -1.55995 0
M  V30 4636 C 432.038 1.57315 -0.411205 0
M  V30 4637 O 433.222 1.7798 -0.620922 0
M  V30 4638 C 430.349 3.04883 -1.47527 0
M  V30 4639 C 429.395 3.32526 -2.67074 0
M  V30 4640 S 430.228 3.20282 -4.29162 0
M  V30 4641 C 431.384 4.61079 -4.23269 0
M  V30 4642 H 431.617 1.59462 -2.50917 0
M  V30 4643 H 429.15 0.725456 -1.36296 0
M  V30 4644 H 431.108 3.84665 -1.43328 0
M  V30 4645 H 429.769 3.09429 -0.539665 0
M  V30 4646 H 428.962 4.33403 -2.5725 0
M  V30 4647 H 428.564 2.60389 -2.68466 0
M  V30 4648 H 430.856 5.52318 -3.92365 0
M  V30 4649 H 431.799 4.75959 -5.24279 0
M  V30 4650 H 432.207 4.39766 -3.5393 0
M  V30 4651 N 431.605 1.3629 0.791371 0
M  V30 4652 C 432.851 1.30605 1.55146 0
M  V30 4653 C 433.184 -0.115042 1.93859 0
M  V30 4654 O 432.459 -1.06798 1.62556 0
M  V30 4655 C 432.742 2.22692 2.82985 0
M  V30 4656 C 432.595 3.73489 2.50651 0
M  V30 4657 C 433.914 2.13588 3.84796 0
M  V30 4658 H 431.033 0.475761 0.562868 0
M  V30 4659 H 433.675 1.66825 0.909358 0
M  V30 4660 H 431.825 1.91933 3.37778 0
M  V30 4661 H 433.497 4.14758 2.01924 0
M  V30 4662 H 431.74 3.93021 1.83622 0
M  V30 4663 H 432.411 4.3333 3.41949 0
M  V30 4664 H 434.887 2.40659 3.39445 0
M  V30 4665 H 433.763 2.80195 4.71998 0
M  V30 4666 H 434.024 1.12256 4.27611 0
M  V30 4667 N 433.083 -1.0153 1.20538 0
M  V30 4668 C 434.332 -1.74558 1.01057 0
M  V30 4669 C 434.645 -1.90168 -0.457756 0
M  V30 4670 O 435.851 -2.60301 -0.771722 0
M  V30 4671 C 434.307 -3.13963 1.75941 0
M  V30 4672 C 433.915 -3.06361 3.26875 0
M  V30 4673 C 435.659 -3.91191 1.64832 0
M  V30 4674 C 433.566 -4.40782 3.94291 0
M  V30 4675 H 432.496 -0.654417 0.374505 0
M  V30 4676 H 435.147 -1.13521 1.44171 0
M  V30 4677 H 433.529 -3.75549 1.25614 0
M  V30 4678 H 434.703 -2.54074 3.84425 0
M  V30 4679 H 433.018 -2.42625 3.38411 0
M  V30 4680 H 435.615 -4.90644 2.12539 0
M  V30 4681 H 435.958 -4.11884 0.604745 0
M  V30 4682 H 436.491 -3.36236 2.12579 0
M  V30 4683 H 433.23 -4.25292 4.98805 0
M  V30 4684 H 432.75 -4.9307 3.41529 0
M  V30 4685 H 434.429 -5.09621 3.98617 0
M  V30 4686 N 434.561 -1.01147 -1.20859 0
M  V30 4687 C 435.81 -0.693214 -1.89413 0
M  V30 4688 C 436.123 0.779969 -1.79376 0
M  V30 4689 O 437.329 1.21057 -2.43017 0
M  V30 4690 C 435.785 -1.18949 -3.39675 0
M  V30 4691 C 435.393 -2.68921 -3.58309 0
M  V30 4692 C 437.137 -0.94642 -4.13815 0
M  V30 4693 C 435.044 -3.12056 -5.0237 0
M  V30 4694 H 433.974 -0.255595 -0.709357 0
M  V30 4695 H 436.625 -1.22349 -1.36759 0
M  V30 4696 H 435.007 -0.587228 -3.91622 0
M  V30 4697 H 436.181 -3.34652 -3.16772 0
M  V30 4698 H 434.496 -2.91314 -2.97532 0
M  V30 4699 H 437.093 -1.24417 -5.20023 0
M  V30 4700 H 437.436 0.117219 -4.16135 0
M  V30 4701 H 437.969 -1.5118 -3.67953 0
M  V30 4702 H 434.708 -4.17674 -5.05202 0
M  V30 4703 H 434.228 -2.51041 -5.44737 0
M  V30 4704 H 435.907 -3.04403 -5.70918 0
M  V30 4705 N 436.039 1.36541 -0.78704 0
M  V30 4706 C 437.285 1.99599 -0.358872 0
M  V30 4707 C 437.618 1.62323 1.06606 0
M  V30 4708 O 436.893 0.876858 1.73613 0
M  V30 4709 C 437.176 3.56327 -0.519944 0
M  V30 4710 C 437.029 4.03464 -1.98839 0
M  V30 4711 C 438.348 4.4005 0.0664737 0
M  V30 4712 H 435.467 0.725107 -0.131869 0
M  V30 4713 H 438.109 1.6199 -0.992936 0
M  V30 4714 H 436.259 3.88495 0.0198321 0
M  V30 4715 H 437.931 3.81793 -2.58905 0
M  V30 4716 H 436.174 3.55092 -2.49183 0
M  V30 4717 H 436.845 5.12439 -2.05207 0
M  V30 4718 H 439.321 4.14228 -0.394267 0
M  V30 4719 H 438.197 5.48847 -0.0762682 0
M  V30 4720 H 438.458 4.26655 1.15835 0
M  V30 4721 N 437.518 0.538854 1.48102 0
M  V30 4722 C 438.795 -0.0568108 1.95517 0
M  V30 4723 C 439.175 -1.50408 1.48124 0
M  V30 4724 O 438.523 -2.17133 0.711727 0
M  V30 4725 C 438.733 0.0696262 3.48931 0
M  V30 4726 C 440.081 -0.0851202 4.24515 0
M  V30 4727 O 441.105 -0.0037347 3.562 0
M  V30 4728 O 439.964 -0.257025 5.45895 0
M  V30 4729 H 437.058 -0.0743695 0.823649 0
M  V30 4730 H 439.604 0.604081 1.58584 0
M  V30 4731 H 438.376 1.07744 3.76174 0
M  V30 4732 H 437.999 -0.629714 3.92582 0
M  V30 4733 N 438.996 -1.55193 0.274407 0
M  V30 4734 C 440.242 -1.99877 -0.343086 0
M  V30 4735 C 440.575 -1.16256 -1.55558 0
M  V30 4736 O 439.85 -0.232462 -1.93106 0
M  V30 4737 C 440.133 -3.52706 -0.725965 0
M  V30 4738 C 439.986 -4.47081 0.493818 0
M  V30 4739 C 441.305 -4.11422 -1.56268 0
M  V30 4740 H 438.424 -0.726625 -0.123229 0
M  V30 4741 H 441.066 -1.86136 0.38121 0
M  V30 4742 H 439.216 -3.64546 -1.34307 0
M  V30 4743 H 440.888 -4.47186 1.13237 0
M  V30 4744 H 439.131 -4.1877 1.13201 0
M  V30 4745 H 439.802 -5.51699 0.18217 0
M  V30 4746 H 442.278 -4.02855 -1.04151 0
M  V30 4747 H 441.154 -5.18568 -1.79939 0
M  V30 4748 H 441.415 -3.61607 -2.54348 0
M  V30 4749 N 440.474 -0.00167713 -1.576 0
M  V30 4750 C 441.699 0.69739 -1.95323 0
M  V30 4751 C 442.124 1.6642 -0.876706 0
M  V30 4752 O 441.482 1.80548 0.165007 0
M  V30 4753 C 441.53 1.40403 -3.32144 0
M  V30 4754 O 440.634 2.5185 -3.26566 0
M  V30 4755 H 439.975 0.185373 -0.637599 0
M  V30 4756 H 442.505 -0.0553665 -2.04525 0
M  V30 4757 H 442.515 1.76707 -3.67748 0
M  V30 4758 H 441.19 0.695167 -4.10049 0
M  V30 4759 H 439.767 2.17861 -3.0264 0
M  V30 4760 N 441.952 1.55251 0.271103 0
M  V30 4761 C 443.2 1.75599 1.00047 0
M  V30 4762 C 443.521 0.561188 1.8675 0
M  V30 4763 O 442.791 -0.423846 1.9126 0
M  V30 4764 H 441.371 0.647562 0.372387 0
M  V30 4765 H 444.033 1.92656 0.294876 0
M  V30 4766 H 443.129 2.65766 1.6363 0
M  V30 4767 N 443.43 -0.535701 1.48216 0
M  V30 4768 C 444.655 -1.32149 1.59848 0
M  V30 4769 C 445.08 -1.86338 0.256842 0
M  V30 4770 O 444.438 -1.64107 -0.770632 0
M  V30 4771 C 444.486 -2.45224 2.64381 0
M  V30 4772 O 443.59 -3.48093 2.21144 0
M  V30 4773 H 442.931 -0.391634 0.536208 0
M  V30 4774 H 445.461 -0.645202 1.94161 0
M  V30 4775 H 445.471 -2.91491 2.85476 0
M  V30 4776 H 444.146 -2.05143 3.61786 0
M  V30 4777 H 442.723 -3.07984 2.10239 0
M  V30 4778 N 444.908 -1.36708 -0.784132 0
M  V30 4779 C 446.154 -1.31426 -1.54451 0
M  V30 4780 C 446.487 0.10476 -1.93917 0
M  V30 4781 O 445.762 1.05934 -1.6312 0
M  V30 4782 C 446.045 -2.24189 -2.818 0
M  V30 4783 C 445.898 -3.74813 -2.48667 0
M  V30 4784 C 447.217 -2.15626 -3.83658 0
M  V30 4785 H 444.336 -0.478739 -0.560337 0
M  V30 4786 H 446.978 -1.67305 -0.900498 0
M  V30 4787 H 445.128 -1.93722 -3.36755 0
M  V30 4788 H 446.8 -4.15823 -1.99722 0
M  V30 4789 H 445.043 -3.93989 -1.81535 0
M  V30 4790 H 445.714 -4.35138 -3.39646 0
M  V30 4791 H 448.19 -2.42456 -3.38163 0
M  V30 4792 H 447.066 -2.82694 -4.70506 0
M  V30 4793 H 447.327 -1.14522 -4.27009 0
M  V30 4794 N 446.386 1.0089 -1.21074 0
M  V30 4795 C 447.611 1.78727 -1.05221 0
M  V30 4796 C 448.036 1.83932 0.393795 0
M  V30 4797 O 447.394 1.28004 1.28393 0
M  V30 4798 C 447.442 3.20665 -1.64944 0
M  V30 4799 O 446.546 4.02632 -0.892273 0
M  V30 4800 H 445.887 0.550973 -0.370574 0
M  V30 4801 H 448.417 1.26847 -1.60534 0
M  V30 4802 H 448.427 3.71352 -1.69002 0
M  V30 4803 H 447.102 3.16191 -2.70177 0
M  V30 4804 H 445.679 3.61207 -0.926492 0
M  V30 4805 N 447.864 1.01787 1.20321 0
M  V30 4806 C 449.112 0.706538 1.89347 0
M  V30 4807 C 449.433 -0.766289 1.79313 0
M  V30 4808 O 448.703 -1.55126 1.19635 0
M  V30 4809 H 447.283 0.258348 0.700903 0
M  V30 4810 H 449.945 1.28974 1.46122 0
M  V30 4811 H 449.041 0.991066 2.95946 0
M  V30 4812 N 449.342 -1.36122 0.79427 0
M  V30 4813 C 450.272 -2.32551 0.210328 0
M  V30 4814 C 451.253 -1.56884 -0.657386 0
M  V30 4815 O 452.438 -1.85014 -0.590207 0
M  V30 4816 C 449.568 -3.41128 -0.651819 0
M  V30 4817 C 448.522 -4.27842 0.116395 0
M  V30 4818 C 447.848 -5.2763 -0.86666 0
M  V30 4819 C 449.148 -5.05647 1.30837 0
M  V30 4820 H 450.842 -2.81636 1.01594 0
M  V30 4821 H 448.388 -1.35407 0.489981 0
M  V30 4822 H 450.341 -4.07581 -1.07031 0
M  V30 4823 H 449.065 -2.90622 -1.49019 0
M  V30 4824 H 447.724 -3.62952 0.515915 0
M  V30 4825 H 447.372 -4.73395 -1.70019 0
M  V30 4826 H 447.072 -5.86514 -0.35705 0
M  V30 4827 H 448.596 -5.96955 -1.28361 0
M  V30 4828 H 450.01 -5.65113 0.965393 0
M  V30 4829 H 448.407 -5.73967 1.75161 0
M  V30 4830 H 449.477 -4.37006 2.10128 0
M  V30 4831 N 450.82 -0.546701 -1.47814 0
M  V30 4832 C 452.048 -0.0232857 -2.06887 0
M  V30 4833 C 452.463 1.26571 -1.4009 0
M  V30 4834 O 451.82 1.7569 -0.493906 0
M  V30 4835 C 451.871 0.186975 -3.61016 0
M  V30 4836 O 451.592 -1.05097 -4.25307 0
M  V30 4837 C 453.093 0.748872 -4.36929 0
M  V30 4838 H 450.313 -0.0410763 -0.669742 0
M  V30 4839 H 452.857 -0.757117 -1.89968 0
M  V30 4840 H 451.012 0.870903 -3.77484 0
M  V30 4841 H 451.426 -0.842121 -5.17695 0
M  V30 4842 H 452.9 0.845334 -5.45489 0
M  V30 4843 H 453.377 1.75772 -4.02493 0
M  V30 4844 H 453.983 0.100979 -4.2518 0
M  V30 4845 N 452.299 1.55045 -0.282633 0
M  V30 4846 C 453.229 2.2579 0.595066 0
M  V30 4847 C 454.21 1.25074 1.15284 0
M  V30 4848 O 455.395 1.5381 1.18559 0
M  V30 4849 C 452.525 2.98472 1.77572 0
M  V30 4850 C 451.479 4.0618 1.34914 0
M  V30 4851 C 450.805 4.66477 2.6135 0
M  V30 4852 C 452.105 5.1996 0.493821 0
M  V30 4853 H 453.799 2.994 0.00505653 0
M  V30 4854 H 451.345 1.44 0.000992001 0
M  V30 4855 H 453.298 3.46677 2.39568 0
M  V30 4856 H 452.022 2.2241 2.39168 0
M  V30 4857 H 450.681 3.58797 0.752338 0
M  V30 4858 H 450.329 3.87074 3.2122 0
M  V30 4859 H 450.029 5.39207 2.33516 0
M  V30 4860 H 451.553 5.17435 3.24181 0
M  V30 4861 H 452.967 5.64172 1.01898 0
M  V30 4862 H 451.364 5.99299 0.310047 0
M  V30 4863 H 452.434 4.82462 -0.485593 0
M  V30 4864 N 453.777 0.010035 1.57597 0
M  V30 4865 C 454.724 -0.978122 2.09049 0
M  V30 4866 C 455.694 -1.33509 0.988159 0
M  V30 4867 O 456.879 -1.43172 1.26121 0
M  V30 4868 C 454.019 -2.26158 2.60666 0
M  V30 4869 C 453.132 -1.96275 3.84838 0
M  V30 4870 C 452.267 -3.18776 4.24918 0
M  V30 4871 C 451.306 -2.84625 5.41899 0
M  V30 4872 N 450.443 -3.99693 5.77226 0
M  V30 4873 H 455.283 -0.532431 2.93205 0
M  V30 4874 H 452.82 -0.251234 1.44939 0
M  V30 4875 H 454.778 -3.01202 2.88675 0
M  V30 4876 H 453.408 -2.68378 1.79369 0
M  V30 4877 H 452.46 -1.11555 3.63675 0
M  V30 4878 H 453.772 -1.67111 4.69974 0
M  V30 4879 H 452.926 -4.02157 4.54262 0
M  V30 4880 H 451.665 -3.51087 3.38511 0
M  V30 4881 H 450.67 -1.99653 5.12268 0
M  V30 4882 H 451.895 -2.53551 6.29991 0
M  V30 4883 H 449.841 -4.31882 4.93776 0
M  V30 4884 H 449.758 -3.74087 6.56959 0
M  V30 4885 H 451.026 -4.83834 6.11167 0
M  V30 4886 N 455.255 -1.55392 -0.262866 0
M  V30 4887 C 456.185 -1.91978 -1.32917 0
M  V30 4888 C 457.166 -0.7828 -1.51017 0
M  V30 4889 O 458.351 -1.04178 -1.63892 0
M  V30 4890 C 455.481 -2.20055 -2.68687 0
M  V30 4891 C 454.435 -3.35854 -2.65304 0
M  V30 4892 C 453.761 -3.49435 -4.04721 0
M  V30 4893 C 455.061 -4.71977 -2.23685 0
M  V30 4894 H 456.755 -2.81292 -1.02544 0
M  V30 4895 H 454.301 -1.3534 -0.491846 0
M  V30 4896 H 456.254 -2.44237 -3.43404 0
M  V30 4897 H 454.978 -1.27551 -3.00663 0
M  V30 4898 H 453.637 -3.11655 -1.93045 0
M  V30 4899 H 453.285 -2.54379 -4.33936 0
M  V30 4900 H 452.985 -4.27297 -4.0335 0
M  V30 4901 H 454.509 -3.7592 -4.81161 0
M  V30 4902 H 455.923 -4.95637 -2.88127 0
M  V30 4903 H 454.32 -5.52828 -2.33456 0
M  V30 4904 H 455.39 -4.70115 -1.18827 0
M  V30 4905 N 456.733 0.527833 -1.48498 0
M  V30 4906 C 457.666 1.64892 -1.57753 0
M  V30 4907 C 458.644 1.5687 -0.427867 0
M  V30 4908 O 459.828 1.77311 -0.639764 0
M  V30 4909 C 456.955 3.03301 -1.50752 0
M  V30 4910 C 456.001 3.29675 -2.70586 0
M  V30 4911 S 456.834 3.15712 -4.32535 0
M  V30 4912 C 457.99 4.56564 -4.28136 0
M  V30 4913 H 458.223 1.56792 -2.52594 0
M  V30 4914 H 455.756 0.710959 -1.37057 0
M  V30 4915 H 457.714 3.83123 -1.474 0
M  V30 4916 H 456.375 3.08839 -0.572454 0
M  V30 4917 H 455.568 4.3065 -2.61833 0
M  V30 4918 H 455.17 2.57526 -2.71212 0
M  V30 4919 H 457.462 5.48126 -3.98201 0
M  V30 4920 H 458.405 4.70371 -5.29298 0
M  V30 4921 H 458.813 4.35987 -3.58574 0
M  V30 4922 N 458.211 1.37122 0.776871 0
M  V30 4923 C 459.158 1.3247 1.88998 0
M  V30 4924 C 460.128 0.191143 1.64997 0
M  V30 4925 O 461.313 0.379683 1.86984 0
M  V30 4926 C 458.453 1.13241 3.25992 0
M  V30 4927 C 457.566 2.35782 3.61982 0
M  V30 4928 C 456.701 2.09465 4.88158 0
M  V30 4929 C 455.74 3.279 5.16864 0
M  V30 4930 N 454.877 3.01167 6.34226 0
M  V30 4931 H 459.717 2.27642 1.9231 0
M  V30 4932 H 457.254 1.13125 0.94027 0
M  V30 4933 H 459.212 1.00115 4.0501 0
M  V30 4934 H 457.842 0.217186 3.22069 0
M  V30 4935 H 456.894 2.59666 2.77989 0
M  V30 4936 H 458.206 3.24125 3.79137 0
M  V30 4937 H 457.36 1.93341 5.75069 0
M  V30 4938 H 456.099 1.18452 4.73097 0
M  V30 4939 H 455.104 3.44569 4.2843 0
M  V30 4940 H 456.329 4.19757 5.33836 0
M  V30 4941 H 454.275 2.12779 6.20533 0
M  V30 4942 H 454.192 3.83052 6.51772 0
M  V30 4943 H 455.46 2.88649 7.24087 0
M  V30 4944 N 459.689 -1.00246 1.21608 0
M  V30 4945 C 460.917 -1.77631 1.06089 0
M  V30 4946 C 461.332 -1.84746 -0.38916 0
M  V30 4947 O 460.689 -1.31068 -1.26994 0
M  V30 4948 C 460.74 -3.21415 1.65453 0
M  V30 4949 O 460.461 -3.14703 3.04785 0
M  V30 4950 C 461.962 -4.15289 1.55079 0
M  V30 4951 H 459.182 -0.558162 0.37242 0
M  V30 4952 H 461.726 -1.26093 1.60999 0
M  V30 4953 H 459.881 -3.70053 1.14629 0
M  V30 4954 H 460.295 -4.05056 3.33212 0
M  V30 4955 H 461.769 -5.13965 2.01355 0
M  V30 4956 H 462.246 -4.36279 0.505665 0
M  V30 4957 H 462.852 -3.72543 2.05163 0
M  V30 4958 N 461.167 -1.02423 -1.1978 0
M  V30 4959 C 462.392 -0.7373 -1.93852 0
M  V30 4960 C 462.817 0.696923 -1.74713 0
M  V30 4961 O 462.175 1.48056 -1.04638 0
M  V30 4962 C 462.223 -1.08783 -3.438 0
M  V30 4963 O 461.327 -0.20383 -4.11896 0
M  V30 4964 H 460.668 -0.27284 -0.605355 0
M  V30 4965 H 463.198 -1.36966 -1.51992 0
M  V30 4966 H 463.208 -1.04276 -3.9445 0
M  V30 4967 H 461.883 -2.13274 -3.57053 0
M  V30 4968 H 460.46 -0.307091 -3.71633 0
M  V30 4969 N 462.645 1.35699 -0.801477 0
M  V30 4970 C 463.891 1.99208 -0.380022 0
M  V30 4971 C 464.224 1.63445 1.04878 0
M  V30 4972 O 463.499 0.895223 1.72673 0
M  V30 4973 C 463.782 3.55755 -0.557708 0
M  V30 4974 C 463.635 4.01332 -2.03107 0
M  V30 4975 C 464.954 4.40096 0.0197968 0
M  V30 4976 H 462.073 0.723667 -0.139552 0
M  V30 4977 H 464.715 1.60928 -1.01006 0
M  V30 4978 H 462.865 3.88494 -0.0213741 0
M  V30 4979 H 464.537 3.79026 -2.62939 0
M  V30 4980 H 462.78 3.52429 -2.52936 0
M  V30 4981 H 463.451 5.10234 -2.1063 0
M  V30 4982 H 465.927 4.13786 -0.438179 0
M  V30 4983 H 464.803 5.48735 -0.134477 0
M  V30 4984 H 465.064 4.2786 1.11303 0
M  V30 4985 N 464.123 0.554532 1.47522 0
M  V30 4986 C 465.363 0.0317994 2.04375 0
M  V30 4987 C 465.727 -1.29242 1.41988 0
M  V30 4988 O 466.928 -1.90269 1.89872 0
M  V30 4989 C 465.199 -0.0623344 3.57346 0
M  V30 4990 S 466.758 -0.531578 4.35568 0
M  V30 4991 H 463.576 0.0238553 0.7106 0
M  V30 4992 H 466.178 0.74066 1.80927 0
M  V30 4993 H 464.882 0.905857 4.00278 0
M  V30 4994 H 464.413 -0.794831 3.85287 0
M  V30 4995 H 466.428 -1.79175 4.62721 0
M  V30 4996 N 465.601 -1.54893 0.290851 0
M  V30 4997 C 466.511 -2.26812 -0.59945 0
M  V30 4998 C 467.527 -1.29963 -1.15696 0
M  V30 4999 O 468.703 -1.62928 -1.18391 0
M  V30 5000 C 465.768 -2.98716 -1.75982 0
M  V30 5001 C 464.829 -4.1108 -1.2374 0
M  V30 5002 C 464.062 -4.79546 -2.34246 0
M  V30 5003 O 464.285 -4.47309 -3.53936 0
M  V30 5004 O 463.219 -5.67165 -2.01512 0
M  V30 5005 H 467.045 -3.03696 -0.0163561 0
M  V30 5006 H 464.63 -1.49289 0.0576755 0
M  V30 5007 H 466.512 -3.43851 -2.43607 0
M  V30 5008 H 465.187 -2.24737 -2.3297 0
M  V30 5009 H 464.094 -3.70367 -0.527163 0
M  V30 5010 H 465.427 -4.87007 -0.71307 0
M  V30 5011 N 467.08 -0.0183926 -1.57589 0
M  V30 5012 C 468.013 1.00148 -2.0505 0
M  V30 5013 C 468.991 1.32387 -0.944058 0
M  V30 5014 O 470.175 1.44237 -1.21358 0
M  V30 5015 C 467.302 2.32435 -2.46357 0
M  V30 5016 C 466.348 2.15731 -3.67916 0
M  V30 5017 S 467.181 1.46613 -5.15039 0
M  V30 5018 C 468.337 2.80293 -5.59631 0
M  V30 5019 H 468.57 0.597429 -2.91235 0
M  V30 5020 H 466.103 0.193002 -1.53189 0
M  V30 5021 H 468.061 3.0849 -2.70822 0
M  V30 5022 H 466.722 2.69975 -1.60537 0
M  V30 5023 H 465.915 3.13502 -3.9463 0
M  V30 5024 H 465.517 1.4782 -3.43548 0
M  V30 5025 H 467.809 3.76557 -5.63215 0
M  V30 5026 H 468.752 2.58256 -6.59325 0
M  V30 5027 H 469.16 2.85047 -4.87246 0
M  V30 5028 N 468.558 1.5553 0.254621 0
M  V30 5029 C 469.488 1.9268 1.31897 0
M  V30 5030 C 470.469 0.790797 1.506 0
M  V30 5031 O 471.654 1.05045 1.63337 0
M  V30 5032 C 468.784 2.21477 2.67517 0
M  V30 5033 C 467.738 3.37256 2.63519 0
M  V30 5034 C 467.064 3.51576 4.02862 0
M  V30 5035 C 468.364 4.73157 2.21179 0
M  V30 5036 H 470.058 2.81832 1.01051 0
M  V30 5037 H 467.604 1.35599 0.484662 0
M  V30 5038 H 469.557 2.46055 3.42104 0
M  V30 5039 H 468.281 1.29144 2.99982 0
M  V30 5040 H 466.94 3.12675 1.9139 0
M  V30 5041 H 466.588 2.56676 4.32581 0
M  V30 5042 H 466.288 4.2943 4.01078 0
M  V30 5043 H 467.812 3.78467 4.79161 0
M  V30 5044 H 469.226 4.97158 2.85494 0
M  V30 5045 H 467.623 5.54058 2.30521 0
M  V30 5046 H 468.693 4.70739 1.16332 0
M  V30 5047 N 470.036 -0.519951 1.48776 0
M  V30 5048 C 471.313 -1.28123 1.47797 0
M  V30 5049 C 471.693 -2.10196 0.195157 0
M  V30 5050 O 471.041 -2.13167 -0.822925 0
M  V30 5051 C 471.251 -2.15413 2.74587 0
M  V30 5052 C 472.599 -2.75225 3.23321 0
M  V30 5053 O 473.623 -2.25694 2.75574 0
M  V30 5054 O 472.482 -3.65346 4.06429 0
M  V30 5055 H 469.576 -0.578793 0.590701 0
M  V30 5056 H 472.122 -0.535779 1.6102 0
M  V30 5057 H 470.894 -1.54617 3.59457 0
M  V30 5058 H 470.517 -2.97186 2.64132 0
M  V30 5059 N 471.514 -1.37532 -0.769588 0
M  V30 5060 C 472.742 -1.36059 -1.55871 0
M  V30 5061 C 473.157 0.053544 -1.88724 0
M  V30 5062 O 472.514 1.01591 -1.5161 0
M  V30 5063 C 472.565 -2.20107 -2.86767 0
M  V30 5064 O 472.286 -3.56009 -2.55321 0
M  V30 5065 C 473.787 -2.26636 -3.80987 0
M  V30 5066 H 471.007 -0.465967 -0.482821 0
M  V30 5067 H 473.551 -1.80901 -0.953686 0
M  V30 5068 H 471.706 -1.78768 -3.43687 0
M  V30 5069 H 472.12 -4.0009 -3.39158 0
M  V30 5070 H 473.594 -2.89763 -4.69831 0
M  V30 5071 H 474.071 -1.2754 -4.20274 0
M  V30 5072 H 474.677 -2.68296 -3.29996 0
M  V30 5073 N 472.992 0.995999 -1.22138 0
M  V30 5074 C 473.922 2.10387 -1.01289 0
M  V30 5075 C 474.903 1.69975 0.0651454 0
M  V30 5076 O 476.088 1.9396 -0.0964628 0
M  V30 5077 C 473.218 3.42312 -0.586517 0
M  V30 5078 C 472.172 3.96558 -1.61014 0
M  V30 5079 C 471.498 5.24494 -1.0397 0
M  V30 5080 C 472.798 4.27595 -2.99933 0
M  V30 5081 H 474.492 2.28086 -1.93951 0
M  V30 5082 H 472.038 1.09607 -0.933928 0
M  V30 5083 H 473.991 4.19223 -0.427793 0
M  V30 5084 H 472.715 3.24431 0.375761 0
M  V30 5085 H 471.374 3.21776 -1.75658 0
M  V30 5086 H 471.022 5.02953 -0.0688703 0
M  V30 5087 H 470.722 5.61755 -1.72352 0
M  V30 5088 H 472.246 6.04042 -0.892494 0
M  V30 5089 H 473.66 4.95315 -2.8868 0
M  V30 5090 H 472.057 4.76021 -3.6541 0
M  V30 5091 H 473.127 3.35498 -3.50099 0
M  V30 5092 N 474.47 1.03057 1.19235 0
M  V30 5093 C 475.695 0.74757 1.93458 0
M  V30 5094 C 476.12 -0.687648 1.7508 0
M  V30 5095 O 475.478 -1.47499 1.05422 0
M  V30 5096 C 475.526 1.10604 3.43219 0
M  V30 5097 O 474.63 0.225671 4.11782 0
M  V30 5098 H 473.971 0.276047 0.603899 0
M  V30 5099 H 476.501 1.3777 1.51263 0
M  V30 5100 H 476.511 1.06366 3.93891 0
M  V30 5101 H 475.186 2.15165 3.55917 0
M  V30 5102 H 473.763 0.326795 3.71465 0
M  V30 5103 N 475.948 -1.35272 0.808662 0
M  V30 5104 C 477.225 -1.93077 0.313181 0
M  V30 5105 C 477.605 -1.73847 -1.19752 0
M  V30 5106 O 476.953 -1.1087 -1.998 0
M  V30 5107 C 477.163 -3.41347 0.726859 0
M  V30 5108 C 478.511 -4.18493 0.717532 0
M  V30 5109 O 479.535 -3.4987 0.668535 0
M  V30 5110 O 478.394 -5.40937 0.777779 0
M  V30 5111 H 475.488 -0.822885 0.0824018 0
M  V30 5112 H 478.034 -1.44335 0.892499 0
M  V30 5113 H 476.806 -3.49082 1.76797 0
M  V30 5114 H 476.429 -3.97411 0.122461 0
M  V30 5115 N 477.426 -0.562348 -1.47226 0
M  V30 5116 C 478.703 0.0256985 -1.95583 0
M  V30 5117 C 479.083 1.48032 -1.50498 0
M  V30 5118 O 478.431 2.15973 -0.746181 0
M  V30 5119 C 478.641 -0.125129 -3.48776 0
M  V30 5120 C 479.989 0.0175728 -4.24596 0
M  V30 5121 O 481.013 -0.0529341 -3.56161 0
M  V30 5122 O 479.872 0.170145 -5.46235 0
M  V30 5123 H 476.966 0.0612565 -0.824728 0
M  V30 5124 H 479.512 -0.629233 -1.57603 0
M  V30 5125 H 478.284 -1.13715 -3.74412 0
M  V30 5126 H 477.907 0.567178 -3.93534 0
M  V30 5127 N 478.904 1.54736 -0.299062 0
M  V30 5128 C 480.181 1.92187 0.363802 0
M  V30 5129 C 480.561 1.22607 1.71845 0
M  V30 5130 O 479.909 0.361141 2.25628 0
M  V30 5131 C 480.119 3.45678 0.480377 0
M  V30 5132 C 481.467 4.17885 0.752147 0
M  V30 5133 O 482.491 3.51702 0.564264 0
M  V30 5134 O 481.35 5.35048 1.11294 0
M  V30 5135 H 478.444 0.801681 0.203066 0
M  V30 5136 H 480.99 1.66115 -0.346978 0
M  V30 5137 H 479.762 3.88443 -0.471999 0
M  V30 5138 H 479.385 3.77779 1.2397 0
M  V30 5139 N 480.382 0.0267497 1.57577 0
M  V30 5140 C 481.612 -0.6617 1.95717 0
M  V30 5141 C 482.02 -1.66331 0.901706 0
M  V30 5142 O 481.363 -1.83273 -0.125241 0
M  V30 5143 C 481.425 -1.42649 3.29987 0
M  V30 5144 C 481.089 -0.583482 4.5326 0
M  V30 5145 C 482.086 0.140221 5.19711 0
M  V30 5146 C 479.771 -0.521581 4.99585 0
M  V30 5147 C 481.765 0.914523 6.30805 0
M  V30 5148 C 479.452 0.256428 6.10562 0
M  V30 5149 C 480.45 0.973189 6.76031 0
M  V30 5150 O 480.138 1.73845 7.84878 0
M  V30 5151 H 479.87 -0.187483 0.649481 0
M  V30 5152 H 482.424 0.0820847 2.05236 0
M  V30 5153 H 480.654 -2.21536 3.16952 0
M  V30 5154 H 482.343 -2.00282 3.53047 0
M  V30 5155 H 483.109 0.101716 4.84893 0
M  V30 5156 H 478.988 -1.06904 4.48433 0
M  V30 5157 H 482.532 1.4745 6.81839 0
M  V30 5158 H 478.429 0.296657 6.44818 0
M  V30 5159 H 479.197 1.65797 8.01532 0
M  V30 5160 N 481.861 -1.55662 -0.24637 0
M  V30 5161 C 483.107 -1.77782 -0.975779 0
M  V30 5162 C 483.44 -0.592103 -1.84953 0
M  V30 5163 O 482.715 0.409588 -1.90138 0
M  V30 5164 C 482.998 -3.09788 -1.83584 0
M  V30 5165 C 482.851 -4.38764 -0.990241 0
M  V30 5166 C 484.17 -3.38029 -2.81823 0
M  V30 5167 H 481.289 -0.646789 -0.353317 0
M  V30 5168 H 483.931 -1.88398 -0.246248 0
M  V30 5169 H 482.081 -3.00869 -2.45784 0
M  V30 5170 H 483.753 -4.59675 -0.386897 0
M  V30 5171 H 481.996 -4.32798 -0.294626 0
M  V30 5172 H 482.667 -5.27514 -1.62584 0
M  V30 5173 H 485.143 -3.46915 -2.2976 0
M  V30 5174 H 484.019 -4.3161 -3.39122 0
M  V30 5175 H 484.28 -2.58968 -3.58313 0
M  V30 5176 N 483.339 0.512053 -1.4905 0
M  V30 5177 C 484.287 1.63568 -1.65373 0
M  V30 5178 C 485.281 1.61228 -0.519806 0
M  V30 5179 O 486.487 1.65869 -0.699101 0
M  V30 5180 H 482.862 0.542019 -0.521267 0
M  V30 5181 H 484.833 1.4695 -2.59708 0
M  V30 5182 C 483.582 3.01761 -1.7273 0
M  V30 5183 H 482.905 3.04263 -2.59353 0
M  V30 5184 H 484.345 3.79948 -1.8819 0
M  V30 5185 C 482.804 3.33609 -0.46973 0
M  V30 5186 O 483.334 3.99607 0.409492 0
M  V30 5187 N 481.54 2.88651 -0.336003 0
M  V30 5188 H 481.087 2.35119 -1.05247 0
M  V30 5189 H 481.045 3.10328 0.504363 0
M  V30 5190 N 484.817 1.37938 0.762283 0
M  V30 5191 C 486.063 1.33866 1.52341 0
M  V30 5192 C 486.396 -0.0738961 1.94059 0
M  V30 5193 O 485.671 -1.03326 1.64785 0
M  V30 5194 C 485.954 2.28644 2.78197 0
M  V30 5195 C 485.807 3.78722 2.42672 0
M  V30 5196 C 487.126 2.21702 3.80179 0
M  V30 5197 H 484.245 0.487593 0.55265 0
M  V30 5198 H 486.887 1.68717 0.873767 0
M  V30 5199 H 485.037 1.99055 3.33631 0
M  V30 5200 H 486.709 4.18948 1.93081 0
M  V30 5201 H 484.952 3.96827 1.75244 0
M  V30 5202 H 485.623 4.40486 3.3268 0
M  V30 5203 H 488.099 2.47805 3.34263 0
M  V30 5204 H 486.975 2.90143 4.65949 0
M  V30 5205 H 487.236 1.21301 4.25133 0
M  V30 5206 N 486.295 -0.989507 1.22664 0
M  V30 5207 C 487.258 -2.06183 1.00106 0
M  V30 5208 C 488.258 -1.60765 -0.0337726 0
M  V30 5209 O 489.448 -1.72989 0.205072 0
M  V30 5210 C 486.58 -3.37021 0.51279 0
M  V30 5211 H 487.773 -2.27629 1.95256 0
M  V30 5212 H 485.326 -1.16158 1.0458 0
M  V30 5213 H 486.061 -3.21261 -0.442917 0
M  V30 5214 H 485.846 -3.71323 1.25942 0
M  V30 5215 H 487.336 -4.1591 0.375315 0
M  V30 5216 N 487.773 -1.03688 -1.18687 0
M  V30 5217 C 488.998 -0.757819 -1.93059 0
M  V30 5218 C 489.423 0.678353 -1.75442 0
M  V30 5219 O 488.781 1.46938 -1.06203 0
M  V30 5220 C 488.829 -1.12423 -3.42627 0
M  V30 5221 O 487.933 -0.247505 -4.11657 0
M  V30 5222 H 487.274 -0.279245 -0.602427 0
M  V30 5223 H 489.804 -1.3857 -1.5053 0
M  V30 5224 H 489.814 -1.08454 -3.93322 0
M  V30 5225 H 488.489 -2.17049 -3.54771 0
M  V30 5226 H 487.066 -0.34649 -3.71287 0
M  V30 5227 N 489.251 1.34841 -0.815825 0
M  V30 5228 C 490.498 1.98499 -0.400535 0
M  V30 5229 C 490.826 1.64699 1.03463 0
M  V30 5230 O 490.081 0.907006 1.73412 0
M  V30 5231 C 490.38 3.53273 -0.541541 0
M  V30 5232 C 490.046 4.06966 -1.94138 0
M  V30 5233 C 488.708 4.21341 -2.32433 0
M  V30 5234 C 491.06 4.35933 -2.85677 0
M  V30 5235 C 488.388 4.62007 -3.61617 0
M  V30 5236 C 490.74 4.78042 -4.14317 0
M  V30 5237 C 489.404 4.90622 -4.52599 0
M  V30 5238 H 488.674 0.72636 -0.146566 0
M  V30 5239 H 491.321 1.60902 -1.0384 0
M  V30 5240 H 489.626 3.91387 0.179741 0
M  V30 5241 H 491.323 4.00497 -0.20085 0
M  V30 5242 H 487.913 3.96235 -1.63388 0
M  V30 5243 H 492.097 4.24372 -2.57337 0
M  V30 5244 H 487.353 4.69937 -3.91113 0
M  V30 5245 H 491.527 4.99415 -4.85342 0
M  V30 5246 H 489.154 5.2189 -5.52752 0
M  V30 5247 N 490.729 0.570148 1.46925 0
M  V30 5248 C 491.677 -0.183181 2.31878 0
M  V30 5249 C 492.671 -0.896721 1.43719 0
M  V30 5250 O 493.877 -0.816536 1.60414 0
M  V30 5251 H 490.252 -0.077944 0.74795 0
M  V30 5252 H 492.223 0.552312 2.93244 0
M  V30 5253 C 490.972 -1.19172 3.2664 0
M  V30 5254 H 490.295 -0.652088 3.94446 0
M  V30 5255 H 491.735 -1.68946 3.88887 0
M  V30 5256 C 490.194 -2.24627 2.51086 0
M  V30 5257 O 490.724 -3.31773 2.26472 0
M  V30 5258 N 488.93 -1.98898 2.11867 0
M  V30 5259 H 488.477 -1.11777 2.32086 0
M  V30 5260 H 488.435 -2.6967 1.61634 0
M  V30 5261 N 492.207 -1.54576 0.307264 0
M  V30 5262 C 493.117 -2.27435 -0.57536 0
M  V30 5263 C 494.133 -1.31183 -1.14311 0
M  V30 5264 O 495.309 -1.64175 -1.16656 0
M  V30 5265 C 492.374 -3.00566 -1.72803 0
M  V30 5266 C 491.435 -4.12369 -1.19373 0
M  V30 5267 C 490.668 -4.82003 -2.29147 0
M  V30 5268 O 490.891 -4.51038 -3.49171 0
M  V30 5269 O 489.825 -5.69271 -1.95485 0
M  V30 5270 H 493.651 -3.03696 0.0158558 0
M  V30 5271 H 491.236 -1.49219 0.0735064 0
M  V30 5272 H 493.118 -3.46416 -2.39946 0
M  V30 5273 H 491.793 -2.27195 -2.30574 0
M  V30 5274 H 490.7 -3.70905 -0.487851 0
M  V30 5275 H 492.033 -4.87736 -0.661376 0
M  V30 5276 N 493.685 -0.035106 -1.57561 0
M  V30 5277 C 494.632 0.94474 -2.10578 0
M  V30 5278 C 495.602 1.3192 -1.00927 0
M  V30 5279 O 496.787 1.41147 -1.28382 0
M  V30 5280 C 493.927 2.21982 -2.64231 0
M  V30 5281 C 493.04 1.90128 -3.87911 0
M  V30 5282 C 492.175 3.11975 -4.29936 0
M  V30 5283 C 491.214 2.75968 -5.46359 0
M  V30 5284 N 490.351 3.90459 -5.83512 0
M  V30 5285 H 495.191 0.485717 -2.94015 0
M  V30 5286 H 492.728 0.228143 -1.4532 0
M  V30 5287 H 494.686 2.96572 -2.9343 0
M  V30 5288 H 493.316 2.6549 -1.83616 0
M  V30 5289 H 492.368 1.05755 -3.65404 0
M  V30 5290 H 493.68 1.59613 -4.72573 0
M  V30 5291 H 492.834 3.9488 -4.60603 0
M  V30 5292 H 491.573 3.45657 -3.44053 0
M  V30 5293 H 490.578 1.91478 -5.1538 0
M  V30 5294 H 491.803 2.43497 -6.33945 0
M  V30 5295 H 489.749 4.23971 -5.00584 0
M  V30 5296 H 489.666 3.63588 -6.62827 0
M  V30 5297 H 490.934 4.7405 -6.18787 0
M  V30 5298 N 495.163 1.55791 0.238111 0
M  V30 5299 C 496.126 1.90239 1.27835 0
M  V30 5300 C 497.126 0.779552 1.4064 0
M  V30 5301 O 498.316 1.04747 1.3919 0
M  V30 5302 C 495.448 2.13859 2.65475 0
M  V30 5303 H 496.641 2.83262 0.985034 0
M  V30 5304 H 494.194 1.48818 0.477799 0
M  V30 5305 H 494.929 1.23334 2.99932 0
M  V30 5306 H 494.714 2.95643 2.57561 0
M  V30 5307 H 496.204 2.41664 3.40571 0
M  V30 5308 N 496.642 -0.504142 1.49319 0
M  V30 5309 C 497.574 -1.62265 1.61872 0
M  V30 5310 C 498.587 -1.54881 0.501573 0
M  V30 5311 O 499.776 -1.6087 0.773497 0
M  V30 5312 C 496.876 -3.01042 1.55651 0
M  V30 5313 C 496.049 -3.33642 2.82845 0
M  V30 5314 C 495.108 -4.51816 2.69719 0
M  V30 5315 O 494.134 -4.53755 3.4365 0
M  V30 5316 N 495.336 -5.51543 1.81055 0
M  V30 5317 H 498.101 -1.51924 2.58339 0
M  V30 5318 H 495.662 -0.691954 1.46368 0
M  V30 5319 H 497.654 -3.78013 1.44528 0
M  V30 5320 H 496.224 -3.05323 0.670546 0
M  V30 5321 H 495.444 -2.45598 3.08343 0
M  V30 5322 H 496.732 -3.5222 3.67177 0
M  V30 5323 H 496.13 -5.52774 1.20241 0
M  V30 5324 H 494.687 -6.27629 1.75856 0
M  V30 5325 N 498.12 -1.38341 -0.754957 0
M  V30 5326 C 499.531 -1.30803 -1.3322 0
M  V30 5327 C 499.882 0.0368 -1.96165 0
M  V30 5328 O 499.007 0.938844 -1.94974 0
M  V30 5329 C 499.602 -2.3688 -2.42225 0
M  V30 5330 C 498.161 -2.32925 -2.95674 0
M  V30 5331 C 497.308 -2.19819 -1.69042 0
M  V30 5332 H 500.259 -1.48719 -0.553937 0
M  V30 5333 H 500.28 -2.02517 -3.22129 0
M  V30 5334 H 499.792 -3.34747 -1.96383 0
M  V30 5335 H 497.893 -1.38635 -3.45848 0
M  V30 5336 H 498.006 -3.27008 -3.50146 0
M  V30 5337 H 496.37 -1.66648 -1.92615 0
M  V30 5338 H 497.153 -3.19625 -1.25279 0
M  V30 5339 N 499.598 0.982988 -1.23187 0
M  V30 5340 C 500.844 1.72648 -1.06398 0
M  V30 5341 C 501.177 1.90066 0.398561 0
M  V30 5342 O 500.452 1.45105 1.29518 0
M  V30 5343 C 500.735 3.12627 -1.78707 0
M  V30 5344 C 500.588 3.02795 -3.32618 0
M  V30 5345 C 501.907 4.11997 -1.54747 0
M  V30 5346 H 499.026 0.626649 -0.387918 0
M  V30 5347 H 501.668 1.14455 -1.51658 0
M  V30 5348 H 499.818 3.62308 -1.40234 0
M  V30 5349 H 501.49 2.60659 -3.80598 0
M  V30 5350 H 499.733 2.39362 -3.61785 0
M  V30 5351 H 500.404 4.01893 -3.78399 0
M  V30 5352 H 502.88 3.71114 -1.88186 0
M  V30 5353 H 501.756 5.08037 -2.07821 0
M  V30 5354 H 502.017 4.39462 -0.482249 0
M  V30 5355 N 501.076 1.04316 1.18135 0
M  V30 5356 C 502.301 0.768047 1.92655 0
M  V30 5357 C 502.726 -0.66904 1.758 0
M  V30 5358 O 502.084 -1.46372 1.06981 0
M  V30 5359 C 502.132 1.14239 3.42026 0
M  V30 5360 O 501.236 0.269333 4.1152 0
M  V30 5361 H 500.577 0.282436 0.600937 0
M  V30 5362 H 503.107 1.39367 1.49793 0
M  V30 5363 H 503.117 1.10538 3.92741 0
M  V30 5364 H 501.792 2.18928 3.53615 0
M  V30 5365 H 500.369 0.366175 3.71098 0
M  V30 5366 N 502.554 -1.34406 0.822964 0
M  V30 5367 C 503.794 -2.00103 0.416915 0
M  V30 5368 C 504.158 -1.63826 -1.00125 0
M  V30 5369 O 505.359 -2.22367 -1.51018 0
M  V30 5370 C 503.63 -3.52101 0.613151 0
M  V30 5371 S 505.189 -4.37774 0.299956 0
M  V30 5372 H 502.007 -0.69333 0.157527 0
M  V30 5373 H 504.609 -1.63698 1.06879 0
M  V30 5374 H 503.313 -3.75991 1.64496 0
M  V30 5375 H 502.844 -3.93364 -0.0534554 0
M  V30 5376 H 504.859 -4.8822 -0.886336 0
M  V30 5377 N 504.032 -0.577932 -1.46621 0
M  V30 5378 C 505.279 -0.0616879 -2.02406 0
M  V30 5379 C 505.607 1.29638 -1.44997 0
M  V30 5380 O 504.862 1.86176 -0.60308 0
M  V30 5381 C 505.161 0.0590832 -3.57351 0
M  V30 5382 C 504.827 -1.23077 -4.33777 0
M  V30 5383 C 503.489 -1.58416 -4.54376 0
M  V30 5384 C 505.841 -2.08457 -4.77698 0
M  V30 5385 C 503.169 -2.78943 -5.16147 0
M  V30 5386 C 505.521 -3.28204 -5.408 0
M  V30 5387 C 504.185 -3.63832 -5.59627 0
M  V30 5388 H 503.455 -0.0225732 -0.740656 0
M  V30 5389 H 506.102 -0.753609 -1.76048 0
M  V30 5390 H 504.407 0.834104 -3.82818 0
M  V30 5391 H 506.104 0.474202 -3.98186 0
M  V30 5392 H 502.694 -0.945652 -4.18038 0
M  V30 5393 H 506.878 -1.82459 -4.61544 0
M  V30 5394 H 502.134 -3.06689 -5.28916 0
M  V30 5395 H 506.308 -3.94634 -5.73792 0
M  V30 5396 H 503.935 -4.57315 -6.07262 0
M  V30 5397 N 505.51 1.54411 -0.315457 0
M  V30 5398 C 506.738 2.04833 0.291738 0
M  V30 5399 C 507.153 1.19203 1.46411 0
M  V30 5400 O 506.51 0.220867 1.81159 0
M  V30 5401 C 506.561 3.53969 0.73404 0
M  V30 5402 O 506.282 4.36346 -0.391682 0
M  V30 5403 C 507.783 4.2045 1.40489 0
M  V30 5404 H 505.003 0.668195 0.0612947 0
M  V30 5405 H 507.547 1.99276 -0.45929 0
M  V30 5406 H 505.702 3.5984 1.43506 0
M  V30 5407 H 506.116 5.24481 -0.0447088 0
M  V30 5408 H 507.59 5.26278 1.66539 0
M  V30 5409 H 508.067 3.71067 2.3496 0
M  V30 5410 H 508.673 4.18694 0.746662 0
M  V30 5411 N 506.988 0.0434614 1.5754 0
M  V30 5412 C 507.938 -0.943039 2.07583 0
M  V30 5413 C 508.922 -1.27662 0.979342 0
M  V30 5414 O 510.114 -1.26034 1.24276 0
M  V30 5415 C 507.243 -2.22056 2.61813 0
M  V30 5416 C 506.329 -1.91471 3.78417 0
M  V30 5417 N 506.72 -1.31214 4.88484 0
M  V30 5418 C 505.018 -2.21384 3.87176 0
M  V30 5419 C 505.719 -1.18084 5.69588 0
M  V30 5420 N 504.695 -1.68116 5.16951 0
M  V30 5421 H 508.497 -0.472354 2.90079 0
M  V30 5422 H 506.011 -0.161191 1.61598 0
M  V30 5423 H 508.008 -2.93618 2.95963 0
M  V30 5424 H 506.668 -2.69738 1.80752 0
M  V30 5425 H 507.679 -0.985318 5.08441 0
M  V30 5426 H 504.356 -2.7164 3.17046 0
M  V30 5427 H 505.746 -0.713684 6.68099 0
M  V30 5428 N 508.466 -1.55915 -0.229846 0
M  V30 5429 C 509.396 -1.94754 -1.28815 0
M  V30 5430 C 510.377 -0.814657 -1.49323 0
M  V30 5431 O 511.562 -1.07631 -1.61645 0
M  V30 5432 C 508.692 -2.25705 -2.63959 0
M  V30 5433 C 507.646 -3.41406 -2.5812 0
M  V30 5434 C 506.972 -3.57941 -3.97218 0
M  V30 5435 C 508.272 -4.76616 -2.13623 0
M  V30 5436 H 509.966 -2.83404 -0.965547 0
M  V30 5437 H 507.512 -1.36353 -0.463028 0
M  V30 5438 H 509.465 -2.51467 -3.38146 0
M  V30 5439 H 508.189 -1.339 -2.9789 0
M  V30 5440 H 506.848 -3.1568 -1.86391 0
M  V30 5441 H 506.496 -2.63526 -4.28443 0
M  V30 5442 H 506.196 -4.35757 -3.94195 0
M  V30 5443 H 507.72 -3.86042 -4.73079 0
M  V30 5444 H 509.134 -5.01637 -2.77549 0
M  V30 5445 H 507.531 -5.57655 -2.21677 0
M  V30 5446 H 508.601 -4.7253 -1.08829 0
M  V30 5447 N 509.944 0.496216 -1.49584 0
M  V30 5448 C 511.19 1.25189 -1.59548 0
M  V30 5449 C 511.523 1.9212 -0.283466 0
M  V30 5450 O 510.798 1.80947 0.713324 0
M  V30 5451 C 511.081 2.31516 -2.75812 0
M  V30 5452 C 510.934 1.69054 -4.16822 0
M  V30 5453 C 512.253 3.3304 -2.87702 0
M  V30 5454 H 509.372 0.45379 -0.580727 0
M  V30 5455 H 512.014 0.549327 -1.81886 0
M  V30 5456 H 510.164 2.91438 -2.56897 0
M  V30 5457 H 511.836 1.12923 -4.47265 0
M  V30 5458 H 510.079 0.994485 -4.22247 0
M  V30 5459 H 510.75 2.462 -4.94054 0
M  V30 5460 H 513.226 2.83114 -3.04936 0
M  V30 5461 H 512.102 4.04794 -3.7072 0
M  V30 5462 H 512.363 3.95655 -1.97255 0
M  V30 5463 N 511.423 1.38739 0.74761 0
M  V30 5464 C 512.355 1.32341 1.87132 0
M  V30 5465 C 513.368 0.234502 1.61102 0
M  V30 5466 O 514.557 0.492516 1.71571 0
M  V30 5467 C 511.657 1.02915 3.22896 0
M  V30 5468 C 510.83 2.22834 3.76383 0
M  V30 5469 C 509.889 1.90059 4.90677 0
M  V30 5470 O 508.915 2.62615 5.04997 0
M  V30 5471 N 510.117 0.859141 5.74107 0
M  V30 5472 H 512.882 2.29175 1.93129 0
M  V30 5473 H 510.443 1.32678 0.927805 0
M  V30 5474 H 512.435 0.79031 3.96908 0
M  V30 5475 H 511.005 0.148572 3.12247 0
M  V30 5476 H 510.225 2.62747 2.93867 0
M  V30 5477 H 511.513 3.02851 4.08851 0
M  V30 5478 H 510.911 0.257564 5.65113 0
M  V30 5479 H 509.468 0.680189 6.48241 0
M  V30 5480 N 512.901 -0.976442 1.23707 0
M  V30 5481 C 513.864 -2.0511 1.02287 0
M  V30 5482 C 514.864 -1.60791 -0.0167195 0
M  V30 5483 O 516.054 -1.72761 0.223408 0
M  V30 5484 C 513.186 -3.36458 0.548507 0
M  V30 5485 H 514.379 -2.25545 1.9766 0
M  V30 5486 H 511.932 -1.15042 1.05806 0
M  V30 5487 H 512.667 -3.21713 -0.408818 0
M  V30 5488 H 512.452 -3.69967 1.29874 0
M  V30 5489 H 513.942 -4.15489 0.419406 0
M  V30 5490 N 514.379 -1.04941 -1.1758 0
M  V30 5491 C 515.327 -0.64204 -2.23563 0
M  V30 5492 C 516.321 0.335453 -1.66045 0
M  V30 5493 O 517.527 0.20179 -1.78865 0
M  V30 5494 H 513.902 -0.18944 -0.727748 0
M  V30 5495 H 515.873 -1.54609 -2.55223 0
M  V30 5496 C 514.622 -0.0301051 -3.47687 0
M  V30 5497 H 513.945 -0.773339 -3.92249 0
M  V30 5498 H 515.385 0.217592 -4.23441 0
M  V30 5499 C 513.844 1.2225 -3.13937 0
M  V30 5500 O 514.374 2.3122 -3.28482 0
M  V30 5501 N 512.58 1.11917 -2.68185 0
M  V30 5502 H 512.127 0.232403 -2.5655 0
M  V30 5503 H 512.085 1.95814 -2.45976 0
M  V30 5504 N 515.857 1.33968 -0.830081 0
M  V30 5505 C 517.103 1.98357 -0.422191 0
M  V30 5506 C 517.436 1.65633 1.01387 0
M  V30 5507 O 516.711 0.931648 1.70735 0
M  V30 5508 C 516.994 3.54492 -0.633043 0
M  V30 5509 C 516.847 3.96934 -2.11574 0
M  V30 5510 C 518.166 4.40039 -0.0735584 0
M  V30 5511 H 515.285 0.720544 -0.154871 0
M  V30 5512 H 517.927 1.58749 -1.04397 0
M  V30 5513 H 516.077 3.88361 -0.103775 0
M  V30 5514 H 517.749 3.73363 -2.7092 0
M  V30 5515 H 515.992 3.46984 -2.60354 0
M  V30 5516 H 516.663 5.05651 -2.21406 0
M  V30 5517 H 519.139 4.12764 -0.52585 0
M  V30 5518 H 518.015 5.48327 -0.250841 0
M  V30 5519 H 518.276 4.30124 1.02202 0
M  V30 5520 N 517.335 0.585699 1.46312 0
M  V30 5521 C 518.751 0.247607 1.57668 0
M  V30 5522 C 518.951 -1.25007 1.58037 0
M  V30 5523 O 518.007 -2.03196 1.49893 0
M  V30 5524 C 519.32 0.899456 2.86933 0
M  V30 5525 C 520.868 0.873326 3.00569 0
M  V30 5526 C 521.343 1.50477 4.32574 0
M  V30 5527 N 522.834 1.46925 4.3928 0
M  V30 5528 C 523.569 1.92719 5.40044 0
M  V30 5529 N 523.065 2.46499 6.47464 0
M  V30 5530 N 524.858 1.83617 5.31264 0
M  V30 5531 H 517.009 1.55841 1.44317 0
M  V30 5532 H 519.272 0.651564 0.688599 0
M  V30 5533 H 518.978 1.95313 2.92482 0
M  V30 5534 H 518.852 0.409476 3.74971 0
M  V30 5535 H 521.239 -0.171736 2.946 0
M  V30 5536 H 521.32 1.40136 2.13999 0
M  V30 5537 H 520.964 2.54905 4.39302 0
M  V30 5538 H 520.894 0.951944 5.17924 0
M  V30 5539 H 523.385 1.07616 3.62253 0
M  V30 5540 H 523.698 2.79291 7.20567 0
M  V30 5541 H 522.043 2.50526 6.48276 0
M  V30 5542 H 525.234 1.41358 4.46246 0
M  V30 5543 H 525.407 2.19622 6.09648 0
M  V30 5544 N 518.813 -1.54241 0.323641 0
M  V30 5545 C 519.761 -2.25813 -0.557804 0
M  V30 5546 C 520.755 -1.27225 -1.11849 0
M  V30 5547 O 521.961 -1.45001 -1.06652 0
M  V30 5548 H 518.336 -0.72532 -0.198532 0
M  V30 5549 H 520.307 -2.98322 0.0681112 0
M  V30 5550 C 519.056 -3.02913 -1.70701 0
M  V30 5551 H 518.379 -3.78593 -1.28482 0
M  V30 5552 H 519.819 -3.56238 -2.29935 0
M  V30 5553 C 518.278 -2.11217 -2.62467 0
M  V30 5554 O 518.808 -1.69508 -3.64184 0
M  V30 5555 N 517.014 -1.76704 -2.30703 0
M  V30 5556 H 516.561 -2.1082 -1.48029 0
M  V30 5557 H 516.519 -1.15631 -2.92364 0
M  V30 5558 N 520.291 -0.0518155 -1.57515 0
M  V30 5559 C 521.238 0.922352 -2.11569 0
M  V30 5560 C 522.208 1.30842 -1.02321 0
M  V30 5561 O 523.393 1.39778 -1.29872 0
M  V30 5562 C 520.533 2.19167 -2.6657 0
M  V30 5563 C 519.646 1.86003 -3.89906 0
M  V30 5564 C 518.781 3.07398 -4.33221 0
M  V30 5565 C 517.82 2.70158 -5.49255 0
M  V30 5566 N 516.957 3.84248 -5.8762 0
M  V30 5567 H 521.797 0.454506 -2.94514 0
M  V30 5568 H 519.334 0.212718 -1.45554 0
M  V30 5569 H 521.292 2.93443 -2.96559 0
M  V30 5570 H 519.922 2.63528 -1.86421 0
M  V30 5571 H 518.974 1.01874 -3.66505 0
M  V30 5572 H 520.286 1.54592 -4.74239 0
M  V30 5573 H 519.44 3.89972 -4.64765 0
M  V30 5574 H 518.179 3.41988 -3.477 0
M  V30 5575 H 517.184 1.86001 -5.17382 0
M  V30 5576 H 518.409 2.36759 -6.36492 0
M  V30 5577 H 516.355 4.18638 -5.05053 0
M  V30 5578 H 516.272 3.56538 -6.66646 0
M  V30 5579 H 517.54 4.6746 -6.2378 0
M  V30 5580 N 521.769 1.56035 0.221574 0
M  V30 5581 C 522.716 1.92413 1.27459 0
M  V30 5582 C 523.686 0.781323 1.46576 0
M  V30 5583 O 524.871 1.03721 1.60145 0
M  V30 5584 C 522.011 2.24617 2.61995 0
M  V30 5585 C 521.124 3.51831 2.50677 0
M  V30 5586 C 520.259 3.73482 3.77736 0
M  V30 5587 C 519.298 4.94211 3.6114 0
M  V30 5588 N 518.435 5.12252 4.80148 0
M  V30 5589 H 523.275 2.82203 0.957355 0
M  V30 5590 H 520.812 1.39676 0.461415 0
M  V30 5591 H 522.77 2.41298 3.40339 0
M  V30 5592 H 521.4 1.38 2.91815 0
M  V30 5593 H 520.452 3.43343 1.63767 0
M  V30 5594 H 521.764 4.40328 2.34334 0
M  V30 5595 H 520.918 3.9026 4.64523 0
M  V30 5596 H 519.657 2.83266 3.97003 0
M  V30 5597 H 518.662 4.77384 2.72736 0
M  V30 5598 H 519.887 5.85912 3.43343 0
M  V30 5599 H 517.833 4.24978 4.99729 0
M  V30 5600 H 517.75 5.94881 4.66532 0
M  V30 5601 H 519.018 5.33465 5.68362 0
M  V30 5602 N 523.247 -0.488276 1.49845 0
M  V30 5603 C 524.493 -1.24341 1.6021 0
M  V30 5604 C 524.826 -1.91967 0.293651 0
M  V30 5605 O 524.101 -1.81323 -0.703718 0
M  V30 5606 C 524.384 -2.3005 2.77036 0
M  V30 5607 C 524.237 -1.66842 4.17713 0
M  V30 5608 C 525.556 -3.31509 2.89464 0
M  V30 5609 H 522.675 -0.450704 0.583125 0
M  V30 5610 H 525.317 -0.539673 1.82174 0
M  V30 5611 H 523.467 -2.90071 2.58439 0
M  V30 5612 H 525.139 -1.1055 4.47858 0
M  V30 5613 H 523.382 -0.972079 4.22768 0
M  V30 5614 H 524.053 -2.43576 4.95353 0
M  V30 5615 H 526.529 -2.81493 3.06433 0
M  V30 5616 H 525.405 -4.02822 3.72861 0
M  V30 5617 H 525.666 -3.94603 1.99351 0
M  V30 5618 N 524.725 -1.39134 -0.740242 0
M  V30 5619 C 525.972 -1.36071 -1.49969 0
M  V30 5620 C 526.3 0.0450245 -1.94448 0
M  V30 5621 O 525.555 1.02482 -1.66721 0
M  V30 5622 C 525.854 -2.27457 -2.75678 0
M  V30 5623 C 525.52 -3.75185 -2.50094 0
M  V30 5624 C 524.182 -4.15439 -2.42825 0
M  V30 5625 C 526.534 -4.68643 -2.28086 0
M  V30 5626 C 523.862 -5.4722 -2.11584 0
M  V30 5627 C 526.214 -6.00695 -1.98363 0
M  V30 5628 C 524.878 -6.40018 -1.8956 0
M  V30 5629 H 524.148 -0.497921 -0.548777 0
M  V30 5630 H 526.795 -1.71599 -0.85007 0
M  V30 5631 H 525.1 -1.8503 -3.45356 0
M  V30 5632 H 526.797 -2.22384 -3.33686 0
M  V30 5633 H 523.387 -3.43279 -2.56627 0
M  V30 5634 H 527.571 -4.3838 -2.32672 0
M  V30 5635 H 522.827 -5.76615 -2.03287 0
M  V30 5636 H 527.001 -6.72644 -1.80341 0
M  V30 5637 H 524.628 -7.42051 -1.65117 0
M  V30 5638 N 526.204 0.969867 -1.24223 0
M  V30 5639 C 527.151 2.06407 -1.0327 0
M  V30 5640 C 528.121 1.66014 0.0533 0
M  V30 5641 O 529.306 1.90533 -0.100896 0
M  V30 5642 C 526.446 3.3909 -0.641262 0
M  V30 5643 C 525.559 3.9269 -1.80051 0
M  V30 5644 C 524.694 5.13631 -1.35486 0
M  V30 5645 C 523.733 5.59423 -2.48419 0
M  V30 5646 N 522.87 6.71586 -2.04737 0
M  V30 5647 H 527.71 2.23663 -1.96923 0
M  V30 5648 H 525.247 1.09624 -0.980862 0
M  V30 5649 H 527.205 4.15323 -0.395351 0
M  V30 5650 H 525.835 3.21765 0.258269 0
M  V30 5651 H 524.887 3.13116 -2.16014 0
M  V30 5652 H 526.199 4.22636 -2.64916 0
M  V30 5653 H 525.353 5.97231 -1.0677 0
M  V30 5654 H 524.092 4.85364 -0.476722 0
M  V30 5655 H 523.097 4.74398 -2.77897 0
M  V30 5656 H 524.322 5.89705 -3.36786 0
M  V30 5657 H 522.268 6.45058 -1.19318 0
M  V30 5658 H 522.185 7.0097 -2.83156 0
M  V30 5659 H 523.453 7.58633 -1.79154 0
M  V30 5660 N 527.682 1.05563 1.17022 0
M  V30 5661 C 528.592 0.670758 2.24807 0
M  V30 5662 C 529.608 -0.309865 1.71219 0
M  V30 5663 O 530.784 -0.161025 2.00755 0
M  V30 5664 C 527.849 0.055337 3.46656 0
M  V30 5665 C 526.91 1.08688 4.15314 0
M  V30 5666 C 526.143 0.500736 5.31346 0
M  V30 5667 O 526.366 -0.688718 5.66227 0
M  V30 5668 O 525.3 1.23683 5.89055 0
M  V30 5669 H 529.126 1.56914 2.60023 0
M  V30 5670 H 526.711 0.827428 1.24395 0
M  V30 5671 H 528.593 -0.286492 4.20425 0
M  V30 5672 H 527.268 -0.816638 3.13229 0
M  V30 5673 H 526.175 1.48077 3.43546 0
M  V30 5674 H 527.508 1.93014 4.52777 0
M  V30 5675 N 529.16 -1.33526 0.837174 0
M  V30 5676 C 530.123 -2.27551 0.274421 0
M  V30 5677 C 531.123 -1.50886 -0.555881 0
M  V30 5678 O 532.313 -1.70227 -0.369918 0
M  V30 5679 C 529.445 -3.35332 -0.613605 0
M  V30 5680 H 530.638 -2.78837 1.10408 0
M  V30 5681 H 528.191 -1.439 0.610126 0
M  V30 5682 H 528.926 -2.89285 -1.46577 0
M  V30 5683 H 528.711 -3.92095 -0.0195341 0
M  V30 5684 H 530.201 -4.05433 -1.00068 0
M  V30 5685 N 530.638 -0.59345 -1.46 0
M  V30 5686 C 531.884 -0.0832754 -2.02629 0
M  V30 5687 C 532.217 1.27749 -1.46266 0
M  V30 5688 O 531.492 1.8395 -0.631866 0
M  V30 5689 C 531.775 -0.0290756 -3.60088 0
M  V30 5690 C 531.628 -1.41951 -4.26814 0
M  V30 5691 C 532.947 0.666055 -4.35031 0
M  V30 5692 H 530.066 -0.031736 -0.736316 0
M  V30 5693 H 532.708 -0.762711 -1.74019 0
M  V30 5694 H 530.858 0.549532 -3.84594 0
M  V30 5695 H 532.53 -2.04411 -4.13538 0
M  V30 5696 H 530.773 -1.98422 -3.8576 0
M  V30 5697 H 531.444 -1.33395 -5.3564 0
M  V30 5698 H 533.92 0.174401 -4.15734 0
M  V30 5699 H 532.796 0.673041 -5.44758 0
M  V30 5700 H 533.057 1.72946 -4.06869 0
M  V30 5701 N 532.116 1.54067 -0.331816 0
M  V30 5702 C 533.048 2.22139 0.564538 0
M  V30 5703 C 534.061 1.22408 1.07332 0
M  V30 5704 O 535.25 1.4883 0.985481 0
M  V30 5705 C 532.35 2.87876 1.78831 0
M  V30 5706 C 531.523 4.13817 1.41682 0
M  V30 5707 C 530.582 4.63072 2.49901 0
M  V30 5708 O 529.608 5.27562 2.13699 0
M  V30 5709 N 530.81 4.38001 3.80967 0
M  V30 5710 H 533.575 2.99694 -0.0183736 0
M  V30 5711 H 531.136 1.61153 -0.155396 0
M  V30 5712 H 533.128 3.17747 2.50637 0
M  V30 5713 H 531.698 2.13977 2.27887 0
M  V30 5714 H 530.918 3.9062 0.530044 0
M  V30 5715 H 532.206 4.95762 1.14443 0
M  V30 5716 H 531.604 3.864 4.13173 0
M  V30 5717 H 530.161 4.72507 4.48977 0
M  V30 5718 N 533.594 0.0601682 1.57485 0
M  V30 5719 C 534.842 -0.610386 1.92662 0
M  V30 5720 C 535.163 -1.70849 0.939981 0
M  V30 5721 O 534.433 -1.95895 -0.0137455 0
M  V30 5722 H 533.013 -0.228457 0.711208 0
M  V30 5723 H 535.675 0.115288 1.94559 0
M  V30 5724 H 534.771 -1.0432 2.94149 0
M  V30 5725 N 535.072 -1.5615 -0.213296 0
M  V30 5726 C 536.005 -1.88115 -1.29182 0
M  V30 5727 C 536.983 -0.739348 -1.44819 0
M  V30 5728 O 538.167 -0.988541 -1.605 0
M  V30 5729 C 535.294 -2.09541 -2.66102 0
M  V30 5730 C 534.34 -3.32236 -2.67436 0
M  V30 5731 S 535.173 -4.87915 -2.20679 0
M  V30 5732 C 536.329 -5.12387 -3.59458 0
M  V30 5733 H 536.562 -2.793 -1.01876 0
M  V30 5734 H 534.095 -1.48692 -0.415934 0
M  V30 5735 H 536.053 -2.22568 -3.44925 0
M  V30 5736 H 534.714 -1.19138 -2.90628 0
M  V30 5737 H 533.907 -3.44297 -3.6807 0
M  V30 5738 H 533.509 -3.18108 -1.96681 0
M  V30 5739 H 535.801 -5.01791 -4.55205 0
M  V30 5740 H 536.744 -6.14236 -3.52306 0
M  V30 5741 H 537.152 -4.40089 -3.53528 0
M  V30 5742 N 536.55 0.480323 -1.50102 0
M  V30 5743 C 537.796 1.23489 -1.60867 0
M  V30 5744 C 538.129 1.91809 -0.303827 0
M  V30 5745 O 537.404 1.81694 0.694092 0
M  V30 5746 C 537.687 2.28578 -2.78252 0
M  V30 5747 C 537.54 1.64624 -4.18592 0
M  V30 5748 C 538.859 3.2997 -2.91218 0
M  V30 5749 H 535.978 0.447605 -0.585507 0
M  V30 5750 H 538.62 0.530005 -1.82458 0
M  V30 5751 H 536.77 2.88697 -2.59974 0
M  V30 5752 H 538.442 1.08173 -4.48438 0
M  V30 5753 H 536.685 0.949645 -4.23278 0
M  V30 5754 H 537.356 2.40946 -4.96638 0
M  V30 5755 H 539.832 2.79864 -3.07921 0
M  V30 5756 H 538.708 4.00839 -3.74993 0
M  V30 5757 H 538.969 3.93541 -2.0144 0
M  V30 5758 N 538.028 1.39524 0.732853 0
M  V30 5759 C 538.991 1.38189 1.82857 0
M  V30 5760 C 539.991 0.278624 1.58368 0
M  V30 5761 O 541.181 0.536639 1.65728 0
M  V30 5762 C 538.313 1.15661 3.2068 0
M  V30 5763 H 539.506 2.35692 1.85444 0
M  V30 5764 H 537.059 1.2512 0.936728 0
M  V30 5765 H 537.794 0.188482 3.23752 0
M  V30 5766 H 537.579 1.95559 3.39852 0
M  V30 5767 H 539.069 1.17472 4.00737 0
M  V30 5768 N 539.506 -0.963266 1.24736 0
M  V30 5769 C 540.453 -2.05857 1.04363 0
M  V30 5770 C 541.423 -1.6604 -0.0444951 0
M  V30 5771 O 542.608 -1.90477 0.110999 0
M  V30 5772 C 539.748 -3.38745 0.659235 0
M  V30 5773 C 538.861 -3.9173 1.82131 0
M  V30 5774 C 537.996 -5.12906 1.38208 0
M  V30 5775 C 537.035 -5.58098 2.51382 0
M  V30 5776 N 536.172 -6.7049 2.08295 0
M  V30 5777 H 541.012 -2.22616 1.98107 0
M  V30 5778 H 538.549 -1.09103 0.986661 0
M  V30 5779 H 540.507 -4.15107 0.417371 0
M  V30 5780 H 539.137 -3.21898 -0.241201 0
M  V30 5781 H 538.189 -3.11966 2.17672 0
M  V30 5782 H 539.501 -4.21225 2.67153 0
M  V30 5783 H 538.655 -5.96657 1.09935 0
M  V30 5784 H 537.394 -4.85105 0.502456 0
M  V30 5785 H 536.399 -4.72917 2.80409 0
M  V30 5786 H 537.624 -5.87911 3.39909 0
M  V30 5787 H 535.57 -6.44416 1.22737 0
M  V30 5788 H 535.487 -6.99458 2.86869 0
M  V30 5789 H 536.755 -7.57672 1.83175 0
M  V30 5790 N 540.985 -1.06182 -1.16461 0
M  V30 5791 C 542.233 -0.776326 -1.86595 0
M  V30 5792 C 542.554 0.69921 -1.82033 0
M  V30 5793 O 541.824 1.50579 -1.2531 0
M  V30 5794 H 540.404 -0.284184 -0.690832 0
M  V30 5795 H 543.066 -1.34308 -1.41235 0
M  V30 5796 H 542.162 -1.10022 -2.92064 0
M  V30 5797 N 542.463 1.3308 -0.844243 0
M  V30 5798 C 543.691 2.01808 -0.456203 0
M  V30 5799 C 544.106 1.63498 0.944131 0
M  V30 5800 O 543.463 0.85102 1.61443 0
M  V30 5801 C 543.514 3.56922 -0.573513 0
M  V30 5802 O 543.235 3.93851 -1.91868 0
M  V30 5803 C 544.736 4.42922 -0.183125 0
M  V30 5804 H 541.956 0.646273 -0.180477 0
M  V30 5805 H 544.5 1.69891 -1.1383 0
M  V30 5806 H 542.655 3.87352 0.0607367 0
M  V30 5807 H 543.069 4.88564 -1.90802 0
M  V30 5808 H 544.543 5.51093 -0.316241 0
M  V30 5809 H 545.02 4.30386 0.875477 0
M  V30 5810 H 545.626 4.1786 -0.792027 0
M  V30 5811 N 543.941 0.601185 1.45683 0
M  V30 5812 C 545.169 0.100054 2.06658 0
M  V30 5813 C 545.584 -1.21285 1.44691 0
M  V30 5814 O 544.941 -1.73735 0.558772 0
M  V30 5815 C 544.992 -0.0528579 3.61461 0
M  V30 5816 O 544.713 1.20809 4.21114 0
M  V30 5817 C 546.214 -0.586193 4.39407 0
M  V30 5818 H 543.434 0.065905 0.667756 0
M  V30 5819 H 545.978 0.827101 1.87028 0
M  V30 5820 H 544.133 -0.730203 3.80456 0
M  V30 5821 H 544.547 1.03368 5.14213 0
M  V30 5822 H 546.021 -0.642297 5.4825 0
M  V30 5823 H 546.498 -1.60713 4.0874 0
M  V30 5824 H 547.104 0.0568935 4.25262 0
M  V30 5825 N 545.419 -1.53889 0.339982 0
M  V30 5826 C 546.667 -2.00458 -0.257112 0
M  V30 5827 C 546.988 -1.22953 -1.51353 0
M  V30 5828 O 546.258 -0.335734 -1.93002 0
M  V30 5829 H 544.838 -0.740544 -0.0979965 0
M  V30 5830 H 547.5 -1.89386 0.460317 0
M  V30 5831 H 546.596 -3.08035 -0.502057 0
M  V30 5832 N 546.897 -0.0685191 -1.57451 0
M  V30 5833 C 548.127 0.609577 -1.97402 0
M  V30 5834 C 548.535 1.63882 -0.945489 0
M  V30 5835 O 547.878 1.8354 0.0766052 0
M  V30 5836 C 547.94 1.3385 -3.33653 0
M  V30 5837 C 547.604 0.463103 -4.54648 0
M  V30 5838 C 548.601 -0.277964 -5.19156 0
M  V30 5839 C 546.286 0.388941 -5.00792 0
M  V30 5840 C 548.28 -1.08145 -6.28159 0
M  V30 5841 C 545.967 -0.418217 -6.09667 0
M  V30 5842 C 546.965 -1.15208 -6.73213 0
M  V30 5843 O 546.653 -1.94594 -7.79993 0
M  V30 5844 H 546.385 0.170197 -0.654224 0
M  V30 5845 H 548.939 -0.13647 -2.04946 0
M  V30 5846 H 547.169 2.13055 -3.22714 0
M  V30 5847 H 548.858 1.90851 -3.58233 0
M  V30 5848 H 549.624 -0.230241 -4.84453 0
M  V30 5849 H 545.503 0.949769 -4.5111 0
M  V30 5850 H 549.047 -1.65476 -6.7769 0
M  V30 5851 H 544.944 -0.467515 -6.43805 0
M  V30 5852 H 545.712 -1.8699 -7.96854 0
M  V30 5853 N 548.375 1.56261 0.205012 0
M  V30 5854 C 549.322 1.93754 1.25411 0
M  V30 5855 C 550.292 0.796826 1.45739 0
M  V30 5856 O 551.477 1.05414 1.59036 0
M  V30 5857 C 548.617 2.27383 2.59598 0
M  V30 5858 C 547.73 3.5447 2.46931 0
M  V30 5859 C 546.865 3.77468 3.73753 0
M  V30 5860 C 545.904 4.98014 3.55877 0
M  V30 5861 N 545.041 5.17316 4.74688 0
M  V30 5862 H 549.881 2.83203 0.92737 0
M  V30 5863 H 547.418 1.40158 0.446574 0
M  V30 5864 H 549.376 2.44895 3.37761 0
M  V30 5865 H 548.006 1.41088 2.90335 0
M  V30 5866 H 547.058 3.45061 1.60116 0
M  V30 5867 H 548.37 4.42789 2.29651 0
M  V30 5868 H 547.524 3.95165 4.60358 0
M  V30 5869 H 546.263 2.87461 3.93976 0
M  V30 5870 H 545.268 4.80249 2.67657 0
M  V30 5871 H 546.493 5.8952 3.37109 0
M  V30 5872 H 544.439 4.30255 4.95194 0
M  V30 5873 H 544.356 5.99796 4.60197 0
M  V30 5874 H 545.624 5.39463 5.62672 0
M  V30 5875 N 549.853 -0.472356 1.50355 0
M  V30 5876 C 550.816 -1.5529 1.68576 0
M  V30 5877 C 551.816 -1.50863 0.556511 0
M  V30 5878 O 553.006 -1.53505 0.823516 0
M  V30 5879 C 550.138 -2.94921 1.70981 0
M  V30 5880 H 551.331 -1.40451 2.64978 0
M  V30 5881 H 548.884 -0.698645 1.39816 0
M  V30 5882 H 549.619 -3.15204 0.762675 0
M  V30 5883 H 549.404 -2.99541 2.53017 0
M  V30 5884 H 550.894 -3.73372 1.87037 0
M  V30 5885 N 551.331 -1.39911 -0.725443 0
M  V30 5886 C 552.579 -1.37382 -1.48224 0
M  V30 5887 C 552.9 0.0264107 -1.94982 0
M  V30 5888 O 552.17 0.979408 -1.6966 0
M  V30 5889 H 550.75 -0.505596 -0.549892 0
M  V30 5890 H 553.412 -1.7487 -0.860608 0
M  V30 5891 H 552.508 -2.04254 -2.3598 0
M  V30 5892 N 552.809 0.956637 -1.25245 0
M  V30 5893 C 554.056 1.701 -1.09874 0
M  V30 5894 C 554.384 1.91128 0.36062 0
M  V30 5895 O 553.639 1.47837 1.28229 0
M  V30 5896 C 553.938 3.08996 -1.79601 0
M  V30 5897 C 553.604 3.07774 -3.29523 0
M  V30 5898 C 552.266 3.07149 -3.70423 0
M  V30 5899 C 554.618 3.01257 -4.25316 0
M  V30 5900 C 551.946 2.97752 -5.0553 0
M  V30 5901 C 554.298 2.93403 -5.60444 0
M  V30 5902 C 552.962 2.91111 -6.00675 0
M  V30 5903 H 552.232 0.62244 -0.402056 0
M  V30 5904 H 554.879 1.1178 -1.55491 0
M  V30 5905 H 553.184 3.70848 -1.26408 0
M  V30 5906 H 554.881 3.65407 -1.65162 0
M  V30 5907 H 551.471 3.09032 -2.9698 0
M  V30 5908 H 555.655 3.00861 -3.9471 0
M  V30 5909 H 550.911 2.94346 -5.35883 0
M  V30 5910 H 555.085 2.87321 -6.34366 0
M  V30 5911 H 552.712 2.83586 -7.05325 0
M  V30 5912 N 554.287 1.06798 1.15896 0
M  V30 5913 C 555.197 0.694564 2.24083 0
M  V30 5914 C 556.213 -0.291687 1.71538 0
M  V30 5915 O 557.389 -0.139723 2.00915 0
M  V30 5916 C 554.454 0.0921014 3.46578 0
M  V30 5917 C 553.515 1.13087 4.14137 0
M  V30 5918 C 552.748 0.557064 5.30785 0
M  V30 5919 O 552.971 -0.628623 5.66925 0
M  V30 5920 O 551.905 1.29924 5.8771 0
M  V30 5921 H 555.731 1.59663 2.58344 0
M  V30 5922 H 553.316 0.840575 1.2351 0
M  V30 5923 H 555.198 -0.241884 4.20705 0
M  V30 5924 H 553.873 -0.78337 3.14078 0
M  V30 5925 H 552.78 1.51712 3.41957 0
M  V30 5926 H 554.113 1.97805 4.50704 0
M  V30 5927 N 555.766 -1.3263 0.851289 0
M  V30 5928 C 556.996 -2.01271 0.466222 0
M  V30 5929 C 557.404 -1.64156 -0.940714 0
M  V30 5930 O 556.747 -0.857109 -1.62479 0
M  V30 5931 C 556.809 -3.55695 0.521672 0
M  V30 5932 C 556.473 -4.16227 1.88691 0
M  V30 5933 C 557.47 -4.34699 2.85189 0
M  V30 5934 C 555.155 -4.52377 2.18313 0
M  V30 5935 C 557.149 -4.88484 4.09465 0
M  V30 5936 C 554.836 -5.05868 3.42843 0
M  V30 5937 C 555.834 -5.23869 4.38235 0
M  V30 5938 O 555.522 -5.76218 5.6056 0
M  V30 5939 H 555.254 -0.651034 0.18202 0
M  V30 5940 H 557.808 -1.7026 1.14894 0
M  V30 5941 H 556.038 -3.86086 -0.217888 0
M  V30 5942 H 557.727 -4.05613 0.152682 0
M  V30 5943 H 558.493 -4.07107 2.63607 0
M  V30 5944 H 554.372 -4.37652 1.44851 0
M  V30 5945 H 557.916 -5.02451 4.83931 0
M  V30 5946 H 553.813 -5.32891 3.64277 0
M  V30 5947 H 554.581 -5.94616 5.62471 0
M  V30 5948 N 557.244 -0.608902 -1.45362 0
M  V30 5949 C 558.207 0.0992563 -2.28985 0
M  V30 5950 C 559.207 0.793841 -1.39838 0
M  V30 5951 O 560.397 0.641804 -1.61946 0
M  V30 5952 C 557.529 1.15073 -3.20891 0
M  V30 5953 H 558.722 -0.635964 -2.93079 0
M  V30 5954 H 556.275 -0.368007 -1.51906 0
M  V30 5955 H 557.01 1.91667 -2.616 0
M  V30 5956 H 556.795 0.656867 -3.86559 0
M  V30 5957 H 558.285 1.64665 -3.83765 0
M  V30 5958 N 558.722 1.53707 -0.348139 0
M  V30 5959 C 559.969 2.00988 0.246966 0
M  V30 5960 C 560.297 1.23586 1.50189 0
M  V30 5961 O 559.552 0.312817 1.93184 0
M  V30 5962 C 559.851 3.52292 0.602061 0
M  V30 5963 C 559.517 4.47453 -0.556509 0
M  V30 5964 C 558.179 4.73188 -0.874446 0
M  V30 5965 C 560.531 5.03851 -1.33354 0
M  V30 5966 C 557.859 5.52577 -1.9717 0
M  V30 5967 C 560.211 5.84437 -2.42108 0
M  V30 5968 C 558.875 6.08465 -2.74456 0
M  V30 5969 H 558.145 0.735469 0.0903712 0
M  V30 5970 H 560.792 1.85464 -0.477001 0
M  V30 5971 H 559.097 3.65672 1.40681 0
M  V30 5972 H 560.794 3.86337 1.07447 0
M  V30 5973 H 557.384 4.27558 -0.298652 0
M  V30 5974 H 561.568 4.8393 -1.10117 0
M  V30 5975 H 556.824 5.69418 -2.22651 0
M  V30 5976 H 560.998 6.27151 -3.02745 0
M  V30 5977 H 558.625 6.69768 -3.59604 0
M  V30 5978 N 560.2 0.0768682 1.57412 0
M  V30 5979 C 561.477 -0.632359 1.85096 0
M  V30 5980 C 561.857 -1.87479 0.9703 0
M  V30 5981 O 561.205 -2.28469 0.0379062 0
M  V30 5982 C 561.415 -0.965174 3.35388 0
M  V30 5983 C 562.763 -1.33648 4.03018 0
M  V30 5984 O 563.787 -1.05675 3.40164 0
M  V30 5985 O 562.646 -1.85959 5.13889 0
M  V30 5986 H 559.74 -0.314574 0.764835 0
M  V30 5987 H 562.286 0.108184 1.69355 0
M  V30 5988 H 561.058 -0.0829745 3.91212 0
M  V30 5989 H 560.681 -1.76231 3.5641 0
M  V30 5990 N 561.678 -1.56367 -0.196722 0
M  V30 5991 C 562.61 -1.90941 -1.26784 0
M  V30 5992 C 563.623 -0.799928 -1.41792 0
M  V30 5993 O 564.812 -1.07833 -1.42247 0
M  V30 5994 C 561.912 -2.12477 -2.6402 0
M  V30 5995 C 561.085 -3.43616 -2.70641 0
M  V30 5996 C 560.144 -3.54284 -3.89062 0
M  V30 5997 O 559.17 -4.2712 -3.76241 0
M  V30 5998 N 560.372 -2.87252 -5.04447 0
M  V30 5999 H 563.137 -2.83417 -0.974417 0
M  V30 6000 H 560.698 -1.57215 -0.386649 0
M  V30 6001 H 562.69 -2.16904 -3.41665 0
M  V30 6002 H 561.26 -1.26508 -2.85857 0
M  V30 6003 H 560.48 -3.51072 -1.79283 0
M  V30 6004 H 561.768 -4.29958 -2.72054 0
M  V30 6005 H 561.166 -2.27901 -5.17762 0
M  V30 6006 H 559.723 -2.97308 -5.80044 0
M  V30 6007 N 563.156 0.464375 -1.50603 0
M  V30 6008 C 564.086 1.56944 -1.72889 0
M  V30 6009 C 565.067 1.59979 -0.577997 0
M  V30 6010 O 566.252 1.76138 -0.817855 0
M  V30 6011 C 563.382 2.95225 -1.8292 0
M  V30 6012 C 562.336 3.07056 -2.98162 0
M  V30 6013 C 561.662 4.47051 -2.93343 0
M  V30 6014 C 562.962 2.83648 -4.38567 0
M  V30 6015 H 564.656 1.38547 -2.65415 0
M  V30 6016 H 562.202 0.665082 -1.27721 0
M  V30 6017 H 564.155 3.72467 -1.97095 0
M  V30 6018 H 562.879 3.14793 -0.870209 0
M  V30 6019 H 561.538 2.32248 -2.83648 0
M  V30 6020 H 561.186 4.63547 -1.95276 0
M  V30 6021 H 560.886 4.55902 -3.70712 0
M  V30 6022 H 562.41 5.26304 -3.09575 0
M  V30 6023 H 563.824 3.50636 -4.53572 0
M  V30 6024 H 562.221 3.03937 -5.17438 0
M  V30 6025 H 563.291 1.79451 -4.50472 0
M  V30 6026 N 564.634 1.40294 0.718013 0
M  V30 6027 C 565.566 1.36281 1.84283 0
M  V30 6028 C 566.579 0.268621 1.60569 0
M  V30 6029 O 567.768 0.528798 1.70487 0
M  V30 6030 C 564.868 1.09741 3.2064 0
M  V30 6031 C 564.041 2.30767 3.71571 0
M  V30 6032 C 563.1 2.00424 4.86535 0
M  V30 6033 O 562.126 2.73268 4.99313 0
M  V30 6034 N 563.328 0.980724 5.72156 0
M  V30 6035 H 566.093 2.3322 1.88225 0
M  V30 6036 H 563.654 1.34616 0.899453 0
M  V30 6037 H 565.646 0.874322 3.95143 0
M  V30 6038 H 564.216 0.214771 3.11861 0
M  V30 6039 H 563.436 2.68921 2.88228 0
M  V30 6040 H 564.724 3.11455 4.02335 0
M  V30 6041 H 564.122 0.377375 5.6444 0
M  V30 6042 H 562.679 0.817538 6.46653 0
M  V30 6043 N 566.112 -0.949982 1.2575 0
M  V30 6044 C 567.06 -2.06869 1.06339 0
M  V30 6045 C 568.054 -1.69399 -0.00708901 0
M  V30 6046 O 569.26 -1.79383 0.148897 0
M  V30 6047 H 565.635 -0.677197 0.326969 0
M  V30 6048 H 567.606 -2.20396 2.01167 0
M  V30 6049 C 566.355 -3.40503 0.703769 0
M  V30 6050 H 565.678 -3.69807 1.51931 0
M  V30 6051 H 567.118 -4.19623 0.607677 0
M  V30 6052 C 565.577 -3.31685 -0.5905 0
M  V30 6053 O 566.107 -3.67085 -1.63131 0
M  V30 6054 N 564.313 -2.84797 -0.577859 0
M  V30 6055 H 563.86 -2.56186 0.26951 0
M  V30 6056 H 563.818 -2.79279 -1.44398 0
M  V30 6057 N 567.59 -1.07411 -1.15328 0
M  V30 6058 C 568.815 -0.818856 -1.90551 0
M  V30 6059 C 569.24 0.622194 -1.77512 0
M  V30 6060 O 568.598 1.43484 -1.10824 0
M  V30 6061 C 568.646 -1.23267 -3.38877 0
M  V30 6062 O 567.75 -0.378345 -4.10661 0
M  V30 6063 H 567.091 -0.29827 -0.593238 0
M  V30 6064 H 569.621 -1.43289 -1.46046 0
M  V30 6065 H 569.631 -1.20912 -3.89672 0
M  V30 6066 H 568.306 -2.28226 -3.47686 0
M  V30 6067 H 566.883 -0.464437 -3.69996 0
M  V30 6068 N 569.068 1.32177 -0.85831 0
M  V30 6069 C 570.016 2.30729 -0.294442 0
M  V30 6070 C 571.01 1.59009 0.584165 0
M  V30 6071 O 572.216 1.73713 0.471562 0
M  V30 6072 H 568.591 0.748097 -0.0765171 0
M  V30 6073 H 570.562 2.75774 -1.1398 0
M  V30 6074 C 569.311 3.44098 0.499208 0
M  V30 6075 H 568.634 3.99449 -0.167579 0
M  V30 6076 H 570.074 4.15202 0.859273 0
M  V30 6077 C 568.533 2.91684 1.68588 0
M  V30 6078 O 569.063 2.89481 2.78503 0
M  V30 6079 N 567.269 2.48036 1.51415 0
M  V30 6080 H 566.816 2.50027 0.620006 0
M  V30 6081 H 566.774 2.13322 2.30957 0
M  V30 6082 N 570.547 0.616602 1.45037 0
M  V30 6083 C 571.796 0.112861 2.01384 0
M  V30 6084 C 572.109 -1.26758 1.48969 0
M  V30 6085 O 573.315 -1.86454 1.9735 0
M  V30 6086 C 571.771 0.151057 3.59583 0
M  V30 6087 C 571.379 1.53191 4.20995 0
M  V30 6088 C 573.123 -0.296974 4.2346 0
M  V30 6089 C 571.03 1.526 5.71373 0
M  V30 6090 H 569.96 0.0384254 0.75302 0
M  V30 6091 H 572.611 0.773262 1.66412 0
M  V30 6092 H 570.993 -0.57617 3.91786 0
M  V30 6093 H 572.167 2.28156 4.00352 0
M  V30 6094 H 570.482 1.92279 3.69348 0
M  V30 6095 H 573.079 -0.320712 5.33737 0
M  V30 6096 H 573.422 -1.32145 3.9477 0
M  V30 6097 H 573.955 0.377279 3.96007 0
M  V30 6098 H 570.694 2.52837 6.04776 0
M  V30 6099 H 570.214 0.819064 5.94181 0
M  V30 6100 H 571.893 1.25357 6.3474 0
M  V30 6101 N 572.025 -1.5352 0.356285 0
M  V30 6102 C 573.253 -2.05534 -0.237328 0
M  V30 6103 C 573.668 -1.23043 -1.43199 0
M  V30 6104 O 573.025 -0.268821 -1.80509 0
M  V30 6105 C 573.076 -3.55791 -0.639933 0
M  V30 6106 O 572.797 -4.35154 0.507233 0
M  V30 6107 C 574.298 -4.24027 -1.29292 0
M  V30 6108 H 571.518 -0.669585 -0.0435572 0
M  V30 6109 H 574.062 -1.97988 0.511963 0
M  V30 6110 H 572.217 -3.63518 -1.33915 0
M  V30 6111 H 572.631 -5.24178 0.18375 0
M  V30 6112 H 574.105 -5.30509 -1.52527 0
M  V30 6113 H 574.582 -3.77166 -2.25039 0
M  V30 6114 H 575.188 -4.20527 -0.63539 0
M  V30 6115 N 573.503 -0.0852151 -1.57369 0
M  V30 6116 C 574.919 0.271436 -1.57275 0
M  V30 6117 C 575.119 1.69109 -1.09565 0
M  V30 6118 O 574.175 2.40549 -0.767611 0
M  V30 6119 C 575.488 0.0688638 -3.00621 0
M  V30 6120 C 577.036 0.137373 -3.12698 0
M  V30 6121 C 577.511 -0.0370832 -4.57985 0
M  V30 6122 N 579.002 0.0180794 -4.63196 0
M  V30 6123 C 579.737 -0.0922953 -5.73326 0
M  V30 6124 N 579.233 -0.256948 -6.92323 0
M  V30 6125 N 581.026 -0.0342702 -5.6209 0
M  V30 6126 H 573.177 -1.01288 -1.86693 0
M  V30 6127 H 575.44 -0.396138 -0.861266 0
M  V30 6128 H 575.146 -0.911277 -3.39689 0
M  V30 6129 H 575.02 0.815442 -3.6828 0
M  V30 6130 H 577.407 1.10801 -2.73509 0
M  V30 6131 H 577.488 -0.640532 -2.47651 0
M  V30 6132 H 577.132 -1.00455 -4.97867 0
M  V30 6133 H 577.062 0.760392 -5.21081 0
M  V30 6134 H 579.553 0.143202 -3.77629 0
M  V30 6135 H 579.866 -0.332949 -7.72082 0
M  V30 6136 H 578.211 -0.292487 -6.94384 0
M  V30 6137 H 581.402 0.0931605 -4.68007 0
M  V30 6138 H 581.575 -0.12374 -6.47882 0
M  V30 6139 N 574.981 1.5647 0.188427 0
M  V30 6140 C 575.944 1.9421 1.21718 0
M  V30 6141 C 576.944 0.823901 1.38089 0
M  V30 6142 O 578.134 1.09122 1.35787 0
M  V30 6143 C 575.266 2.22197 2.58537 0
M  V30 6144 H 576.459 2.86252 0.894418 0
M  V30 6145 H 574.012 1.50263 0.430211 0
M  V30 6146 H 574.747 1.32814 2.95856 0
M  V30 6147 H 574.532 3.03688 2.48025 0
M  V30 6148 H 576.022 2.52376 3.3271 0
M  V30 6149 N 576.459 -0.456382 1.50847 0
M  V30 6150 C 577.407 -1.57318 1.71329 0
M  V30 6151 C 578.401 -1.59187 0.579287 0
M  V30 6152 O 579.607 -1.6316 0.76018 0
M  V30 6153 H 575.982 -0.5223 0.541024 0
M  V30 6154 H 577.953 -1.3721 2.64983 0
M  V30 6155 C 576.702 -2.95142 1.83811 0
M  V30 6156 H 576.025 -2.94428 2.70467 0
M  V30 6157 H 577.465 -3.72702 2.02161 0
M  V30 6158 C 575.924 -3.31636 0.593224 0
M  V30 6159 O 576.454 -4.00852 -0.260898 0
M  V30 6160 N 574.66 -2.87205 0.442902 0
M  V30 6161 H 574.207 -2.31051 1.13901 0
M  V30 6162 H 574.165 -3.11986 -0.38884 0
M  V30 6163 N 577.937 -1.40673 -0.710563 0
M  V30 6164 C 579.177 -1.40677 -1.48288 0
M  V30 6165 C 579.541 -0.0097193 -1.91998 0
M  V30 6166 O 580.742 0.115381 -2.68552 0
M  V30 6167 C 579.013 -2.37289 -2.67262 0
M  V30 6168 S 580.572 -2.55694 -3.56603 0
M  V30 6169 H 577.39 -0.498545 -0.506926 0
M  V30 6170 H 579.992 -1.76984 -0.830472 0
M  V30 6171 H 578.696 -3.37617 -2.3333 0
M  V30 6172 H 578.227 -2.02282 -3.3741 0
M  V30 6173 H 580.242 -1.81311 -4.61888 0
M  V30 6174 N 579.415 0.9433 -1.26252 0
M  V30 6175 C 580.363 2.06302 -1.07434 0
M  V30 6176 C 581.357 1.694 -0.00189471 0
M  V30 6177 O 582.563 1.79302 -0.158408 0
M  V30 6178 H 578.938 0.675453 -0.330556 0
M  V30 6179 H 580.909 2.19326 -2.02333 0
M  V30 6180 C 579.658 3.40125 -0.721817 0
M  V30 6181 H 578.981 3.68996 -1.5389 0
M  V30 6182 H 580.421 4.19295 -0.629922 0
M  V30 6183 C 578.88 3.31993 0.572902 0
M  V30 6184 O 579.41 3.67945 1.61182 0
M  V30 6185 N 577.616 2.85099 0.562748 0
M  V30 6186 H 577.163 2.5604 -0.283092 0
M  V30 6187 H 577.121 2.80041 1.42915 0
M  V30 6188 N 580.893 1.08022 1.14757 0
M  V30 6189 C 581.84 0.706657 2.19716 0
M  V30 6190 C 582.81 -0.30525 1.63271 0
M  V30 6191 O 583.995 -0.19015 1.8985 0
M  V30 6192 C 581.135 0.117914 3.44898 0
M  V30 6193 C 580.248 1.18212 4.15512 0
M  V30 6194 C 579.383 0.557659 5.28265 0
M  V30 6195 C 578.422 1.60418 5.90705 0
M  V30 6196 N 577.559 1.0018 6.94916 0
M  V30 6197 H 582.399 1.60603 2.51019 0
M  V30 6198 H 579.936 0.802664 1.23271 0
M  V30 6199 H 581.894 -0.241112 4.16503 0
M  V30 6200 H 580.524 -0.744788 3.1409 0
M  V30 6201 H 579.576 1.65863 3.42335 0
M  V30 6202 H 580.888 1.97533 4.5802 0
M  V30 6203 H 580.042 0.146654 6.06523 0
M  V30 6204 H 578.781 -0.267249 4.86967 0
M  V30 6205 H 577.786 2.02489 5.11154 0
M  V30 6206 H 579.011 2.43149 6.34078 0
M  V30 6207 H 576.957 0.197917 6.55701 0
M  V30 6208 H 576.874 1.73216 7.35889 0
M  V30 6209 H 578.142 0.616523 7.77058 0
M  V30 6210 N 582.371 -1.3172 0.865308 0
M  V30 6211 C 583.304 -2.26687 0.262376 0
M  V30 6212 C 584.282 -1.50894 -0.605787 0
M  V30 6213 O 585.466 -1.79982 -0.56024 0
M  V30 6214 C 582.593 -3.3281 -0.628915 0
M  V30 6215 C 581.639 -4.26172 0.167278 0
M  V30 6216 S 582.472 -5.12797 1.54272 0
M  V30 6217 C 583.628 -6.22438 0.657427 0
M  V30 6218 H 583.861 -2.77478 1.0674 0
M  V30 6219 H 581.394 -1.39414 0.663555 0
M  V30 6220 H 583.352 -3.94426 -1.13747 0
M  V30 6221 H 582.013 -2.80782 -1.40785 0
M  V30 6222 H 581.206 -5.01392 -0.51203 0
M  V30 6223 H 580.808 -3.69029 0.607777 0
M  V30 6224 H 583.1 -6.77368 -0.133925 0
M  V30 6225 H 584.043 -6.9451 1.38061 0
M  V30 6226 H 584.451 -5.64043 0.227044 0
M  V30 6227 N 583.85 -0.624285 -1.44708 0
M  V30 6228 C 585.099 -0.123539 -2.01321 0
M  V30 6229 C 585.412 1.25966 -1.49639 0
M  V30 6230 O 586.618 1.85405 -1.98336 0
M  V30 6231 C 585.074 -0.170124 -3.59498 0
M  V30 6232 C 584.682 -1.55421 -4.20176 0
M  V30 6233 C 586.426 0.274513 -4.23611 0
M  V30 6234 C 584.332 -1.55628 -5.70556 0
M  V30 6235 H 583.263 -0.0424183 -0.752806 0
M  V30 6236 H 585.913 -0.782076 -1.65999 0
M  V30 6237 H 584.296 0.555385 -3.92086 0
M  V30 6238 H 585.47 -2.30276 -3.99136 0
M  V30 6239 H 583.784 -1.94235 -3.68323 0
M  V30 6240 H 586.382 0.292402 -5.339 0
M  V30 6241 H 586.725 1.3005 -3.95465 0
M  V30 6242 H 587.258 -0.398275 -3.95801 0
M  V30 6243 H 583.997 -2.56041 -6.03426 0
M  V30 6244 H 583.517 -0.850563 -5.93739 0
M  V30 6245 H 585.196 -1.28721 -6.34066 0
M  V30 6246 N 585.328 1.53329 -0.364422 0
M  V30 6247 C 586.261 2.22052 0.526145 0
M  V30 6248 C 587.239 1.21203 1.08391 0
M  V30 6249 O 588.423 1.50101 1.14026 0
M  V30 6250 C 585.55 2.91432 1.72583 0
M  V30 6251 C 584.596 4.06345 1.29562 0
M  V30 6252 S 585.429 5.34671 0.297885 0
M  V30 6253 C 586.585 6.07563 1.50392 0
M  V30 6254 H 586.818 2.97244 -0.0575055 0
M  V30 6255 H 584.351 1.53684 -0.148525 0
M  V30 6256 H 586.309 3.3202 2.41398 0
M  V30 6257 H 584.97 2.15966 2.28073 0
M  V30 6258 H 584.163 4.53901 2.19067 0
M  V30 6259 H 583.765 3.67642 0.686696 0
M  V30 6260 H 586.057 6.32224 2.43513 0
M  V30 6261 H 587 6.99973 1.06977 0
M  V30 6262 H 587.408 5.37994 1.70945 0
M  V30 6263 N 586.806 0.0935595 1.57322 0
M  V30 6264 C 587.739 -0.902505 2.09595 0
M  V30 6265 C 588.717 -1.27732 1.00615 0
M  V30 6266 O 589.901 -1.38283 1.28102 0
M  V30 6267 C 587.028 -2.20416 2.57166 0
M  V30 6268 C 586.074 -1.97932 3.7779 0
M  V30 6269 S 586.907 -1.21873 5.21447 0
M  V30 6270 C 588.063 -2.53273 5.72367 0
M  V30 6271 H 588.296 -0.457797 2.93754 0
M  V30 6272 H 585.829 -0.119694 1.53935 0
M  V30 6273 H 587.787 -2.95217 2.85232 0
M  V30 6274 H 586.448 -2.62008 1.73235 0
M  V30 6275 H 585.641 -2.94316 4.09138 0
M  V30 6276 H 585.243 -1.3126 3.5021 0
M  V30 6277 H 587.535 -3.49256 5.8054 0
M  V30 6278 H 588.478 -2.26505 6.70896 0
M  V30 6279 H 588.886 -2.61475 5.00291 0
M  V30 6280 N 588.284 -1.56567 -0.180126 0
M  V30 6281 C 589.531 -1.81492 -0.898167 0
M  V30 6282 C 589.859 -0.669225 -1.82624 0
M  V30 6283 O 589.114 0.344096 -1.92651 0
M  V30 6284 C 589.413 -3.1252 -1.73395 0
M  V30 6285 C 589.079 -4.40658 -0.955567 0
M  V30 6286 C 587.741 -4.75465 -0.740707 0
M  V30 6287 C 590.093 -5.19593 -0.408948 0
M  V30 6288 C 587.421 -5.86691 0.0320128 0
M  V30 6289 C 589.773 -6.31627 0.350638 0
M  V30 6290 C 588.437 -6.65007 0.576378 0
M  V30 6291 H 587.707 -0.664125 -0.328662 0
M  V30 6292 H 590.354 -1.908 -0.163616 0
M  V30 6293 H 588.659 -2.98515 -2.53763 0
M  V30 6294 H 590.356 -3.29013 -2.29241 0
M  V30 6295 H 586.946 -4.13352 -1.13306 0
M  V30 6296 H 591.13 -4.93104 -0.562307 0
M  V30 6297 H 586.386 -6.11016 0.216735 0
M  V30 6298 H 590.56 -6.92001 0.781497 0
M  V30 6299 H 588.187 -7.51033 1.17703 0
M  V30 6300 N 589.762 0.448376 -1.51087 0
M  V30 6301 C 590.99 1.22143 -1.66999 0
M  V30 6302 C 591.405 1.85283 -0.362699 0
M  V30 6303 O 590.762 1.70236 0.65772 0
M  V30 6304 C 590.813 2.31357 -2.7777 0
M  V30 6305 O 590.534 1.70801 -4.03434 0
M  V30 6306 C 592.035 3.21836 -3.04855 0
M  V30 6307 H 589.255 0.368558 -0.560719 0
M  V30 6308 H 591.799 0.532618 -1.97442 0
M  V30 6309 H 589.954 2.95973 -2.49958 0
M  V30 6310 H 590.368 2.42895 -4.64868 0
M  V30 6311 H 591.842 3.94627 -3.85971 0
M  V30 6312 H 592.319 3.81949 -2.16821 0
M  V30 6313 H 592.925 2.62933 -3.34285 0
M  V30 6314 N 591.24 1.41047 0.703093 0
M  V30 6315 C 592.517 1.30493 1.45708 0
M  V30 6316 C 592.897 -0.0709892 2.10981 0
M  V30 6317 O 592.245 -1.08471 2.01113 0
M  V30 6318 C 592.455 2.45287 2.48265 0
M  V30 6319 C 593.803 2.86104 3.13735 0
M  V30 6320 O 594.827 2.44971 2.58587 0
M  V30 6321 O 593.686 3.57206 4.13601 0
M  V30 6322 H 590.78 0.513144 0.648546 0
M  V30 6323 H 593.326 1.52995 0.734208 0
M  V30 6324 H 592.098 3.37135 1.98635 0
M  V30 6325 H 591.721 2.24622 3.28071 0
M  V30 6326 N 592.718 -0.936591 1.26751 0
M  V30 6327 C 593.966 -1.67998 1.12343 0
M  V30 6328 C 594.287 -1.92137 -0.332938 0
M  V30 6329 O 593.557 -1.52132 -1.23421 0
M  V30 6330 H 592.137 -0.622609 0.412756 0
M  V30 6331 H 594.799 -1.12509 1.59147 0
M  V30 6332 H 593.895 -2.65185 1.64571 0
M  V30 6333 N 594.196 -1.08629 -1.14182 0
M  V30 6334 C 595.444 -0.815731 -1.84906 0
M  V30 6335 C 595.765 0.660441 -1.83475 0
M  V30 6336 O 595.035 1.47888 -1.28476 0
M  V30 6337 H 593.615 -0.298773 -0.684648 0
M  V30 6338 H 596.277 -1.37274 -1.38354 0
M  V30 6339 H 595.373 -1.16193 -2.89665 0
M  V30 6340 N 595.674 1.31259 -0.872281 0
M  V30 6341 C 596.584 2.32221 -0.333255 0
M  V30 6342 C 597.6 1.6481 0.558013 0
M  V30 6343 O 598.776 1.96212 0.454175 0
M  V30 6344 C 595.841 3.43708 0.454479 0
M  V30 6345 C 594.902 4.26774 -0.465024 0
M  V30 6346 C 594.135 5.32937 0.28521 0
M  V30 6347 O 594.358 5.49968 1.513 0
M  V30 6348 O 593.292 6.00834 -0.358126 0
M  V30 6349 H 597.118 2.80252 -1.17016 0
M  V30 6350 H 594.703 1.352 -0.635724 0
M  V30 6351 H 596.585 4.11656 0.900963 0
M  V30 6352 H 595.26 2.97836 1.26789 0
M  V30 6353 H 594.167 3.61571 -0.960055 0
M  V30 6354 H 595.5 4.76217 -1.2441 0
M  V30 6355 N 597.152 0.631951 1.44375 0
M  V30 6356 C 598.429 0.067646 1.95483 0
M  V30 6357 C 598.809 -1.40683 1.57389 0
M  V30 6358 O 598.157 -2.12167 0.848375 0
M  V30 6359 C 598.367 0.291392 3.47781 0
M  V30 6360 C 599.715 0.185028 4.24197 0
M  V30 6361 O 600.739 0.222803 3.55503 0
M  V30 6362 O 599.598 0.0906642 5.46425 0
M  V30 6363 H 596.692 -0.0218379 0.826712 0
M  V30 6364 H 599.238 0.703711 1.54421 0
M  V30 6365 H 598.01 1.31449 3.68561 0
M  V30 6366 H 597.633 -0.378772 3.95792 0
M  V30 6367 N 598.631 -1.53133 0.372548 0
M  V30 6368 C 600.047 -1.59585 0.02178 0
M  V30 6369 C 600.247 -1.38736 -1.46132 0
M  V30 6370 O 599.303 -1.19599 -2.22379 0
M  V30 6371 C 600.616 -2.9678 0.483959 0
M  V30 6372 C 602.164 -3.09909 0.438775 0
M  V30 6373 C 602.639 -4.49527 0.876876 0
M  V30 6374 N 604.13 -4.55663 0.832214 0
M  V30 6375 C 604.865 -5.61896 1.14281 0
M  V30 6376 N 604.361 -6.75852 1.52303 0
M  V30 6377 N 606.154 -5.51916 1.06515 0
M  V30 6378 H 598.305 -1.64936 1.33827 0
M  V30 6379 H 600.568 -0.773947 0.547458 0
M  V30 6380 H 600.274 -3.17198 1.51915 0
M  V30 6381 H 600.148 -3.7699 -0.125784 0
M  V30 6382 H 602.535 -2.89197 -0.587294 0
M  V30 6383 H 602.616 -2.31691 1.0841 0
M  V30 6384 H 602.26 -4.70979 1.90109 0
M  V30 6385 H 602.19 -5.26186 0.208727 0
M  V30 6386 H 604.681 -3.73844 0.552195 0
M  V30 6387 H 604.994 -7.52862 1.7441 0
M  V30 6388 H 603.339 -6.77226 1.56175 0
M  V30 6389 H 606.53 -4.6177 0.767235 0
M  V30 6390 H 606.703 -6.34609 1.31053 0
M  V30 6391 N 600.109 -0.101901 -1.5727 0
M  V30 6392 C 601.355 0.561027 -1.94885 0
M  V30 6393 C 601.688 1.6741 -0.984258 0
M  V30 6394 O 600.963 1.94491 -0.0184767 0
M  V30 6395 C 601.246 1.10982 -3.42571 0
M  V30 6396 C 601.099 0.00133418 -4.498 0
M  V30 6397 C 602.418 2.00608 -3.9172 0
M  V30 6398 H 599.537 0.202467 -0.708644 0
M  V30 6399 H 602.179 -0.173992 -1.89202 0
M  V30 6400 H 600.329 1.73621 -3.47546 0
M  V30 6401 H 602.001 -0.63322 -4.56933 0
M  V30 6402 H 600.244 -0.664143 -4.28686 0
M  V30 6403 H 600.915 0.426253 -5.50352 0
M  V30 6404 H 603.391 1.47864 -3.88941 0
M  V30 6405 H 602.267 2.3593 -4.95609 0
M  V30 6406 H 602.528 2.92608 -3.3141 0
M  V30 6407 N 601.587 1.56661 0.17182 0
M  V30 6408 C 602.519 1.92934 1.2373 0
M  V30 6409 C 603.532 0.822385 1.40502 0
M  V30 6410 O 604.721 1.10083 1.40514 0
M  V30 6411 C 601.821 2.16651 2.60607 0
M  V30 6412 C 600.994 3.47878 2.6514 0
M  V30 6413 C 600.053 3.60429 3.83377 0
M  V30 6414 O 599.079 4.33051 3.69398 0
M  V30 6415 N 600.281 2.95241 4.99813 0
M  V30 6416 H 603.046 2.84931 0.929205 0
M  V30 6417 H 600.607 1.5781 0.361588 0
M  V30 6418 H 602.599 2.22312 3.38171 0
M  V30 6419 H 601.169 1.3104 2.83809 0
M  V30 6420 H 600.389 3.53879 1.73675 0
M  V30 6421 H 601.677 4.34232 2.6518 0
M  V30 6422 H 601.075 2.3611 5.14071 0
M  V30 6423 H 599.632 3.06499 5.75241 0
M  V30 6424 N 603.065 -0.440357 1.51323 0
M  V30 6425 C 604.342 -1.20109 1.5438 0
M  V30 6426 C 604.722 -2.08866 0.306303 0
M  V30 6427 O 604.07 -2.1723 -0.708773 0
M  V30 6428 C 604.28 -2.00555 2.8562 0
M  V30 6429 C 605.628 -2.577 3.37455 0
M  V30 6430 O 606.652 -2.10769 2.8715 0
M  V30 6431 O 605.511 -3.43289 4.25224 0
M  V30 6432 H 602.605 -0.546668 0.620551 0
M  V30 6433 H 605.151 -0.449672 1.63634 0
M  V30 6434 H 603.923 -1.35346 3.67147 0
M  V30 6435 H 603.546 -2.82768 2.79514 0
M  V30 6436 N 604.543 -1.41418 -0.695603 0
M  V30 6437 C 605.789 -1.40982 -1.4578 0
M  V30 6438 C 606.122 -0.0187763 -1.94191 0
M  V30 6439 O 605.397 0.95346 -1.69527 0
M  V30 6440 C 605.68 -2.41657 -2.66972 0
M  V30 6441 C 605.533 -3.89869 -2.24327 0
M  V30 6442 C 606.852 -2.39589 -3.69168 0
M  V30 6443 H 603.971 -0.513405 -0.528757 0
M  V30 6444 H 606.613 -1.72693 -0.792275 0
M  V30 6445 H 604.763 -2.14746 -3.23754 0
M  V30 6446 H 606.435 -4.27683 -1.72872 0
M  V30 6447 H 604.678 -4.04737 -1.56111 0
M  V30 6448 H 605.349 -4.55857 -3.11285 0
M  V30 6449 H 607.825 -2.63471 -3.2206 0
M  V30 6450 H 606.701 -3.12044 -4.51575 0
M  V30 6451 H 606.962 -1.41447 -4.18862 0
M  V30 6452 N 606.021 0.929856 -1.27246 0
M  V30 6453 C 607.268 1.67731 -1.13457 0
M  V30 6454 C 607.596 1.9185 0.319998 0
M  V30 6455 O 606.851 1.50524 1.25064 0
M  V30 6456 C 607.15 3.05116 -1.86115 0
M  V30 6457 C 606.816 3.00715 -3.35978 0
M  V30 6458 C 605.478 2.99222 -3.76855 0
M  V30 6459 C 607.83 2.92168 -4.3161 0
M  V30 6460 C 605.158 2.86962 -5.11732 0
M  V30 6461 C 607.51 2.81449 -5.66542 0
M  V30 6462 C 606.174 2.78305 -6.06715 0
M  V30 6463 H 605.444 0.613772 -0.415168 0
M  V30 6464 H 608.091 1.08456 -1.57827 0
M  V30 6465 H 606.396 3.68083 -1.34246 0
M  V30 6466 H 608.093 3.61822 -1.72876 0
M  V30 6467 H 604.683 3.02664 -3.03468 0
M  V30 6468 H 608.867 2.92421 -4.01003 0
M  V30 6469 H 604.123 2.82913 -5.42006 0
M  V30 6470 H 608.297 2.738 -6.40317 0
M  V30 6471 H 605.924 2.68561 -7.11181 0
M  V30 6472 N 607.499 1.09233 1.13605 0
M  V30 6473 C 608.409 0.741939 2.22559 0
M  V30 6474 C 609.425 -0.255236 1.72118 0
M  V30 6475 O 610.601 -0.0970747 2.01166 0
M  V30 6476 C 607.666 0.165595 3.46304 0
M  V30 6477 C 606.727 1.21846 4.11645 0
M  V30 6478 C 605.96 0.669526 5.29484 0
M  V30 6479 O 606.183 -0.508228 5.68131 0
M  V30 6480 O 605.117 1.42361 5.84822 0
M  V30 6481 H 608.943 1.65107 2.54899 0
M  V30 6482 H 606.528 0.866584 1.21699 0
M  V30 6483 H 608.41 -0.152592 4.21124 0
M  V30 6484 H 607.085 -0.716573 3.15669 0
M  V30 6485 H 605.992 1.58931 3.38662 0
M  V30 6486 H 607.325 2.07321 4.46407 0
M  V30 6487 N 608.977 -1.30795 0.87923 0
M  V30 6488 C 609.924 -2.28282 0.339968 0
M  V30 6489 C 610.894 -1.56134 -0.566685 0
M  V30 6490 O 612.079 -1.84231 -0.496338 0
M  V30 6491 C 609.219 -3.42225 -0.444501 0
M  V30 6492 C 608.332 -4.29204 0.490717 0
M  V30 6493 C 607.467 -5.30302 -0.308784 0
M  V30 6494 C 606.506 -6.08929 0.622272 0
M  V30 6495 N 605.643 -7.01957 -0.14155 0
M  V30 6496 H 610.483 -2.73794 1.17647 0
M  V30 6497 H 608.02 -1.34682 0.591527 0
M  V30 6498 H 609.978 -4.07038 -0.915186 0
M  V30 6499 H 608.608 -2.97799 -1.24562 0
M  V30 6500 H 607.66 -3.6475 1.07988 0
M  V30 6501 H 608.972 -4.84045 1.20425 0
M  V30 6502 H 608.126 -6.00835 -0.841575 0
M  V30 6503 H 606.865 -4.7614 -1.05556 0
M  V30 6504 H 605.87 -5.37278 1.16674 0
M  V30 6505 H 607.095 -6.65178 1.36804 0
M  V30 6506 H 605.041 -6.50192 -0.870966 0
M  V30 6507 H 604.958 -7.54261 0.51246 0
M  V30 6508 H 606.226 -7.76741 -0.655271 0
M  V30 6509 N 610.455 -0.639598 -1.44038 0
M  V30 6510 C 611.685 -0.154586 -2.06021 0
M  V30 6511 C 612.093 1.17951 -1.47933 0
M  V30 6512 O 611.436 1.73627 -0.59994 0
M  V30 6513 C 611.498 0.0255459 -3.59491 0
M  V30 6514 C 611.162 -1.2317 -4.40089 0
M  V30 6515 C 612.159 -2.15735 -4.73027 0
M  V30 6516 C 609.844 -1.46949 -4.80324 0
M  V30 6517 C 611.838 -3.30382 -5.45093 0
M  V30 6518 C 609.525 -2.61891 -5.52138 0
M  V30 6519 C 610.523 -3.53433 -5.84443 0
M  V30 6520 O 610.211 -4.6637 -6.54793 0
M  V30 6521 H 609.943 -0.0808543 -0.671147 0
M  V30 6522 H 612.497 -0.876541 -1.85758 0
M  V30 6523 H 610.727 0.802733 -3.78276 0
M  V30 6524 H 612.416 0.466184 -4.03214 0
M  V30 6525 H 613.182 -1.98602 -4.42473 0
M  V30 6526 H 609.061 -0.765815 -4.54595 0
M  V30 6527 H 612.605 -4.01856 -5.70226 0
M  V30 6528 H 608.502 -2.78964 -5.82108 0
M  V30 6529 H 609.27 -4.6546 -6.73267 0
M  V30 6530 N 611.933 1.52934 -0.380664 0
M  V30 6531 C 612.881 2.27727 0.47361 0
M  V30 6532 C 613.875 1.31288 1.0705 0
M  V30 6533 O 615.081 1.4886 1.01197 0
M  V30 6534 H 611.456 0.732189 0.171475 0
M  V30 6535 H 613.427 2.97864 -0.178785 0
M  V30 6536 C 612.176 3.0904 1.59341 0
M  V30 6537 H 611.499 3.831 1.14343 0
M  V30 6538 H 612.939 3.64527 2.16555 0
M  V30 6539 C 611.398 2.20813 2.54447 0
M  V30 6540 O 611.928 1.82907 3.57642 0
M  V30 6541 N 610.134 1.85145 2.23986 0
M  V30 6542 H 609.681 2.16169 1.40103 0
M  V30 6543 H 609.639 1.26402 2.87871 0
M  V30 6544 N 613.412 0.11024 1.57214 0
M  V30 6545 C 614.658 -0.544479 1.95977 0
M  V30 6546 C 615.013 -1.64845 0.992171 0
M  V30 6547 O 614.306 -1.91589 0.0206981 0
M  V30 6548 C 614.5 -1.13102 3.39032 0
M  V30 6549 C 614.329 -0.0854079 4.49619 0
M  V30 6550 C 613.099 0.343373 5.04132 0
M  V30 6551 C 615.297 0.692232 5.0962 0
M  V30 6552 N 613.279 1.37567 5.98288 0
M  V30 6553 C 614.65 1.57596 5.99636 0
M  V30 6554 C 616.705 0.744085 4.92309 0
M  V30 6555 C 615.408 2.50701 6.74197 0
M  V30 6556 C 617.434 1.6628 5.67543 0
M  V30 6557 C 616.796 2.53412 6.57238 0
M  V30 6558 H 612.895 -0.169124 0.763493 0
M  V30 6559 H 615.479 0.196326 1.93708 0
M  V30 6560 H 613.65 -1.84158 3.41965 0
M  V30 6561 H 615.382 -1.74934 3.64939 0
M  V30 6562 H 612.137 -0.0473277 4.73576 0
M  V30 6563 H 612.561 1.89048 6.50069 0
M  V30 6564 H 617.203 0.0845825 4.22715 0
M  V30 6565 H 614.921 3.17669 7.43043 0
M  V30 6566 H 618.507 1.70825 5.56156 0
M  V30 6567 H 617.387 3.23347 7.14434 0
M  V30 6568 N 614.89 -1.56749 -0.16351 0
M  V30 6569 C 616.301 -1.72039 -0.725216 0
M  V30 6570 C 616.652 -0.72202 -1.82432 0
M  V30 6571 O 615.777 0.114942 -2.16095 0
M  V30 6572 C 616.372 -3.11932 -1.32227 0
M  V30 6573 C 614.931 -3.28879 -1.83072 0
M  V30 6574 C 614.078 -2.67984 -0.712716 0
M  V30 6575 H 617.029 -1.58579 0.0619772 0
M  V30 6576 H 617.05 -3.11015 -2.19202 0
M  V30 6577 H 616.562 -3.84572 -0.522103 0
M  V30 6578 H 614.663 -2.61209 -2.65708 0
M  V30 6579 H 614.776 -4.36688 -1.97079 0
M  V30 6580 H 613.14 -2.28005 -1.13515 0
M  V30 6581 H 613.923 -3.43216 0.0757361 0
M  V30 6582 N 616.368 0.432326 -1.51554 0
M  V30 6583 C 617.316 1.54572 -1.73811 0
M  V30 6584 C 618.31 1.58246 -0.604539 0
M  V30 6585 O 619.516 1.6193 -0.786041 0
M  V30 6586 H 615.891 0.513626 -0.549265 0
M  V30 6587 H 617.862 1.32977 -2.67132 0
M  V30 6588 C 616.611 2.92181 -1.88483 0
M  V30 6589 H 615.934 2.90088 -2.75116 0
M  V30 6590 H 617.374 3.69439 -2.08065 0
M  V30 6591 C 615.833 3.3065 -0.645909 0
M  V30 6592 O 616.363 4.01216 0.197093 0
M  V30 6593 N 614.569 2.86464 -0.488538 0
M  V30 6594 H 614.116 2.29209 -1.17562 0
M  V30 6595 H 614.074 3.12565 0.339156 0
M  V30 6596 N 617.846 1.41785 0.688094 0
M  V30 6597 C 619.262 1.24419 0.999608 0
M  V30 6598 C 619.462 0.138868 2.01021 0
M  V30 6599 O 618.518 -0.494283 2.47615 0
M  V30 6600 C 619.831 2.59625 1.51709 0
M  V30 6601 C 621.379 2.66869 1.63554 0
M  V30 6602 C 621.854 4.0241 2.18702 0
M  V30 6603 N 623.345 4.04295 2.26053 0
M  V30 6604 C 624.08 5.05977 2.69768 0
M  V30 6605 N 623.576 6.18047 3.13033 0
M  V30 6606 N 625.369 4.93336 2.69398 0
M  V30 6607 H 617.52 2.12392 0.0187427 0
M  V30 6608 H 619.783 0.945347 0.0708673 0
M  V30 6609 H 619.489 3.41297 0.849059 0
M  V30 6610 H 619.363 2.82628 2.49803 0
M  V30 6611 H 621.75 1.8555 2.29467 0
M  V30 6612 H 621.831 2.47668 0.639857 0
M  V30 6613 H 621.475 4.8418 1.53402 0
M  V30 6614 H 621.405 4.18955 3.19037 0
M  V30 6615 H 623.896 3.23383 1.9553 0
M  V30 6616 H 624.209 6.91498 3.45038 0
M  V30 6617 H 622.554 6.21572 3.10923 0
M  V30 6618 H 625.745 4.04865 2.34952 0
M  V30 6619 H 625.918 5.72717 3.03148 0
M  V30 6620 N 619.324 -0.923095 1.27737 0
M  V30 6621 C 620.552 -1.70525 1.17171 0
M  V30 6622 C 620.967 -1.86847 -0.270881 0
M  V30 6623 O 620.324 -1.38879 -1.18401 0
M  V30 6624 C 620.375 -3.10242 1.85559 0
M  V30 6625 O 620.096 -2.94683 3.24182 0
M  V30 6626 C 621.597 -4.04586 1.81176 0
M  V30 6627 H 618.817 -0.533347 0.407163 0
M  V30 6628 H 621.361 -1.15599 1.68692 0
M  V30 6629 H 619.516 -3.62014 1.3793 0
M  V30 6630 H 619.93 -3.83045 3.58297 0
M  V30 6631 H 621.404 -5.00119 2.33633 0
M  V30 6632 H 621.881 -4.3218 0.782099 0
M  V30 6633 H 622.487 -3.58741 2.2844 0
M  V30 6634 N 620.802 -1.09834 -1.13024 0
M  V30 6635 C 622.048 -0.83819 -1.84668 0
M  V30 6636 C 622.381 0.634645 -1.83537 0
M  V30 6637 O 621.656 1.46753 -1.27647 0
M  V30 6638 C 621.939 -1.37933 -3.32636 0
M  V30 6639 C 621.792 -2.91857 -3.42257 0
M  V30 6640 C 623.111 -1.01654 -4.28199 0
M  V30 6641 H 620.23 -0.30595 -0.670495 0
M  V30 6642 H 622.872 -1.36044 -1.32635 0
M  V30 6643 H 621.022 -0.935111 -3.77078 0
M  V30 6644 H 622.694 -3.44759 -3.06495 0
M  V30 6645 H 620.937 -3.28776 -2.83 0
M  V30 6646 H 621.608 -3.24799 -4.46329 0
M  V30 6647 H 624.084 -1.39973 -3.9185 0
M  V30 6648 H 622.96 -1.42217 -5.30156 0
M  V30 6649 H 623.221 0.0747794 -4.42037 0
M  V30 6650 N 622.28 1.30327 -0.886154 0
M  V30 6651 C 623.696 1.48676 -0.580323 0
M  V30 6652 C 623.896 1.81189 0.881639 0
M  V30 6653 O 622.952 1.90021 1.66278 0
M  V30 6654 C 624.265 2.60932 -1.49449 0
M  V30 6655 C 625.813 2.74812 -1.49824 0
M  V30 6656 C 626.288 3.90183 -2.39836 0
M  V30 6657 N 627.779 3.97495 -2.37806 0
M  V30 6658 C 628.514 4.86078 -3.04165 0
M  V30 6659 N 628.01 5.79448 -3.79753 0
M  V30 6660 N 629.803 4.79456 -2.93391 0
M  V30 6661 H 621.954 1.07495 -1.8319 0
M  V30 6662 H 624.217 0.532661 -0.784204 0
M  V30 6663 H 623.923 2.43731 -2.5355 0
M  V30 6664 H 623.797 3.57437 -1.20494 0
M  V30 6665 H 626.184 2.91418 -0.464731 0
M  V30 6666 H 626.265 1.78924 -1.82811 0
M  V30 6667 H 625.909 3.74334 -3.43273 0
M  V30 6668 H 625.839 4.85411 -2.04166 0
M  V30 6669 H 628.33 3.30703 -1.82877 0
M  V30 6670 H 628.643 6.43805 -4.27475 0
M  V30 6671 H 626.988 5.79376 -3.8386 0
M  V30 6672 H 630.179 4.05494 -2.33864 0
M  V30 6673 H 630.352 5.48283 -3.45383 0
M  V30 6674 N 623.758 0.647228 1.43697 0
M  V30 6675 C 625.004 0.158422 2.0218 0
M  V30 6676 C 625.337 -1.22233 1.50907 0
M  V30 6677 O 624.612 -1.81478 0.699702 0
M  V30 6678 C 624.895 0.1627 3.59732 0
M  V30 6679 C 624.748 1.57694 4.21251 0
M  V30 6680 C 626.067 -0.504138 4.37203 0
M  V30 6681 H 623.186 0.059042 0.734631 0
M  V30 6682 H 625.828 0.826772 1.71069 0
M  V30 6683 H 623.978 -0.406414 3.86368 0
M  V30 6684 H 625.65 2.19618 4.05667 0
M  V30 6685 H 623.893 2.12603 3.7813 0
M  V30 6686 H 624.564 1.53183 5.3032 0
M  V30 6687 H 627.04 -0.0199841 4.16095 0
M  V30 6688 H 625.916 -0.470394 5.46881 0
M  V30 6689 H 626.177 -1.57726 4.13007 0
M  V30 6690 N 625.236 -1.5273 0.388769 0
M  V30 6691 C 626.483 -2.01573 -0.19359 0
M  V30 6692 C 626.811 -1.27525 -1.46859 0
M  V30 6693 O 626.066 -0.363926 -1.92286 0
M  V30 6694 C 626.365 -3.53765 -0.508445 0
M  V30 6695 C 626.031 -4.4582 0.674947 0
M  V30 6696 C 624.693 -4.70703 0.999596 0
M  V30 6697 C 627.045 -5.00138 1.46666 0
M  V30 6698 C 624.373 -5.47155 2.11751 0
M  V30 6699 C 626.725 -5.77812 2.57518 0
M  V30 6700 C 625.389 -6.00975 2.90492 0
M  V30 6701 H 624.659 -0.737606 -0.0708397 0
M  V30 6702 H 627.306 -1.84134 0.526006 0
M  V30 6703 H 625.611 -3.69274 -1.30936 0
M  V30 6704 H 627.308 -3.8905 -0.971664 0
M  V30 6705 H 623.898 -4.26616 0.411906 0
M  V30 6706 H 628.082 -4.8084 1.22909 0
M  V30 6707 H 623.338 -5.63314 2.3767 0
M  V30 6708 H 627.512 -6.18904 3.19267 0
M  V30 6709 H 625.139 -6.59998 3.77236 0
M  V30 6710 N 626.714 -0.118576 -1.57153 0
M  V30 6711 C 627.942 0.54726 -1.99531 0
M  V30 6712 C 628.357 1.60251 -0.998246 0
M  V30 6713 O 627.714 1.82498 0.00893106 0
M  V30 6714 C 627.765 1.17378 -3.41913 0
M  V30 6715 O 627.486 0.160703 -4.37805 0
M  V30 6716 C 628.987 1.92297 -3.9942 0
M  V30 6717 H 626.207 0.144919 -0.655164 0
M  V30 6718 H 628.751 -0.20479 -2.03472 0
M  V30 6719 H 626.906 1.87661 -3.38913 0
M  V30 6720 H 627.32 0.61586 -5.20872 0
M  V30 6721 H 628.794 2.31462 -5.01128 0
M  V30 6722 H 629.271 2.79801 -3.38538 0
M  V30 6723 H 629.877 1.26777 -4.05965 0
M  V30 6724 N 628.193 1.56834 0.155195 0
M  V30 6725 C 629.44 1.82898 0.869179 0
M  V30 6726 C 629.768 0.698194 1.81537 0
M  V30 6727 O 629.023 -0.313404 1.93174 0
M  V30 6728 C 629.322 3.15239 1.68402 0
M  V30 6729 C 628.988 4.42123 0.885341 0
M  V30 6730 C 627.65 4.76583 0.664971 0
M  V30 6731 C 630.002 5.20178 0.326234 0
M  V30 6732 C 627.33 5.86566 -0.125346 0
M  V30 6733 C 629.682 6.3099 -0.45108 0
M  V30 6734 C 628.346 6.64006 -0.682102 0
M  V30 6735 H 627.616 0.66927 0.318055 0
M  V30 6736 H 630.263 1.91036 0.133241 0
M  V30 6737 H 628.568 3.02515 2.48982 0
M  V30 6738 H 630.265 3.32618 2.23978 0
M  V30 6739 H 626.855 4.15102 1.06716 0
M  V30 6740 H 631.039 4.93936 0.483787 0
M  V30 6741 H 626.295 6.10594 -0.313915 0
M  V30 6742 H 630.469 6.9067 -0.89149 0
M  V30 6743 H 628.096 7.49065 -1.29636 0
M  V30 6744 N 629.671 -0.424282 1.51781 0
M  V30 6745 C 630.896 -1.19928 1.6921 0
M  V30 6746 C 631.321 -1.8392 0.394355 0
M  V30 6747 O 630.679 -1.69371 -0.646778 0
M  V30 6748 C 630.727 -2.24937 2.81843 0
M  V30 6749 O 629.831 -3.3073 2.46356 0
M  V30 6750 H 629.172 -0.35078 0.563781 0
M  V30 6751 H 631.702 -0.499401 1.98412 0
M  V30 6752 H 631.712 -2.69512 3.06312 0
M  V30 6753 H 630.387 -1.77742 3.76006 0
M  V30 6754 H 628.964 -2.9154 2.32505 0
M  V30 6755 N 631.149 -1.42148 -0.680565 0
M  V30 6756 C 632.395 -1.42521 -1.44277 0
M  V30 6757 C 632.728 -0.0393718 -1.9416 0
M  V30 6758 O 632.003 0.935425 -1.70529 0
M  V30 6759 C 632.286 -2.44475 -2.64394 0
M  V30 6760 C 632.139 -3.92226 -2.20179 0
M  V30 6761 C 633.458 -2.43491 -3.66606 0
M  V30 6762 H 630.577 -0.518985 -0.523282 0
M  V30 6763 H 633.219 -1.73524 -0.773914 0
M  V30 6764 H 631.369 -2.18168 -3.21458 0
M  V30 6765 H 633.041 -4.29493 -1.68327 0
M  V30 6766 H 631.284 -4.0637 -1.5181 0
M  V30 6767 H 631.955 -4.59133 -3.06433 0
M  V30 6768 H 634.431 -2.66872 -3.19247 0
M  V30 6769 H 633.307 -3.16816 -4.4824 0
M  V30 6770 H 633.568 -1.45881 -4.17338 0
M  V30 6771 N 632.627 0.916307 -1.28225 0
M  V30 6772 C 633.875 1.6619 -1.15002 0
M  V30 6773 C 634.196 1.92642 0.302329 0
M  V30 6774 O 633.466 1.54076 1.20985 0
M  V30 6775 H 632.046 0.615964 -0.422608 0
M  V30 6776 H 634.708 1.09963 -1.60917 0
M  V30 6777 H 633.804 2.62533 -1.68769 0
M  V30 6778 N 634.105 1.10431 1.1244 0
M  V30 6779 C 635.037 0.710945 2.17895 0
M  V30 6780 C 636.05 -0.252315 1.60833 0
M  V30 6781 O 637.239 -0.03679 1.78462 0
M  V30 6782 C 634.339 0.0284262 3.38888 0
M  V30 6783 C 633.512 1.01585 4.2544 0
M  V30 6784 C 632.571 0.364826 5.24934 0
M  V30 6785 O 631.597 1.01561 5.60066 0
M  V30 6786 N 632.799 -0.87674 5.73841 0
M  V30 6787 H 635.564 1.61826 2.52255 0
M  V30 6788 H 633.125 0.993132 1.27861 0
M  V30 6789 H 635.117 -0.418568 4.0253 0
M  V30 6790 H 633.687 -0.781294 3.02679 0
M  V30 6791 H 632.907 1.64111 3.58415 0
M  V30 6792 H 634.195 1.68425 4.80115 0
M  V30 6793 H 633.593 -1.42483 5.47462 0
M  V30 6794 H 632.15 -1.26688 6.39369 0
M  V30 6795 N 635.583 -1.29855 0.893053 0
M  V30 6796 C 636.533 -2.25493 0.337211 0
M  V30 6797 C 637.517 -1.51606 -0.53894 0
M  V30 6798 O 638.709 -1.72828 -0.382043 0
M  V30 6799 C 635.838 -3.40467 -0.440117 0
M  V30 6800 C 634.924 -4.217 0.450578 0
M  V30 6801 N 635.315 -4.81312 1.55476 0
M  V30 6802 C 633.613 -4.45315 0.247154 0
M  V30 6803 C 634.314 -5.42241 2.10593 0
M  V30 6804 N 633.29 -5.25267 1.39982 0
M  V30 6805 H 637.092 -2.69137 1.18079 0
M  V30 6806 H 634.606 -1.44388 0.743359 0
M  V30 6807 H 636.603 -4.08038 -0.855021 0
M  V30 6808 H 635.263 -2.98361 -1.28104 0
M  V30 6809 H 636.274 -4.80291 1.93755 0
M  V30 6810 H 632.951 -4.13782 -0.555939 0
M  V30 6811 H 634.341 -5.99517 3.03362 0
M  V30 6812 N 637.061 -0.65484 -1.43351 0
M  V30 6813 C 638.009 0.0476784 -2.32551 0
M  V30 6814 C 639.003 0.811403 -1.48703 0
M  V30 6815 O 640.209 0.721621 -1.64902 0
M  V30 6816 H 636.584 0.0342038 -0.751222 0
M  V30 6817 H 638.555 -0.722342 -2.89525 0
M  V30 6818 C 637.304 0.999251 -3.33032 0
M  V30 6819 H 636.627 0.421005 -3.97577 0
M  V30 6820 H 638.067 1.45986 -3.98076 0
M  V30 6821 C 636.526 2.09606 -2.63756 0
M  V30 6822 O 637.056 3.18004 -2.4543 0
M  V30 6823 N 635.262 1.86207 -2.23103 0
M  V30 6824 H 634.809 0.980555 -2.38208 0
M  V30 6825 H 634.767 2.59787 -1.77081 0
M  V30 6826 N 638.539 1.52521 -0.396863 0
M  V30 6827 C 639.769 2.05792 0.182485 0
M  V30 6828 C 640.177 1.26784 1.40436 0
M  V30 6829 O 639.52 0.309617 1.81072 0
M  V30 6830 C 639.582 3.54291 0.609781 0
M  V30 6831 C 639.246 4.5426 -0.499674 0
M  V30 6832 C 640.243 5.01812 -1.35944 0
M  V30 6833 C 637.928 4.97827 -0.668864 0
M  V30 6834 C 639.922 5.91562 -2.37346 0
M  V30 6835 C 637.609 5.87376 -1.68621 0
M  V30 6836 C 638.607 6.34137 -2.53692 0
M  V30 6837 O 638.295 7.21915 -3.53686 0
M  V30 6838 H 638.027 0.675362 0.0293583 0
M  V30 6839 H 640.581 1.97539 -0.56281 0
M  V30 6840 H 638.811 3.60188 1.40717 0
M  V30 6841 H 640.5 3.90267 1.11565 0
M  V30 6842 H 641.266 4.68879 -1.24008 0
M  V30 6843 H 637.145 4.60997 -0.0163971 0
M  V30 6844 H 640.689 6.27983 -3.03782 0
M  V30 6845 H 636.586 6.19723 -1.80593 0
M  V30 6846 H 637.354 7.39996 -3.49784 0
M  V30 6847 N 640.017 0.126909 1.57088 0
M  V30 6848 C 641.294 -0.573152 1.87014 0
M  V30 6849 C 641.674 -1.84297 1.02945 0
M  V30 6850 O 641.022 -2.28232 0.110573 0
M  V30 6851 C 641.232 -0.857984 3.38289 0
M  V30 6852 C 642.58 -1.20759 4.07066 0
M  V30 6853 O 643.604 -0.947992 3.43353 0
M  V30 6854 O 642.463 -1.69516 5.19545 0
M  V30 6855 H 639.557 -0.290082 0.774456 0
M  V30 6856 H 642.103 0.162008 1.68925 0
M  V30 6857 H 640.875 0.0415286 3.91278 0
M  V30 6858 H 640.498 -1.64803 3.61837 0
M  V30 6859 N 641.495 -1.56914 -0.146875 0
M  V30 6860 C 642.741 -1.83628 -0.860741 0
M  V30 6861 C 643.074 -0.708528 -1.80813 0
M  V30 6862 O 642.349 0.287838 -1.92358 0
M  V30 6863 C 642.632 -3.20836 -1.63511 0
M  V30 6864 C 642.485 -4.44174 -0.709199 0
M  V30 6865 C 643.804 -3.55268 -2.59756 0
M  V30 6866 H 640.923 -0.667949 -0.311468 0
M  V30 6867 H 643.565 -1.89582 -0.125936 0
M  V30 6868 H 641.715 -3.15891 -2.26153 0
M  V30 6869 H 643.387 -4.61205 -0.0937781 0
M  V30 6870 H 641.63 -4.33796 -0.0187856 0
M  V30 6871 H 642.301 -5.36785 -1.28707 0
M  V30 6872 H 644.777 -3.60824 -2.07232 0
M  V30 6873 H 643.653 -4.52303 -3.10987 0
M  V30 6874 H 643.914 -2.81231 -3.41118 0
M  V30 6875 N 642.974 0.416227 -1.52004 0
M  V30 6876 C 644.202 1.18573 -1.69553 0
M  V30 6877 C 644.617 1.84472 -0.401919 0
M  V30 6878 O 643.974 1.71593 0.621463 0
M  V30 6879 C 644.025 2.25413 -2.82615 0
M  V30 6880 O 643.746 1.62205 -4.06966 0
M  V30 6881 C 645.247 3.15297 -3.11613 0
M  V30 6882 H 642.467 0.356582 -0.56841 0
M  V30 6883 H 645.011 0.490618 -1.98528 0
M  V30 6884 H 643.166 2.90604 -2.56179 0
M  V30 6885 H 643.58 2.3298 -4.69916 0
M  V30 6886 H 645.054 3.86351 -3.94255 0
M  V30 6887 H 645.531 3.77264 -2.24874 0
M  V30 6888 H 646.137 2.55783 -3.39787 0
M  V30 6889 N 644.452 1.42507 0.673017 0
M  V30 6890 C 645.863 1.38347 1.25367 0
M  V30 6891 C 646.214 0.0776327 1.96046 0
M  V30 6892 O 645.339 -0.823571 2.00116 0
M  V30 6893 C 645.934 2.506 2.28002 0
M  V30 6894 C 644.493 2.49767 2.81591 0
M  V30 6895 C 643.64 2.293 1.55938 0
M  V30 6896 H 646.591 1.51695 0.466288 0
M  V30 6897 H 646.612 2.20953 3.09774 0
M  V30 6898 H 646.124 3.45627 1.76532 0
M  V30 6899 H 644.225 1.58563 3.37177 0
M  V30 6900 H 644.338 3.46867 3.30485 0
M  V30 6901 H 642.702 1.77594 1.82572 0
M  V30 6902 H 643.485 3.26385 1.06431 0
M  V30 6903 N 645.93 -0.909495 1.28709 0
M  V30 6904 C 646.86 -2.0291 1.15542 0
M  V30 6905 C 647.841 -1.7002 0.0521017 0
M  V30 6906 O 649.026 -1.92835 0.229849 0
M  V30 6907 C 646.156 -3.37458 0.820935 0
M  V30 6908 C 645.11 -3.84524 1.87949 0
M  V30 6909 C 644.436 -5.16086 1.39854 0
M  V30 6910 C 645.736 -4.05918 3.28676 0
M  V30 6911 H 647.43 -2.14183 2.09203 0
M  V30 6912 H 644.976 -1.02913 1.00722 0
M  V30 6913 H 646.929 -4.1528 0.715571 0
M  V30 6914 H 645.653 -3.26249 -0.151374 0
M  V30 6915 H 644.312 -3.08911 1.97408 0
M  V30 6916 H 643.96 -5.01284 0.41518 0
M  V30 6917 H 643.66 -5.48547 2.1064 0
M  V30 6918 H 645.184 -5.96459 1.30649 0
M  V30 6919 H 646.598 -4.74252 3.22115 0
M  V30 6920 H 644.995 -4.49717 3.97334 0
M  V30 6921 H 646.065 -3.10583 3.72379 0
M  V30 6922 N 647.408 -1.11026 -1.11852 0
M  V30 6923 C 648.34 -0.72249 -2.17515 0
M  V30 6924 C 649.353 0.243782 -1.60964 0
M  V30 6925 O 650.542 0.0273252 -1.78479 0
M  V30 6926 C 647.642 -0.0463979 -3.38868 0
M  V30 6927 C 646.815 -1.0384 -4.24895 0
M  V30 6928 C 645.874 -0.392659 -5.24733 0
M  V30 6929 O 644.9 -1.0453 -5.5952 0
M  V30 6930 N 646.102 0.846296 -5.74298 0
M  V30 6931 H 648.867 -1.63161 -2.51393 0
M  V30 6932 H 646.428 -0.999899 -1.27333 0
M  V30 6933 H 648.42 0.397215 -4.02746 0
M  V30 6934 H 646.99 0.765231 -3.03089 0
M  V30 6935 H 646.21 -1.6601 -3.57539 0
M  V30 6936 H 647.498 -1.70968 -4.79215 0
M  V30 6937 H 646.896 1.39578 -5.4821 0
M  V30 6938 H 645.453 1.23296 -6.40032 0
M  V30 6939 N 648.886 1.2938 -0.899927 0
M  V30 6940 C 650.132 1.96206 -0.536153 0
M  V30 6941 C 650.487 1.69647 0.90761 0
M  V30 6942 O 649.78 0.999089 1.63489 0
M  V30 6943 C 649.974 3.49114 -0.765113 0
M  V30 6944 C 649.803 3.90538 -2.22958 0
M  V30 6945 C 648.573 4.15395 -2.87706 0
M  V30 6946 C 650.771 4.0224 -3.20479 0
M  V30 6947 N 648.753 4.43389 -4.24593 0
M  V30 6948 C 650.124 4.34288 -4.42486 0
M  V30 6949 C 652.179 3.84716 -3.16066 0
M  V30 6950 C 650.882 4.50638 -5.6064 0
M  V30 6951 C 652.908 4.02276 -4.33507 0
M  V30 6952 C 652.27 4.34684 -5.54283 0
M  V30 6953 H 648.369 0.742364 -0.245804 0
M  V30 6954 H 650.953 1.56314 -1.16078 0
M  V30 6955 H 649.124 3.88028 -0.169861 0
M  V30 6956 H 650.856 4.03035 -0.366751 0
M  V30 6957 H 647.611 4.09164 -2.385 0
M  V30 6958 H 648.035 4.61494 -4.95331 0
M  V30 6959 H 652.677 3.58724 -2.23778 0
M  V30 6960 H 650.395 4.75467 -6.5342 0
M  V30 6961 H 653.981 3.90169 -4.31578 0
M  V30 6962 H 652.861 4.47988 -6.43643 0
M  V30 6963 N 650.364 0.662433 1.43002 0
M  V30 6964 C 651.297 -0.073459 2.28082 0
M  V30 6965 C 652.275 -0.820869 1.40358 0
M  V30 6966 O 653.459 -0.818545 1.698 0
M  V30 6967 C 650.586 -1.11097 3.19961 0
M  V30 6968 C 649.632 -0.460557 4.24006 0
M  V30 6969 S 650.465 0.772717 5.29896 0
M  V30 6970 C 651.621 -0.264028 6.25343 0
M  V30 6971 H 651.854 0.648227 2.90147 0
M  V30 6972 H 649.387 0.451566 1.47649 0
M  V30 6973 H 651.345 -1.70452 3.73439 0
M  V30 6974 H 650.006 -1.80503 2.57056 0
M  V30 6975 H 649.199 -1.24299 4.88432 0
M  V30 6976 H 648.801 0.0591038 3.73953 0
M  V30 6977 H 651.093 -1.12748 6.68052 0
M  V30 6978 H 652.036 0.345443 7.07257 0
M  V30 6979 H 652.444 -0.603964 5.6126 0
M  V30 6980 N 651.842 -1.52309 0.404946 0
M  V30 6981 C 652.805 -2.25491 -0.410651 0
M  V30 6982 C 653.805 -1.27704 -0.977154 0
M  V30 6983 O 654.995 -1.51679 -0.856691 0
M  V30 6984 C 652.127 -3.02197 -1.57765 0
M  V30 6985 H 653.32 -2.99015 0.230277 0
M  V30 6986 H 650.873 -1.55506 0.157377 0
M  V30 6987 H 651.608 -2.33013 -2.25556 0
M  V30 6988 H 651.393 -3.73987 -1.17797 0
M  V30 6989 H 652.883 -3.57719 -2.15469 0
M  V30 6990 N 653.32 -0.135238 -1.57019 0
M  V30 6991 C 654.56 0.521686 -1.9763 0
M  V30 6992 C 654.924 1.62804 -1.01778 0
M  V30 6993 O 656.125 2.345 -1.31389 0
M  V30 6994 C 654.396 1.0257 -3.42365 0
M  V30 6995 S 655.955 1.68888 -4.04997 0
M  V30 6996 H 652.773 0.169064 -0.690607 0
M  V30 6997 H 655.375 -0.224168 -1.94211 0
M  V30 6998 H 654.079 0.209556 -4.09865 0
M  V30 6999 H 653.61 1.80645 -3.49472 0
M  V30 7000 H 655.625 2.97554 -3.97084 0
M  V30 7001 N 654.798 1.5699 0.138552 0
M  V30 7002 C 655.761 1.97984 1.15478 0
M  V30 7003 C 656.761 0.867416 1.35398 0
M  V30 7004 O 657.951 1.13387 1.32246 0
M  V30 7005 C 655.083 2.3031 2.51337 0
M  V30 7006 H 656.276 2.88953 0.802896 0
M  V30 7007 H 653.829 1.51555 0.382189 0
M  V30 7008 H 654.564 1.42159 2.91481 0
M  V30 7009 H 654.349 3.11425 2.38237 0
M  V30 7010 H 655.839 2.62834 3.24512 0
M  V30 7011 N 656.276 -0.40816 1.52223 0
M  V30 7012 C 657.224 -1.51788 1.76248 0
M  V30 7013 C 658.218 -1.57264 0.629638 0
M  V30 7014 O 659.424 -1.60659 0.811704 0
M  V30 7015 H 655.799 -0.504823 0.557367 0
M  V30 7016 H 657.77 -1.2871 2.69214 0
M  V30 7017 C 656.519 -2.89145 1.93107 0
M  V30 7018 H 655.842 -2.85674 2.79697 0
M  V30 7019 H 657.282 -3.66082 2.13916 0
M  V30 7020 C 655.741 -3.29581 0.698431 0
M  V30 7021 O 656.271 -4.01479 -0.133238 0
M  V30 7022 N 654.477 -2.85651 0.53405 0
M  V30 7023 H 654.024 -2.2731 1.21194 0
M  V30 7024 H 653.982 -3.13065 -0.289387 0
M  V30 7025 N 657.755 -1.42862 -0.66545 0
M  V30 7026 C 658.702 -1.4707 -1.77874 0
M  V30 7027 C 659.672 -0.321654 -1.62956 0
M  V30 7028 O 660.857 -0.52707 -1.83376 0
M  V30 7029 C 657.997 -1.38788 -3.15962 0
M  V30 7030 C 657.11 -2.63801 -3.42101 0
M  V30 7031 C 656.245 -2.47594 -4.69969 0
M  V30 7032 C 655.284 -3.67936 -4.89172 0
M  V30 7033 N 654.421 -3.50614 -6.08288 0
M  V30 7034 H 659.261 -2.42204 -1.73613 0
M  V30 7035 H 656.798 -1.20239 -0.847401 0
M  V30 7036 H 658.756 -1.31982 -3.95773 0
M  V30 7037 H 657.386 -0.472431 -3.19324 0
M  V30 7038 H 656.438 -2.80935 -2.56475 0
M  V30 7039 H 657.75 -3.53228 -3.52181 0
M  V30 7040 H 656.904 -2.38427 -5.57886 0
M  V30 7041 H 655.643 -1.55672 -4.62188 0
M  V30 7042 H 654.648 -3.77525 -3.99694 0
M  V30 7043 H 655.873 -4.60851 -4.98792 0
M  V30 7044 H 653.819 -2.61417 -6.01662 0
M  V30 7045 H 653.736 -4.33634 -6.19272 0
M  V30 7046 H 655.004 -3.45276 -6.98859 0
M  V30 7047 N 659.233 0.902656 -1.29189 0
M  V30 7048 C 660.481 1.6496 -1.16758 0
M  V30 7049 C 660.802 1.92952 0.28188 0
M  V30 7050 O 660.072 1.55351 1.19344 0
M  V30 7051 H 658.652 0.611447 -0.429118 0
M  V30 7052 H 661.314 1.0825 -1.62074 0
M  V30 7053 H 660.41 2.60728 -1.71544 0
M  V30 7054 N 660.711 1.11618 1.11262 0
M  V30 7055 C 661.941 0.88745 1.86569 0
M  V30 7056 C 662.349 -0.56636 1.80524 0
M  V30 7057 O 661.692 -1.40289 1.18594 0
M  V30 7058 C 661.754 1.27313 3.36202 0
M  V30 7059 C 661.418 2.73649 3.66013 0
M  V30 7060 C 662.415 3.71863 3.63337 0
M  V30 7061 C 660.1 3.10342 3.9496 0
M  V30 7062 C 662.094 5.04788 3.89188 0
M  V30 7063 C 659.781 4.43451 4.20469 0
M  V30 7064 C 660.779 5.40484 4.17572 0
M  V30 7065 O 660.467 6.71195 4.42439 0
M  V30 7066 H 660.199 0.317543 0.596777 0
M  V30 7067 H 662.753 1.48768 1.41624 0
M  V30 7068 H 660.983 0.616062 3.81761 0
M  V30 7069 H 662.672 1.01991 3.92877 0
M  V30 7070 H 663.438 3.44861 3.41022 0
M  V30 7071 H 659.317 2.35431 3.9635 0
M  V30 7072 H 662.861 5.80516 3.86842 0
M  V30 7073 H 658.758 4.70187 4.42261 0
M  V30 7074 H 659.526 6.77012 4.59997 0
M  V30 7075 N 662.189 -1.289 0.906776 0
M  V30 7076 C 663.419 -1.99112 0.551168 0
M  V30 7077 C 663.827 -1.67998 -0.870243 0
M  V30 7078 O 663.17 -0.92525 -1.58697 0
M  V30 7079 C 663.232 -3.53162 0.672065 0
M  V30 7080 C 662.896 -4.07849 2.06174 0
M  V30 7081 C 663.893 -4.22212 3.0337 0
M  V30 7082 C 661.578 -4.4271 2.37304 0
M  V30 7083 C 663.572 -4.70678 4.29815 0
M  V30 7084 C 661.259 -4.90871 3.6399 0
M  V30 7085 C 662.257 -5.04811 4.6006 0
M  V30 7086 O 661.945 -5.51925 5.84495 0
M  V30 7087 H 661.677 -0.642728 0.209469 0
M  V30 7088 H 664.231 -1.65234 1.22012 0
M  V30 7089 H 662.461 -3.86662 -0.05394 0
M  V30 7090 H 664.15 -4.046 0.324579 0
M  V30 7091 H 664.916 -3.9556 2.80637 0
M  V30 7092 H 660.795 -4.31114 1.63283 0
M  V30 7093 H 664.339 -4.81474 5.04806 0
M  V30 7094 H 660.236 -5.16961 3.86551 0
M  V30 7095 H 661.004 -5.70225 5.87185 0
M  V30 7096 N 663.667 -0.670007 -1.42649 0
M  V30 7097 C 664.914 -0.190286 -2.01604 0
M  V30 7098 C 665.242 1.20155 -1.52948 0
M  V30 7099 O 664.497 1.81964 -0.72026 0
M  V30 7100 C 664.796 -0.168298 -3.57004 0
M  V30 7101 C 664.462 -1.50415 -4.25072 0
M  V30 7102 C 663.124 -1.86992 -4.43382 0
M  V30 7103 C 665.476 -2.38414 -4.63474 0
M  V30 7104 C 662.804 -3.11203 -4.97363 0
M  V30 7105 C 665.156 -3.61933 -5.18833 0
M  V30 7106 C 663.82 -3.98685 -5.35356 0
M  V30 7107 H 663.09 -0.0696305 -0.737721 0
M  V30 7108 H 665.737 -0.864044 -1.70899 0
M  V30 7109 H 664.042 0.588958 -3.87348 0
M  V30 7110 H 665.739 0.22001 -4.00396 0
M  V30 7111 H 662.329 -1.20959 -4.11177 0
M  V30 7112 H 666.513 -2.11442 -4.49006 0
M  V30 7113 H 661.769 -3.39705 -5.08341 0
M  V30 7114 H 665.943 -4.30326 -5.47533 0
M  V30 7115 H 663.57 -4.95009 -5.76949 0
M  V30 7116 N 665.145 1.52092 -0.413018 0
M  V30 7117 C 666.055 2.30858 0.417318 0
M  V30 7118 C 667.071 1.38746 1.05003 0
M  V30 7119 O 668.247 1.71821 1.05069 0
M  V30 7120 C 665.312 3.11756 1.51687 0
M  V30 7121 C 664.373 4.19613 0.906825 0
M  V30 7122 C 663.606 4.96644 1.95399 0
M  V30 7123 O 663.829 4.7402 3.17271 0
M  V30 7124 O 662.763 5.81385 1.55805 0
M  V30 7125 H 666.589 3.02865 -0.225028 0
M  V30 7126 H 664.174 1.48358 -0.176126 0
M  V30 7127 H 666.056 3.62122 2.15512 0
M  V30 7128 H 664.731 2.42539 2.14375 0
M  V30 7129 H 663.638 3.73385 0.231183 0
M  V30 7130 H 664.971 4.91134 0.323814 0
M  V30 7131 N 666.623 0.143563 1.56945 0
M  V30 7132 C 667.872 -0.50835 1.95189 0
M  V30 7133 C 668.185 -1.66239 1.03073 0
M  V30 7134 O 669.391 -2.3787 1.30882 0
M  V30 7135 C 667.847 -0.955735 3.46978 0
M  V30 7136 C 667.455 0.171183 4.47673 0
M  V30 7137 C 669.199 -1.57763 3.94095 0
M  V30 7138 C 667.106 -0.294279 5.90667 0
M  V30 7139 H 666.036 -0.193679 0.728701 0
M  V30 7140 H 668.687 0.227357 1.82086 0
M  V30 7141 H 667.069 -1.7466 3.55401 0
M  V30 7142 H 668.243 0.948049 4.50942 0
M  V30 7143 H 666.558 0.701273 4.10452 0
M  V30 7144 H 669.155 -1.93745 4.98364 0
M  V30 7145 H 669.498 -2.46531 3.35452 0
M  V30 7146 H 670.031 -0.851728 3.88575 0
M  V30 7147 H 666.77 0.557939 6.53121 0
M  V30 7148 H 666.29 -1.0371 5.90766 0
M  V30 7149 H 667.969 -0.747426 6.42668 0
M  V30 7150 N 668.101 -1.57061 -0.130224 0
M  V30 7151 C 669.512 -1.73539 -0.68856 0
M  V30 7152 C 669.863 -0.760554 -1.80859 0
M  V30 7153 O 668.988 0.0690796 -2.1629 0
M  V30 7154 C 669.583 -3.14666 -1.25581 0
M  V30 7155 C 668.142 -3.32689 -1.76055 0
M  V30 7156 C 667.289 -2.69436 -0.655712 0
M  V30 7157 H 670.24 -1.58412 0.0956002 0
M  V30 7158 H 670.261 -3.15595 -2.12556 0
M  V30 7159 H 669.773 -3.85593 -0.440412 0
M  V30 7160 H 667.874 -2.66786 -2.60108 0
M  V30 7161 H 667.987 -4.4077 -1.87772 0
M  V30 7162 H 666.351 -2.30362 -1.08654 0
M  V30 7163 H 667.134 -3.42979 0.14852 0
M  V30 7164 N 669.579 0.400081 -1.52437 0
M  V30 7165 C 670.804 1.17221 -1.71096 0
M  V30 7166 C 671.229 1.83269 -0.423565 0
M  V30 7167 O 670.587 1.70378 0.619751 0
M  V30 7168 C 670.635 2.20425 -2.85386 0
M  V30 7169 O 669.739 3.26769 -2.51586 0
M  V30 7170 H 669.08 0.341766 -0.569291 0
M  V30 7171 H 671.61 0.467772 -1.99181 0
M  V30 7172 H 671.62 2.64605 -3.10561 0
M  V30 7173 H 670.295 1.71737 -3.78786 0
M  V30 7174 H 668.872 2.87804 -2.37114 0
M  V30 7175 N 671.057 1.43213 0.657864 0
M  V30 7176 C 672.306 1.43871 1.41365 0
M  V30 7177 C 672.619 0.064898 1.95492 0
M  V30 7178 O 673.825 -0.0510796 2.71452 0
M  V30 7179 C 672.281 2.53158 2.55811 0
M  V30 7180 C 671.889 3.96624 2.08311 0
M  V30 7181 C 673.633 2.63004 3.3321 0
M  V30 7182 C 671.54 4.97385 3.1994 0
M  V30 7183 H 670.47 0.535174 0.531136 0
M  V30 7184 H 673.121 1.69185 0.710543 0
M  V30 7185 H 671.503 2.21037 3.2857 0
M  V30 7186 H 672.677 4.38182 1.42593 0
M  V30 7187 H 670.992 3.90781 1.43804 0
M  V30 7188 H 673.589 3.3546 4.16378 0
M  V30 7189 H 673.932 1.67918 3.80932 0
M  V30 7190 H 674.465 2.94403 2.67529 0
M  V30 7191 H 671.204 5.94007 2.77192 0
M  V30 7192 H 670.724 4.60444 3.84385 0
M  V30 7193 H 672.403 5.19877 3.85145 0
M  V30 7194 N 672.536 -0.895792 1.29666 0
M  V30 7195 C 673.784 -1.64339 1.17631 0
M  V30 7196 C 674.105 -1.93099 -0.271643 0
M  V30 7197 O 673.375 -1.55981 -1.18518 0
M  V30 7198 H 671.955 -0.609162 0.432354 0
M  V30 7199 H 674.617 -1.07389 1.62646 0
M  V30 7200 H 673.713 -2.59815 1.72924 0
M  V30 7201 N 674.014 -1.12206 -1.10668 0
M  V30 7202 C 674.977 -0.790867 -2.15123 0
M  V30 7203 C 675.977 0.193618 -1.5963 0
M  V30 7204 O 677.167 -0.0318728 -1.74171 0
M  V30 7205 C 674.299 -0.174797 -3.40452 0
M  V30 7206 H 675.492 -1.7163 -2.45933 0
M  V30 7207 H 673.045 -0.924993 -1.2599 0
M  V30 7208 H 673.78 0.760478 -3.15257 0
M  V30 7209 H 673.565 -0.88358 -3.82015 0
M  V30 7210 H 675.055 0.0405162 -4.1758 0
M  V30 7211 N 675.492 1.28418 -0.913599 0
M  V30 7212 C 676.741 1.94265 -0.542572 0
M  V30 7213 C 677.054 1.72709 0.918207 0
M  V30 7214 O 678.26 2.32778 1.39738 0
M  V30 7215 C 676.716 3.47956 -0.919507 0
M  V30 7216 C 676.324 3.78291 -2.4 0
M  V30 7217 C 678.068 4.19962 -0.619057 0
M  V30 7218 C 675.975 5.2529 -2.71707 0
M  V30 7219 H 674.905 0.727213 -0.199192 0
M  V30 7220 H 677.556 1.45931 -1.11249 0
M  V30 7221 H 675.938 3.9502 -0.278372 0
M  V30 7222 H 677.112 3.42035 -3.08786 0
M  V30 7223 H 675.427 3.19456 -2.67089 0
M  V30 7224 H 678.024 5.28178 -0.832623 0
M  V30 7225 H 678.367 4.13935 0.443126 0
M  V30 7226 H 678.9 3.78674 -1.21865 0
M  V30 7227 H 675.639 5.36394 -3.76778 0
M  V30 7228 H 675.159 5.62743 -2.07559 0
M  V30 7229 H 676.838 5.93027 -2.58703 0
M  V30 7230 N 676.97 0.677563 1.42291 0
M  V30 7231 C 678.386 0.347376 1.55774 0
M  V30 7232 C 678.586 -1.14703 1.65667 0
M  V30 7233 O 677.642 -1.93252 1.62512 0
M  V30 7234 C 678.955 1.08011 2.80631 0
M  V30 7235 C 680.503 1.06271 2.94407 0
M  V30 7236 C 680.978 1.77683 4.22129 0
M  V30 7237 N 682.469 1.74564 4.29047 0
M  V30 7238 C 683.204 2.26673 5.26694 0
M  V30 7239 N 682.7 2.87176 6.30477 0
M  V30 7240 N 684.493 2.17032 5.18511 0
M  V30 7241 H 676.644 1.64703 1.34114 0
M  V30 7242 H 678.907 0.694038 0.645768 0
M  V30 7243 H 678.613 2.13518 2.79469 0
M  V30 7244 H 678.487 0.647115 3.71608 0
M  V30 7245 H 680.874 0.0159658 2.95096 0
M  V30 7246 H 680.955 1.53461 2.04654 0
M  V30 7247 H 680.599 2.82327 4.22201 0
M  V30 7248 H 680.529 1.2794 5.10822 0
M  V30 7249 H 683.02 1.30436 3.54676 0
M  V30 7250 H 683.333 3.24551 7.01346 0
M  V30 7251 H 681.678 2.91247 6.31031 0
M  V30 7252 H 684.869 1.69451 4.36353 0
M  V30 7253 H 685.042 2.57948 5.94446 0
M  V30 7254 N 678.448 -1.51871 0.421078 0
M  V30 7255 C 679.697 -2.01125 -0.152206 0
M  V30 7256 C 680.01 -1.3106 -1.45199 0
M  V30 7257 O 681.216 -1.71195 -2.10724 0
M  V30 7258 C 679.672 -3.58458 -0.3218 0
M  V30 7259 C 679.28 -4.37448 0.96659 0
M  V30 7260 C 681.024 -4.15908 -0.84973 0
M  V30 7261 C 678.931 -5.86451 0.763529 0
M  V30 7262 H 677.861 -0.751556 -0.0606565 0
M  V30 7263 H 680.512 -1.75115 0.548354 0
M  V30 7264 H 678.894 -3.80847 -1.08498 0
M  V30 7265 H 680.068 -4.26814 1.73684 0
M  V30 7266 H 678.383 -3.91373 1.42183 0
M  V30 7267 H 680.98 -5.24922 -1.01788 0
M  V30 7268 H 681.323 -3.74031 -1.82774 0
M  V30 7269 H 681.856 -3.97535 -0.145297 0
M  V30 7270 H 678.595 -6.3271 1.71344 0
M  V30 7271 H 678.115 -5.99791 0.0327889 0
M  V30 7272 H 679.794 -6.45697 0.410354 0
M  V30 7273 N 679.926 -0.151884 -1.56866 0
M  V30 7274 C 680.874 0.80299 -2.183 0
M  V30 7275 C 681.868 1.25174 -1.14139 0
M  V30 7276 O 683.074 1.21966 -1.3238 0
M  V30 7277 H 679.449 0.277169 -0.699057 0
M  V30 7278 H 681.42 0.260699 -2.97259 0
M  V30 7279 C 680.169 2.03009 -2.82281 0
M  V30 7280 H 679.492 1.69377 -3.62148 0
M  V30 7281 H 680.932 2.67753 -3.28762 0
M  V30 7282 C 679.391 2.84123 -1.81041 0
M  V30 7283 O 679.921 3.8063 -1.28388 0
M  V30 7284 N 678.127 2.48753 -1.50234 0
M  V30 7285 H 677.674 1.70337 -1.93244 0
M  V30 7286 H 677.632 3.03316 -0.827445 0
M  V30 7287 N 681.404 1.57128 0.121893 0
M  V30 7288 C 682.632 1.88883 0.844451 0
M  V30 7289 C 683.047 0.742824 1.73573 0
M  V30 7290 O 682.404 -0.286475 1.80238 0
M  V30 7291 C 682.455 3.20076 1.68029 0
M  V30 7292 O 682.176 4.30264 0.824898 0
M  V30 7293 C 683.677 3.65515 2.50826 0
M  V30 7294 H 680.897 0.62549 0.242907 0
M  V30 7295 H 683.441 2.04219 0.107151 0
M  V30 7296 H 681.596 3.06418 2.37038 0
M  V30 7297 H 682.01 5.05439 1.40113 0
M  V30 7298 H 683.484 4.60081 3.05008 0
M  V30 7299 H 683.961 2.92029 3.28048 0
M  V30 7300 H 684.567 3.81952 1.87064 0
M  V30 7301 N 682.882 -0.391992 1.52647 0
M  V30 7302 C 683.814 -1.49811 1.73463 0
M  V30 7303 C 684.827 -1.50734 0.615078 0
M  V30 7304 O 686.016 -1.5469 0.890696 0
M  V30 7305 C 683.116 -2.88667 1.77552 0
M  V30 7306 C 682.289 -3.11743 3.06815 0
M  V30 7307 C 681.348 -4.30564 3.02491 0
M  V30 7308 O 680.374 -4.27014 3.76361 0
M  V30 7309 N 681.576 -5.36593 2.21468 0
M  V30 7310 H 684.341 -1.32343 2.68897 0
M  V30 7311 H 681.902 -0.581475 1.51098 0
M  V30 7312 H 683.894 -3.66251 1.7217 0
M  V30 7313 H 682.464 -2.99508 0.895181 0
M  V30 7314 H 681.684 -2.2205 3.25711 0
M  V30 7315 H 682.972 -3.24013 3.92292 0
M  V30 7316 H 682.37 -5.42332 1.60913 0
M  V30 7317 H 680.927 -6.12855 2.21928 0
M  V30 7318 N 684.36 -1.4356 -0.65026 0
M  V30 7319 C 685.27 -1.514 -1.79207 0
M  V30 7320 C 686.286 -0.400895 -1.69319 0
M  V30 7321 O 687.462 -0.655458 -1.90436 0
M  V30 7322 C 684.527 -1.43737 -3.155 0
M  V30 7323 C 683.588 -2.65743 -3.37163 0
M  V30 7324 C 682.821 -2.58436 -4.66954 0
M  V30 7325 O 683.044 -1.63374 -5.46503 0
M  V30 7326 O 681.978 -3.48984 -4.90402 0
M  V30 7327 H 685.804 -2.47825 -1.75547 0
M  V30 7328 H 683.389 -1.25594 -0.809111 0
M  V30 7329 H 685.271 -1.41916 -3.96784 0
M  V30 7330 H 683.946 -0.504488 -3.19745 0
M  V30 7331 H 682.853 -2.73136 -2.55632 0
M  V30 7332 H 684.186 -3.58014 -3.37768 0
M  V30 7333 N 685.838 0.888903 -1.30139 0
M  V30 7334 C 687.068 1.67115 -1.21474 0
M  V30 7335 C 687.476 1.87852 0.225472 0
M  V30 7336 O 686.819 1.42324 1.16145 0
M  V30 7337 C 686.881 3.0713 -1.86846 0
M  V30 7338 C 686.545 3.09582 -3.36167 0
M  V30 7339 C 687.542 2.88929 -4.32222 0
M  V30 7340 C 685.227 3.31304 -3.77549 0
M  V30 7341 C 687.221 2.89949 -5.67634 0
M  V30 7342 C 684.908 3.31954 -5.13079 0
M  V30 7343 C 685.906 3.113 -6.07932 0
M  V30 7344 O 685.594 3.11758 -7.40987 0
M  V30 7345 H 685.326 0.528372 -0.421662 0
M  V30 7346 H 687.88 1.11919 -1.7223 0
M  V30 7347 H 686.11 3.63973 -1.30615 0
M  V30 7348 H 687.799 3.6749 -1.72354 0
M  V30 7349 H 688.565 2.71948 -4.01584 0
M  V30 7350 H 684.444 3.46417 -3.04165 0
M  V30 7351 H 687.988 2.73746 -6.41645 0
M  V30 7352 H 683.885 3.48469 -5.43359 0
M  V30 7353 H 684.653 3.27951 -7.49927 0
M  V30 7354 N 687.317 1.12792 1.10072 0
M  V30 7355 C 688.247 0.821688 2.18565 0
M  V30 7356 C 689.228 -0.21612 1.68721 0
M  V30 7357 O 690.413 -0.0764932 1.94049 0
M  V30 7358 C 687.543 0.279624 3.46172 0
M  V30 7359 C 686.497 1.25092 4.09312 0
M  V30 7360 C 685.823 0.568916 5.31665 0
M  V30 7361 C 687.123 2.60699 4.52585 0
M  V30 7362 H 688.817 1.72888 2.44438 0
M  V30 7363 H 686.363 0.832702 1.17482 0
M  V30 7364 H 688.316 0.053099 4.21367 0
M  V30 7365 H 687.04 -0.662929 3.19801 0
M  V30 7366 H 685.699 1.46332 3.36129 0
M  V30 7367 H 685.347 -0.378898 5.01571 0
M  V30 7368 H 685.047 1.21687 5.74862 0
M  V30 7369 H 686.571 0.351517 6.09587 0
M  V30 7370 H 687.985 2.43465 5.19035 0
M  V30 7371 H 686.382 3.21608 5.06644 0
M  V30 7372 H 687.452 3.1886 3.65317 0
M  V30 7373 N 688.795 -1.27931 0.920396 0
M  V30 7374 C 690.072 -1.89728 0.475687 0
M  V30 7375 C 690.452 -1.8337 -1.04588 0
M  V30 7376 O 689.8 -1.27404 -1.89685 0
M  V30 7377 C 690.01 -3.33959 1.01354 0
M  V30 7378 C 691.358 -4.10907 1.06963 0
M  V30 7379 O 692.382 -3.42945 0.962646 0
M  V30 7380 O 691.241 -5.32399 1.23343 0
M  V30 7381 H 688.335 -0.81294 0.151845 0
M  V30 7382 H 690.881 -1.36252 1.01161 0
M  V30 7383 H 689.653 -3.32843 2.05746 0
M  V30 7384 H 689.276 -3.94944 0.458829 0
M  V30 7385 N 690.273 -0.685099 -1.4193 0
M  V30 7386 C 691.519 -0.211971 -2.01689 0
M  V30 7387 C 691.852 1.18189 -1.54094 0
M  V30 7388 O 691.127 1.79559 -0.747572 0
M  V30 7389 C 691.41 -0.258019 -3.59174 0
M  V30 7390 C 691.263 -1.68807 -4.16922 0
M  V30 7391 C 692.582 0.388044 -4.38386 0
M  V30 7392 H 689.701 -0.0784987 -0.732808 0
M  V30 7393 H 692.343 -0.871837 -1.68816 0
M  V30 7394 H 690.493 0.303832 -3.8731 0
M  V30 7395 H 692.165 -2.30296 -3.99702 0
M  V30 7396 H 690.408 -2.22553 -3.72361 0
M  V30 7397 H 691.079 -1.6719 -5.26072 0
M  V30 7398 H 693.555 -0.0903432 -4.16002 0
M  V30 7399 H 692.431 0.325232 -5.47936 0
M  V30 7400 H 692.692 1.4672 -4.17044 0
M  V30 7401 N 691.751 1.51645 -0.429126 0
M  V30 7402 C 692.681 2.30434 0.377148 0
M  V30 7403 C 693.662 1.35493 1.02838 0
M  V30 7404 O 694.847 1.6441 1.03359 0
M  V30 7405 C 691.977 3.14038 1.48315 0
M  V30 7406 C 690.931 4.1719 0.955855 0
M  V30 7407 C 690.257 4.89263 2.15698 0
M  V30 7408 C 691.557 5.223 -0.00402136 0
M  V30 7409 H 693.251 2.98085 -0.280336 0
M  V30 7410 H 690.797 1.43354 -0.136265 0
M  V30 7411 H 692.75 3.67933 2.05435 0
M  V30 7412 H 691.474 2.44193 2.16881 0
M  V30 7413 H 690.133 3.64335 0.406929 0
M  V30 7414 H 689.781 4.15929 2.82864 0
M  V30 7415 H 689.481 5.59009 1.81059 0
M  V30 7416 H 691.005 5.45978 2.73387 0
M  V30 7417 H 692.419 5.71315 0.476607 0
M  V30 7418 H 690.816 5.99525 -0.26258 0
M  V30 7419 H 691.886 4.75638 -0.943236 0
M  V30 7420 N 693.229 0.160201 1.56784 0
M  V30 7421 C 694.477 -0.486625 1.96154 0
M  V30 7422 C 694.798 -1.64525 1.04673 0
M  V30 7423 O 694.068 -1.95586 0.110864 0
M  V30 7424 H 692.648 -0.182764 0.724297 0
M  V30 7425 H 695.31 0.238787 1.93432 0
M  V30 7426 H 694.406 -0.854025 3.00188 0
M  V30 7427 N 694.707 -1.5719 -0.113559 0
M  V30 7428 C 696.123 -1.52607 -0.467253 0
M  V30 7429 C 696.323 -0.874058 -1.81556 0
M  V30 7430 O 695.379 -0.458703 -2.48299 0
M  V30 7431 C 696.692 -2.97363 -0.446736 0
M  V30 7432 C 698.24 -3.08482 -0.529903 0
M  V30 7433 C 698.715 -4.54809 -0.539721 0
M  V30 7434 N 700.206 -4.59284 -0.601005 0
M  V30 7435 C 700.941 -5.69927 -0.630138 0
M  V30 7436 N 700.437 -6.90051 -0.616589 0
M  V30 7437 N 702.23 -5.5805 -0.673558 0
M  V30 7438 H 694.381 -1.97958 0.769819 0
M  V30 7439 H 696.644 -0.90428 0.284572 0
M  V30 7440 H 696.35 -3.48458 0.47643 0
M  V30 7441 H 696.224 -3.55086 -1.27254 0
M  V30 7442 H 698.611 -2.57386 -1.44349 0
M  V30 7443 H 698.692 -2.53744 0.323695 0
M  V30 7444 H 698.336 -5.06552 0.369843 0
M  V30 7445 H 698.266 -5.07364 -1.41028 0
M  V30 7446 H 700.757 -3.72822 -0.617419 0
M  V30 7447 H 701.07 -7.70132 -0.641592 0
M  V30 7448 H 699.415 -6.92543 -0.583927 0
M  V30 7449 H 702.606 -4.63112 -0.681544 0
M  V30 7450 H 702.779 -6.44286 -0.692794 0
M  V30 7451 N 696.185 0.383891 -1.52853 0
M  V30 7452 C 697.596 0.961591 -1.60032 0
M  V30 7453 C 697.947 1.90819 -0.456333 0
M  V30 7454 O 697.072 2.12288 0.419873 0
M  V30 7455 C 697.667 1.75078 -2.90057 0
M  V30 7456 C 696.226 2.2781 -2.99632 0
M  V30 7457 C 695.373 1.08512 -2.55187 0
M  V30 7458 H 698.324 0.163269 -1.57858 0
M  V30 7459 H 698.345 2.61046 -2.7683 0
M  V30 7460 H 697.857 1.06157 -3.73299 0
M  V30 7461 H 695.958 3.00028 -2.20939 0
M  V30 7462 H 696.071 2.56947 -4.0437 0
M  V30 7463 H 694.435 1.44667 -2.09627 0
M  V30 7464 H 695.218 0.41118 -3.40829 0
M  V30 7465 N 697.663 1.43903 0.642637 0
M  V30 7466 C 698.596 1.44339 1.76753 0
M  V30 7467 C 699.574 0.303558 1.59741 0
M  V30 7468 O 700.758 0.498775 1.81781 0
M  V30 7469 C 697.885 1.26508 3.14187 0
M  V30 7470 C 696.931 2.43905 3.49875 0
M  V30 7471 S 697.764 4.0645 3.48653 0
M  V30 7472 C 698.92 3.91021 4.88726 0
M  V30 7473 H 699.153 2.39523 1.76113 0
M  V30 7474 H 696.686 1.31061 0.81623 0
M  V30 7475 H 698.644 1.16908 3.93501 0
M  V30 7476 H 697.305 0.328548 3.12377 0
M  V30 7477 H 696.498 2.27262 4.49853 0
M  V30 7478 H 696.1 2.50186 2.77998 0
M  V30 7479 H 698.392 3.54 5.77659 0
M  V30 7480 H 699.335 4.9079 5.10423 0
M  V30 7481 H 699.743 3.23287 4.62759 0
M  V30 7482 N 699.141 -0.881989 1.30609 0
M  V30 7483 C 700.387 -1.63647 1.19781 0
M  V30 7484 C 700.72 -1.92632 -0.246265 0
M  V30 7485 O 699.995 -1.54938 -1.17577 0
M  V30 7486 C 700.278 -2.97437 2.02985 0
M  V30 7487 C 700.131 -2.75406 3.55628 0
M  V30 7488 C 701.45 -3.98397 1.86997 0
M  V30 7489 H 698.569 -0.593841 0.436488 0
M  V30 7490 H 701.211 -1.02041 1.60273 0
M  V30 7491 H 699.361 -3.50018 1.68581 0
M  V30 7492 H 701.033 -2.2959 4.00107 0
M  V30 7493 H 699.276 -2.09856 3.79662 0
M  V30 7494 H 699.947 -3.70552 4.09139 0
M  V30 7495 H 702.423 -3.54986 2.17081 0
M  V30 7496 H 701.299 -4.89916 2.47536 0
M  V30 7497 H 701.56 -4.3424 0.829943 0
M  V30 7498 N 700.619 -1.13374 -1.09472 0
M  V30 7499 C 701.549 -0.833268 -2.18126 0
M  V30 7500 C 702.53 0.207169 -1.68834 0
M  V30 7501 O 703.715 0.0662012 -1.94087 0
M  V30 7502 C 700.845 -0.297979 -3.46019 0
M  V30 7503 C 699.799 -1.27261 -4.08642 0
M  V30 7504 C 699.125 -0.597104 -5.31356 0
M  V30 7505 C 700.425 -2.63095 -4.51197 0
M  V30 7506 H 702.119 -1.74182 -2.43518 0
M  V30 7507 H 699.665 -0.838921 -1.17039 0
M  V30 7508 H 701.618 -0.0754444 -4.21332 0
M  V30 7509 H 700.342 0.645959 -3.20148 0
M  V30 7510 H 699.001 -1.48113 -3.35348 0
M  V30 7511 H 698.649 0.352293 -5.01765 0
M  V30 7512 H 698.349 -1.24734 -5.74208 0
M  V30 7513 H 699.873 -0.38384 -6.09392 0
M  V30 7514 H 701.287 -2.46214 -5.17737 0
M  V30 7515 H 699.684 -3.2429 -5.04932 0
M  V30 7516 H 700.754 -3.20793 -3.6362 0
M  V30 7517 N 702.098 1.27442 -0.927168 0
M  V30 7518 C 703.061 2.2512 -0.430525 0
M  V30 7519 C 704.061 1.54357 0.450619 0
M  V30 7520 O 705.251 1.72371 0.251774 0
M  V30 7521 C 702.383 3.38763 0.381144 0
M  V30 7522 H 703.576 2.70569 -1.29354 0
M  V30 7523 H 701.129 1.39355 -0.707806 0
M  V30 7524 H 701.864 2.98695 1.263 0
M  V30 7525 H 701.649 3.91298 -0.250618 0
M  V30 7526 H 703.139 4.11364 0.719012 0
M  V30 7527 N 703.576 0.692616 1.41565 0
M  V30 7528 C 704.824 0.221896 2.00878 0
M  V30 7529 C 705.145 -1.18164 1.5512 0
M  V30 7530 O 704.415 -1.79679 0.78054 0
M  V30 7531 H 702.995 0.0790463 0.742806 0
M  V30 7532 H 705.657 0.893115 1.73232 0
M  V30 7533 H 704.753 0.23702 3.11199 0
M  V30 7534 N 705.054 -1.51416 0.437162 0
M  V30 7535 C 706.001 -2.27743 -0.374374 0
M  V30 7536 C 706.971 -1.31327 -1.01698 0
M  V30 7537 O 708.156 -1.60229 -1.03592 0
M  V30 7538 C 705.296 -3.12241 -1.46969 0
M  V30 7539 C 704.409 -4.23651 -0.845236 0
M  V30 7540 C 703.544 -4.95458 -1.91559 0
M  V30 7541 C 702.583 -5.98789 -1.26956 0
M  V30 7542 N 701.72 -6.64005 -2.28126 0
M  V30 7543 H 706.56 -2.96654 0.282892 0
M  V30 7544 H 704.097 -1.46319 0.151352 0
M  V30 7545 H 706.055 -3.59556 -2.11602 0
M  V30 7546 H 704.685 -2.45445 -2.09659 0
M  V30 7547 H 703.737 -3.803 -0.0872059 0
M  V30 7548 H 705.049 -4.97683 -0.333582 0
M  V30 7549 H 704.203 -5.46321 -2.63854 0
M  V30 7550 H 702.942 -4.21055 -2.46097 0
M  V30 7551 H 701.947 -5.47219 -0.53207 0
M  V30 7552 H 703.172 -6.75149 -0.731509 0
M  V30 7553 H 701.118 -5.92415 -2.81745 0
M  V30 7554 H 701.035 -7.33802 -1.81852 0
M  V30 7555 H 702.303 -7.19498 -2.99905 0
M  V30 7556 N 706.532 -0.168513 -1.56696 0
M  V30 7557 C 707.442 0.775435 -2.21414 0
M  V30 7558 C 708.458 1.25529 -1.20492 0
M  V30 7559 O 709.634 1.30801 -1.53144 0
M  V30 7560 C 706.699 1.9886 -2.83999 0
M  V30 7561 C 705.76 1.5559 -4.00113 0
M  V30 7562 C 704.993 2.71124 -4.59704 0
M  V30 7563 O 705.216 3.87917 -4.18182 0
M  V30 7564 O 704.15 2.4536 -5.4962 0
M  V30 7565 H 707.976 0.254416 -3.02632 0
M  V30 7566 H 705.561 0.0595507 -1.49281 0
M  V30 7567 H 707.443 2.69816 -3.23693 0
M  V30 7568 H 706.118 2.49874 -2.05779 0
M  V30 7569 H 705.025 0.815924 -3.65094 0
M  V30 7570 H 706.358 1.09271 -4.79917 0
M  V30 7571 N 708.01 1.57248 0.105221 0
M  V30 7572 C 708.973 2.00388 1.11252 0
M  V30 7573 C 709.973 0.89594 1.33527 0
M  V30 7574 O 711.163 1.16166 1.29811 0
M  V30 7575 C 708.295 2.35589 2.46395 0
M  V30 7576 H 709.488 2.90591 0.741424 0
M  V30 7577 H 707.041 1.52332 0.349956 0
M  V30 7578 H 707.776 1.4831 2.884 0
M  V30 7579 H 707.561 3.16408 2.31578 0
M  V30 7580 H 709.051 2.69658 3.18864 0
M  V30 7581 N 709.488 -0.375779 1.53054 0
M  V30 7582 C 710.435 -1.45978 1.78771 0
M  V30 7583 C 711.405 -1.53625 0.631552 0
M  V30 7584 O 712.59 -1.69674 0.872667 0
M  V30 7585 C 709.73 -2.8305 1.97425 0
M  V30 7586 C 708.843 -2.84451 3.25134 0
M  V30 7587 C 707.978 -4.13034 3.34031 0
M  V30 7588 C 707.017 -4.08536 4.55812 0
M  V30 7589 N 706.154 -5.2875 4.61918 0
M  V30 7590 H 710.994 -1.23349 2.71273 0
M  V30 7591 H 708.531 -0.598147 1.3439 0
M  V30 7592 H 710.489 -3.62666 2.06225 0
M  V30 7593 H 709.119 -3.04101 1.0827 0
M  V30 7594 H 708.171 -1.97127 3.25338 0
M  V30 7595 H 709.483 -2.76998 4.14818 0
M  V30 7596 H 708.637 -5.0106 3.42087 0
M  V30 7597 H 707.376 -4.23226 2.42345 0
M  V30 7598 H 706.381 -3.18897 4.47867 0
M  V30 7599 H 707.606 -3.99955 5.48828 0
M  V30 7600 H 705.552 -5.39547 3.73129 0
M  V30 7601 H 705.469 -5.23426 5.45492 0
M  V30 7602 H 706.737 -6.18637 4.74245 0
M  V30 7603 N 710.966 -1.44241 -0.634997 0
M  V30 7604 C 711.898 -1.46793 -1.76024 0
M  V30 7605 C 712.911 -0.361781 -1.58729 0
M  V30 7606 O 714.1 -0.627297 -1.67114 0
M  V30 7607 C 711.2 -1.28248 -3.13697 0
M  V30 7608 C 710.373 -2.52038 -3.57485 0
M  V30 7609 C 709.432 -2.2845 -4.74022 0
M  V30 7610 O 708.458 -3.01915 -4.82531 0
M  V30 7611 N 709.66 -1.31264 -5.65464 0
M  V30 7612 H 712.425 -2.43797 -1.74307 0
M  V30 7613 H 709.986 -1.39631 -0.819438 0
M  V30 7614 H 711.978 -1.10321 -3.89373 0
M  V30 7615 H 710.548 -0.39623 -3.10079 0
M  V30 7616 H 709.768 -2.85268 -2.72059 0
M  V30 7617 H 711.056 -3.34382 -3.83492 0
M  V30 7618 H 710.454 -0.705817 -5.6128 0
M  V30 7619 H 709.011 -1.19316 -6.40786 0
M  V30 7620 N 712.444 0.87505 -1.31075 0
M  V30 7621 C 713.69 1.63009 -1.20647 0
M  V30 7622 C 714.023 1.9276 0.236045 0
M  V30 7623 O 713.298 1.55559 1.16754 0
M  V30 7624 C 713.581 2.96357 -2.0456 0
M  V30 7625 C 713.434 2.73516 -3.57084 0
M  V30 7626 C 714.753 3.974 -1.89107 0
M  V30 7627 H 711.872 0.591518 -0.439631 0
M  V30 7628 H 714.514 1.0119 -1.60812 0
M  V30 7629 H 712.664 3.49119 -1.70435 0
M  V30 7630 H 714.336 2.27465 -4.01319 0
M  V30 7631 H 712.579 2.0784 -3.80769 0
M  V30 7632 H 713.25 3.68377 -4.11099 0
M  V30 7633 H 715.726 3.5383 -2.18961 0
M  V30 7634 H 714.602 4.88596 -2.5013 0
M  V30 7635 H 714.863 4.33794 -0.85296 0
M  V30 7636 N 713.922 1.13953 1.08869 0
M  V30 7637 C 714.854 0.779906 2.15523 0
M  V30 7638 C 715.867 -0.20102 1.61554 0
M  V30 7639 O 717.056 0.0200049 1.78489 0
M  V30 7640 C 714.156 0.136226 3.38626 0
M  V30 7641 C 713.329 1.15069 4.21993 0
M  V30 7642 C 712.388 0.531645 5.23507 0
M  V30 7643 O 711.414 1.19327 5.56552 0
M  V30 7644 N 712.616 -0.693734 5.7634 0
M  V30 7645 H 715.381 1.69769 2.46979 0
M  V30 7646 H 712.942 1.03331 1.24637 0
M  V30 7647 H 714.934 -0.290295 4.03658 0
M  V30 7648 H 713.504 -0.684603 3.05011 0
M  V30 7649 H 712.724 1.75431 3.53012 0
M  V30 7650 H 714.012 1.83614 4.74514 0
M  V30 7651 H 713.41 -1.24994 5.51718 0
M  V30 7652 H 711.967 -1.06283 6.43076 0
M  V30 7653 N 715.4 -1.26948 0.933913 0
M  V30 7654 C 716.646 -1.94716 0.587985 0
M  V30 7655 C 717.001 -1.71994 -0.862312 0
M  V30 7656 O 716.294 -1.04208 -1.60783 0
M  V30 7657 C 716.488 -3.46963 0.857406 0
M  V30 7658 C 716.317 -3.84489 2.33234 0
M  V30 7659 C 715.087 -4.07621 2.98618 0
M  V30 7660 C 717.285 -3.93602 3.31031 0
M  V30 7661 N 715.267 -4.31976 4.362 0
M  V30 7662 C 716.638 -4.22404 4.53845 0
M  V30 7663 C 718.693 -3.76201 3.26155 0
M  V30 7664 C 717.396 -4.35615 5.72391 0
M  V30 7665 C 719.422 -3.90641 4.4402 0
M  V30 7666 C 718.784 -4.19835 5.65613 0
M  V30 7667 H 714.883 -0.735586 0.2654 0
M  V30 7668 H 717.467 -1.53181 1.20182 0
M  V30 7669 H 715.638 -3.87442 0.27268 0
M  V30 7670 H 717.37 -4.01921 0.47348 0
M  V30 7671 H 714.125 -4.02696 2.49264 0
M  V30 7672 H 714.549 -4.48199 5.07392 0
M  V30 7673 H 719.191 -3.52665 2.3321 0
M  V30 7674 H 716.909 -4.57975 6.65796 0
M  V30 7675 H 720.495 -3.78589 4.41771 0
M  V30 7676 H 719.375 -4.30765 6.55295 0
M  V30 7677 N 716.879 -0.700114 -1.41195 0
M  V30 7678 C 718.107 -0.242179 -2.05478 0
M  V30 7679 C 718.522 1.11029 -1.52702 0
M  V30 7680 O 717.879 1.69473 -0.677127 0
M  V30 7681 C 717.93 -0.196271 -3.60967 0
M  V30 7682 O 717.651 -1.49532 -4.11791 0
M  V30 7683 C 719.152 0.282102 -4.42401 0
M  V30 7684 H 716.372 -0.111749 -0.661629 0
M  V30 7685 H 718.916 -0.953975 -1.80885 0
M  V30 7686 H 717.071 0.46638 -3.84582 0
M  V30 7687 H 717.485 -1.38545 -5.05871 0
M  V30 7688 H 718.959 0.263093 -5.51373 0
M  V30 7689 H 719.436 1.32174 -4.1884 0
M  V30 7690 H 720.042 -0.349712 -4.2386 0
M  V30 7691 N 718.357 1.51182 -0.445186 0
M  V30 7692 C 719.305 2.29531 0.376597 0
M  V30 7693 C 720.299 1.35711 1.01385 0
M  V30 7694 O 721.505 1.53018 0.947922 0
M  V30 7695 H 717.88 0.738803 0.140267 0
M  V30 7696 H 719.851 2.96838 -0.304958 0
M  V30 7697 C 718.6 3.1552 1.4609 0
M  V30 7698 H 717.923 3.87605 0.979912 0
M  V30 7699 H 719.363 3.73384 2.009 0
M  V30 7700 C 717.822 2.31406 2.44852 0
M  V30 7701 O 718.352 1.97912 3.49562 0
M  V30 7702 N 716.558 1.94478 2.15932 0
M  V30 7703 H 716.105 2.21917 1.30808 0
M  V30 7704 H 716.063 1.38498 2.82251 0
M  V30 7705 N 719.835 0.176821 1.56605 0
M  V30 7706 C 721.081 -0.467406 1.9734 0
M  V30 7707 C 721.414 -1.62523 1.06301 0
M  V30 7708 O 720.689 -1.94182 0.11125 0
M  V30 7709 C 720.972 -0.945106 3.47476 0
M  V30 7710 C 720.825 0.213273 4.49294 0
M  V30 7711 C 722.144 -1.8169 4.00845 0
M  V30 7712 H 719.263 -0.168426 0.717497 0
M  V30 7713 H 721.905 0.264065 1.88156 0
M  V30 7714 H 720.055 -1.56841 3.55434 0
M  V30 7715 H 721.727 0.850508 4.53392 0
M  V30 7716 H 719.97 0.867918 4.25029 0
M  V30 7717 H 720.641 -0.163187 5.51759 0
M  V30 7718 H 723.117 -1.29139 3.95553 0
M  V30 7719 H 721.993 -2.12015 5.06301 0
M  V30 7720 H 722.254 -2.76463 3.44994 0
M  V30 7721 N 721.313 -1.57302 -0.09688 0
M  V30 7722 C 722.543 -1.89926 -0.813114 0
M  V30 7723 C 722.951 -0.76852 -1.72888 0
M  V30 7724 O 722.294 0.268549 -1.81726 0
M  V30 7725 C 722.356 -3.17787 -1.68082 0
M  V30 7726 C 722.02 -4.4729 -0.937061 0
M  V30 7727 C 723.017 -5.1921 -0.267687 0
M  V30 7728 C 720.702 -4.93957 -0.911671 0
M  V30 7729 C 722.696 -6.36034 0.417129 0
M  V30 7730 C 720.383 -6.10693 -0.223068 0
M  V30 7731 C 721.381 -6.8158 0.440155 0
M  V30 7732 O 721.069 -7.96092 1.11772 0
M  V30 7733 H 720.801 -0.632783 -0.237828 0
M  V30 7734 H 723.355 -2.05248 -0.0790818 0
M  V30 7735 H 721.585 -2.98607 -2.45705 0
M  V30 7736 H 723.274 -3.36257 -2.27346 0
M  V30 7737 H 724.04 -4.84198 -0.278774 0
M  V30 7738 H 719.919 -4.38671 -1.41734 0
M  V30 7739 H 723.463 -6.91301 0.93537 0
M  V30 7740 H 719.36 -6.45159 -0.209821 0
M  V30 7741 H 720.128 -8.12064 1.02443 0
M  V30 7742 N 722.791 0.367657 -1.53252 0
M  V30 7743 C 723.701 1.47415 -1.82499 0
M  V30 7744 C 724.717 1.58711 -0.713222 0
M  V30 7745 O 725.893 1.74644 -1.00306 0
M  V30 7746 C 722.958 2.82706 -2.00694 0
M  V30 7747 C 722.019 2.80955 -3.24596 0
M  V30 7748 C 721.252 4.09793 -3.41914 0
M  V30 7749 O 721.475 5.05852 -2.63572 0
M  V30 7750 O 720.409 4.15731 -4.3526 0
M  V30 7751 H 724.235 1.25624 -2.765 0
M  V30 7752 H 721.82 0.557559 -1.38606 0
M  V30 7753 H 723.702 3.62873 -2.14246 0
M  V30 7754 H 722.377 3.04479 -1.09883 0
M  V30 7755 H 721.284 1.99494 -3.16469 0
M  V30 7756 H 722.617 2.64136 -4.15323 0
M  V30 7757 N 724.269 1.44576 0.627338 0
M  V30 7758 C 725.546 1.38033 1.38586 0
M  V30 7759 C 725.926 0.0409468 2.1106 0
M  V30 7760 O 725.274 -0.976582 2.0658 0
M  V30 7761 C 725.484 2.58102 2.34913 0
M  V30 7762 C 726.832 3.02332 2.98129 0
M  V30 7763 O 727.856 2.58334 2.45238 0
M  V30 7764 O 726.715 3.78628 3.94085 0
M  V30 7765 H 723.809 0.546801 0.620434 0
M  V30 7766 H 726.355 1.56672 0.652077 0
M  V30 7767 H 725.127 3.4719 1.80485 0
M  V30 7768 H 724.75 2.41696 3.15703 0
M  V30 7769 N 725.747 -0.868086 1.31537 0
M  V30 7770 C 726.71 -1.95703 1.19302 0
M  V30 7771 C 727.71 -1.60355 0.119612 0
M  V30 7772 O 728.9 -1.70247 0.36902 0
M  V30 7773 C 726.032 -3.30599 0.831684 0
M  V30 7774 H 727.225 -2.07982 2.16064 0
M  V30 7775 H 724.778 -1.05661 1.15176 0
M  V30 7776 H 725.513 -3.2402 -0.134694 0
M  V30 7777 H 725.298 -3.57629 1.60761 0
M  V30 7778 H 726.788 -4.10439 0.770026 0
M  V30 7779 N 727.225 -1.14528 -1.08264 0
M  V30 7780 C 728.155 -0.856356 -2.1723 0
M  V30 7781 C 729.136 0.189251 -1.69044 0
M  V30 7782 O 730.321 0.0456119 -1.94146 0
M  V30 7783 C 727.451 -0.334662 -3.45684 0
M  V30 7784 C 726.405 -1.31588 -4.0727 0
M  V30 7785 C 725.731 -0.653428 -5.30692 0
M  V30 7786 C 727.031 -2.67866 -4.48381 0
M  V30 7787 H 728.725 -1.76755 -2.41657 0
M  V30 7788 H 726.271 -0.851287 -1.16143 0
M  V30 7789 H 728.224 -0.120128 -4.21229 0
M  V30 7790 H 726.948 0.611967 -3.20815 0
M  V30 7791 H 725.607 -1.51661 -3.33758 0
M  V30 7792 H 725.255 0.299054 -5.0211 0
M  V30 7793 H 724.955 -1.30817 -5.72853 0
M  V30 7794 H 726.479 -0.448453 -6.08951 0
M  V30 7795 H 727.893 -2.51692 -5.15096 0
M  V30 7796 H 726.29 -3.29627 -5.01464 0
M  V30 7797 H 727.36 -3.24632 -3.60198 0
M  V30 7798 N 728.703 1.26451 -0.940633 0
M  V30 7799 C 729.951 1.93395 -0.586748 0
M  V30 7800 C 730.272 1.7417 0.876921 0
M  V30 7801 O 729.542 1.097 1.62304 0
M  V30 7802 H 728.122 0.715687 -0.214012 0
M  V30 7803 H 730.784 1.53902 -1.19584 0
M  V30 7804 H 729.88 3.01565 -0.804059 0
M  V30 7805 N 730.181 0.707592 1.40822 0
M  V30 7806 C 731.111 0.0644925 2.33411 0
M  V30 7807 C 732.092 -0.754205 1.52466 0
M  V30 7808 O 733.277 -0.704749 1.80961 0
M  V30 7809 C 730.407 -0.863865 3.36385 0
M  V30 7810 C 729.361 -0.15138 4.27732 0
M  V30 7811 C 728.687 -1.19491 5.21177 0
M  V30 7812 C 729.987 0.989607 5.12839 0
M  V30 7813 H 731.681 0.837829 2.87438 0
M  V30 7814 H 729.227 0.404346 1.38207 0
M  V30 7815 H 731.18 -1.32309 4.0009 0
M  V30 7816 H 729.904 -1.66901 2.80734 0
M  V30 7817 H 728.563 0.287937 3.65467 0
M  V30 7818 H 728.211 -1.9929 4.61836 0
M  V30 7819 H 727.911 -0.723123 5.83134 0
M  V30 7820 H 729.435 -1.6544 5.8776 0
M  V30 7821 H 730.849 0.610114 5.70044 0
M  V30 7822 H 729.246 1.38926 5.83798 0
M  V30 7823 H 730.316 1.82389 4.49291 0
M  V30 7824 N 731.66 -1.50943 0.453197 0
M  V30 7825 C 732.908 -2.01813 -0.107709 0
M  V30 7826 C 733.229 -1.33841 -1.41816 0
M  V30 7827 O 732.499 -0.477973 -1.8998 0
M  V30 7828 H 731.079 -0.745773 -0.0427948 0
M  V30 7829 H 733.741 -1.8545 0.599531 0
M  V30 7830 H 732.837 -3.10911 -0.27218 0
M  V30 7831 N 733.138 -0.185124 -1.56509 0
M  V30 7832 C 734.068 0.735098 -2.21627 0
M  V30 7833 C 735.049 1.2288 -1.1762 0
M  V30 7834 O 736.234 1.27945 -1.46095 0
M  V30 7835 C 733.364 1.95889 -2.86783 0
M  V30 7836 C 732.318 1.6005 -3.96948 0
M  V30 7837 C 731.644 2.90009 -4.4922 0
M  V30 7838 C 732.944 0.818008 -5.15855 0
M  V30 7839 H 734.638 0.192274 -2.98782 0
M  V30 7840 H 732.184 0.0910393 -1.43712 0
M  V30 7841 H 734.137 2.60779 -3.31017 0
M  V30 7842 H 732.861 2.52608 -2.07018 0
M  V30 7843 H 731.52 0.975237 -3.5339 0
M  V30 7844 H 731.168 3.44797 -3.6623 0
M  V30 7845 H 730.868 2.66778 -5.23549 0
M  V30 7846 H 732.392 3.55904 -4.9615 0
M  V30 7847 H 733.806 1.36979 -5.56695 0
M  V30 7848 H 732.203 0.684207 -5.96187 0
M  V30 7849 H 733.273 -0.182939 -4.84555 0
M  V30 7850 N 734.616 1.57351 0.0885366 0
M  V30 7851 C 735.862 1.86696 0.791996 0
M  V30 7852 C 736.195 0.775148 1.78059 0
M  V30 7853 O 735.47 -0.216247 1.93294 0
M  V30 7854 C 735.753 3.26684 1.51491 0
M  V30 7855 C 735.606 4.465 0.543858 0
M  V30 7856 C 736.925 3.64664 2.46391 0
M  V30 7857 H 734.044 0.679049 0.286463 0
M  V30 7858 H 736.686 1.89919 0.0554866 0
M  V30 7859 H 734.836 3.24067 2.14273 0
M  V30 7860 H 736.508 4.61235 -0.0774597 0
M  V30 7861 H 734.751 4.33567 -0.142228 0
M  V30 7862 H 735.422 5.41192 1.08696 0
M  V30 7863 H 737.898 3.68267 1.93698 0
M  V30 7864 H 736.774 4.63534 2.93986 0
M  V30 7865 H 737.035 2.93698 3.30445 0
M  V30 7866 N 736.094 -0.359525 1.53444 0
M  V30 7867 C 737.34 -1.10315 1.70172 0
M  V30 7868 C 737.673 -1.88788 0.455287 0
M  V30 7869 O 736.948 -1.86635 -0.547514 0
M  V30 7870 C 737.231 -2.05744 2.95536 0
M  V30 7871 C 737.084 -1.3084 4.3035 0
M  V30 7872 C 738.403 -3.05784 3.16518 0
M  V30 7873 H 735.522 -0.399662 0.619225 0
M  V30 7874 H 738.164 -0.383338 1.86093 0
M  V30 7875 H 736.314 -2.67125 2.82093 0
M  V30 7876 H 737.986 -0.721959 4.55615 0
M  V30 7877 H 736.229 -0.610283 4.29486 0
M  V30 7878 H 736.9 -2.00718 5.14214 0
M  V30 7879 H 739.376 -2.5451 3.29187 0
M  V30 7880 H 738.252 -3.69772 4.05659 0
M  V30 7881 H 738.513 -3.76289 2.32076 0
M  V30 7882 N 737.572 -1.44907 -0.619662 0
M  V30 7883 C 738.8 -1.51795 -1.40591 0
M  V30 7884 C 739.215 -0.146553 -1.8823 0
M  V30 7885 O 738.572 0.849698 -1.61513 0
M  V30 7886 C 738.623 -2.49229 -2.61853 0
M  V30 7887 O 738.344 -3.81039 -2.16197 0
M  V30 7888 C 739.845 -2.65696 -3.54853 0
M  V30 7889 H 737.065 -0.514463 -0.430777 0
M  V30 7890 H 739.609 -1.8998 -0.756813 0
M  V30 7891 H 737.764 -2.14149 -3.2283 0
M  V30 7892 H 738.178 -4.33747 -2.94896 0
M  V30 7893 H 739.652 -3.37874 -4.36515 0
M  V30 7894 H 740.129 -1.71316 -4.0441 0
M  V30 7895 H 740.735 -3.01724 -2.99737 0
M  V30 7896 N 739.05 0.861098 -1.31996 0
M  V30 7897 C 740.298 1.61162 -1.21947 0
M  V30 7898 C 740.619 1.93751 0.220351 0
M  V30 7899 O 739.889 1.59069 1.14341 0
M  V30 7900 H 738.469 0.597485 -0.448353 0
M  V30 7901 H 741.131 1.03039 -1.65436 0
M  V30 7902 H 740.227 2.55138 -1.79752 0
M  V30 7903 N 740.528 1.15101 1.07655 0
M  V30 7904 C 741.756 0.947731 1.83918 0
M  V30 7905 C 742.171 -0.503927 1.81951 0
M  V30 7906 O 741.528 -1.34941 1.2287 0
M  V30 7907 C 741.579 1.4503 3.31132 0
M  V30 7908 O 741.3 2.84508 3.33146 0
M  V30 7909 C 742.801 1.28806 4.24174 0
M  V30 7910 H 740.021 0.336786 0.580358 0
M  V30 7911 H 742.565 1.52799 1.35914 0
M  V30 7912 H 740.72 0.912632 3.76497 0
M  V30 7913 H 741.134 3.0723 4.251 0
M  V30 7914 H 742.608 1.6882 5.25551 0
M  V30 7915 H 743.085 0.231851 4.38588 0
M  V30 7916 H 743.691 1.81465 3.84643 0
M  V30 7917 N 742.006 -1.2595 0.947325 0
M  V30 7918 C 742.936 -2.28521 0.479604 0
M  V30 7919 C 743.917 -1.63469 -0.470293 0
M  V30 7920 O 745.102 -1.90627 -0.370824 0
M  V30 7921 C 742.232 -3.46397 -0.250289 0
M  V30 7922 C 741.186 -4.23578 0.613643 0
M  V30 7923 C 740.512 -5.34131 -0.246568 0
M  V30 7924 C 741.812 -4.86979 1.88809 0
M  V30 7925 H 743.506 -2.67895 1.33688 0
M  V30 7926 H 741.052 -1.28783 0.644274 0
M  V30 7927 H 743.005 -4.17269 -0.588576 0
M  V30 7928 H 741.729 -3.05993 -1.14175 0
M  V30 7929 H 740.388 -3.54478 0.93491 0
M  V30 7930 H 740.036 -4.89968 -1.13756 0
M  V30 7931 H 739.736 -5.86683 0.328123 0
M  V30 7932 H 741.26 -6.07839 -0.579986 0
M  V30 7933 H 742.674 -5.50034 1.61666 0
M  V30 7934 H 741.071 -5.49675 2.40784 0
M  V30 7935 H 742.141 -4.09575 2.5957 0
M  V30 7936 N 743.484 -0.715051 -1.40445 0
M  V30 7937 C 744.895 -0.326763 -1.83818 0
M  V30 7938 C 745.246 1.13851 -1.59789 0
M  V30 7939 O 744.371 1.87611 -1.07848 0
M  V30 7940 C 744.966 -0.586297 -3.33688 0
M  V30 7941 C 743.525 -0.251724 -3.75557 0
M  V30 7942 C 742.672 -0.858928 -2.63662 0
M  V30 7943 H 745.623 -0.914241 -1.2972 0
M  V30 7944 H 745.644 0.148636 -3.8021 0
M  V30 7945 H 745.156 -1.65281 -3.51146 0
M  V30 7946 H 743.257 0.809754 -3.63695 0
M  V30 7947 H 743.37 -0.720348 -4.73654 0
M  V30 7948 H 741.734 -0.287013 -2.53078 0
M  V30 7949 H 742.517 -1.9297 -2.83932 0
M  V30 7950 N 744.962 1.50701 -0.461195 0
M  V30 7951 C 746.208 2.02566 0.0973411 0
M  V30 7952 C 746.541 1.3432 1.40257 0
M  V30 7953 O 745.816 0.465692 1.88843 0
M  V30 7954 C 746.099 3.58919 0.291423 0
M  V30 7955 C 745.952 4.37751 -1.03413 0
M  V30 7956 C 747.271 4.27379 1.05048 0
M  V30 7957 H 744.39 0.73622 0.0339026 0
M  V30 7958 H 747.032 1.80115 -0.604855 0
M  V30 7959 H 745.182 3.78179 0.889539 0
M  V30 7960 H 746.854 4.30085 -1.66806 0
M  V30 7961 H 745.097 4.01885 -1.63313 0
M  V30 7962 H 745.768 5.45384 -0.852085 0
M  V30 7963 H 748.244 4.12534 0.543603 0
M  V30 7964 H 747.12 5.36609 1.15506 0
M  V30 7965 H 747.381 3.89868 2.0846 0
M  V30 7966 N 746.441 0.193421 1.56409 0
M  V30 7967 C 747.688 -0.445789 1.97532 0
M  V30 7968 C 748.016 -1.61744 1.08024 0
M  V30 7969 O 747.271 -1.95338 0.118982 0
M  V30 7970 C 747.57 -0.949718 3.44551 0
M  V30 7971 C 747.236 0.108383 4.5077 0
M  V30 7972 C 745.898 0.399126 4.79542 0
M  V30 7973 C 748.25 0.825423 5.14622 0
M  V30 7974 C 745.578 1.41192 5.69457 0
M  V30 7975 C 747.93 1.82735 6.05632 0
M  V30 7976 C 746.594 2.12531 6.32761 0
M  V30 7977 H 745.864 -0.163126 0.722822 0
M  V30 7978 H 748.511 0.290035 1.89291 0
M  V30 7979 H 746.816 -1.76378 3.49854 0
M  V30 7980 H 748.513 -1.45367 3.73724 0
M  V30 7981 H 745.103 -0.128392 4.28408 0
M  V30 7982 H 749.287 0.61403 4.92487 0
M  V30 7983 H 744.543 1.6487 5.88751 0
M  V30 7984 H 748.717 2.3882 6.5417 0
M  V30 7985 H 746.344 2.91155 7.02234 0
M  V30 7986 N 747.919 -1.57396 -0.0801906 0
M  V30 7987 C 748.867 -2.04136 -1.11495 0
M  V30 7988 C 749.861 -0.945137 -1.40583 0
M  V30 7989 O 751.067 -1.13028 -1.40088 0
M  V30 7990 H 747.442 -0.65076 -0.37685 0
M  V30 7991 H 749.413 -2.90205 -0.694526 0
M  V30 7992 C 748.162 -2.49399 -2.42272 0
M  V30 7993 H 747.485 -3.33339 -2.20737 0
M  V30 7994 H 748.925 -2.85864 -3.13142 0
M  V30 7995 C 747.384 -1.37341 -3.07635 0
M  V30 7996 O 747.914 -0.710829 -3.95361 0
M  V30 7997 N 746.12 -1.12064 -2.68123 0
M  V30 7998 H 745.667 -1.66126 -1.96875 0
M  V30 7999 H 745.625 -0.372916 -3.12181 0
M  V30 8000 N 749.397 0.351382 -1.53633 0
M  V30 8001 C 750.327 1.43688 -1.84055 0
M  V30 8002 C 751.308 1.55251 -0.695073 0
M  V30 8003 O 752.493 1.69587 -0.946257 0
M  V30 8004 C 749.623 2.80843 -2.04315 0
M  V30 8005 C 748.577 2.84094 -3.20117 0
M  V30 8006 C 747.903 4.2406 -3.25696 0
M  V30 8007 C 749.203 2.50334 -4.58399 0
M  V30 8008 H 750.897 1.18478 -2.74961 0
M  V30 8009 H 748.443 0.568509 -1.32303 0
M  V30 8010 H 750.396 3.56821 -2.2418 0
M  V30 8011 H 749.12 3.07471 -1.10132 0
M  V30 8012 H 747.779 2.10568 -3.00094 0
M  V30 8013 H 747.427 4.47785 -2.29123 0
M  V30 8014 H 747.127 4.27147 -4.03509 0
M  V30 8015 H 748.651 5.0189 -3.47762 0
M  V30 8016 H 750.065 3.16025 -4.78332 0
M  V30 8017 H 748.462 2.64717 -5.38558 0
M  V30 8018 H 749.532 1.45542 -4.62543 0
M  V30 8019 N 750.875 1.45233 0.611969 0
M  V30 8020 C 752.103 1.52539 1.39784 0
M  V30 8021 C 752.518 0.156533 1.8815 0
M  V30 8022 O 751.875 -0.84112 1.61961 0
M  V30 8023 C 751.926 2.50614 2.60528 0
M  V30 8024 O 751.647 3.8218 2.14173 0
M  V30 8025 C 753.148 2.67574 3.53439 0
M  V30 8026 H 750.368 0.51674 0.428043 0
M  V30 8027 H 752.912 1.90379 0.746727 0
M  V30 8028 H 751.067 2.15858 3.2169 0
M  V30 8029 H 751.481 4.35305 2.92592 0
M  V30 8030 H 752.955 3.40184 4.34717 0
M  V30 8031 H 753.432 1.73458 4.03496 0
M  V30 8032 H 754.038 3.0331 2.98133 0
M  V30 8033 N 752.353 -0.854086 1.3245 0
M  V30 8034 C 753.285 -1.96932 1.17262 0
M  V30 8035 C 754.298 -1.62445 0.107469 0
M  V30 8036 O 755.487 -1.74904 0.356481 0
M  V30 8037 C 752.587 -3.29971 0.772817 0
M  V30 8038 C 751.76 -3.92695 1.92638 0
M  V30 8039 C 750.819 -5.04068 1.51003 0
M  V30 8040 O 749.845 -5.24032 2.22213 0
M  V30 8041 N 751.047 -5.79076 0.406371 0
M  V30 8042 H 753.812 -2.10503 2.13327 0
M  V30 8043 H 751.373 -1.02897 1.24995 0
M  V30 8044 H 753.365 -4.01883 0.476684 0
M  V30 8045 H 751.935 -3.1245 -0.0967 0
M  V30 8046 H 751.155 -3.13563 2.38897 0
M  V30 8047 H 752.443 -4.31337 2.69863 0
M  V30 8048 H 751.841 -5.65393 -0.186302 0
M  V30 8049 H 750.398 -6.51579 0.169846 0
M  V30 8050 N 753.831 -1.1567 -1.07043 0
M  V30 8051 C 755.108 -0.843948 -1.76456 0
M  V30 8052 C 755.488 0.659806 -2.00524 0
M  V30 8053 O 754.836 1.60518 -1.62623 0
M  V30 8054 C 755.046 -1.65822 -3.0709 0
M  V30 8055 C 756.394 -1.8664 -3.8138 0
M  V30 8056 O 757.418 -1.62624 -3.1691 0
M  V30 8057 O 756.277 -2.26884 -4.97178 0
M  V30 8058 H 753.371 -0.310677 -0.766426 0
M  V30 8059 H 755.917 -1.26266 -1.1338 0
M  V30 8060 H 754.689 -2.67902 -2.85209 0
M  V30 8061 H 754.312 -1.23605 -3.77899 0
M  V30 8062 N 755.309 1.25446 -0.953992 0
M  V30 8063 C 756.557 1.92762 -0.607227 0
M  V30 8064 C 756.878 1.7509 0.858399 0
M  V30 8065 O 756.148 1.11416 1.61132 0
M  V30 8066 H 754.728 0.713377 -0.221591 0
M  V30 8067 H 757.39 1.52625 -1.21209 0
M  V30 8068 H 756.486 3.00695 -0.835998 0
M  V30 8069 N 756.787 0.722489 1.40064 0
M  V30 8070 C 758.198 0.336507 1.83642 0
M  V30 8071 C 758.549 -1.13002 1.6039 0
M  V30 8072 O 757.674 -1.87036 1.08842 0
M  V30 8073 C 758.269 0.603985 3.33373 0
M  V30 8074 C 756.828 0.271637 3.75419 0
M  V30 8075 C 755.975 0.872898 2.63203 0
M  V30 8076 H 758.926 0.921108 1.29233 0
M  V30 8077 H 758.947 -0.128471 3.80283 0
M  V30 8078 H 758.459 1.67141 3.50265 0
M  V30 8079 H 756.56 -0.790455 3.64119 0
M  V30 8080 H 756.673 0.745457 4.73265 0
M  V30 8081 H 755.037 0.300431 2.52922 0
M  V30 8082 H 755.82 1.94473 2.82905 0
M  V30 8083 N 758.265 -1.50454 0.469181 0
M  V30 8084 C 759.513 -2.01916 -0.0862982 0
M  V30 8085 C 759.834 -1.35337 -1.40388 0
M  V30 8086 O 759.104 -0.498096 -1.89462 0
M  V30 8087 H 757.684 -0.746185 -0.0348825 0
M  V30 8088 H 760.346 -1.84804 0.619167 0
M  V30 8089 H 759.442 -3.11182 -0.239189 0
M  V30 8090 N 759.743 -0.201713 -1.56304 0
M  V30 8091 C 760.653 0.728296 -2.23009 0
M  V30 8092 C 761.669 1.22945 -1.23128 0
M  V30 8093 O 762.845 1.27523 -1.55884 0
M  V30 8094 C 759.91 1.92792 -2.88153 0
M  V30 8095 C 758.971 1.47068 -4.03323 0
M  V30 8096 C 758.204 2.61312 -4.65351 0
M  V30 8097 O 758.427 3.7896 -4.26317 0
M  V30 8098 O 757.361 2.33646 -5.54701 0
M  V30 8099 H 761.187 0.190166 -3.03104 0
M  V30 8100 H 758.772 0.0278725 -1.49374 0
M  V30 8101 H 760.654 2.6289 -3.29343 0
M  V30 8102 H 759.329 2.45452 -2.11033 0
M  V30 8103 H 758.236 0.738299 -3.66742 0
M  V30 8104 H 759.569 0.990666 -4.82127 0
M  V30 8105 N 761.222 1.57436 0.0718424 0
M  V30 8106 C 762.169 2.03686 1.08539 0
M  V30 8107 C 763.139 0.917474 1.38462 0
M  V30 8108 O 764.324 1.18513 1.4953 0
M  V30 8109 C 761.464 2.48566 2.39393 0
M  V30 8110 C 760.577 3.74122 2.16001 0
M  V30 8111 C 759.712 4.07786 3.40418 0
M  V30 8112 C 758.751 5.26383 3.1239 0
M  V30 8113 N 757.888 5.55685 4.29138 0
M  V30 8114 H 762.728 2.90043 0.684018 0
M  V30 8115 H 760.265 1.43438 0.326183 0
M  V30 8116 H 762.223 2.72639 3.15791 0
M  V30 8117 H 760.853 1.65186 2.77333 0
M  V30 8118 H 759.905 3.57389 1.30296 0
M  V30 8119 H 761.217 4.60659 1.91298 0
M  V30 8120 H 760.371 4.32759 4.25211 0
M  V30 8121 H 759.11 3.19817 3.68197 0
M  V30 8122 H 758.115 5.01206 2.25993 0
M  V30 8123 H 759.34 6.1597 2.85934 0
M  V30 8124 H 757.286 4.70675 4.56948 0
M  V30 8125 H 757.203 6.3664 4.07708 0
M  V30 8126 H 758.471 5.85209 5.14928 0
M  V30 8127 N 762.7 -0.34323 1.53817 0
M  V30 8128 C 763.647 -1.42153 1.81827 0
M  V30 8129 C 764.617 -1.52251 0.663996 0
M  V30 8130 O 765.802 -1.67784 0.908461 0
M  V30 8131 C 762.942 -2.78799 2.03384 0
M  V30 8132 C 762.055 -2.7749 3.31094 0
M  V30 8133 C 761.19 -4.05856 3.42717 0
M  V30 8134 C 760.229 -3.98776 4.64375 0
M  V30 8135 N 759.366 -5.18833 4.73029 0
M  V30 8136 H 764.206 -1.17567 2.73829 0
M  V30 8137 H 761.743 -0.569506 1.35628 0
M  V30 8138 H 763.701 -3.58211 2.13872 0
M  V30 8139 H 762.331 -3.01736 1.14696 0
M  V30 8140 H 761.383 -1.90182 3.29446 0
M  V30 8141 H 762.695 -2.68137 4.206 0
M  V30 8142 H 761.849 -4.93691 3.52638 0
M  V30 8143 H 760.588 -4.1799 2.51267 0
M  V30 8144 H 759.593 -3.09325 4.5453 0
M  V30 8145 H 760.818 -3.88224 5.57189 0
M  V30 8146 H 758.764 -5.31511 3.84489 0
M  V30 8147 H 758.681 -5.11737 5.56472 0
M  V30 8148 H 759.949 -6.08439 4.87261 0
M  V30 8149 N 764.178 -1.45556 -0.604258 0
M  V30 8150 C 765.126 -1.5482 -1.7359 0
M  V30 8151 C 766.12 -0.417966 -1.64163 0
M  V30 8152 O 767.326 -0.594007 -1.69916 0
M  V30 8153 H 763.701 -0.486352 -0.573556 0
M  V30 8154 H 765.672 -2.5001 -1.62903 0
M  V30 8155 C 764.421 -1.53521 -3.11972 0
M  V30 8156 H 763.744 -2.39818 -3.19886 0
M  V30 8157 H 765.184 -1.64061 -3.90973 0
M  V30 8158 C 763.643 -0.260191 -3.35894 0
M  V30 8159 O 764.173 0.658582 -3.96265 0
M  V30 8160 N 762.379 -0.154839 -2.90187 0
M  V30 8161 H 761.926 -0.903378 -2.4124 0
M  V30 8162 H 761.884 0.697437 -3.06567 0
M  V30 8163 N 765.656 0.84705 -1.32902 0
M  V30 8164 C 766.588 1.96308 -1.18304 0
M  V30 8165 C 767.601 1.62386 -0.116082 0
M  V30 8166 O 768.79 1.74713 -0.365751 0
M  V30 8167 C 765.89 3.29556 -0.790305 0
M  V30 8168 C 765.063 3.91668 -1.94717 0
M  V30 8169 C 764.122 5.0326 -1.53674 0
M  V30 8170 O 763.148 5.22847 -2.24989 0
M  V30 8171 N 764.35 5.78852 -0.437075 0
M  V30 8172 H 767.115 2.09369 -2.14441 0
M  V30 8173 H 764.676 1.02233 -1.25539 0
M  V30 8174 H 766.668 4.01624 -0.49799 0
M  V30 8175 H 765.238 3.12497 0.0801286 0
M  V30 8176 H 764.458 3.12292 -2.40557 0
M  V30 8177 H 765.746 4.299 -2.72146 0
M  V30 8178 H 765.144 5.65484 0.156316 0
M  V30 8179 H 763.701 6.51479 -0.204399 0
M  V30 8180 N 767.134 1.16236 1.06428 0
M  V30 8181 C 768.064 0.890807 2.1584 0
M  V30 8182 C 769.045 -0.162333 1.69324 0
M  V30 8183 O 770.23 -0.0147191 1.94194 0
M  V30 8184 C 767.36 0.389615 3.45108 0
M  V30 8185 C 766.314 1.38051 4.05125 0
M  V30 8186 C 765.64 0.737773 5.29586 0
M  V30 8187 C 766.94 2.74965 4.44062 0
M  V30 8188 H 768.634 1.80577 2.38814 0
M  V30 8189 H 766.18 0.869657 1.14774 0
M  V30 8190 H 768.133 0.187127 4.20984 0
M  V30 8191 H 766.857 -0.560851 3.21748 0
M  V30 8192 H 765.516 1.56952 3.31303 0
M  V30 8193 H 765.164 -0.219135 5.02522 0
M  V30 8194 H 764.864 1.39914 5.70699 0
M  V30 8195 H 766.388 0.545275 6.0816 0
M  V30 8196 H 767.802 2.59855 5.11027 0
M  V30 8197 H 766.199 3.37563 4.96156 0
M  V30 8198 H 767.269 3.30321 3.54987 0
M  V30 8199 N 768.612 -1.24939 0.960631 0
M  V30 8200 C 769.861 -1.92118 0.614298 0
M  V30 8201 C 770.174 -1.75998 -0.853474 0
M  V30 8202 O 771.38 -2.37804 -1.31003 0
M  V30 8203 C 769.836 -3.44303 1.04801 0
M  V30 8204 C 769.444 -3.69123 2.53875 0
M  V30 8205 C 771.188 -4.17375 0.774497 0
M  V30 8206 C 769.095 -5.14843 2.91016 0
M  V30 8207 H 768.025 -0.719319 0.226045 0
M  V30 8208 H 770.676 -1.41701 1.16589 0
M  V30 8209 H 769.058 -3.93715 0.42479 0
M  V30 8210 H 770.232 -3.30339 3.21267 0
M  V30 8211 H 768.547 -3.09323 2.78762 0
M  V30 8212 H 771.144 -5.24723 1.02808 0
M  V30 8213 H 771.487 -4.15294 -0.289192 0
M  V30 8214 H 772.02 -3.7389 1.35835 0
M  V30 8215 H 768.759 -5.2204 3.96427 0
M  V30 8216 H 768.279 -5.54652 2.28302 0
M  V30 8217 H 769.958 -5.83017 2.80535 0
M  V30 8218 N 770.09 -0.729906 -1.39679 0
M  V30 8219 C 771.02 -0.101618 -2.33279 0
M  V30 8220 C 772.001 0.729854 -1.53646 0
M  V30 8221 O 773.186 0.67587 -1.82059 0
M  V30 8222 C 770.316 0.81024 -3.37716 0
M  V30 8223 C 769.27 0.0833126 -4.27919 0
M  V30 8224 C 768.596 1.11185 -5.23012 0
M  V30 8225 C 769.896 -1.07107 -5.112 0
M  V30 8226 H 771.59 -0.883452 -2.86069 0
M  V30 8227 H 769.136 -0.426283 -1.37546 0
M  V30 8228 H 771.089 1.25927 -4.02145 0
M  V30 8229 H 769.813 1.62413 -2.83354 0
M  V30 8230 H 768.472 -0.346043 -3.64963 0
M  V30 8231 H 768.12 1.91917 -4.64948 0
M  V30 8232 H 767.82 0.63026 -5.8421 0
M  V30 8233 H 769.344 1.56068 -5.90318 0
M  V30 8234 H 770.758 -0.700726 -5.69002 0
M  V30 8235 H 769.155 -1.48196 -5.81514 0
M  V30 8236 H 770.225 -1.89513 -4.46332 0
M  V30 8237 N 771.568 1.50203 -0.477153 0
M  V30 8238 C 772.816 2.01959 0.0755889 0
M  V30 8239 C 773.137 1.3608 1.39668 0
M  V30 8240 O 772.407 0.508136 1.89195 0
M  V30 8241 H 770.987 0.74636 0.0309248 0
M  V30 8242 H 773.649 1.84473 -0.628959 0
M  V30 8243 H 772.745 3.11305 0.222683 0
M  V30 8244 N 773.046 0.209999 1.56195 0
M  V30 8245 C 774.292 -0.425442 1.98287 0
M  V30 8246 C 774.625 -1.60232 1.09724 0
M  V30 8247 O 773.9 -1.93902 0.152414 0
M  V30 8248 C 774.183 -0.871189 3.49403 0
M  V30 8249 C 774.036 0.308527 4.48741 0
M  V30 8250 C 775.355 -1.73146 4.04609 0
M  V30 8251 H 772.474 -0.153169 0.720908 0
M  V30 8252 H 775.116 0.303916 1.87554 0
M  V30 8253 H 773.266 -1.49266 3.58681 0
M  V30 8254 H 774.938 0.946487 4.51486 0
M  V30 8255 H 773.181 0.957878 4.23092 0
M  V30 8256 H 773.852 -0.0461143 5.51981 0
M  V30 8257 H 776.328 -1.2072 3.98203 0
M  V30 8258 H 775.204 -2.01228 5.10684 0
M  V30 8259 H 775.465 -2.69083 3.5078 0
M  V30 8260 N 774.524 -1.57472 -0.0634922 0
M  V30 8261 C 775.457 -1.99571 -1.10664 0
M  V30 8262 C 776.435 -0.874015 -1.37112 0
M  V30 8263 O 777.619 -1.13702 -1.50347 0
M  V30 8264 C 774.746 -2.3395 -2.44918 0
M  V30 8265 C 773.792 -3.56213 -2.34551 0
M  V30 8266 S 774.625 -5.06727 -1.73169 0
M  V30 8267 C 775.781 -5.44316 -3.08984 0
M  V30 8268 H 776.014 -2.87739 -0.747905 0
M  V30 8269 H 773.547 -1.5198 -0.272316 0
M  V30 8270 H 775.505 -2.54431 -3.22141 0
M  V30 8271 H 774.166 -1.46297 -2.7795 0
M  V30 8272 H 773.359 -3.77812 -3.33578 0
M  V30 8273 H 772.961 -3.35406 -1.65466 0
M  V30 8274 H 775.253 -5.42894 -4.05305 0
M  V30 8275 H 776.196 -6.4502 -2.92156 0
M  V30 8276 H 776.604 -4.71781 -3.09972 0
M  V30 8277 N 776.003 0.335068 -1.53997 0
M  V30 8278 C 777.251 1.07223 -1.71312 0
M  V30 8279 C 777.572 1.88911 -0.483486 0
M  V30 8280 O 776.842 1.89344 0.50257 0
M  V30 8281 H 775.422 0.398846 -0.63161 0
M  V30 8282 H 778.084 0.374288 -1.91272 0
M  V30 8283 H 777.18 1.7448 -2.58772 0
M  V30 8284 N 777.481 1.45874 0.596531 0
M  V30 8285 C 778.73 1.49737 1.35135 0
M  V30 8286 C 779.043 0.147755 1.95041 0
M  V30 8287 O 780.249 0.0640984 2.71424 0
M  V30 8288 C 778.705 2.6378 2.44843 0
M  V30 8289 C 778.313 4.05102 1.91301 0
M  V30 8290 C 780.057 2.769 3.21755 0
M  V30 8291 C 777.964 5.10508 2.98557 0
M  V30 8292 H 776.894 0.557219 0.507959 0
M  V30 8293 H 779.545 1.72046 0.638147 0
M  V30 8294 H 777.927 2.34774 3.189 0
M  V30 8295 H 779.101 4.43836 1.2388 0
M  V30 8296 H 777.416 3.96528 1.271 0
M  V30 8297 H 780.013 3.52819 4.01775 0
M  V30 8298 H 780.356 1.83924 3.73467 0
M  V30 8299 H 780.889 3.05485 2.54802 0
M  V30 8300 H 777.628 6.0523 2.51749 0
M  V30 8301 H 777.148 4.76332 3.6451 0
M  V30 8302 H 778.827 5.35745 3.62748 0
M  V30 8303 N 778.959 -0.83999 1.33349 0
M  V30 8304 C 780.236 -1.57973 1.15342 0
M  V30 8305 C 780.616 -2.09226 -0.280632 0
M  V30 8306 O 779.964 -1.89317 -1.2795 0
M  V30 8307 C 780.174 -2.71446 2.19359 0
M  V30 8308 C 781.522 -3.40654 2.53456 0
M  V30 8309 O 782.546 -2.81686 2.18017 0
M  V30 8310 O 781.405 -4.47101 3.14266 0
M  V30 8311 H 778.499 -0.6964 0.446044 0
M  V30 8312 H 781.045 -0.882843 1.44927 0
M  V30 8313 H 779.817 -2.31205 3.1569 0
M  V30 8314 H 779.44 -3.488 1.90852 0
M  V30 8315 N 780.437 -1.16799 -1.0581 0
M  V30 8316 C 781.683 -0.953935 -1.78963 0
M  V30 8317 C 782.016 0.516638 -1.87202 0
M  V30 8318 O 781.291 1.38338 -1.36721 0
M  V30 8319 C 781.574 -1.58808 -3.23191 0
M  V30 8320 C 781.427 -3.13032 -3.23003 0
M  V30 8321 C 782.746 -1.2868 -4.20867 0
M  V30 8322 H 779.865 -0.347972 -0.64968 0
M  V30 8323 H 782.507 -1.44204 -1.23715 0
M  V30 8324 H 780.657 -1.17303 -3.70368 0
M  V30 8325 H 782.329 -3.63553 -2.83949 0
M  V30 8326 H 780.572 -3.46108 -2.61518 0
M  V30 8327 H 781.243 -3.52527 -4.24769 0
M  V30 8328 H 783.719 -1.6461 -3.82155 0
M  V30 8329 H 782.595 -1.75645 -5.20038 0
M  V30 8330 H 782.856 -0.206491 -4.41618 0
M  V30 8331 N 781.915 1.24427 -0.967243 0
M  V30 8332 C 782.878 2.23637 -0.501927 0
M  V30 8333 C 783.878 1.55712 0.401283 0
M  V30 8334 O 785.068 1.73085 0.196808 0
M  V30 8335 C 782.2 3.39804 0.273176 0
M  V30 8336 H 783.393 2.66317 -1.37897 0
M  V30 8337 H 780.946 1.37033 -0.751783 0
M  V30 8338 H 781.681 3.02562 1.16733 0
M  V30 8339 H 781.466 3.90303 -0.37498 0
M  V30 8340 H 782.956 4.13443 0.587776 0
M  V30 8341 N 783.393 0.737304 1.3929 0
M  V30 8342 C 784.323 0.113988 2.33222 0
M  V30 8343 C 785.304 -0.721695 1.54031 0
M  V30 8344 O 786.489 -0.666206 1.82415 0
M  V30 8345 C 783.619 -0.792319 3.38141 0
M  V30 8346 C 782.573 -0.0606178 4.27957 0
M  V30 8347 C 781.899 -1.08409 5.23595 0
M  V30 8348 C 783.199 1.09817 5.10625 0
M  V30 8349 H 784.893 0.898611 2.85596 0
M  V30 8350 H 782.439 0.433571 1.37318 0
M  V30 8351 H 784.392 -1.23793 4.02807 0
M  V30 8352 H 783.116 -1.60908 2.84211 0
M  V30 8353 H 781.775 0.365393 3.64775 0
M  V30 8354 H 781.423 -1.89449 4.6596 0
M  V30 8355 H 781.123 -0.599269 5.84536 0
M  V30 8356 H 782.647 -1.52936 5.91137 0
M  V30 8357 H 784.061 0.730892 5.68622 0
M  V30 8358 H 782.458 1.51278 5.80719 0
M  V30 8359 H 783.528 1.91878 4.45321 0
M  V30 8360 N 784.871 -1.49948 0.485112 0
M  V30 8361 C 785.819 -2.30449 -0.315609 0
M  V30 8362 C 786.813 -1.38351 -0.977516 0
M  V30 8363 O 788.019 -1.55477 -0.907019 0
M  V30 8364 H 784.394 -0.742262 -0.120629 0
M  V30 8365 H 786.365 -2.95925 0.383552 0
M  V30 8366 C 785.114 -3.19283 -1.37673 0
M  V30 8367 H 784.437 -3.90067 -0.876801 0
M  V30 8368 H 785.877 -3.78579 -1.90929 0
M  V30 8369 C 784.336 -2.37817 -2.38631 0
M  V30 8370 O 784.866 -2.0711 -3.44192 0
M  V30 8371 N 783.072 -2.00135 -2.107 0
M  V30 8372 H 782.619 -2.25307 -1.24878 0
M  V30 8373 H 782.577 -1.45933 -2.7848 0
M  V30 8374 N 786.349 -0.21828 -1.56081 0
M  V30 8375 C 787.626 0.463143 -1.90038 0
M  V30 8376 C 788.006 1.77982 -1.13515 0
M  V30 8377 O 787.354 2.27199 -0.24345 0
M  V30 8378 C 787.564 0.659292 -3.42716 0
M  V30 8379 C 788.912 0.968203 -4.13414 0
M  V30 8380 O 789.936 0.746195 -3.48296 0
M  V30 8381 O 788.795 1.38936 -5.28544 0
M  V30 8382 H 785.889 0.244435 -0.790051 0
M  V30 8383 H 788.435 -0.260221 -1.67693 0
M  V30 8384 H 787.207 -0.269584 -3.9037 0
M  V30 8385 H 786.83 1.43426 -3.7083 0
M  V30 8386 N 787.827 1.57504 0.0551401 0
M  V30 8387 C 789.076 1.87237 0.750009 0
M  V30 8388 C 789.389 0.813268 1.77891 0
M  V30 8389 O 790.595 0.99898 2.52453 0
M  V30 8390 C 789.051 3.32187 1.38491 0
M  V30 8391 C 788.659 4.46267 0.393707 0
M  V30 8392 C 790.403 3.71101 2.06117 0
M  V30 8393 C 788.31 5.82265 1.03547 0
M  V30 8394 H 787.24 0.698524 0.283866 0
M  V30 8395 H 789.891 1.835 0.00365997 0
M  V30 8396 H 788.273 3.30588 2.18008 0
M  V30 8397 H 789.447 4.59289 -0.372865 0
M  V30 8398 H 787.762 4.16015 -0.17902 0
M  V30 8399 H 790.359 4.70012 2.54937 0
M  V30 8400 H 790.702 3.01751 2.86796 0
M  V30 8401 H 791.235 3.74762 1.33409 0
M  V30 8402 H 787.974 6.54949 0.268644 0
M  V30 8403 H 787.494 5.73012 1.7725 0
M  V30 8404 H 789.173 6.28148 1.55047 0
M  V30 8405 N 789.305 -0.326896 1.54172 0
M  V30 8406 C 790.252 -1.40216 1.83325 0
M  V30 8407 C 791.222 -1.51538 0.680107 0
M  V30 8408 O 792.407 -1.66811 0.926206 0
M  V30 8409 C 789.547 -2.76626 2.0633 0
M  V30 8410 C 788.66 -2.73963 3.34019 0
M  V30 8411 C 787.795 -4.02198 3.47002 0
M  V30 8412 C 786.834 -3.93828 4.68578 0
M  V30 8413 N 785.971 -5.13787 4.78506 0
M  V30 8414 H 790.811 -1.14656 2.7506 0
M  V30 8415 H 788.348 -0.555089 1.36225 0
M  V30 8416 H 790.306 -3.55922 2.17659 0
M  V30 8417 H 788.936 -3.00503 1.1789 0
M  V30 8418 H 787.988 -1.86677 3.31445 0
M  V30 8419 H 789.3 -2.6366 4.2342 0
M  V30 8420 H 788.454 -4.89923 3.57855 0
M  V30 8421 H 787.193 -4.15302 2.55687 0
M  V30 8422 H 786.198 -3.04487 4.57786 0
M  V30 8423 H 787.423 -3.82292 5.61275 0
M  V30 8424 H 785.369 -5.27403 3.90105 0
M  V30 8425 H 785.286 -5.05807 5.61868 0
M  V30 8426 H 786.554 -6.03236 4.93686 0
M  V30 8427 N 790.784 -1.46188 -0.588786 0
M  V30 8428 C 792.2 -1.31009 -0.911524 0
M  V30 8429 C 792.4 -0.277017 -1.99587 0
M  V30 8430 O 791.456 0.322532 -2.50432 0
M  V30 8431 C 792.769 -2.69459 -1.33463 0
M  V30 8432 C 794.317 -2.77502 -1.44782 0
M  V30 8433 C 794.792 -4.1652 -1.90461 0
M  V30 8434 N 796.283 -4.18907 -1.97665 0
M  V30 8435 C 797.018 -5.23359 -2.34271 0
M  V30 8436 N 796.514 -6.38143 -2.69714 0
M  V30 8437 N 798.307 -5.10723 -2.34774 0
M  V30 8438 H 790.458 -2.12016 0.127614 0
M  V30 8439 H 792.721 -0.947984 -0.00557599 0
M  V30 8440 H 792.427 -3.46336 -0.611929 0
M  V30 8441 H 792.301 -2.99165 -2.2974 0
M  V30 8442 H 794.688 -2.00917 -2.1614 0
M  V30 8443 H 794.769 -2.51488 -0.467724 0
M  V30 8444 H 794.413 -4.93597 -1.19684 0
M  V30 8445 H 794.343 -4.39937 -2.89418 0
M  V30 8446 H 796.834 -3.36084 -1.72789 0
M  V30 8447 H 797.147 -7.13624 -2.96582 0
M  V30 8448 H 795.492 -6.41514 -2.67366 0
M  V30 8449 H 798.683 -4.20088 -2.06503 0
M  V30 8450 H 798.856 -5.9224 -2.62975 0
M  V30 8451 N 792.262 0.832906 -1.33792 0
M  V30 8452 C 793.192 1.95828 -1.27176 0
M  V30 8453 C 794.173 1.69427 -0.15114 0
M  V30 8454 O 795.358 1.91167 -0.341886 0
M  V30 8455 C 792.488 3.32098 -1.01629 0
M  V30 8456 C 791.442 3.72912 -2.10049 0
M  V30 8457 C 790.768 5.07054 -1.69706 0
M  V30 8458 C 792.068 3.86064 -3.51783 0
M  V30 8459 H 793.762 2.01622 -2.21334 0
M  V30 8460 H 791.308 0.96866 -1.0655 0
M  V30 8461 H 793.261 4.10402 -0.956474 0
M  V30 8462 H 791.985 3.26577 -0.0390956 0
M  V30 8463 H 790.644 2.96876 -2.15082 0
M  V30 8464 H 790.292 4.9801 -0.706737 0
M  V30 8465 H 789.992 5.35333 -2.42264 0
M  V30 8466 H 791.516 5.87827 -1.65202 0
M  V30 8467 H 792.93 4.54665 -3.49218 0
M  V30 8468 H 791.327 4.25787 -4.22878 0
M  V30 8469 H 792.397 2.88344 -3.89854 0
M  V30 8470 N 793.74 1.17359 1.05189 0
M  V30 8471 C 794.968 0.986529 1.81866 0
M  V30 8472 C 795.383 -0.46522 1.82979 0
M  V30 8473 O 794.74 -1.32305 1.25705 0
M  V30 8474 C 794.791 1.52021 3.27982 0
M  V30 8475 O 794.512 2.91511 3.27037 0
M  V30 8476 C 796.013 1.37774 4.21347 0
M  V30 8477 H 793.233 0.349021 0.573084 0
M  V30 8478 H 795.777 1.55648 1.32643 0
M  V30 8479 H 793.932 0.992287 3.74476 0
M  V30 8480 H 794.346 3.16178 4.18488 0
M  V30 8481 H 795.82 1.7993 5.21852 0
M  V30 8482 H 796.297 0.32483 4.37997 0
M  V30 8483 H 796.903 1.89583 3.80708 0
M  V30 8484 N 795.218 -1.23913 0.973828 0
M  V30 8485 C 796.629 -1.73992 0.677021 0
M  V30 8486 C 796.98 -1.78833 -0.807036 0
M  V30 8487 O 796.105 -1.42183 -1.63135 0
M  V30 8488 C 796.7 -3.15985 1.22226 0
M  V30 8489 C 795.259 -3.63547 0.975228 0
M  V30 8490 C 794.406 -2.42001 1.35392 0
M  V30 8491 H 797.357 -1.09529 1.14844 0
M  V30 8492 H 797.378 -3.75875 0.591489 0
M  V30 8493 H 796.89 -3.12429 2.30238 0
M  V30 8494 H 794.991 -3.72493 -0.0891047 0
M  V30 8495 H 795.104 -4.50693 1.62518 0
M  V30 8496 H 793.468 -2.42708 0.772334 0
M  V30 8497 H 794.251 -2.41122 2.44367 0
M  V30 8498 N 796.696 -0.74468 -1.38897 0
M  V30 8499 C 797.644 -0.100312 -2.32384 0
M  V30 8500 C 798.638 0.715191 -1.53562 0
M  V30 8501 O 799.844 0.615288 -1.69157 0
M  V30 8502 H 796.219 -0.0136403 -0.751876 0
M  V30 8503 H 798.19 -0.905007 -2.84345 0
M  V30 8504 C 796.939 0.785432 -3.38713 0
M  V30 8505 H 796.262 0.167308 -3.9945 0
M  V30 8506 H 797.702 1.20374 -4.06554 0
M  V30 8507 C 796.161 1.92408 -2.76552 0
M  V30 8508 O 796.691 3.01752 -2.65157 0
M  V30 8509 N 794.897 1.71642 -2.34494 0
M  V30 8510 H 794.444 0.827079 -2.43961 0
M  V30 8511 H 794.402 2.48 -1.93244 0
M  V30 8512 N 798.174 1.49689 -0.493057 0
M  V30 8513 C 799.404 2.06536 0.0512397 0
M  V30 8514 C 799.812 1.35459 1.32089 0
M  V30 8515 O 799.155 0.424145 1.78736 0
M  V30 8516 C 799.217 3.57452 0.383231 0
M  V30 8517 C 798.881 4.50163 -0.787555 0
M  V30 8518 C 799.878 4.92151 -1.67582 0
M  V30 8519 C 797.563 4.92565 -0.984109 0
M  V30 8520 C 799.557 5.7527 -2.74487 0
M  V30 8521 C 797.244 5.75463 -2.05634 0
M  V30 8522 C 798.242 6.16719 -2.93507 0
M  V30 8523 O 797.93 6.97961 -3.98881 0
M  V30 8524 H 797.662 0.675862 -0.0136516 0
M  V30 8525 H 800.216 1.9356 -0.687298 0
M  V30 8526 H 798.446 3.68408 1.17526 0
M  V30 8527 H 800.135 3.96572 0.8652 0
M  V30 8528 H 800.901 4.60043 -1.53575 0
M  V30 8529 H 796.78 4.5996 -0.309541 0
M  V30 8530 H 800.324 6.07392 -3.43104 0
M  V30 8531 H 796.221 6.06983 -2.19639 0
M  V30 8532 H 796.989 7.16253 -3.96137 0
M  V30 8533 N 799.652 0.226554 1.55963 0
M  V30 8534 C 800.88 -0.408507 2.02827 0
M  V30 8535 C 801.295 -1.52994 1.10627 0
M  V30 8536 O 800.652 -1.82126 0.116809 0
M  V30 8537 C 800.703 -0.93545 3.49187 0
M  V30 8538 O 800.424 0.141273 4.37872 0
M  V30 8539 C 801.925 -1.64325 4.11719 0
M  V30 8540 H 799.145 -0.099442 0.66359 0
M  V30 8541 H 801.689 0.344471 2.01578 0
M  V30 8542 H 799.844 -1.63868 3.51036 0
M  V30 8543 H 800.258 -0.25558 5.23877 0
M  V30 8544 H 801.732 -1.9639 5.15883 0
M  V30 8545 H 802.209 -2.55815 3.57009 0
M  V30 8546 H 802.815 -0.9851 4.13734 0
M  V30 8547 N 801.13 -1.57531 -0.0467866 0
M  V30 8548 C 802.06 -2.08425 -1.05268 0
M  V30 8549 C 803.041 -0.982941 -1.38825 0
M  V30 8550 O 804.226 -1.25716 -1.48018 0
M  V30 8551 C 801.356 -2.54897 -2.35891 0
M  V30 8552 C 800.31 -3.69132 -2.16623 0
M  V30 8553 C 799.636 -4.01747 -3.52851 0
M  V30 8554 C 800.936 -4.98243 -1.56689 0
M  V30 8555 H 802.63 -2.92716 -0.62908 0
M  V30 8556 H 800.176 -1.40816 -0.301156 0
M  V30 8557 H 802.129 -2.8912 -3.06574 0
M  V30 8558 H 800.853 -1.67666 -2.80278 0
M  V30 8559 H 799.512 -3.35231 -1.48377 0
M  V30 8560 H 799.16 -3.11608 -3.94853 0
M  V30 8561 H 798.86 -4.78681 -3.4079 0
M  V30 8562 H 800.384 -4.38487 -4.24925 0
M  V30 8563 H 801.798 -5.30535 -2.17268 0
M  V30 8564 H 800.195 -5.79669 -1.55255 0
M  V30 8565 H 801.265 -4.81986 -0.530827 0
M  V30 8566 N 802.608 0.318715 -1.54344 0
M  V30 8567 C 803.856 1.054 -1.72439 0
M  V30 8568 C 804.177 1.88388 -0.503495 0
M  V30 8569 O 803.447 1.89866 0.48246 0
M  V30 8570 H 802.027 0.392124 -0.635805 0
M  V30 8571 H 804.689 0.35398 -1.91659 0
M  V30 8572 H 803.785 1.71726 -2.60608 0
M  V30 8573 N 804.086 1.46499 0.581025 0
M  V30 8574 C 805.049 1.5677 1.672 0
M  V30 8575 C 806.049 0.444716 1.54528 0
M  V30 8576 O 807.239 0.709074 1.59116 0
M  V30 8577 C 804.371 1.4896 3.06633 0
M  V30 8578 H 805.564 2.54 1.5945 0
M  V30 8579 H 803.117 1.34334 0.799003 0
M  V30 8580 H 803.852 0.530168 3.19937 0
M  V30 8581 H 803.637 2.30439 3.17239 0
M  V30 8582 H 805.127 1.59237 3.86048 0
M  V30 8583 N 805.565 -0.825799 1.34232 0
M  V30 8584 C 806.513 -1.95792 1.25572 0
M  V30 8585 C 807.507 -1.68695 0.154404 0
M  V30 8586 O 808.713 -1.77147 0.319196 0
M  V30 8587 H 805.088 -0.642949 0.390027 0
M  V30 8588 H 807.059 -2.00219 2.21258 0
M  V30 8589 C 805.808 -3.32245 1.02511 0
M  V30 8590 H 805.131 -3.53642 1.86487 0
M  V30 8591 H 806.571 -4.1192 1.00487 0
M  V30 8592 C 805.03 -3.35803 -0.27167 0
M  V30 8593 O 805.56 -3.80962 -1.274 0
M  V30 8594 N 803.766 -2.89008 -0.303778 0
M  V30 8595 H 803.313 -2.52451 0.512464 0
M  V30 8596 H 803.271 -2.9177 -1.17121 0
M  V30 8597 N 807.043 -1.17915 -1.04565 0
M  V30 8598 C 808.291 -0.969505 -1.77327 0
M  V30 8599 C 808.612 0.502569 -1.88412 0
M  V30 8600 O 807.882 1.36467 -1.40547 0
M  V30 8601 H 806.462 -0.355723 -0.656864 0
M  V30 8602 H 809.124 -1.48506 -1.26223 0
M  V30 8603 H 808.22 -1.40324 -2.78775 0
M  V30 8604 N 808.521 1.23394 -0.980386 0
M  V30 8605 C 809.751 1.9556 -0.666319 0
M  V30 8606 C 810.159 1.72786 0.770815 0
M  V30 8607 O 809.502 1.0162 1.53033 0
M  V30 8608 C 809.564 3.48643 -0.876825 0
M  V30 8609 C 809.228 3.95135 -2.29602 0
M  V30 8610 C 810.225 4.03806 -3.2747 0
M  V30 8611 C 807.91 4.28122 -2.62711 0
M  V30 8612 C 809.904 4.44818 -4.56526 0
M  V30 8613 C 807.591 4.68814 -3.9199 0
M  V30 8614 C 808.589 4.77129 -4.88709 0
M  V30 8615 O 808.277 5.16908 -6.15679 0
M  V30 8616 H 808.009 0.629422 -0.246585 0
M  V30 8617 H 810.563 1.57839 -1.31438 0
M  V30 8618 H 808.793 3.86319 -0.171587 0
M  V30 8619 H 810.482 4.0202 -0.55992 0
M  V30 8620 H 811.248 3.78526 -3.03222 0
M  V30 8621 H 807.127 4.20861 -1.8814 0
M  V30 8622 H 810.671 4.51223 -5.32018 0
M  V30 8623 H 806.568 4.93545 -4.16033 0
M  V30 8624 H 807.336 5.3502 -6.19432 0
M  V30 8625 N 809.999 0.752036 1.385 0
M  V30 8626 C 811.245 0.307958 2.00448 0
M  V30 8627 C 811.578 -1.10702 1.59558 0
M  V30 8628 O 810.853 -1.75788 0.832391 0
M  V30 8629 C 811.136 0.429092 3.57534 0
M  V30 8630 C 810.989 1.88507 4.08393 0
M  V30 8631 C 812.308 -0.178442 4.39738 0
M  V30 8632 H 809.427 0.113373 0.728228 0
M  V30 8633 H 812.069 0.951389 1.64465 0
M  V30 8634 H 810.219 -0.118695 3.88319 0
M  V30 8635 H 811.891 2.49104 3.88259 0
M  V30 8636 H 810.134 2.40066 3.61318 0
M  V30 8637 H 810.805 1.92099 5.17496 0
M  V30 8638 H 813.281 0.28872 4.15097 0
M  V30 8639 H 812.157 -0.0634349 5.48863 0
M  V30 8640 H 812.418 -1.26655 4.23569 0
M  V30 8641 N 811.477 -1.49425 0.500989 0
M  V30 8642 C 812.724 -2.02453 -0.0435355 0
M  V30 8643 C 813.052 -1.38067 -1.36995 0
M  V30 8644 O 812.307 -0.505557 -1.89057 0
M  V30 8645 C 812.606 -3.56562 -0.24463 0
M  V30 8646 C 812.272 -4.39585 1.00379 0
M  V30 8647 C 810.934 -4.61992 1.346 0
M  V30 8648 C 813.286 -4.87881 1.83361 0
M  V30 8649 C 810.614 -5.2994 2.51755 0
M  V30 8650 C 812.966 -5.57119 2.99669 0
M  V30 8651 C 811.63 -5.77771 3.3427 0
M  V30 8652 H 810.9 -0.740829 -0.0159308 0
M  V30 8653 H 813.547 -1.79725 0.661143 0
M  V30 8654 H 811.852 -3.77969 -1.03183 0
M  V30 8655 H 813.549 -3.95185 -0.6804 0
M  V30 8656 H 810.139 -4.22385 0.727225 0
M  V30 8657 H 814.323 -4.70398 1.58237 0
M  V30 8658 H 809.579 -5.44133 2.788 0
M  V30 8659 H 813.753 -5.93516 3.64296 0
M  V30 8660 H 811.38 -6.30197 4.25154 0
M  V30 8661 N 812.955 -0.234822 -1.55841 0
M  V30 8662 C 813.918 0.656378 -2.196 0
M  V30 8663 C 814.918 1.11179 -1.16171 0
M  V30 8664 O 816.108 1.01845 -1.41326 0
M  V30 8665 C 813.24 1.90072 -2.82993 0
M  V30 8666 H 814.433 0.100281 -2.99732 0
M  V30 8667 H 811.986 0.0147613 -1.56293 0
M  V30 8668 H 812.721 2.49836 -2.06767 0
M  V30 8669 H 812.506 1.5825 -3.58747 0
M  V30 8670 H 813.996 2.53538 -3.31826 0
M  V30 8671 N 814.433 1.57553 0.0384317 0
M  V30 8672 C 815.682 1.88022 0.730108 0
M  V30 8673 C 815.995 0.83209 1.77019 0
M  V30 8674 O 817.201 1.0257 2.51379 0
M  V30 8675 C 815.657 3.33637 1.3496 0
M  V30 8676 C 815.265 4.46659 0.346352 0
M  V30 8677 C 817.009 3.73266 2.02169 0
M  V30 8678 C 814.916 5.8333 0.973652 0
M  V30 8679 H 813.846 0.701496 0.276442 0
M  V30 8680 H 816.497 1.83493 -0.0158028 0
M  V30 8681 H 814.879 3.32882 2.1449 0
M  V30 8682 H 816.053 4.58868 -0.421558 0
M  V30 8683 H 814.368 4.15802 -0.223133 0
M  V30 8684 H 816.965 4.72689 2.49938 0
M  V30 8685 H 817.308 3.04776 2.8358 0
M  V30 8686 H 817.841 3.76156 1.29427 0
M  V30 8687 H 814.58 6.55197 0.199163 0
M  V30 8688 H 814.1 5.7486 1.71162 0
M  V30 8689 H 815.779 6.29757 1.48376 0
M  V30 8690 N 815.911 -0.310526 1.54511 0
M  V30 8691 C 817.188 -1.06593 1.64004 0
M  V30 8692 C 817.568 -2.05519 0.482216 0
M  V30 8693 O 816.916 -2.22455 -0.52212 0
M  V30 8694 C 817.126 -1.75627 3.01589 0
M  V30 8695 C 818.474 -2.28173 3.58081 0
M  V30 8696 O 819.498 -1.85674 3.03979 0
M  V30 8697 O 818.357 -3.06015 4.52788 0
M  V30 8698 H 815.451 -0.492109 0.664649 0
M  V30 8699 H 817.997 -0.309374 1.66856 0
M  V30 8700 H 816.769 -1.03743 3.77297 0
M  V30 8701 H 816.392 -2.58061 3.02473 0
M  V30 8702 N 817.389 -1.46805 -0.573248 0
M  V30 8703 C 818.319 -1.60951 -1.69165 0
M  V30 8704 C 819.3 -0.45948 -1.63777 0
M  V30 8705 O 820.485 -0.68688 -1.81647 0
M  V30 8706 C 817.615 -1.60844 -3.07809 0
M  V30 8707 C 816.569 -2.74913 -3.28035 0
M  V30 8708 C 815.895 -2.59871 -4.67302 0
M  V30 8709 C 817.195 -4.16654 -3.14955 0
M  V30 8710 H 818.889 -2.54574 -1.57582 0
M  V30 8711 H 816.435 -1.22516 -0.756686 0
M  V30 8712 H 818.388 -1.69334 -3.85881 0
M  V30 8713 H 817.112 -0.637714 -3.20314 0
M  V30 8714 H 815.771 -2.65908 -2.52366 0
M  V30 8715 H 815.419 -1.60861 -4.76585 0
M  V30 8716 H 815.119 -3.36386 -4.81786 0
M  V30 8717 H 816.643 -2.70265 -5.4753 0
M  V30 8718 H 818.057 -4.26721 -3.82861 0
M  V30 8719 H 816.454 -4.93831 -3.40956 0
M  V30 8720 H 817.524 -4.36146 -2.11908 0
M  V30 8721 N 818.867 0.818669 -1.34668 0
M  V30 8722 C 819.815 1.95123 -1.26609 0
M  V30 8723 C 820.809 1.68611 -0.163348 0
M  V30 8724 O 822.015 1.76975 -0.328586 0
M  V30 8725 H 818.39 0.640871 -0.393431 0
M  V30 8726 H 820.361 1.99043 -2.22316 0
M  V30 8727 C 819.11 3.31697 -1.04272 0
M  V30 8728 H 818.433 3.52648 -1.8836 0
M  V30 8729 H 819.873 4.11382 -1.0267 0
M  V30 8730 C 818.332 3.35942 0.253858 0
M  V30 8731 O 818.862 3.81632 1.25378 0
M  V30 8732 N 817.068 2.89165 0.288447 0
M  V30 8733 H 816.615 2.52176 -0.525845 0
M  V30 8734 H 816.573 2.92387 1.15572 0
M  V30 8735 N 820.346 1.18468 1.03938 0
M  V30 8736 C 821.594 0.978895 1.76811 0
M  V30 8737 C 821.915 -0.49257 1.88676 0
M  V30 8738 O 821.185 -1.3572 1.41269 0
M  V30 8739 H 819.765 0.359201 0.654968 0
M  V30 8740 H 822.427 1.49173 1.25433 0
M  V30 8741 H 821.523 1.418 2.78027 0
M  V30 8742 N 821.824 -1.22873 0.986916 0
M  V30 8743 C 823.054 -1.95204 0.67668 0
M  V30 8744 C 823.462 -1.73193 -0.761641 0
M  V30 8745 O 822.805 -1.0243 -1.52492 0
M  V30 8746 C 822.867 -3.48173 0.895302 0
M  V30 8747 C 822.531 -3.93912 2.31695 0
M  V30 8748 C 823.528 -4.02064 3.29607 0
M  V30 8749 C 821.213 -4.26722 2.64978 0
M  V30 8750 C 823.207 -4.42391 4.58878 0
M  V30 8751 C 820.894 -4.66729 3.94471 0
M  V30 8752 C 821.892 -4.74531 4.91232 0
M  V30 8753 O 821.58 -5.13636 6.18412 0
M  V30 8754 H 821.312 -0.628105 0.24992 0
M  V30 8755 H 823.866 -1.5714 1.32274 0
M  V30 8756 H 822.096 -3.86223 0.192072 0
M  V30 8757 H 823.785 -4.01717 0.581233 0
M  V30 8758 H 824.551 -3.76912 3.05225 0
M  V30 8759 H 820.43 -4.19858 1.9037 0
M  V30 8760 H 823.974 -4.48395 5.34404 0
M  V30 8761 H 819.871 -4.91332 4.18645 0
M  V30 8762 H 820.639 -5.31728 6.2226 0
M  V30 8763 N 823.302 -0.75937 -1.38099 0
M  V30 8764 C 824.548 -0.318584 -2.00282 0
M  V30 8765 C 824.881 1.09854 -1.60143 0
M  V30 8766 O 824.156 1.75344 -0.841702 0
M  V30 8767 C 824.439 -0.448047 -3.57302 0
M  V30 8768 C 824.292 -1.9067 -4.07388 0
M  V30 8769 C 825.611 0.155119 -4.39827 0
M  V30 8770 H 822.73 -0.117233 -0.727616 0
M  V30 8771 H 825.372 -0.960097 -1.63958 0
M  V30 8772 H 823.522 0.0981003 -3.88376 0
M  V30 8773 H 825.194 -2.5116 -3.86932 0
M  V30 8774 H 823.437 -2.41979 -3.6004 0
M  V30 8775 H 824.108 -1.94841 -5.1647 0
M  V30 8776 H 826.584 -0.31073 -4.14938 0
M  V30 8777 H 825.46 0.0343264 -5.48889 0
M  V30 8778 H 825.721 1.24407 -4.24235 0
M  V30 8779 N 824.78 1.49157 -0.508906 0
M  V30 8780 C 825.71 2.32109 0.254469 0
M  V30 8781 C 826.691 1.40754 0.955111 0
M  V30 8782 O 827.876 1.69658 0.944983 0
M  V30 8783 C 825.006 3.21458 1.3146 0
M  V30 8784 C 823.96 4.2167 0.733368 0
M  V30 8785 C 823.286 5.00009 1.8946 0
M  V30 8786 C 824.586 5.21544 -0.280875 0
M  V30 8787 H 826.28 2.9618 -0.43795 0
M  V30 8788 H 823.826 1.4243 -0.212062 0
M  V30 8789 H 825.779 3.78305 1.85643 0
M  V30 8790 H 824.503 2.55346 2.03632 0
M  V30 8791 H 823.162 3.65979 0.213231 0
M  V30 8792 H 822.81 4.30338 2.60419 0
M  V30 8793 H 822.51 5.67821 1.51173 0
M  V30 8794 H 824.034 5.59702 2.44061 0
M  V30 8795 H 825.448 5.73039 0.173095 0
M  V30 8796 H 823.845 5.97291 -0.580006 0
M  V30 8797 H 824.915 4.69969 -1.19404 0
M  V30 8798 N 826.258 0.243083 1.55714 0
M  V30 8799 C 827.188 -0.652336 2.24203 0
M  V30 8800 C 828.169 -1.1843 1.221 0
M  V30 8801 O 829.354 -1.22435 1.50743 0
M  V30 8802 C 826.484 -1.85111 2.93856 0
M  V30 8803 C 825.438 -1.45208 4.02615 0
M  V30 8804 C 824.764 -2.73137 4.59674 0
M  V30 8805 C 826.064 -0.625988 5.18535 0
M  V30 8806 H 827.758 -0.0812504 2.9929 0
M  V30 8807 H 825.304 -0.0376388 1.43951 0
M  V30 8808 H 827.257 -2.48314 3.40468 0
M  V30 8809 H 825.981 -2.44751 2.16251 0
M  V30 8810 H 824.64 -0.843406 3.56766 0
M  V30 8811 H 824.288 -3.30967 3.78774 0
M  V30 8812 H 823.988 -2.47163 5.33089 0
M  V30 8813 H 825.512 -3.37245 5.09017 0
M  V30 8814 H 826.926 -1.16223 5.61396 0
M  V30 8815 H 825.323 -0.462465 5.98315 0
M  V30 8816 H 826.393 0.362652 4.83542 0
M  V30 8817 N 827.736 -1.57571 -0.0300757 0
M  V30 8818 C 828.686 -2.02958 -1.03885 0
M  V30 8819 C 829.67 -0.918723 -1.32092 0
M  V30 8820 O 830.862 -1.18262 -1.31694 0
M  V30 8821 C 827.991 -2.51169 -2.34028 0
M  V30 8822 C 827.077 -3.69073 -2.08915 0
M  V30 8823 N 827.468 -4.81831 -1.53858 0
M  V30 8824 C 825.766 -3.76427 -2.39204 0
M  V30 8825 C 826.467 -5.6346 -1.44526 0
M  V30 8826 N 825.443 -5.08545 -1.92048 0
M  V30 8827 H 829.245 -2.8756 -0.607157 0
M  V30 8828 H 826.759 -1.6067 -0.236399 0
M  V30 8829 H 828.756 -2.81944 -3.07104 0
M  V30 8830 H 827.416 -1.67972 -2.77876 0
M  V30 8831 H 828.427 -5.03291 -1.22142 0
M  V30 8832 H 825.104 -3.04029 -2.86134 0
M  V30 8833 H 826.494 -6.64042 -1.02456 0
M  V30 8834 N 829.214 0.302327 -1.54673 0
M  V30 8835 C 830.625 0.875409 -1.64904 0
M  V30 8836 C 830.976 1.88132 -0.55684 0
M  V30 8837 O 830.101 2.14215 0.306754 0
M  V30 8838 C 830.696 1.59457 -2.9893 0
M  V30 8839 C 829.255 2.11607 -3.11287 0
M  V30 8840 C 828.402 0.948324 -2.6058 0
M  V30 8841 H 831.353 0.079362 -1.58501 0
M  V30 8842 H 831.374 2.46005 -2.90279 0
M  V30 8843 H 830.886 0.8622 -3.78402 0
M  V30 8844 H 828.987 2.87895 -2.36532 0
M  V30 8845 H 829.1 2.35151 -4.17422 0
M  V30 8846 H 827.464 1.33352 -2.17001 0
M  V30 8847 H 828.247 0.229936 -3.42529 0
M  V30 8848 N 830.692 1.47107 0.565454 0
M  V30 8849 C 831.64 1.59368 1.69424 0
M  V30 8850 C 832.634 0.461344 1.62997 0
M  V30 8851 O 833.84 0.638849 1.68282 0
M  V30 8852 H 830.215 0.501387 0.560459 0
M  V30 8853 H 832.186 2.54242 1.56217 0
M  V30 8854 C 830.935 1.61739 3.07792 0
M  V30 8855 H 830.258 2.48215 3.13416 0
M  V30 8856 H 831.698 1.7437 3.86486 0
M  V30 8857 C 830.157 0.349156 3.35086 0
M  V30 8858 O 830.687 -0.553287 3.97871 0
M  V30 8859 N 828.893 0.231723 2.89675 0
M  V30 8860 H 828.44 0.967021 2.3876 0
M  V30 8861 H 828.398 -0.615911 3.08308 0
M  V30 8862 N 832.17 -0.811516 1.35101 0
M  V30 8863 C 833.1 -1.9378 1.30275 0
M  V30 8864 C 834.081 -1.69165 0.178075 0
M  V30 8865 O 835.266 -1.90599 0.372256 0
M  V30 8866 C 832.396 -3.30439 1.06899 0
M  V30 8867 C 831.35 -3.69523 2.15955 0
M  V30 8868 C 830.676 -5.0429 1.77751 0
M  V30 8869 C 831.976 -3.80419 3.57881 0
M  V30 8870 H 833.67 -1.98075 2.24514 0
M  V30 8871 H 831.216 -0.951586 1.08078 0
M  V30 8872 H 833.169 -4.08828 1.02164 0
M  V30 8873 H 831.893 -3.26473 0.0910462 0
M  V30 8874 H 830.552 -2.93416 2.19778 0
M  V30 8875 H 830.2 -4.96823 0.785876 0
M  V30 8876 H 829.9 -5.31411 2.5075 0
M  V30 8877 H 831.424 -5.85125 1.74533 0
M  V30 8878 H 832.838 -4.49051 3.56407 0
M  V30 8879 H 831.235 -4.19005 4.29598 0
M  V30 8880 H 832.305 -2.82105 3.94391 0
M  V30 8881 N 833.648 -1.19017 -1.03309 0
M  V30 8882 C 834.595 -0.924088 -2.11493 0
M  V30 8883 C 835.565 0.139464 -1.65513 0
M  V30 8884 O 836.75 -0.00178761 -1.908 0
M  V30 8885 C 833.89 -0.464255 -3.41963 0
M  V30 8886 C 833.003 -1.5941 -4.01513 0
M  V30 8887 C 832.138 -1.08622 -5.19976 0
M  V30 8888 C 831.177 -2.19024 -5.71572 0
M  V30 8889 N 830.314 -1.69575 -6.81314 0
M  V30 8890 H 835.154 -1.85039 -2.33591 0
M  V30 8891 H 832.691 -0.922593 -1.14572 0
M  V30 8892 H 834.649 -0.179078 -4.16815 0
M  V30 8893 H 833.279 0.425062 -3.19989 0
M  V30 8894 H 832.331 -1.99458 -3.23915 0
M  V30 8895 H 833.643 -2.42604 -4.35826 0
M  V30 8896 H 832.797 -0.756022 -6.01971 0
M  V30 8897 H 831.536 -0.223955 -4.87186 0
M  V30 8898 H 830.541 -2.5288 -4.88193 0
M  V30 8899 H 831.766 -3.05699 -6.06403 0
M  V30 8900 H 829.712 -0.856494 -6.50385 0
M  V30 8901 H 829.629 -2.46361 -7.14732 0
M  V30 8902 H 830.897 -1.39505 -7.66915 0
M  V30 8903 N 835.127 1.22348 -0.993418 0
M  V30 8904 C 836.538 1.72893 -0.704616 0
M  V30 8905 C 836.889 1.80095 0.778483 0
M  V30 8906 O 836.014 1.4476 1.60853 0
M  V30 8907 C 836.609 3.14 -1.27237 0
M  V30 8908 C 835.168 3.61949 -1.03294 0
M  V30 8909 C 834.315 2.39816 -1.39225 0
M  V30 8910 H 837.266 1.07688 -1.16572 0
M  V30 8911 H 837.287 3.74886 -0.651212 0
M  V30 8912 H 836.799 3.08727 -2.3518 0
M  V30 8913 H 834.9 3.72588 0.0298329 0
M  V30 8914 H 835.013 4.48051 -1.69668 0
M  V30 8915 H 833.377 2.41448 -0.810849 0
M  V30 8916 H 834.16 2.37203 -2.48172 0
M  V30 8917 N 836.605 0.766683 1.37694 0
M  V30 8918 C 837.537 0.107798 2.28946 0
M  V30 8919 C 838.55 -0.669701 1.48387 0
M  V30 8920 O 839.739 -0.508629 1.711 0
M  V30 8921 C 836.839 -0.871084 3.27514 0
M  V30 8922 C 836.012 -0.148471 4.37148 0
M  V30 8923 C 835.071 -1.03998 5.1582 0
M  V30 8924 O 834.097 -0.505639 5.6695 0
M  V30 8925 N 835.299 -2.36679 5.3006 0
M  V30 8926 H 838.064 0.89154 2.86132 0
M  V30 8927 H 835.625 0.618593 1.49616 0
M  V30 8928 H 837.617 -1.47081 3.77027 0
M  V30 8929 H 836.187 -1.55582 2.71133 0
M  V30 8930 H 835.407 0.632117 3.89099 0
M  V30 8931 H 836.695 0.351045 5.07588 0
M  V30 8932 H 836.093 -2.82532 4.90094 0
M  V30 8933 H 834.65 -2.9167 5.82899 0
M  V30 8934 N 838.083 -1.48885 0.516809 0
M  V30 8935 C 839.311 -2.06892 -0.0184017 0
M  V30 8936 C 839.726 -1.37511 -1.29368 0
M  V30 8937 O 839.083 -0.458409 -1.76649 0
M  V30 8938 C 839.134 -3.60566 -0.259673 0
M  V30 8939 O 838.855 -4.27338 0.965065 0
M  V30 8940 C 840.356 -4.35331 -0.836751 0
M  V30 8941 H 837.576 -0.670433 0.0275743 0
M  V30 8942 H 840.12 -1.91455 0.718689 0
M  V30 8943 H 838.275 -3.75653 -0.94678 0
M  V30 8944 H 838.689 -5.19287 0.737647 0
M  V30 8945 H 840.163 -5.43675 -0.955065 0
M  V30 8946 H 840.64 -3.9887 -1.83845 0
M  V30 8947 H 841.246 -4.2489 -0.186622 0
M  V30 8948 N 839.561 -0.251338 -1.55583 0
M  V30 8949 C 840.789 0.376187 -2.03451 0
M  V30 8950 C 841.204 1.51215 -1.13047 0
M  V30 8951 O 840.561 1.81917 -0.145769 0
M  V30 8952 C 840.612 0.879779 -3.50631 0
M  V30 8953 O 840.333 -0.210917 -4.37592 0
M  V30 8954 C 841.834 1.57754 -4.14281 0
M  V30 8955 H 839.054 0.0888722 -0.665089 0
M  V30 8956 H 841.598 -0.376497 -2.01004 0
M  V30 8957 H 839.753 1.58263 -3.53598 0
M  V30 8958 H 840.167 0.172203 -5.24217 0
M  V30 8959 H 841.641 1.88158 -5.18942 0
M  V30 8960 H 842.118 2.50103 -3.61034 0
M  V30 8961 H 842.724 0.919154 -4.15249 0
M  V30 8962 N 841.039 1.57585 0.0217189 0
M  V30 8963 C 841.987 2.08134 1.03842 0
M  V30 8964 C 842.981 0.996662 1.36978 0
M  V30 8965 O 844.187 1.18149 1.35797 0
M  V30 8966 H 840.562 0.664298 0.352438 0
M  V30 8967 H 842.533 2.92583 0.58634 0
M  V30 8968 C 841.282 2.58218 2.32849 0
M  V30 8969 H 840.605 3.41302 2.08214 0
M  V30 8970 H 842.045 2.97289 3.02316 0
M  V30 8971 C 840.504 1.48664 3.02325 0
M  V30 8972 O 841.034 0.857075 3.9245 0
M  V30 8973 N 839.24 1.21938 2.63779 0
M  V30 8974 H 838.787 1.73319 1.90574 0
M  V30 8975 H 838.745 0.488523 3.10581 0
M  V30 8976 N 842.517 -0.29412 1.54831 0
M  V30 8977 C 843.764 -1.02846 1.74439 0
M  V30 8978 C 844.092 -1.87029 0.533905 0
M  V30 8979 O 843.347 -1.8962 -0.484035 0
M  V30 8980 C 843.646 -1.95782 2.99006 0
M  V30 8981 C 843.312 -1.2752 4.32492 0
M  V30 8982 C 841.974 -1.08637 4.68777 0
M  V30 8983 C 844.326 -0.787761 5.15212 0
M  V30 8984 C 841.654 -0.39704 5.85355 0
M  V30 8985 C 844.006 -0.112123 6.32501 0
M  V30 8986 C 842.67 0.0886071 6.67441 0
M  V30 8987 H 841.94 -0.376341 0.638317 0
M  V30 8988 H 844.587 -0.302684 1.89093 0
M  V30 8989 H 842.892 -2.74911 2.79162 0
M  V30 8990 H 844.589 -2.52684 3.11371 0
M  V30 8991 H 841.179 -1.43226 4.03961 0
M  V30 8992 H 845.363 -0.921341 4.87673 0
M  V30 8993 H 840.619 -0.230597 6.10965 0
M  V30 8994 H 844.793 0.27344 6.95863 0
M  V30 8995 H 842.42 0.624748 7.57628 0
M  V30 8996 N 843.995 -1.47404 -0.557645 0
M  V30 8997 C 845.411 -1.32913 -0.88353 0
M  V30 8998 C 845.611 -0.31929 -1.98954 0
M  V30 8999 O 844.667 0.26934 -2.51059 0
M  V30 9000 C 845.98 -2.72229 -1.27718 0
M  V30 9001 C 847.528 -2.8051 -1.38863 0
M  V30 9002 C 848.003 -4.20466 -1.81583 0
M  V30 9003 N 849.494 -4.23005 -1.88735 0
M  V30 9004 C 850.229 -5.2821 -2.23118 0
M  V30 9005 N 849.725 -6.4372 -2.56117 0
M  V30 9006 N 851.518 -5.15588 -2.23888 0
M  V30 9007 H 843.669 -2.11698 0.172557 0
M  V30 9008 H 845.932 -0.947889 0.0145334 0
M  V30 9009 H 845.638 -3.47556 -0.538329 0
M  V30 9010 H 845.512 -3.03971 -2.23342 0
M  V30 9011 H 847.899 -2.05457 -2.11829 0
M  V30 9012 H 847.98 -2.52423 -0.414274 0
M  V30 9013 H 847.624 -4.96025 -1.09187 0
M  V30 9014 H 847.554 -4.45977 -2.80021 0
M  V30 9015 H 850.045 -3.39674 -1.65621 0
M  V30 9016 H 850.358 -7.19754 -2.81378 0
M  V30 9017 H 848.703 -6.47041 -2.53698 0
M  V30 9018 H 851.894 -4.24374 -1.97546 0
M  V30 9019 H 852.067 -5.97685 -2.50353 0
M  V30 9020 N 845.473 0.80434 -1.35529 0
M  V30 9021 C 846.383 1.94784 -1.30753 0
M  V30 9022 C 847.399 1.72703 -0.212071 0
M  V30 9023 O 848.575 1.96494 -0.441841 0
M  V30 9024 C 845.64 3.29406 -1.08133 0
M  V30 9025 C 844.701 3.64367 -2.27013 0
M  V30 9026 C 843.934 4.92566 -2.05463 0
M  V30 9027 O 844.157 5.61166 -1.02222 0
M  V30 9028 O 843.091 5.25838 -2.92879 0
M  V30 9029 H 846.917 2.01761 -2.26994 0
M  V30 9030 H 844.502 0.942448 -1.15924 0
M  V30 9031 H 846.384 4.09995 -0.973756 0
M  V30 9032 H 845.059 3.23355 -0.149444 0
M  V30 9033 H 843.966 2.84146 -2.43335 0
M  V30 9034 H 845.299 3.75125 -3.18656 0
M  V30 9035 N 846.951 1.19563 1.02676 0
M  V30 9036 C 848.362 1.00158 1.57561 0
M  V30 9037 C 848.713 -0.444922 1.91089 0
M  V30 9038 O 847.838 -1.32466 1.71119 0
M  V30 9039 C 848.433 1.81181 2.86284 0
M  V30 9040 C 846.992 1.66171 3.37734 0
M  V30 9041 C 846.139 1.7975 2.11152 0
M  V30 9042 H 849.09 1.33904 0.85179 0
M  V30 9043 H 849.111 1.30916 3.57269 0
M  V30 9044 H 848.623 2.86454 2.6185 0
M  V30 9045 H 846.724 0.634927 3.6715 0
M  V30 9046 H 846.837 2.46832 4.10622 0
M  V30 9047 H 845.201 1.22833 2.23123 0
M  V30 9048 H 845.984 2.86487 1.89157 0
M  V30 9049 N 848.429 -1.21819 0.999893 0
M  V30 9050 C 849.675 -1.91035 0.680701 0
M  V30 9051 C 850.008 -1.77582 -0.786021 0
M  V30 9052 O 849.283 -1.14917 -1.56921 0
M  V30 9053 C 849.566 -3.43013 1.0961 0
M  V30 9054 C 849.419 -3.65481 2.6219 0
M  V30 9055 C 850.738 -4.35204 0.654616 0
M  V30 9056 H 847.857 -0.693748 0.248763 0
M  V30 9057 H 850.499 -1.43555 1.24466 0
M  V30 9058 H 848.649 -3.83581 0.616253 0
M  V30 9059 H 850.321 -3.34273 3.17899 0
M  V30 9060 H 848.564 -3.09522 3.03938 0
M  V30 9061 H 849.235 -4.71945 2.86307 0
M  V30 9062 H 851.711 -4.0219 1.06688 0
M  V30 9063 H 850.587 -5.40198 0.973492 0
M  V30 9064 H 850.848 -4.3986 -0.444458 0
M  V30 9065 N 849.908 -0.773975 -1.37286 0
M  V30 9066 C 851.136 -0.350758 -2.03905 0
M  V30 9067 C 851.551 1.02779 -1.58373 0
M  V30 9068 O 850.908 1.65646 -0.766009 0
M  V30 9069 C 850.959 -0.387335 -3.59419 0
M  V30 9070 O 850.68 -1.7115 -4.03286 0
M  V30 9071 C 852.181 0.047198 -4.43275 0
M  V30 9072 H 849.401 -0.146663 -0.654775 0
M  V30 9073 H 851.945 -1.04852 -1.75574 0
M  V30 9074 H 850.1 0.261865 -3.86514 0
M  V30 9075 H 850.514 -1.65166 -4.97816 0
M  V30 9076 H 851.988 -0.0295474 -5.51992 0
M  V30 9077 H 852.465 1.09786 -4.25257 0
M  V30 9078 H 853.071 -0.573899 -4.2141 0
M  V30 9079 N 851.386 1.48609 -0.524698 0
M  V30 9080 C 852.316 2.32366 0.229837 0
M  V30 9081 C 853.297 1.41759 0.940129 0
M  V30 9082 O 854.482 1.7065 0.926936 0
M  V30 9083 C 851.612 3.22835 1.28043 0
M  V30 9084 C 850.566 4.22424 0.688603 0
M  V30 9085 C 849.892 5.0199 1.84146 0
M  V30 9086 C 851.192 5.21217 -0.336176 0
M  V30 9087 H 852.886 2.95698 -0.469339 0
M  V30 9088 H 850.432 1.42197 -0.227156 0
M  V30 9089 H 852.385 3.80253 1.8162 0
M  V30 9090 H 851.109 2.57492 2.00912 0
M  V30 9091 H 849.768 3.66185 0.174402 0
M  V30 9092 H 849.416 4.33076 2.5584 0
M  V30 9093 H 849.116 5.69392 1.45142 0
M  V30 9094 H 850.64 5.62259 2.38111 0
M  V30 9095 H 852.054 5.7319 0.112307 0
M  V30 9096 H 850.451 5.96642 -0.643324 0
M  V30 9097 H 851.521 4.68676 -1.24381 0
M  V30 9098 N 852.864 0.259585 1.55447 0
M  V30 9099 C 854.141 -0.412595 1.91199 0
M  V30 9100 C 854.521 -1.74909 1.18194 0
M  V30 9101 O 853.869 -2.26474 0.303603 0
M  V30 9102 C 854.079 -0.568195 3.44344 0
M  V30 9103 C 855.427 -0.858253 4.15836 0
M  V30 9104 O 856.451 -0.653588 3.50152 0
M  V30 9105 O 855.31 -1.24874 5.32042 0
M  V30 9106 H 852.404 -0.223403 0.796254 0
M  V30 9107 H 854.95 0.30459 1.66944 0
M  V30 9108 H 853.722 0.372989 3.89518 0
M  V30 9109 H 853.345 -1.33544 3.74502 0
M  V30 9110 N 854.342 -1.57594 -0.0133615 0
M  V30 9111 C 855.589 -1.8998 -0.70098 0
M  V30 9112 C 855.917 -0.858802 -1.74513 0
M  V30 9113 O 855.172 0.138209 -1.95211 0
M  V30 9114 C 855.471 -3.29121 -1.39336 0
M  V30 9115 C 855.137 -4.48298 -0.483687 0
M  V30 9116 C 853.799 -4.80635 -0.233186 0
M  V30 9117 C 856.151 -5.21003 0.143426 0
M  V30 9118 C 853.479 -5.83055 0.652943 0
M  V30 9119 C 855.831 -6.24366 1.01735 0
M  V30 9120 C 854.495 -6.55168 1.27716 0
M  V30 9121 H 853.765 -0.695187 -0.256507 0
M  V30 9122 H 856.412 -1.9146 0.0392965 0
M  V30 9123 H 854.717 -3.23703 -2.20735 0
M  V30 9124 H 856.414 -3.51433 -1.93121 0
M  V30 9125 H 853.004 -4.23024 -0.689092 0
M  V30 9126 H 857.188 -4.96286 -0.0371139 0
M  V30 9127 H 852.444 -6.05288 0.862379 0
M  V30 9128 H 856.618 -6.79839 1.5097 0
M  V30 9129 H 854.245 -7.34351 1.9655 0
M  V30 9130 N 855.82 0.285905 -1.54985 0
M  V30 9131 C 856.75 1.35752 -1.89983 0
M  V30 9132 C 857.731 1.52163 -0.760295 0
M  V30 9133 O 858.916 1.65421 -1.01733 0
M  V30 9134 C 856.046 2.71925 -2.16042 0
M  V30 9135 C 855 2.70261 -3.31878 0
M  V30 9136 C 854.326 4.09864 -3.43388 0
M  V30 9137 C 855.626 2.30667 -4.68604 0
M  V30 9138 H 857.32 1.06709 -2.79738 0
M  V30 9139 H 854.866 0.511884 -1.34595 0
M  V30 9140 H 856.819 3.46992 -2.39113 0
M  V30 9141 H 855.543 3.02523 -1.23074 0
M  V30 9142 H 854.202 1.97651 -3.08755 0
M  V30 9143 H 853.85 4.37664 -2.47909 0
M  V30 9144 H 853.55 4.09648 -4.21262 0
M  V30 9145 H 855.074 4.86689 -3.68736 0
M  V30 9146 H 856.488 2.95453 -4.91305 0
M  V30 9147 H 854.885 2.41637 -5.49301 0
M  V30 9148 H 855.955 1.25793 -4.68299 0
M  V30 9149 N 857.298 1.47698 0.54982 0
M  V30 9150 C 858.575 1.45185 1.31075 0
M  V30 9151 C 858.955 0.152768 2.10547 0
M  V30 9152 O 858.303 -0.865706 2.11466 0
M  V30 9153 C 858.513 2.70192 2.20902 0
M  V30 9154 C 859.861 3.1771 2.81683 0
M  V30 9155 O 860.885 2.70971 2.312 0
M  V30 9156 O 859.744 3.98986 3.7346 0
M  V30 9157 H 856.838 0.57892 0.590577 0
M  V30 9158 H 859.384 1.59908 0.568112 0
M  V30 9159 H 858.156 3.56269 1.61828 0
M  V30 9160 H 857.779 2.58091 3.02448 0
M  V30 9161 N 858.776 -0.797141 1.35954 0
M  V30 9162 C 859.739 -1.89104 1.29508 0
M  V30 9163 C 860.739 -1.59495 0.204444 0
M  V30 9164 O 861.929 -1.68051 0.458746 0
M  V30 9165 C 859.061 -3.25726 1.00576 0
M  V30 9166 H 860.254 -1.96237 2.26785 0
M  V30 9167 H 857.807 -0.994075 1.20614 0
M  V30 9168 H 858.542 -3.24279 0.0372519 0
M  V30 9169 H 858.327 -3.48604 1.79492 0
M  V30 9170 H 859.817 -4.0578 0.986508 0
M  V30 9171 N 860.254 -1.20106 -1.0204 0
M  V30 9172 C 861.164 -0.962051 -2.13967 0
M  V30 9173 C 862.18 0.0808053 -1.73812 0
M  V30 9174 O 863.356 -0.105774 -2.01122 0
M  V30 9175 C 860.421 -0.513108 -3.42882 0
M  V30 9176 C 859.482 -1.62636 -3.97301 0
M  V30 9177 C 858.715 -1.19875 -5.20063 0
M  V30 9178 O 858.938 -0.0658423 -5.70362 0
M  V30 9179 O 857.872 -2.00467 -5.67536 0
M  V30 9180 H 861.698 -1.8991 -2.36998 0
M  V30 9181 H 859.283 -0.984608 -1.12365 0
M  V30 9182 H 861.165 -0.271797 -4.20523 0
M  V30 9183 H 859.84 0.395402 -3.21276 0
M  V30 9184 H 858.747 -1.92192 -3.20957 0
M  V30 9185 H 860.08 -2.51174 -4.23288 0
M  V30 9186 N 861.732 1.21287 -1.00634 0
M  V30 9187 C 862.662 2.25973 -0.588089 0
M  V30 9188 C 863.643 1.65527 0.391764 0
M  V30 9189 O 864.828 1.92179 0.279452 0
M  V30 9190 C 861.958 3.47197 0.0847336 0
M  V30 9191 C 860.912 4.20168 -0.815039 0
M  V30 9192 C 860.238 5.34699 -0.00855393 0
M  V30 9193 C 861.538 4.77416 -2.11828 0
M  V30 9194 H 863.232 2.61212 -1.46317 0
M  V30 9195 H 860.778 1.25563 -0.704985 0
M  V30 9196 H 862.731 4.19602 0.388821 0
M  V30 9197 H 861.455 3.11092 0.994456 0
M  V30 9198 H 860.114 3.49614 -1.10297 0
M  V30 9199 H 859.762 4.94837 0.902499 0
M  V30 9200 H 859.462 5.84449 -0.607664 0
M  V30 9201 H 860.986 6.09914 0.289317 0
M  V30 9202 H 862.4 5.41694 -1.87725 0
M  V30 9203 H 860.797 5.37561 -2.66736 0
M  V30 9204 H 861.867 3.96724 -2.78816 0
M  V30 9205 N 863.21 0.781244 1.36873 0
M  V30 9206 C 864.12 0.174981 2.33947 0
M  V30 9207 C 865.136 -0.668512 1.60645 0
M  V30 9208 O 866.312 -0.586213 1.9268 0
M  V30 9209 C 863.377 -0.686557 3.39834 0
M  V30 9210 C 862.438 0.174489 4.28945 0
M  V30 9211 C 861.671 -0.646024 5.29776 0
M  V30 9212 O 861.894 -1.88254 5.38439 0
M  V30 9213 O 860.828 -0.0502214 6.01879 0
M  V30 9214 H 864.654 0.977382 2.87543 0
M  V30 9215 H 862.239 0.542559 1.392 0
M  V30 9216 H 864.121 -1.1781 4.04597 0
M  V30 9217 H 862.796 -1.46699 2.8855 0
M  V30 9218 H 861.703 0.712604 3.6725 0
M  V30 9219 H 863.036 0.918232 4.83559 0
M  V30 9220 N 864.689 -1.48329 0.532571 0
M  V30 9221 C 865.966 -1.95492 -0.0650985 0
M  V30 9222 C 866.346 -1.47485 -1.51034 0
M  V30 9223 O 865.694 -0.702516 -2.17433 0
M  V30 9224 C 865.904 -3.48957 0.0548341 0
M  V30 9225 C 867.252 -4.24475 -0.103115 0
M  V30 9226 O 868.276 -3.56195 -0.0188343 0
M  V30 9227 O 867.135 -5.45781 -0.280164 0
M  V30 9228 H 864.229 -0.823327 -0.0778603 0
M  V30 9229 H 866.775 -1.58839 0.597353 0
M  V30 9230 H 865.547 -3.76628 1.06148 0
M  V30 9231 H 865.17 -3.92311 -0.64635 0
M  V30 9232 N 866.167 -0.267825 -1.55308 0
M  V30 9233 C 867.077 0.633055 -2.25897 0
M  V30 9234 C 868.093 1.17613 -1.28231 0
M  V30 9235 O 869.269 1.20797 -1.61153 0
M  V30 9236 C 866.334 1.80397 -2.96071 0
M  V30 9237 C 865.395 1.29829 -4.09198 0
M  V30 9238 C 864.628 2.4134 -4.76016 0
M  V30 9239 O 864.851 3.60537 -4.42006 0
M  V30 9240 O 863.785 2.09909 -5.64111 0
M  V30 9241 H 867.611 0.0614381 -3.03638 0
M  V30 9242 H 865.196 -0.0355072 -1.49358 0
M  V30 9243 H 867.078 2.48685 -3.40197 0
M  V30 9244 H 865.753 2.36281 -2.21253 0
M  V30 9245 H 864.66 0.582086 -3.69544 0
M  V30 9246 H 865.993 0.785288 -4.85895 0
M  V30 9247 N 867.645 1.57599 0.00500368 0
M  V30 9248 C 868.593 2.09223 1.01628 0
M  V30 9249 C 869.587 1.01113 1.35913 0
M  V30 9250 O 870.793 1.19583 1.34536 0
M  V30 9251 H 867.168 0.667999 0.345372 0
M  V30 9252 H 869.139 2.93188 0.555274 0
M  V30 9253 C 867.888 2.60674 2.30097 0
M  V30 9254 H 867.211 3.43491 2.04582 0
M  V30 9255 H 868.651 3.00479 2.99146 0
M  V30 9256 C 867.11 1.51862 3.00731 0
M  V30 9257 O 867.64 0.898651 3.91519 0
M  V30 9258 N 865.846 1.24729 2.62471 0
M  V30 9259 H 865.393 1.7533 1.88725 0
M  V30 9260 H 865.351 0.521437 3.10046 0
M  V30 9261 N 869.123 -0.277682 1.55134 0
M  V30 9262 C 870.07 -1.34313 1.87693 0
M  V30 9263 C 871.04 -1.49298 0.727973 0
M  V30 9264 O 872.225 -1.6378 0.978807 0
M  V30 9265 C 869.365 -2.69922 2.15026 0
M  V30 9266 C 868.478 -2.63197 3.42565 0
M  V30 9267 C 867.613 -3.90955 3.59622 0
M  V30 9268 C 866.652 -3.78722 4.8087 0
M  V30 9269 N 865.789 -4.98303 4.94609 0
M  V30 9270 H 870.629 -1.05847 2.78569 0
M  V30 9271 H 868.166 -0.511469 1.37922 0
M  V30 9272 H 870.124 -3.48817 2.28872 0
M  V30 9273 H 868.754 -2.966 1.2739 0
M  V30 9274 H 867.806 -1.76038 3.37216 0
M  V30 9275 H 869.118 -2.50056 4.31594 0
M  V30 9276 H 868.272 -4.78291 3.7326 0
M  V30 9277 H 867.011 -4.06957 2.6877 0
M  V30 9278 H 866.016 -2.89769 4.67241 0
M  V30 9279 H 867.241 -3.64242 5.73153 0
M  V30 9280 H 865.187 -5.14725 4.06687 0
M  V30 9281 H 865.104 -4.87675 5.77676 0
M  V30 9282 H 866.372 -5.87225 5.12628 0
M  V30 9283 N 870.601 -1.47988 -0.541979 0
M  V30 9284 C 871.511 -1.64276 -1.67483 0
M  V30 9285 C 872.527 -0.525387 -1.65879 0
M  V30 9286 O 873.703 -0.794912 -1.85049 0
M  V30 9287 C 870.768 -1.66744 -3.03969 0
M  V30 9288 C 869.829 -2.90021 -3.16522 0
M  V30 9289 C 869.062 -2.92362 -4.46498 0
M  V30 9290 O 869.285 -2.03462 -5.32878 0
M  V30 9291 O 868.219 -3.84399 -4.63164 0
M  V30 9292 H 872.045 -2.60164 -1.5668 0
M  V30 9293 H 869.63 -1.31249 -0.71372 0
M  V30 9294 H 871.512 -1.70958 -3.85164 0
M  V30 9295 H 870.187 -0.740277 -3.15122 0
M  V30 9296 H 869.094 -2.91345 -2.34667 0
M  V30 9297 H 870.427 -3.82082 -3.10281 0
M  V30 9298 N 872.079 0.78992 -1.36375 0
M  V30 9299 C 872.989 1.93386 -1.32812 0
M  V30 9300 C 874.005 1.72468 -0.230377 0
M  V30 9301 O 875.181 1.96014 -0.462657 0
M  V30 9302 C 872.246 3.2824 -1.11621 0
M  V30 9303 C 871.307 3.61939 -2.30865 0
M  V30 9304 C 870.54 4.90359 -2.10675 0
M  V30 9305 O 870.763 5.6005 -1.08168 0
M  V30 9306 O 869.697 5.22702 -2.9844 0
M  V30 9307 H 873.523 1.99342 -2.29121 0
M  V30 9308 H 871.108 0.9301 -1.16917 0
M  V30 9309 H 872.99 4.08939 -1.01719 0
M  V30 9310 H 871.665 3.23178 -0.183732 0
M  V30 9311 H 870.572 2.81549 -2.46335 0
M  V30 9312 H 871.905 3.71725 -3.22617 0
M  V30 9313 N 873.557 1.20646 1.01402 0
M  V30 9314 C 874.806 1.01242 1.7445 0
M  V30 9315 C 875.119 -0.455732 1.90217 0
M  V30 9316 O 876.325 -0.768951 2.60383 0
M  V30 9317 C 874.781 1.76275 3.13776 0
M  V30 9318 C 874.389 3.27201 3.06013 0
M  V30 9319 C 876.133 1.65248 3.91016 0
M  V30 9320 C 874.04 3.9476 4.40362 0
M  V30 9321 H 872.97 0.375202 0.654018 0
M  V30 9322 H 875.621 1.44292 1.13367 0
M  V30 9323 H 874.003 1.26013 3.75415 0
M  V30 9324 H 875.177 3.84695 2.53665 0
M  V30 9325 H 873.492 3.38669 2.42265 0
M  V30 9326 H 876.089 2.13061 4.90417 0
M  V30 9327 H 876.432 0.609128 4.1182 0
M  V30 9328 H 876.965 2.12937 3.3601 0
M  V30 9329 H 873.704 4.99258 4.24761 0
M  V30 9330 H 873.224 3.42054 4.92706 0
M  V30 9331 H 874.903 3.99159 5.09196 0
M  V30 9332 N 875.035 -1.20752 1.01276 0
M  V30 9333 C 876.451 -1.42084 0.726934 0
M  V30 9334 C 876.651 -1.89138 -0.694907 0
M  V30 9335 O 875.707 -2.05783 -1.4632 0
M  V30 9336 C 877.02 -2.44575 1.74938 0
M  V30 9337 C 878.568 -2.58347 1.76708 0
M  V30 9338 C 879.043 -3.64078 2.77869 0
M  V30 9339 N 880.534 -3.71558 2.76585 0
M  V30 9340 C 881.269 -4.53016 3.51517 0
M  V30 9341 N 880.765 -5.38309 4.36114 0
M  V30 9342 N 882.558 -4.47512 3.40132 0
M  V30 9343 H 874.709 -0.885228 1.93074 0
M  V30 9344 H 876.972 -0.451075 0.833808 0
M  V30 9345 H 876.678 -2.1699 2.76782 0
M  V30 9346 H 876.552 -3.43503 1.55838 0
M  V30 9347 H 878.939 -2.85265 0.755516 0
M  V30 9348 H 879.02 -1.59628 1.99882 0
M  V30 9349 H 878.664 -3.37905 3.79187 0
M  V30 9350 H 878.594 -4.62412 2.51958 0
M  V30 9351 H 881.085 -3.10629 2.15216 0
M  V30 9352 H 881.398 -5.9754 4.90068 0
M  V30 9353 H 879.743 -5.37824 4.40194 0
M  V30 9354 H 882.934 -3.79912 2.73467 0
M  V30 9355 H 883.107 -5.10759 3.98784 0
M  V30 9356 N 876.513 -0.788492 -1.36457 0
M  V30 9357 C 877.929 -0.470063 -1.52521 0
M  V30 9358 C 878.129 1.01176 -1.74258 0
M  V30 9359 O 877.185 1.79726 -1.77355 0
M  V30 9360 C 878.498 -1.2997 -2.71161 0
M  V30 9361 C 880.046 -1.2933 -2.85031 0
M  V30 9362 C 880.521 -2.10665 -4.06674 0
M  V30 9363 N 882.012 -2.08107 -4.13819 0
M  V30 9364 C 882.747 -2.6781 -5.07016 0
M  V30 9365 N 882.243 -3.36369 -6.05663 0
M  V30 9366 N 884.036 -2.57549 -4.99625 0
M  V30 9367 H 876.187 -1.7484 -1.20602 0
M  V30 9368 H 878.45 -0.743159 -0.588574 0
M  V30 9369 H 878.156 -2.35051 -2.61618 0
M  V30 9370 H 878.03 -0.940367 -3.6529 0
M  V30 9371 H 880.417 -0.250414 -2.94036 0
M  V30 9372 H 880.498 -1.69239 -1.91812 0
M  V30 9373 H 880.142 -3.14984 -3.98431 0
M  V30 9374 H 880.072 -1.68128 -4.9904 0
M  V30 9375 H 882.563 -1.58208 -3.43189 0
M  V30 9376 H 882.876 -3.79258 -6.73338 0
M  V30 9377 H 881.221 -3.40471 -6.05891 0
M  V30 9378 H 884.412 -2.0359 -4.21508 0
M  V30 9379 H 884.585 -3.0437 -5.72069 0
M  V30 9380 N 877.991 1.48044 -0.54043 0
M  V30 9381 C 879.216 2.07396 -0.0124765 0
M  V30 9382 C 879.641 1.39288 1.26414 0
M  V30 9383 O 878.999 0.462252 1.75308 0
M  V30 9384 C 879.047 3.60131 0.18377 0
M  V30 9385 O 878.151 3.92995 1.25014 0
M  V30 9386 H 877.492 0.662554 -0.0438026 0
M  V30 9387 H 880.022 1.90306 -0.751327 0
M  V30 9388 H 880.032 4.06003 0.403197 0
M  V30 9389 H 878.707 4.09105 -0.74874 0
M  V30 9390 H 877.284 3.5889 1.01254 0
M  V30 9391 N 879.47 0.276058 1.55163 0
M  V30 9392 C 880.403 -0.652386 2.18676 0
M  V30 9393 C 881.381 -1.15151 1.148 0
M  V30 9394 O 882.565 -1.22431 1.43328 0
M  V30 9395 C 879.692 -1.88982 2.81076 0
M  V30 9396 C 878.738 -1.52609 3.98262 0
M  V30 9397 S 879.571 -0.603445 5.32089 0
M  V30 9398 C 880.727 -1.84923 5.97958 0
M  V30 9399 H 880.96 -0.112733 2.97086 0
M  V30 9400 H 878.493 0.0603118 1.54282 0
M  V30 9401 H 880.451 -2.60007 3.17658 0
M  V30 9402 H 879.112 -2.40061 2.02557 0
M  V30 9403 H 878.305 -2.44689 4.40617 0
M  V30 9404 H 877.907 -0.89601 3.63108 0
M  V30 9405 H 880.199 -2.79303 6.17249 0
M  V30 9406 H 881.142 -1.46868 6.92702 0
M  V30 9407 H 881.55 -2.0146 5.27327 0
M  V30 9408 N 880.948 -1.576 0.00335426 0
M  V30 9409 C 882.197 -1.89892 -0.680001 0
M  V30 9410 C 882.51 -0.878731 -1.7475 0
M  V30 9411 O 883.716 -1.09199 -2.48572 0
M  V30 9412 C 882.172 -3.37098 -1.26066 0
M  V30 9413 C 881.78 -4.4742 -0.227807 0
M  V30 9414 C 883.524 -3.78495 -1.92202 0
M  V30 9415 C 881.431 -5.85706 -0.81865 0
M  V30 9416 H 880.361 -0.708578 -0.257746 0
M  V30 9417 H 883.012 -1.83387 0.0644472 0
M  V30 9418 H 881.394 -3.38451 -2.05589 0
M  V30 9419 H 882.568 -4.57589 0.54307 0
M  V30 9420 H 880.883 -4.15064 0.333297 0
M  V30 9421 H 883.48 -4.7915 -2.37318 0
M  V30 9422 H 883.823 -3.12187 -2.75399 0
M  V30 9423 H 884.356 -3.79456 -1.19408 0
M  V30 9424 H 881.095 -6.55495 -0.0253787 0
M  V30 9425 H 880.615 -5.79196 -1.55861 0
M  V30 9426 H 882.294 -6.33469 -1.31627 0
M  V30 9427 N 882.426 0.269451 -1.5528 0
M  V30 9428 C 883.703 1.02207 -1.66773 0
M  V30 9429 C 884.083 2.04168 -0.536536 0
M  V30 9430 O 883.431 2.23761 0.462956 0
M  V30 9431 C 883.641 1.67569 -3.0614 0
M  V30 9432 C 884.989 2.18599 -3.64005 0
M  V30 9433 O 886.013 1.7755 -3.08795 0
M  V30 9434 O 884.872 2.93903 -4.60742 0
M  V30 9435 H 881.966 0.474314 -0.677462 0
M  V30 9436 H 884.512 0.265026 -1.67618 0
M  V30 9437 H 883.284 0.937029 -3.79915 0
M  V30 9438 H 882.907 2.49951 -3.09209 0
M  V30 9439 N 883.904 1.48273 0.534124 0
M  V30 9440 C 885.152 1.55771 1.28762 0
M  V30 9441 C 885.473 0.231575 1.9362 0
M  V30 9442 O 884.743 -0.746533 1.81118 0
M  V30 9443 H 883.323 0.573851 0.47823 0
M  V30 9444 H 885.985 1.84712 0.621888 0
M  V30 9445 H 885.081 2.33657 2.06908 0
M  V30 9446 N 885.382 -0.782676 1.36792 0
M  V30 9447 C 886.33 -1.91698 1.31737 0
M  V30 9448 C 887.324 -1.68118 0.207994 0
M  V30 9449 O 888.53 -1.76042 0.375393 0
M  V30 9450 H 884.905 -0.630215 0.410284 0
M  V30 9451 H 886.876 -1.93078 2.27516 0
M  V30 9452 C 885.625 -3.28816 1.13029 0
M  V30 9453 H 884.948 -3.4753 1.97643 0
M  V30 9454 H 886.388 -4.08515 1.13541 0
M  V30 9455 C 884.847 -3.36497 -0.1647 0
M  V30 9456 O 885.377 -3.84822 -1.15216 0
M  V30 9457 N 883.583 -2.89828 -0.211678 0
M  V30 9458 H 883.13 -2.50693 0.59252 0
M  V30 9459 H 883.088 -2.95349 -1.07779 0
M  V30 9460 N 886.86 -1.21182 -1.00761 0
M  V30 9461 C 887.807 -0.968741 -2.09485 0
M  V30 9462 C 888.777 0.104325 -1.65772 0
M  V30 9463 O 889.962 -0.0422587 -1.90753 0
M  V30 9464 C 887.102 -0.536686 -3.40901 0
M  V30 9465 C 886.215 -1.6789 -3.98041 0
M  V30 9466 C 885.35 -1.19627 -5.17555 0
M  V30 9467 C 884.389 -2.31099 -5.66798 0
M  V30 9468 N 883.526 -1.83988 -6.77564 0
M  V30 9469 H 888.366 -1.89952 -2.29613 0
M  V30 9470 H 885.903 -0.946688 -1.12589 0
M  V30 9471 H 887.861 -0.26745 -4.16342 0
M  V30 9472 H 886.491 0.357092 -3.20819 0
M  V30 9473 H 885.543 -2.06284 -3.19611 0
M  V30 9474 H 886.855 -2.51794 -4.30582 0
M  V30 9475 H 886.009 -0.883539 -6.00232 0
M  V30 9476 H 884.748 -0.327244 -4.86601 0
M  V30 9477 H 883.753 -2.63178 -4.82719 0
M  V30 9478 H 884.978 -3.18493 -5.99782 0
M  V30 9479 H 882.924 -0.994257 -6.48422 0
M  V30 9480 H 882.841 -2.61466 -7.09346 0
M  V30 9481 H 884.109 -1.55741 -7.63783 0
M  V30 9482 N 888.338 1.20213 -1.01915 0
M  V30 9483 C 889.586 1.89272 -0.708552 0
M  V30 9484 C 889.907 1.79394 0.76438 0
M  V30 9485 O 889.177 1.198 1.54999 0
M  V30 9486 H 887.757 0.700628 -0.259094 0
M  V30 9487 H 890.419 1.45985 -1.29129 0
M  V30 9488 H 889.515 2.95841 -0.994215 0
M  V30 9489 N 889.816 0.795718 1.36037 0
M  V30 9490 C 890.766 0.171437 2.27355 0
M  V30 9491 C 891.75 -0.648346 1.47259 0
M  V30 9492 O 892.942 -0.507386 1.69572 0
M  V30 9493 C 890.071 -0.687876 3.36338 0
M  V30 9494 C 889.157 0.141041 4.23865 0
M  V30 9495 N 889.548 1.19868 4.91391 0
M  V30 9496 C 887.846 -0.0791045 4.4593 0
M  V30 9497 C 888.547 1.70382 5.56188 0
M  V30 9498 N 887.523 1.01202 5.34097 0
M  V30 9499 H 891.325 0.980846 2.7705 0
M  V30 9500 H 888.839 0.635798 1.49437 0
M  V30 9501 H 890.836 -1.15107 4.00694 0
M  V30 9502 H 889.496 -1.49576 2.88196 0
M  V30 9503 H 890.507 1.58119 4.93172 0
M  V30 9504 H 887.184 -0.856993 4.0861 0
M  V30 9505 H 888.574 2.58715 6.20093 0
M  V30 9506 N 891.294 -1.47756 0.548274 0
M  V30 9507 C 892.241 -2.29893 -0.204408 0
M  V30 9508 C 893.211 -1.38509 -0.916761 0
M  V30 9509 O 894.396 -1.67472 -0.91421 0
M  V30 9510 C 891.536 -3.22282 -1.23403 0
M  V30 9511 C 890.649 -4.28753 -0.528654 0
M  V30 9512 C 889.784 -5.08303 -1.54279 0
M  V30 9513 C 888.823 -6.06557 -0.821893 0
M  V30 9514 N 887.96 -6.79098 -1.78243 0
M  V30 9515 H 892.8 -2.93739 0.502163 0
M  V30 9516 H 890.337 -1.44793 0.259471 0
M  V30 9517 H 892.295 -3.74262 -1.84348 0
M  V30 9518 H 890.925 -2.6032 -1.90875 0
M  V30 9519 H 889.977 -3.79899 0.195132 0
M  V30 9520 H 891.289 -4.98787 0.0365066 0
M  V30 9521 H 890.443 -5.64388 -2.22602 0
M  V30 9522 H 889.182 -4.3815 -2.14186 0
M  V30 9523 H 888.187 -5.49659 -0.12469 0
M  V30 9524 H 889.412 -6.78715 -0.228685 0
M  V30 9525 H 887.358 -6.11682 -2.37025 0
M  V30 9526 H 887.275 -7.4527 -1.26919 0
M  V30 9527 H 888.543 -7.39762 -2.45709 0
M  V30 9528 N 892.772 -0.284283 -1.55015 0
M  V30 9529 C 893.704 0.63258 -2.20298 0
M  V30 9530 C 894.717 1.11045 -1.1905 0
M  V30 9531 O 895.906 1.03078 -1.4573 0
M  V30 9532 C 893.006 1.87599 -2.82241 0
M  V30 9533 C 892.179 1.5434 -4.09265 0
M  V30 9534 C 891.238 2.64023 -4.55169 0
M  V30 9535 O 890.264 2.29821 -5.20741 0
M  V30 9536 N 891.466 3.94255 -4.26079 0
M  V30 9537 H 894.231 0.0737928 -2.99609 0
M  V30 9538 H 891.792 -0.105767 -1.61554 0
M  V30 9539 H 893.784 2.60289 -3.0989 0
M  V30 9540 H 892.354 2.3436 -2.06868 0
M  V30 9541 H 891.574 0.649912 -3.88806 0
M  V30 9542 H 892.862 1.29634 -4.92009 0
M  V30 9543 H 892.26 4.24859 -3.73512 0
M  V30 9544 H 890.817 4.63295 -4.58477 0
M  V30 9545 N 894.251 1.57596 -0.0117121 0
M  V30 9546 C 895.5 1.9025 0.669921 0
M  V30 9547 C 895.813 0.887986 1.74282 0
M  V30 9548 O 897.019 1.10516 2.47989 0
M  V30 9549 C 895.475 3.37762 1.24277 0
M  V30 9550 C 895.083 4.47535 0.204076 0
M  V30 9551 C 896.827 3.79509 1.90192 0
M  V30 9552 C 894.734 5.86132 0.787577 0
M  V30 9553 H 893.664 0.709935 0.253984 0
M  V30 9554 H 896.315 1.8335 -0.0741718 0
M  V30 9555 H 894.697 3.39537 2.03791 0
M  V30 9556 H 895.871 4.57294 -0.56733 0
M  V30 9557 H 894.186 4.14881 -0.355305 0
M  V30 9558 H 896.783 4.80402 2.34773 0
M  V30 9559 H 897.126 3.13643 2.7374 0
M  V30 9560 H 897.659 3.80084 1.17394 0
M  V30 9561 H 894.398 6.55499 -0.00938418 0
M  V30 9562 H 893.918 5.80014 1.52787 0
M  V30 9563 H 895.597 6.34158 1.28265 0
M  V30 9564 N 895.729 -0.261212 1.5542 0
M  V30 9565 C 897.145 -0.609012 1.47524 0
M  V30 9566 C 897.345 -1.88986 0.699042 0
M  V30 9567 O 896.401 -2.51517 0.222628 0
M  V30 9568 C 897.714 -0.725025 2.91828 0
M  V30 9569 C 899.262 -0.818302 3.02114 0
M  V30 9570 C 899.737 -0.965996 4.47697 0
M  V30 9571 N 901.228 -1.03123 4.51575 0
M  V30 9572 C 901.963 -1.16451 5.6145 0
M  V30 9573 N 901.459 -1.26425 6.81167 0
M  V30 9574 N 903.252 -1.19655 5.49217 0
M  V30 9575 H 895.403 0.579807 2.04333 0
M  V30 9576 H 897.666 0.198072 0.927077 0
M  V30 9577 H 897.372 0.145871 3.51397 0
M  V30 9578 H 897.246 -1.60156 3.41511 0
M  V30 9579 H 899.633 -1.67966 2.42634 0
M  V30 9580 H 899.714 0.0830895 2.55665 0
M  V30 9581 H 899.358 -0.109251 5.07782 0
M  V30 9582 H 899.288 -1.88221 4.91813 0
M  V30 9583 H 901.779 -0.966072 3.65343 0
M  V30 9584 H 902.092 -1.36462 7.60656 0
M  V30 9585 H 900.437 -1.23408 6.83956 0
M  V30 9586 H 903.628 -1.11501 4.54626 0
M  V30 9587 H 903.801 -1.29698 6.34888 0
M  V30 9588 N 897.207 -1.48554 -0.526253 0
M  V30 9589 C 898.435 -1.60429 -1.30652 0
M  V30 9590 C 898.85 -0.265963 -1.86917 0
M  V30 9591 O 898.207 0.745262 -1.6659 0
M  V30 9592 C 898.258 -2.65377 -2.45473 0
M  V30 9593 O 897.979 -3.94017 -1.91527 0
M  V30 9594 C 899.48 -2.87726 -3.37237 0
M  V30 9595 H 896.7 -0.540817 -0.397187 0
M  V30 9596 H 899.244 -1.94409 -0.634461 0
M  V30 9597 H 897.399 -2.34246 -3.08557 0
M  V30 9598 H 897.813 -4.51623 -2.66715 0
M  V30 9599 H 899.287 -3.64951 -4.14144 0
M  V30 9600 H 899.764 -1.96688 -3.92696 0
M  V30 9601 H 900.37 -3.20176 -2.79942 0
M  V30 9602 N 898.685 0.775411 -1.37205 0
M  V30 9603 C 899.615 1.90258 -1.35367 0
M  V30 9604 C 900.596 1.68634 -0.222864 0
M  V30 9605 O 901.781 1.89545 -0.422659 0
M  V30 9606 C 898.911 3.27488 -1.15623 0
M  V30 9607 C 897.865 3.63668 -2.25676 0
M  V30 9608 C 897.191 4.994 -1.91059 0
M  V30 9609 C 898.491 3.70797 -3.67841 0
M  V30 9610 H 900.185 1.92053 -2.29687 0
M  V30 9611 H 897.731 0.922597 -1.10563 0
M  V30 9612 H 899.684 4.05976 -1.12968 0
M  V30 9613 H 898.408 3.26117 -0.177573 0
M  V30 9614 H 897.067 2.87486 -2.2748 0
M  V30 9615 H 896.715 4.94565 -0.917324 0
M  V30 9616 H 896.415 5.24576 -2.64751 0
M  V30 9617 H 897.939 5.80291 -1.89985 0
M  V30 9618 H 899.353 4.39444 -3.68187 0
M  V30 9619 H 897.75 4.07468 -4.40556 0
M  V30 9620 H 898.82 2.71549 -4.01732 0
M  V30 9621 N 900.163 1.21714 1.00117 0
M  V30 9622 C 901.409 1.03823 1.74208 0
M  V30 9623 C 901.742 -0.426733 1.89454 0
M  V30 9624 O 901.017 -1.31658 1.43166 0
M  V30 9625 C 901.3 1.74047 3.15246 0
M  V30 9626 C 901.153 3.28087 3.077 0
M  V30 9627 C 902.472 1.48614 4.14249 0
M  V30 9628 H 899.591 0.378573 0.632338 0
M  V30 9629 H 902.233 1.49942 1.16694 0
M  V30 9630 H 900.383 1.3484 3.64349 0
M  V30 9631 H 902.055 3.76686 2.6628 0
M  V30 9632 H 900.298 3.58191 2.44707 0
M  V30 9633 H 900.969 3.72392 4.07466 0
M  V30 9634 H 903.445 1.82656 3.73866 0
M  V30 9635 H 902.321 2.00257 5.11066 0
M  V30 9636 H 902.582 0.416957 4.40129 0
M  V30 9637 N 901.641 -1.19671 1.02551 0
M  V30 9638 C 902.588 -2.22773 0.603394 0
M  V30 9639 C 903.558 -1.61669 -0.381081 0
M  V30 9640 O 904.743 -1.88756 -0.278505 0
M  V30 9641 C 901.883 -3.45073 -0.0431034 0
M  V30 9642 C 900.996 -4.20574 0.987006 0
M  V30 9643 C 900.131 -5.30291 0.310626 0
M  V30 9644 C 899.17 -5.97545 1.32688 0
M  V30 9645 N 898.307 -6.98833 0.676542 0
M  V30 9646 H 903.147 -2.58238 1.48719 0
M  V30 9647 H 900.684 -1.26881 0.744286 0
M  V30 9648 H 902.642 -4.14925 -0.435141 0
M  V30 9649 H 901.272 -3.10274 -0.890495 0
M  V30 9650 H 900.324 -3.497 1.49713 0
M  V30 9651 H 901.636 -4.66736 1.75952 0
M  V30 9652 H 900.79 -6.06547 -0.136438 0
M  V30 9653 H 899.529 -4.8519 -0.49412 0
M  V30 9654 H 898.534 -5.20043 1.78424 0
M  V30 9655 H 899.759 -6.4473 2.13306 0
M  V30 9656 H 897.705 -6.55911 -0.108172 0
M  V30 9657 H 897.622 -7.43168 1.38699 0
M  V30 9658 H 898.89 -7.79088 0.253367 0
M  V30 9659 N 903.119 -0.802921 -1.35613 0
M  V30 9660 C 904.344 -0.392846 -2.03645 0
M  V30 9661 C 904.769 0.987075 -1.6012 0
M  V30 9662 O 904.127 1.63849 -0.776101 0
M  V30 9663 C 904.175 -0.480208 -3.57388 0
M  V30 9664 O 903.279 0.507751 -4.09262 0
M  V30 9665 H 902.62 -0.16464 -0.643265 0
M  V30 9666 H 905.15 -1.08779 -1.73287 0
M  V30 9667 H 905.16 -0.348683 -4.06507 0
M  V30 9668 H 903.835 -1.48675 -3.88418 0
M  V30 9669 H 902.412 0.336769 -3.71376 0
M  V30 9670 N 904.597 1.47463 -0.556102 0
M  V30 9671 C 905.527 2.32801 0.180497 0
M  V30 9672 C 906.508 1.43721 0.909848 0
M  V30 9673 O 907.693 1.72578 0.89053 0
M  V30 9674 C 904.823 3.25478 1.21167 0
M  V30 9675 C 903.777 4.2379 0.598846 0
M  V30 9676 C 903.103 5.05783 1.73457 0
M  V30 9677 C 904.403 5.20387 -0.446659 0
M  V30 9678 H 906.097 2.94636 -0.531956 0
M  V30 9679 H 903.643 1.41683 -0.257267 0
M  V30 9680 H 905.596 3.8402 1.73513 0
M  V30 9681 H 904.32 2.61695 1.95405 0
M  V30 9682 H 902.979 3.66472 0.0966897 0
M  V30 9683 H 902.627 4.38405 2.46596 0
M  V30 9684 H 902.327 5.72343 1.33031 0
M  V30 9685 H 903.851 5.67183 2.26131 0
M  V30 9686 H 905.265 5.73299 -0.00930019 0
M  V30 9687 H 903.662 5.95143 -0.769735 0
M  V30 9688 H 904.732 4.65932 -1.34295 0
M  V30 9689 N 906.075 0.2925 1.54862 0
M  V30 9690 C 907.352 -0.371946 1.92031 0
M  V30 9691 C 907.732 -1.72363 1.21878 0
M  V30 9692 O 907.08 -2.25779 0.351573 0
M  V30 9693 C 907.29 -0.495027 3.45471 0
M  V30 9694 C 908.638 -0.769855 4.17562 0
M  V30 9695 O 909.662 -0.579168 3.5146 0
M  V30 9696 O 908.521 -1.13561 5.34571 0
M  V30 9697 H 905.615 -0.206463 0.800813 0
M  V30 9698 H 908.161 0.339933 1.6626 0
M  V30 9699 H 906.933 0.455528 3.88639 0
M  V30 9700 H 906.556 -1.2557 3.7725 0
M  V30 9701 N 907.553 -1.57587 0.0200696 0
M  V30 9702 C 908.463 -2.13119 -0.980676 0
M  V30 9703 C 909.479 -1.08124 -1.36328 0
M  V30 9704 O 910.655 -1.40134 -1.44653 0
M  V30 9705 C 907.72 -2.63991 -2.24743 0
M  V30 9706 C 906.781 -3.83667 -1.9261 0
M  V30 9707 C 906.014 -4.32103 -3.13246 0
M  V30 9708 O 906.237 -3.79758 -4.25606 0
M  V30 9709 O 905.171 -5.24047 -2.96072 0
M  V30 9710 H 908.997 -2.98887 -0.538528 0
M  V30 9711 H 906.582 -1.48055 -0.19999 0
M  V30 9712 H 908.464 -2.9682 -2.99125 0
M  V30 9713 H 907.139 -1.81311 -2.68157 0
M  V30 9714 H 906.046 -3.55778 -1.15641 0
M  V30 9715 H 907.379 -4.67482 -1.54019 0
M  V30 9716 N 909.032 0.252966 -1.55557 0
M  V30 9717 C 910.448 0.60118 -1.47844 0
M  V30 9718 C 910.648 1.88612 -0.709055 0
M  V30 9719 O 909.704 2.51395 -0.235964 0
M  V30 9720 C 911.017 0.709539 -2.92209 0
M  V30 9721 C 912.565 0.802269 -3.02544 0
M  V30 9722 C 913.04 0.94224 -4.48203 0
M  V30 9723 N 914.531 1.00726 -4.52116 0
M  V30 9724 C 915.266 1.13472 -5.6206 0
M  V30 9725 N 914.762 1.22811 -6.81828 0
M  V30 9726 N 916.555 1.1674 -5.49844 0
M  V30 9727 H 908.706 -0.590635 -2.04023 0
M  V30 9728 H 910.969 -0.202986 -0.926013 0
M  V30 9729 H 910.675 -0.164505 -3.51315 0
M  V30 9730 H 910.549 1.58343 -3.42356 0
M  V30 9731 H 912.936 1.66677 -2.43522 0
M  V30 9732 H 913.017 -0.0966469 -2.55617 0
M  V30 9733 H 912.661 0.0823209 -5.07833 0
M  V30 9734 H 912.591 1.85611 -4.92805 0
M  V30 9735 H 915.082 0.946684 -3.6585 0
M  V30 9736 H 915.395 1.32426 -7.61369 0
M  V30 9737 H 913.74 1.19779 -6.84601 0
M  V30 9738 H 916.931 1.09089 -4.55211 0
M  V30 9739 H 917.104 1.26329 -6.35567 0
M  V30 9740 N 910.51 1.48831 0.518367 0
M  V30 9741 C 911.74 1.60886 1.29612 0
M  V30 9742 C 912.148 0.272713 1.87224 0
M  V30 9743 O 911.491 -0.749653 1.67708 0
M  V30 9744 C 911.553 2.60541 2.47707 0
M  V30 9745 C 911.217 4.05324 2.11095 0
M  V30 9746 C 912.214 4.92658 1.66084 0
M  V30 9747 C 909.899 4.50942 2.21262 0
M  V30 9748 C 911.893 6.23641 1.3172 0
M  V30 9749 C 909.58 5.81943 1.8651 0
M  V30 9750 C 910.578 6.68116 1.41812 0
M  V30 9751 O 910.266 7.96677 1.07522 0
M  V30 9752 H 909.998 0.544968 0.399982 0
M  V30 9753 H 912.552 1.95474 0.630799 0
M  V30 9754 H 910.782 2.21098 3.17258 0
M  V30 9755 H 912.471 2.62308 3.09757 0
M  V30 9756 H 913.237 4.58649 1.5769 0
M  V30 9757 H 909.116 3.84048 2.55007 0
M  V30 9758 H 912.66 6.90857 0.967598 0
M  V30 9759 H 908.557 6.15484 1.94549 0
M  V30 9760 H 909.325 8.09534 1.2082 0
M  V30 9761 N 911.988 -0.768124 1.37614 0
M  V30 9762 C 913.237 -1.5221 1.32345 0
M  V30 9763 C 913.55 -1.95399 -0.0885761 0
M  V30 9764 O 914.756 -2.70216 -0.263752 0
M  V30 9765 C 913.212 -2.74872 2.32322 0
M  V30 9766 C 912.82 -2.38767 3.79071 0
M  V30 9767 C 914.564 -3.52805 2.36069 0
M  V30 9768 C 912.471 -3.57953 4.7077 0
M  V30 9769 H 911.401 -0.571461 0.491883 0
M  V30 9770 H 914.052 -0.841004 1.63093 0
M  V30 9771 H 912.434 -3.44889 1.94596 0
M  V30 9772 H 913.608 -1.7651 4.25654 0
M  V30 9773 H 911.923 -1.74 3.78303 0
M  V30 9774 H 914.52 -4.41397 3.01782 0
M  V30 9775 H 914.863 -3.92925 1.37535 0
M  V30 9776 H 915.396 -2.89788 2.72521 0
M  V30 9777 H 912.135 -3.22911 5.70446 0
M  V30 9778 H 911.655 -4.19302 4.28889 0
M  V30 9779 H 913.334 -4.2472 4.8808 0
M  V30 9780 N 913.466 -1.22244 -0.994698 0
M  V30 9781 C 914.743 -0.954459 -1.70732 0
M  V30 9782 C 915.123 0.530945 -2.04314 0
M  V30 9783 O 914.471 1.49851 -1.72502 0
M  V30 9784 C 914.681 -1.85016 -2.95922 0
M  V30 9785 C 916.029 -2.10517 -3.68738 0
M  V30 9786 O 917.053 -1.82449 -3.05926 0
M  V30 9787 O 915.912 -2.58044 -4.81742 0
M  V30 9788 H 913.006 -0.35879 -0.745116 0
M  V30 9789 H 915.552 -1.33221 -1.0512 0
M  V30 9790 H 914.324 -2.85498 -2.67594 0
M  V30 9791 H 913.947 -1.47388 -3.69273 0
M  V30 9792 N 914.944 1.19125 -1.03184 0
M  V30 9793 C 915.854 2.26112 -0.625329 0
M  V30 9794 C 916.87 1.7056 0.344298 0
M  V30 9795 O 918.046 2.0039 0.20144 0
M  V30 9796 C 915.111 3.46697 0.0145169 0
M  V30 9797 C 914.172 4.17419 -1.00299 0
M  V30 9798 C 913.405 5.32247 -0.393581 0
M  V30 9799 O 913.628 5.64724 0.802659 0
M  V30 9800 O 912.562 5.91428 -1.1179 0
M  V30 9801 H 916.388 2.63131 -1.51643 0
M  V30 9802 H 913.973 1.26036 -0.802197 0
M  V30 9803 H 915.855 4.19762 0.371139 0
M  V30 9804 H 914.53 3.11521 0.879581 0
M  V30 9805 H 913.437 3.4646 -1.41125 0
M  V30 9806 H 914.77 4.56573 -1.83852 0
M  V30 9807 N 916.422 0.810101 1.35185 0
M  V30 9808 C 917.668 0.392698 1.98962 0
M  V30 9809 C 918.001 -1.03835 1.64109 0
M  V30 9810 O 917.276 -1.721 0.9062 0
M  V30 9811 C 917.559 0.580349 3.55393 0
M  V30 9812 C 917.412 2.05658 4.00031 0
M  V30 9813 C 918.731 0.00822618 4.40099 0
M  V30 9814 H 915.85 0.144157 0.722764 0
M  V30 9815 H 918.492 1.02029 1.60281 0
M  V30 9816 H 916.642 0.0461106 3.88473 0
M  V30 9817 H 918.314 2.65348 3.77344 0
M  V30 9818 H 916.557 2.55174 3.50811 0
M  V30 9819 H 917.228 2.13875 5.08883 0
M  V30 9820 H 919.704 0.464517 4.13499 0
M  V30 9821 H 918.58 0.169414 5.48638 0
M  V30 9822 H 918.841 -1.08576 4.2856 0
M  V30 9823 N 917.9 -1.47166 0.563914 0
M  V30 9824 C 919.128 -2.06846 0.0474287 0
M  V30 9825 C 919.543 -1.41557 -1.24928 0
M  V30 9826 O 918.9 -0.514376 -1.75101 0
M  V30 9827 C 918.951 -3.6121 -0.144831 0
M  V30 9828 O 918.672 -4.24052 1.10053 0
M  V30 9829 C 920.173 -4.37773 -0.69783 0
M  V30 9830 H 917.393 -0.669217 0.0488896 0
M  V30 9831 H 919.937 -1.89072 0.779235 0
M  V30 9832 H 918.092 -3.78474 -0.82679 0
M  V30 9833 H 918.506 -5.16677 0.902481 0
M  V30 9834 H 919.98 -5.46438 -0.781616 0
M  V30 9835 H 920.457 -4.04517 -1.71063 0
M  V30 9836 H 921.063 -4.25269 -0.0513516 0
M  V30 9837 N 919.378 -0.300708 -1.54705 0
M  V30 9838 C 920.794 0.0526874 -1.59513 0
M  V30 9839 C 920.994 1.52444 -1.31769 0
M  V30 9840 O 920.05 2.27716 -1.09096 0
M  V30 9841 C 921.363 -0.344989 -2.98714 0
M  V30 9842 C 922.911 -0.29373 -3.11619 0
M  V30 9843 C 923.386 -0.666225 -4.53129 0
M  V30 9844 N 924.877 -0.618749 -4.59049 0
M  V30 9845 C 925.612 -0.879447 -5.66616 0
M  V30 9846 N 925.108 -1.2061 -6.82221 0
M  V30 9847 N 926.901 -0.806528 -5.56284 0
M  V30 9848 H 919.052 -1.25988 -1.71 0
M  V30 9849 H 921.315 -0.510758 -0.798643 0
M  V30 9850 H 921.021 -1.36953 -3.2394 0
M  V30 9851 H 920.895 0.301507 -3.75993 0
M  V30 9852 H 923.282 0.72156 -2.86142 0
M  V30 9853 H 923.363 -0.974844 -2.36496 0
M  V30 9854 H 923.007 -1.67932 -4.79334 0
M  V30 9855 H 922.937 0.0369575 -5.26587 0
M  V30 9856 H 925.428 -0.377202 -3.76013 0
M  V30 9857 H 925.741 -1.391 -7.60178 0
M  V30 9858 H 924.086 -1.24413 -6.83774 0
M  V30 9859 H 927.277 -0.550993 -4.64846 0
M  V30 9860 H 927.45 -1.01307 -6.40032 0
M  V30 9861 N 920.856 1.57574 -0.0284266 0
M  V30 9862 C 921.804 2.11332 0.971675 0
M  V30 9863 C 922.798 1.03974 1.33738 0
M  V30 9864 O 924.004 1.22409 1.31969 0
M  V30 9865 H 920.379 0.675174 0.331125 0
M  V30 9866 H 922.35 2.943 0.49296 0
M  V30 9867 C 921.099 2.65496 2.24516 0
M  V30 9868 H 920.422 3.47753 1.9725 0
M  V30 9869 H 921.862 3.06757 2.92705 0
M  V30 9870 C 920.321 1.58207 2.97443 0
M  V30 9871 O 920.851 0.981496 3.89525 0
M  V30 9872 N 919.057 1.30269 2.59766 0
M  V30 9873 H 918.604 1.79294 1.84963 0
M  V30 9874 H 918.562 0.587085 3.0887 0
M  V30 9875 N 922.334 -0.244713 1.55689 0
M  V30 9876 C 923.564 -0.988508 1.81417 0
M  V30 9877 C 923.972 -1.79362 0.602143 0
M  V30 9878 O 923.315 -1.78386 -0.438639 0
M  V30 9879 C 923.377 -1.97287 3.0053 0
M  V30 9880 C 923.041 -1.35448 4.36466 0
M  V30 9881 C 924.038 -0.755874 5.14376 0
M  V30 9882 C 921.723 -1.37319 4.83165 0
M  V30 9883 C 923.717 -0.184218 6.37134 0
M  V30 9884 C 921.404 -0.797681 6.05871 0
M  V30 9885 C 922.402 -0.204224 6.82695 0
M  V30 9886 O 922.09 0.362392 8.03083 0
M  V30 9887 H 921.822 -0.296412 0.607549 0
M  V30 9888 H 924.376 -0.272185 2.03589 0
M  V30 9889 H 922.606 -2.72756 2.74119 0
M  V30 9890 H 924.295 -2.58028 3.13331 0
M  V30 9891 H 925.061 -0.733912 4.79415 0
M  V30 9892 H 920.94 -1.8245 4.23359 0
M  V30 9893 H 924.484 0.279624 6.97039 0
M  V30 9894 H 920.381 -0.816978 6.40309 0
M  V30 9895 H 921.149 0.254467 8.18104 0
M  V30 9896 N 923.813 -1.49104 -0.510467 0
M  V30 9897 C 925.041 -1.61806 -1.28944 0
M  V30 9898 C 925.456 -0.285774 -1.86625 0
M  V30 9899 O 924.813 0.727551 -1.67371 0
M  V30 9900 C 924.864 -2.67966 -2.42645 0
M  V30 9901 O 924.585 -3.96026 -1.87337 0
M  V30 9902 C 926.086 -2.91286 -3.34166 0
M  V30 9903 H 923.306 -0.544999 -0.391429 0
M  V30 9904 H 925.85 -1.95071 -0.613805 0
M  V30 9905 H 924.005 -2.37505 -3.06056 0
M  V30 9906 H 924.419 -4.54427 -2.61909 0
M  V30 9907 H 925.893 -3.69323 -4.1025 0
M  V30 9908 H 926.37 -2.00842 -3.90588 0
M  V30 9909 H 926.976 -3.23127 -2.76531 0
M  V30 9910 N 925.291 0.760815 -1.38019 0
M  V30 9911 C 926.537 1.52109 -1.35034 0
M  V30 9912 C 926.892 1.92302 0.0615509 0
M  V30 9913 O 926.185 1.62028 1.02261 0
M  V30 9914 C 926.379 2.79024 -2.23339 0
M  V30 9915 C 926.208 2.51238 -3.72974 0
M  V30 9916 C 924.978 2.44818 -4.42032 0
M  V30 9917 C 927.176 2.18499 -4.65578 0
M  V30 9918 N 925.158 2.09232 -5.77144 0
M  V30 9919 C 926.529 1.93143 -5.89148 0
M  V30 9920 C 928.584 2.04747 -4.53854 0
M  V30 9921 C 927.287 1.55423 -7.02308 0
M  V30 9922 C 929.313 1.68428 -5.66909 0
M  V30 9923 C 928.675 1.43939 -6.89537 0
M  V30 9924 H 924.774 0.556482 -0.54941 0
M  V30 9925 H 927.358 0.886614 -1.73341 0
M  V30 9926 H 925.529 3.40292 -1.87232 0
M  V30 9927 H 927.261 3.45016 -2.11533 0
M  V30 9928 H 924.016 2.61045 -3.95161 0
M  V30 9929 H 924.44 1.94104 -6.48577 0
M  V30 9930 H 929.082 2.22358 -3.59607 0
M  V30 9931 H 926.8 1.36551 -7.96479 0
M  V30 9932 H 930.386 1.5843 -5.59814 0
M  V30 9933 H 929.266 1.16253 -7.75535 0
M  V30 9934 N 926.769 1.22769 0.988202 0
M  V30 9935 C 928.015 1.05665 1.73097 0
M  V30 9936 C 928.348 -0.406615 1.89895 0
M  V30 9937 O 927.623 -1.30132 1.44554 0
M  V30 9938 C 927.906 1.77381 3.13382 0
M  V30 9939 C 927.759 3.31332 3.04203 0
M  V30 9940 C 929.078 1.52999 4.12649 0
M  V30 9941 H 926.197 0.385258 0.628288 0
M  V30 9942 H 928.839 1.51171 1.15097 0
M  V30 9943 H 926.989 1.38696 3.62899 0
M  V30 9944 H 928.661 3.79489 2.6227 0
M  V30 9945 H 926.904 3.60767 2.40894 0
M  V30 9946 H 927.575 3.76692 4.03493 0
M  V30 9947 H 930.051 1.86611 3.71908 0
M  V30 9948 H 928.927 2.05666 5.08913 0
M  V30 9949 H 929.188 0.463615 4.39662 0
M  V30 9950 N 928.247 -1.18576 1.03814 0
M  V30 9951 C 929.658 -1.70159 0.768299 0
M  V30 9952 C 930.009 -1.8286 -0.711106 0
M  V30 9953 O 929.134 -1.5063 -1.55369 0
M  V30 9954 C 929.729 -3.09062 1.38804 0
M  V30 9955 C 928.288 -3.57866 1.16656 0
M  V30 9956 C 927.435 -2.34484 1.48029 0
M  V30 9957 H 930.386 -1.03287 1.20488 0
M  V30 9958 H 930.407 -3.72211 0.7899 0
M  V30 9959 H 929.919 -2.99785 2.46476 0
M  V30 9960 H 928.02 -3.72442 0.108471 0
M  V30 9961 H 928.133 -4.41445 1.8618 0
M  V30 9962 H 926.497 -2.38273 0.899902 0
M  V30 9963 H 927.28 -2.27829 2.56805 0
M  V30 9964 N 929.725 -0.817259 -1.34754 0
M  V30 9965 C 930.974 -0.39908 -1.97713 0
M  V30 9966 C 931.287 1.04203 -1.65533 0
M  V30 9967 O 932.493 1.56384 -2.21937 0
M  V30 9968 C 930.949 -0.662634 -3.53747 0
M  V30 9969 C 930.557 -2.11699 -3.94826 0
M  V30 9970 C 932.301 -0.31034 -4.23364 0
M  V30 9971 C 930.208 -2.32573 -5.4375 0
M  V30 9972 H 929.138 -0.145488 -0.739831 0
M  V30 9973 H 931.789 -1.00282 -1.53674 0
M  V30 9974 H 930.171 0.0111972 -3.95998 0
M  V30 9975 H 931.345 -2.82951 -3.63697 0
M  V30 9976 H 929.66 -2.43017 -3.3813 0
M  V30 9977 H 932.257 -0.44421 -5.32852 0
M  V30 9978 H 932.6 0.744594 -4.09587 0
M  V30 9979 H 933.133 -0.938518 -3.8657 0
M  V30 9980 H 929.872 -3.36551 -5.62507 0
M  V30 9981 H 929.392 -1.65858 -5.76412 0
M  V30 9982 H 931.071 -2.14651 -6.10356 0
M  V30 9983 N 931.203 1.46865 -0.571711 0
M  V30 9984 C 932.619 1.57897 -0.23255 0
M  V30 9985 C 932.819 1.56836 1.26509 0
M  V30 9986 O 931.875 1.47947 2.04617 0
M  V30 9987 C 933.188 2.87778 -0.872036 0
M  V30 9988 C 934.736 3.01389 -0.844605 0
M  V30 9989 C 935.211 4.33991 -1.46343 0
M  V30 9990 N 936.702 4.40662 -1.42727 0
M  V30 9991 C 937.437 5.41858 -1.87557 0
M  V30 9992 N 936.933 6.49787 -2.4031 0
M  V30 9993 N 938.726 5.32992 -1.7854 0
M  V30 9994 H 930.877 1.45798 -1.54457 0
M  V30 9995 H 933.14 0.694785 -0.644964 0
M  V30 9996 H 932.846 2.94332 -1.92513 0
M  V30 9997 H 932.72 3.75345 -0.373677 0
M  V30 9998 H 935.107 2.94423 0.19984 0
M  V30 9999 H 935.188 2.15327 -1.38087 0
M  V30 10000 H 934.832 4.41714 -2.50701 0
M  V30 10001 H 934.762 5.18809 -0.902479 0
M  V30 10002 H 937.253 3.63263 -1.04155 0
M  V30 10003 H 937.566 7.23199 -2.72403 0
M  V30 10004 H 935.911 6.50637 -2.44329 0
M  V30 10005 H 939.102 4.47575 -1.37093 0
M  V30 10006 H 939.275 6.11716 -2.13794 0
M  V30 10007 N 932.681 0.308908 1.54543 0
M  V30 10008 C 933.906 -0.303196 2.05172 0
M  V30 10009 C 934.331 -1.46133 1.18434 0
M  V30 10010 O 933.689 -1.803 0.190162 0
M  V30 10011 C 933.737 -0.729526 3.53143 0
M  V30 10012 O 932.841 -1.83348 3.69401 0
M  V30 10013 H 932.182 -0.0575066 0.661505 0
M  V30 10014 H 934.712 0.453055 1.99521 0
M  V30 10015 H 934.722 -1.01619 3.95143 0
M  V30 10016 H 933.397 0.117622 4.15734 0
M  V30 10017 H 931.974 -1.54676 3.39308 0
M  V30 10018 N 934.159 -1.57557 0.0367827 0
M  V30 10019 C 935.387 -1.96419 -0.650168 0
M  V30 10020 C 935.802 -0.913656 -1.6522 0
M  V30 10021 O 935.159 0.103718 -1.82205 0
M  V30 10022 C 935.21 -3.35355 -1.3498 0
M  V30 10023 O 934.931 -4.36379 -0.387905 0
M  V30 10024 C 936.432 -3.88892 -2.12786 0
M  V30 10025 H 933.652 -0.646751 -0.178756 0
M  V30 10026 H 936.196 -2.04261 0.0988197 0
M  V30 10027 H 934.351 -3.28708 -2.05012 0
M  V30 10028 H 934.765 -5.16969 -0.885596 0
M  V30 10029 H 936.239 -4.88428 -2.5718 0
M  V30 10030 H 936.716 -3.23547 -2.97008 0
M  V30 10031 H 937.322 -3.98831 -1.47694 0
M  V30 10032 N 935.637 0.236453 -1.55816 0
M  V30 10033 C 936.585 1.31259 -1.92025 0
M  V30 10034 C 937.579 1.49292 -0.800518 0
M  V30 10035 O 938.785 1.50643 -0.985229 0
M  V30 10036 H 935.16 0.439751 -0.610019 0
M  V30 10037 H 937.131 0.979926 -2.81851 0
M  V30 10038 C 935.88 2.65892 -2.24046 0
M  V30 10039 H 935.203 2.5282 -3.09713 0
M  V30 10040 H 936.643 3.40039 -2.53277 0
M  V30 10041 C 935.102 3.19777 -1.0604 0
M  V30 10042 O 935.632 4.00473 -0.313786 0
M  V30 10043 N 933.838 2.77946 -0.848209 0
M  V30 10044 H 933.385 2.12433 -1.45706 0
M  V30 10045 H 933.343 3.14342 -0.0603424 0
M  V30 10046 N 937.115 1.49373 0.502552 0
M  V30 10047 C 938.345 1.62252 1.27898 0
M  V30 10048 C 938.753 0.292555 1.86924 0
M  V30 10049 O 938.096 -0.731823 1.68493 0
M  V30 10050 C 938.158 2.63153 2.4493 0
M  V30 10051 C 937.822 4.07541 2.06784 0
M  V30 10052 C 938.819 4.94392 1.60849 0
M  V30 10053 C 936.504 4.53263 2.16466 0
M  V30 10054 C 938.498 6.25003 1.25098 0
M  V30 10055 C 936.185 5.83888 1.80327 0
M  V30 10056 C 937.183 6.69582 1.34718 0
M  V30 10057 O 936.871 7.97773 0.990661 0
M  V30 10058 H 936.603 0.54918 0.394179 0
M  V30 10059 H 939.157 1.96132 0.610031 0
M  V30 10060 H 937.387 2.2445 3.14895 0
M  V30 10061 H 939.076 2.65578 3.06957 0
M  V30 10062 H 939.842 4.60296 1.52816 0
M  V30 10063 H 935.721 3.86731 2.50919 0
M  V30 10064 H 939.265 6.91844 0.894269 0
M  V30 10065 H 935.162 6.17513 1.8801 0
M  V30 10066 H 935.93 8.1077 1.12227 0
M  V30 10067 N 938.594 -0.753485 1.38421 0
M  V30 10068 C 939.819 -1.54783 1.38047 0
M  V30 10069 C 940.244 -1.8808 -0.0276371 0
M  V30 10070 O 939.602 -1.5058 -1.00973 0
M  V30 10071 C 939.65 -2.82353 2.24297 0
M  V30 10072 O 938.754 -3.77509 1.66014 0
M  V30 10073 H 938.095 -0.468151 0.470883 0
M  V30 10074 H 940.625 -0.931144 1.82184 0
M  V30 10075 H 940.635 -3.31277 2.38159 0
M  V30 10076 H 939.31 -2.57449 3.26639 0
M  V30 10077 H 937.887 -3.36212 1.61294 0
M  V30 10078 N 940.072 -1.23292 -0.981677 0
M  V30 10079 C 941.002 -1.03738 -2.09191 0
M  V30 10080 C 941.983 0.0453041 -1.7004 0
M  V30 10081 O 943.168 -0.119092 -1.93834 0
M  V30 10082 C 940.298 -0.626426 -3.41604 0
M  V30 10083 C 939.252 -1.65631 -3.94652 0
M  V30 10084 C 938.578 -1.10084 -5.23245 0
M  V30 10085 C 939.878 -3.04903 -4.24066 0
M  V30 10086 H 941.572 -1.966 -2.25807 0
M  V30 10087 H 939.118 -0.946656 -1.0851 0
M  V30 10088 H 941.071 -0.476689 -4.18695 0
M  V30 10089 H 939.795 0.337873 -3.24848 0
M  V30 10090 H 938.454 -1.79402 -3.19704 0
M  V30 10091 H 938.102 -0.127562 -5.02838 0
M  V30 10092 H 937.802 -1.78896 -5.59705 0
M  V30 10093 H 939.326 -0.962928 -6.02959 0
M  V30 10094 H 940.74 -2.94441 -4.91912 0
M  V30 10095 H 939.137 -3.70941 -4.71724 0
M  V30 10096 H 940.207 -3.53991 -3.31389 0
M  V30 10097 N 941.55 1.18024 -1.04442 0
M  V30 10098 C 942.798 1.87727 -0.74854 0
M  V30 10099 C 943.119 1.80975 0.726156 0
M  V30 10100 O 942.389 1.23061 1.52423 0
M  V30 10101 H 940.969 0.694974 -0.273897 0
M  V30 10102 H 943.631 1.43213 -1.32197 0
M  V30 10103 H 942.727 2.93665 -1.05674 0
M  V30 10104 N 943.028 0.824394 1.34319 0
M  V30 10105 C 943.958 0.262077 2.32025 0
M  V30 10106 C 944.939 -0.622277 1.58309 0
M  V30 10107 O 946.124 -0.548848 1.86283 0
M  V30 10108 C 943.254 -0.57567 3.42496 0
M  V30 10109 C 942.208 0.21167 4.27476 0
M  V30 10110 C 941.534 -0.748913 5.29429 0
M  V30 10111 C 942.834 1.42068 5.02607 0
M  V30 10112 H 944.528 1.07842 2.79304 0
M  V30 10113 H 942.074 0.520022 1.34282 0
M  V30 10114 H 944.027 -0.979251 4.09864 0
M  V30 10115 H 942.751 -1.42508 2.93869 0
M  V30 10116 H 941.41 0.596636 3.61712 0
M  V30 10117 H 941.058 -1.59432 4.77064 0
M  V30 10118 H 940.758 -0.226313 5.87164 0
M  V30 10119 H 942.282 -1.15032 5.99667 0
M  V30 10120 H 943.696 1.09103 5.62823 0
M  V30 10121 H 942.093 1.87903 5.69923 0
M  V30 10122 H 943.163 2.1981 4.32217 0
M  V30 10123 N 944.506 -1.46559 0.579492 0
M  V30 10124 C 945.752 -2.02699 0.0639363 0
M  V30 10125 C 946.085 -1.4504 -1.29139 0
M  V30 10126 O 945.36 -0.614284 -1.84545 0
M  V30 10127 C 945.643 -3.601 -0.00528618 0
M  V30 10128 C 945.496 -4.28149 1.37871 0
M  V30 10129 C 946.815 -4.34375 -0.707537 0
M  V30 10130 H 943.934 -0.736586 0.0247085 0
M  V30 10131 H 946.576 -1.74739 0.746071 0
M  V30 10132 H 944.726 -3.84052 -0.586206 0
M  V30 10133 H 946.398 -4.1547 2.00455 0
M  V30 10134 H 944.641 -3.87636 1.94732 0
M  V30 10135 H 945.312 -5.36888 1.28278 0
M  V30 10136 H 947.788 -4.15549 -0.214064 0
M  V30 10137 H 946.664 -5.44091 -0.724992 0
M  V30 10138 H 946.925 -4.052 -1.7682 0
M  V30 10139 N 945.984 -0.3171 -1.54377 0
M  V30 10140 C 946.914 0.544623 -2.2706 0
M  V30 10141 C 947.895 1.12469 -1.27611 0
M  V30 10142 O 949.08 1.15103 -1.56413 0
M  V30 10143 C 946.21 1.70879 -3.02353 0
M  V30 10144 C 945.164 1.25833 -4.09084 0
M  V30 10145 C 944.49 2.50894 -4.72182 0
M  V30 10146 C 945.79 0.377876 -5.20931 0
M  V30 10147 H 947.484 -0.0616372 -2.99337 0
M  V30 10148 H 945.03 -0.0310848 -1.43966 0
M  V30 10149 H 946.983 2.31787 -3.51927 0
M  V30 10150 H 945.707 2.34155 -2.27682 0
M  V30 10151 H 944.366 0.672228 -3.60384 0
M  V30 10152 H 944.014 3.12518 -3.94134 0
M  V30 10153 H 943.714 2.21447 -5.44275 0
M  V30 10154 H 945.238 3.12575 -5.24528 0
M  V30 10155 H 946.652 0.893056 -5.66302 0
M  V30 10156 H 945.049 0.176474 -5.9984 0
M  V30 10157 H 946.119 -0.592943 -4.81261 0
M  V30 10158 N 947.462 1.57535 -0.0451378 0
M  V30 10159 C 948.873 1.80116 0.491426 0
M  V30 10160 C 949.224 0.956846 1.71286 0
M  V30 10161 O 948.349 0.17173 2.15718 0
M  V30 10162 C 948.944 3.26674 0.898315 0
M  V30 10163 C 947.503 3.50194 1.37989 0
M  V30 10164 C 946.65 2.75054 0.352202 0
M  V30 10165 H 949.601 1.56368 -0.271065 0
M  V30 10166 H 949.622 3.37263 1.76164 0
M  V30 10167 H 949.134 3.88099 0.009141 0
M  V30 10168 H 947.235 2.94041 2.28846 0
M  V30 10169 H 947.348 4.58909 1.37622 0
M  V30 10170 H 945.712 2.4101 0.823784 0
M  V30 10171 H 946.495 3.39203 -0.528782 0
M  V30 10172 N 948.94 -0.228186 1.55939 0
M  V30 10173 C 950.351 -0.795734 1.68893 0
M  V30 10174 C 950.702 -1.85261 0.645967 0
M  V30 10175 O 949.827 -2.15434 -0.2042 0
M  V30 10176 C 950.422 -1.45013 3.06197 0
M  V30 10177 C 948.981 -1.96514 3.21028 0
M  V30 10178 C 948.128 -0.822918 2.64808 0
M  V30 10179 H 951.079 -0.0036485 1.587 0
M  V30 10180 H 951.1 -2.31875 3.01685 0
M  V30 10181 H 950.612 -0.680678 3.82084 0
M  V30 10182 H 948.713 -2.76282 2.49998 0
M  V30 10183 H 948.826 -2.14967 4.28166 0
M  V30 10184 H 947.19 -1.22846 2.23116 0
M  V30 10185 H 947.973 -0.0662493 3.43236 0
M  V30 10186 N 950.418 -1.49637 -0.494624 0
M  V30 10187 C 951.648 -1.62928 -1.27036 0
M  V30 10188 C 952.056 -0.302464 -1.86767 0
M  V30 10189 O 951.399 0.722878 -1.68879 0
M  V30 10190 C 951.461 -2.64449 -2.43531 0
M  V30 10191 C 951.125 -4.08632 -2.0462 0
M  V30 10192 C 952.122 -4.95238 -1.58225 0
M  V30 10193 C 949.807 -4.54405 -2.1406 0
M  V30 10194 C 951.801 -6.25658 -1.21782 0
M  V30 10195 C 949.488 -5.84836 -1.77228 0
M  V30 10196 C 950.486 -6.70287 -1.31165 0
M  V30 10197 O 950.174 -7.98287 -0.948339 0
M  V30 10198 H 949.906 -0.551263 -0.391261 0
M  V30 10199 H 952.46 -1.96453 -0.599621 0
M  V30 10200 H 950.69 -2.26117 -3.137 0
M  V30 10201 H 952.379 -2.67203 -3.05545 0
M  V30 10202 H 953.145 -4.611 -1.50373 0
M  V30 10203 H 949.024 -3.88056 -2.48865 0
M  V30 10204 H 952.568 -6.92309 -0.857566 0
M  V30 10205 H 948.465 -6.18502 -1.84732 0
M  V30 10206 H 949.233 -8.11353 -1.07925 0
M  V30 10207 N 951.896 0.746133 -1.38819 0
M  V30 10208 C 953.121 1.54049 -1.38866 0
M  V30 10209 C 953.546 1.88092 0.0176624 0
M  V30 10210 O 952.904 1.51113 1.00173 0
M  V30 10211 C 952.952 2.8116 -2.25791 0
M  V30 10212 O 952.056 3.76623 -1.68014 0
M  V30 10213 H 951.397 0.465648 -0.473359 0
M  V30 10214 H 953.927 0.921469 -1.82675 0
M  V30 10215 H 953.937 3.30009 -2.39913 0
M  V30 10216 H 952.612 2.55713 -3.27999 0
M  V30 10217 H 951.189 3.35352 -1.63074 0
M  V30 10218 N 953.375 1.23811 0.975125 0
M  V30 10219 C 954.603 1.10019 1.75224 0
M  V30 10220 C 955.018 -0.34791 1.85567 0
M  V30 10221 O 954.375 -1.24043 1.33864 0
M  V30 10222 C 954.426 1.72572 3.1765 0
M  V30 10223 O 954.147 3.11719 3.07836 0
M  V30 10224 C 955.648 1.64292 4.11732 0
M  V30 10225 H 952.868 0.38476 0.549728 0
M  V30 10226 H 955.412 1.63768 1.22476 0
M  V30 10227 H 953.567 1.22843 3.67408 0
M  V30 10228 H 953.981 3.42152 3.97533 0
M  V30 10229 H 955.455 2.12754 5.09352 0
M  V30 10230 H 955.932 0.602722 4.35045 0
M  V30 10231 H 956.538 2.13411 3.6788 0
M  V30 10232 N 954.853 -1.17469 1.05066 0
M  V30 10233 C 956.1 -1.87698 0.759987 0
M  V30 10234 C 956.428 -1.80964 -0.712902 0
M  V30 10235 O 955.683 -1.21146 -1.53695 0
M  V30 10236 C 955.982 -3.37211 1.18421 0
M  V30 10237 C 955.648 -3.64148 2.65909 0
M  V30 10238 C 954.31 -3.71209 3.06199 0
M  V30 10239 C 956.662 -3.75724 3.61222 0
M  V30 10240 C 953.99 -3.87334 4.40669 0
M  V30 10241 C 956.342 -3.93368 4.95424 0
M  V30 10242 C 955.006 -3.98667 5.3537 0
M  V30 10243 H 954.276 -0.686835 0.278099 0
M  V30 10244 H 956.923 -1.38975 1.31751 0
M  V30 10245 H 955.228 -3.87982 0.545654 0
M  V30 10246 H 956.925 -3.89911 0.936518 0
M  V30 10247 H 953.515 -3.59276 2.33707 0
M  V30 10248 H 957.699 -3.69591 3.31235 0
M  V30 10249 H 952.955 -3.89685 4.71122 0
M  V30 10250 H 957.129 -4.01267 5.69173 0
M  V30 10251 H 954.756 -4.10915 6.39572 0
M  V30 10252 N 956.331 -0.831506 -1.3388 0
M  V30 10253 C 957.561 -0.436292 -2.01941 0
M  V30 10254 C 957.969 0.964979 -1.62741 0
M  V30 10255 O 957.312 1.63733 -0.832894 0
M  V30 10256 C 957.374 -0.468811 -3.5643 0
M  V30 10257 C 957.038 -1.82491 -4.18982 0
M  V30 10258 C 958.035 -2.78705 -4.38885 0
M  V30 10259 C 955.72 -2.11574 -4.55568 0
M  V30 10260 C 957.714 -4.02168 -4.94509 0
M  V30 10261 C 955.401 -3.35296 -5.10901 0
M  V30 10262 C 956.399 -4.3041 -5.30317 0
M  V30 10263 O 956.087 -5.51944 -5.84477 0
M  V30 10264 H 955.819 -0.172335 -0.653664 0
M  V30 10265 H 958.373 -1.12354 -1.71947 0
M  V30 10266 H 956.603 0.275179 -3.8572 0
M  V30 10267 H 958.292 -0.0924518 -4.05795 0
M  V30 10268 H 959.058 -2.57534 -4.10976 0
M  V30 10269 H 954.937 -1.38338 -4.39754 0
M  V30 10270 H 958.481 -4.76418 -5.09579 0
M  V30 10271 H 954.378 -3.56326 -5.3824 0
M  V30 10272 H 955.146 -5.53582 -6.029 0
M  V30 10273 N 957.809 1.4625 -0.587256 0
M  V30 10274 C 958.739 2.33132 0.131076 0
M  V30 10275 C 959.72 1.45619 0.879158 0
M  V30 10276 O 960.905 1.74428 0.853723 0
M  V30 10277 C 958.035 3.27975 1.14236 0
M  V30 10278 C 956.989 4.24965 0.508819 0
M  V30 10279 C 956.315 5.09349 1.62689 0
M  V30 10280 C 957.615 5.19322 -0.55694 0
M  V30 10281 H 959.309 2.93442 -0.594333 0
M  V30 10282 H 956.855 1.41106 -0.287263 0
M  V30 10283 H 958.808 3.87614 1.65328 0
M  V30 10284 H 957.532 2.65781 1.8981 0
M  V30 10285 H 956.191 3.66595 0.0189337 0
M  V30 10286 H 955.839 4.43537 2.37242 0
M  V30 10287 H 955.539 5.75036 1.20861 0
M  V30 10288 H 957.063 5.71852 2.14049 0
M  V30 10289 H 958.477 5.73151 -0.130903 0
M  V30 10290 H 956.874 5.93376 -0.895801 0
M  V30 10291 H 957.944 4.62979 -1.44148 0
M  V30 10292 N 959.287 0.325282 1.54207 0
M  V30 10293 C 960.219 -0.57395 2.21897 0
M  V30 10294 C 961.232 -1.0785 1.21952 0
M  V30 10295 O 962.421 -0.991782 1.48411 0
M  V30 10296 C 959.521 -1.8005 2.87115 0
M  V30 10297 C 958.694 -1.43435 4.13213 0
M  V30 10298 C 957.753 -2.51862 4.62009 0
M  V30 10299 O 956.779 -2.15934 5.26651 0
M  V30 10300 N 957.981 -3.8282 4.36382 0
M  V30 10301 H 960.746 0.00566918 2.99699 0
M  V30 10302 H 958.307 0.148563 1.61217 0
M  V30 10303 H 960.299 -2.51981 3.16682 0
M  V30 10304 H 958.869 -2.28792 2.13009 0
M  V30 10305 H 958.089 -0.546598 3.90392 0
M  V30 10306 H 959.377 -1.16544 4.95273 0
M  V30 10307 H 958.775 -4.14807 3.84645 0
M  V30 10308 H 957.332 -4.50976 4.70599 0
M  V30 10309 N 960.765 -1.57509 0.0534917 0
M  V30 10310 C 961.728 -2.10563 -0.905307 0
M  V30 10311 C 962.728 -1.02571 -1.23838 0
M  V30 10312 O 963.918 -1.28635 -1.17468 0
M  V30 10313 C 961.05 -2.5918 -2.21447 0
M  V30 10314 H 962.243 -2.96575 -0.445354 0
M  V30 10315 H 959.796 -1.55079 -0.194947 0
M  V30 10316 H 960.531 -1.76568 -2.72019 0
M  V30 10317 H 960.316 -3.38098 -1.98575 0
M  V30 10318 H 961.806 -3.00365 -2.90122 0
M  V30 10319 N 962.243 0.219913 -1.56058 0
M  V30 10320 C 963.191 1.29215 -1.93407 0
M  V30 10321 C 964.185 1.48434 -0.816307 0
M  V30 10322 O 965.391 1.49589 -1.00115 0
M  V30 10323 H 961.766 0.433256 -0.614649 0
M  V30 10324 H 963.737 0.949977 -2.82875 0
M  V30 10325 C 962.486 2.63501 -2.26854 0
M  V30 10326 H 961.809 2.4952 -3.12377 0
M  V30 10327 H 963.249 3.37334 -2.56869 0
M  V30 10328 C 961.708 3.18634 -1.09425 0
M  V30 10329 O 962.238 4.00117 -0.356243 0
M  V30 10330 N 960.444 2.7703 -0.877642 0
M  V30 10331 H 959.991 2.10875 -1.47951 0
M  V30 10332 H 959.949 3.1426 -0.0936792 0
M  V30 10333 N 963.721 1.49897 0.486681 0
M  V30 10334 C 964.651 1.7054 1.59494 0
M  V30 10335 C 965.632 0.554184 1.60819 0
M  V30 10336 O 966.817 0.791617 1.77333 0
M  V30 10337 C 963.947 1.78517 2.97908 0
M  V30 10338 C 962.901 2.93571 3.11449 0
M  V30 10339 C 962.227 2.86674 4.51356 0
M  V30 10340 C 963.527 4.34308 2.90127 0
M  V30 10341 H 965.221 2.63329 1.42472 0
M  V30 10342 H 962.767 1.2672 0.683969 0
M  V30 10343 H 964.72 1.91544 3.75352 0
M  V30 10344 H 963.444 0.823381 3.16051 0
M  V30 10345 H 962.103 2.80169 2.36433 0
M  V30 10346 H 961.751 1.88373 4.66395 0
M  V30 10347 H 961.451 3.63903 4.61355 0
M  V30 10348 H 962.975 3.01728 5.30841 0
M  V30 10349 H 964.389 4.48317 3.57331 0
M  V30 10350 H 962.786 5.12869 3.11585 0
M  V30 10351 H 963.856 4.47759 1.86119 0
M  V30 10352 N 965.199 -0.738761 1.39212 0
M  V30 10353 C 966.424 -1.5331 1.39681 0
M  V30 10354 C 966.849 -1.88098 -0.00768715 0
M  V30 10355 O 966.207 -1.51642 -0.993699 0
M  V30 10356 C 966.255 -2.79958 2.27279 0
M  V30 10357 O 965.359 -3.75727 1.70008 0
M  V30 10358 H 964.7 -0.463131 0.475821 0
M  V30 10359 H 967.23 -0.911768 1.83161 0
M  V30 10360 H 967.24 -3.28732 2.41659 0
M  V30 10361 H 965.915 -2.5397 3.29351 0
M  V30 10362 H 964.492 -3.34483 1.64851 0
M  V30 10363 N 966.677 -1.24326 -0.968545 0
M  V30 10364 C 967.954 -0.990459 -1.68669 0
M  V30 10365 C 968.334 0.487487 -2.05394 0
M  V30 10366 O 967.682 1.46158 -1.75642 0
M  V30 10367 C 967.892 -1.91251 -2.91931 0
M  V30 10368 C 969.24 -2.18291 -3.6419 0
M  V30 10369 O 970.264 -1.88897 -3.01987 0
M  V30 10370 O 969.123 -2.68204 -4.76161 0
M  V30 10371 H 966.217 -0.374515 -0.737338 0
M  V30 10372 H 968.763 -1.35421 -1.02271 0
M  V30 10373 H 967.535 -2.9111 -2.61478 0
M  V30 10374 H 967.158 -1.55188 -3.66064 0
M  V30 10375 N 968.156 1.1691 -1.05688 0
M  V30 10376 C 969.088 2.20648 -0.620237 0
M  V30 10377 C 970.101 1.59652 0.318604 0
M  V30 10378 O 971.29 1.78157 0.110553 0
M  V30 10379 C 968.39 3.38716 0.111729 0
M  V30 10380 C 967.563 4.29277 -0.839062 0
M  V30 10381 C 966.622 5.25993 -0.147453 0
M  V30 10382 O 965.648 5.63787 -0.783151 0
M  V30 10383 N 966.85 5.69725 1.11327 0
M  V30 10384 H 969.615 2.58731 -1.51256 0
M  V30 10385 H 967.176 1.31858 -0.939412 0
M  V30 10386 H 969.168 4.00455 0.584657 0
M  V30 10387 H 967.738 2.99189 0.905784 0
M  V30 10388 H 966.958 3.64894 -1.4915 0
M  V30 10389 H 968.246 4.86669 -1.48428 0
M  V30 10390 H 967.644 5.41103 1.64999 0
M  V30 10391 H 966.201 6.33584 1.53018 0
M  V30 10392 N 969.634 0.838594 1.33437 0
M  V30 10393 C 970.883 0.430484 1.97053 0
M  V30 10394 C 971.196 -1.01556 1.6717 0
M  V30 10395 O 972.402 -1.52834 2.24397 0
M  V30 10396 C 970.858 0.718828 3.52648 0
M  V30 10397 C 970.466 2.17953 3.91408 0
M  V30 10398 C 972.21 0.377654 4.22817 0
M  V30 10399 C 970.117 2.41194 5.39981 0
M  V30 10400 H 969.047 0.157239 0.737422 0
M  V30 10401 H 971.698 1.02714 1.5206 0
M  V30 10402 H 970.08 0.0518042 3.95966 0
M  V30 10403 H 971.254 2.88701 3.59149 0
M  V30 10404 H 969.569 2.48366 3.34221 0
M  V30 10405 H 972.166 0.528926 5.32077 0
M  V30 10406 H 972.509 -0.679338 4.1072 0
M  V30 10407 H 973.042 0.999899 3.85028 0
M  V30 10408 H 969.781 3.45457 5.57081 0
M  V30 10409 H 969.301 1.75007 5.73701 0
M  V30 10410 H 970.98 2.24334 6.06863 0
M  V30 10411 N 971.112 -1.45937 0.595003 0
M  V30 10412 C 972.042 -2.33198 -0.11871 0
M  V30 10413 C 973.023 -1.46083 -0.871423 0
M  V30 10414 O 974.208 -1.74879 -0.844461 0
M  V30 10415 C 971.338 -3.28576 -1.12495 0
M  V30 10416 C 970.292 -4.25229 -0.486275 0
M  V30 10417 C 969.618 -5.10204 -1.59986 0
M  V30 10418 C 970.918 -5.19019 0.584473 0
M  V30 10419 H 972.612 -2.93122 0.609886 0
M  V30 10420 H 970.158 -1.40951 0.294742 0
M  V30 10421 H 972.111 -3.88485 -1.6327 0
M  V30 10422 H 970.835 -2.66784 -1.88398 0
M  V30 10423 H 969.494 -3.666 0.000507962 0
M  V30 10424 H 969.142 -4.44789 -2.34886 0
M  V30 10425 H 968.842 -5.75669 -1.1781 0
M  V30 10426 H 970.366 -5.7298 -2.11014 0
M  V30 10427 H 971.78 -5.73073 0.161297 0
M  V30 10428 H 970.177 -5.92893 0.927256 0
M  V30 10429 H 971.247 -4.62208 1.46601 0
M  V30 10430 N 972.59 -0.333456 -1.54032 0
M  V30 10431 C 973.522 0.562174 -2.22199 0
M  V30 10432 C 974.535 1.07202 -1.22522 0
M  V30 10433 O 975.724 0.983897 -1.48935 0
M  V30 10434 C 972.824 1.78525 -2.88066 0
M  V30 10435 C 971.997 1.41242 -4.13968 0
M  V30 10436 C 971.056 2.49408 -4.63338 0
M  V30 10437 O 970.082 2.13138 -5.27789 0
M  V30 10438 N 971.284 3.805 -4.38406 0
M  V30 10439 H 974.049 -0.0215629 -2.99692 0
M  V30 10440 H 971.61 -0.157111 -1.61136 0
M  V30 10441 H 973.602 2.50298 -3.18014 0
M  V30 10442 H 972.172 2.2766 -2.14219 0
M  V30 10443 H 971.392 0.525887 -3.90676 0
M  V30 10444 H 972.68 1.13916 -4.95884 0
M  V30 10445 H 972.078 4.12761 -3.86839 0
M  V30 10446 H 970.635 4.48474 -4.72984 0
M  V30 10447 N 974.068 1.57479 -0.061844 0
M  V30 10448 C 975.314 1.93395 0.610443 0
M  V30 10449 C 975.647 0.941334 1.6986 0
M  V30 10450 O 974.922 -0.0310262 1.94475 0
M  V30 10451 C 975.205 3.39636 1.19664 0
M  V30 10452 C 975.058 4.49651 0.115805 0
M  V30 10453 C 976.377 3.86488 2.10512 0
M  V30 10454 H 973.496 0.703262 0.220436 0
M  V30 10455 H 976.138 1.89583 -0.125785 0
M  V30 10456 H 974.288 3.43015 1.82409 0
M  V30 10457 H 975.96 4.58397 -0.516728 0
M  V30 10458 H 974.203 4.30237 -0.55483 0
M  V30 10459 H 974.874 5.49089 0.566176 0
M  V30 10460 H 977.35 3.85052 1.57715 0
M  V30 10461 H 976.226 4.89444 2.48466 0
M  V30 10462 H 976.487 3.23856 3.00948 0
M  V30 10463 N 975.546 -0.211634 1.56173 0
M  V30 10464 C 976.493 -1.26231 1.93221 0
M  V30 10465 C 977.463 -1.46076 0.790641 0
M  V30 10466 O 978.648 -1.59482 1.04739 0
M  V30 10467 C 975.788 -2.60559 2.26281 0
M  V30 10468 C 974.901 -2.48431 3.5342 0
M  V30 10469 C 974.036 -3.7535 3.7588 0
M  V30 10470 C 973.075 -3.57985 4.96501 0
M  V30 10471 N 972.212 -4.76877 5.15299 0
M  V30 10472 H 977.052 -0.939367 2.82807 0
M  V30 10473 H 974.589 -0.452511 1.39967 0
M  V30 10474 H 976.547 -3.38796 2.43461 0
M  V30 10475 H 975.177 -2.9093 1.39855 0
M  V30 10476 H 974.229 -1.61577 3.44379 0
M  V30 10477 H 975.541 -2.31526 4.41811 0
M  V30 10478 H 974.695 -4.62029 3.9321 0
M  V30 10479 H 973.434 -3.95191 2.85788 0
M  V30 10480 H 972.439 -2.69691 4.79111 0
M  V30 10481 H 973.664 -3.39605 5.88086 0
M  V30 10482 H 971.61 -4.97013 4.28152 0
M  V30 10483 H 971.527 -4.62735 5.9784 0
M  V30 10484 H 972.795 -5.64954 5.37073 0
M  V30 10485 N 977.024 -1.50153 -0.478725 0
M  V30 10486 C 977.954 -1.71384 -1.58587 0
M  V30 10487 C 978.935 -0.562705 -1.60523 0
M  V30 10488 O 980.12 -0.80101 -1.76911 0
M  V30 10489 C 977.25 -1.80094 -2.96957 0
M  V30 10490 C 976.204 -2.95218 -3.09888 0
M  V30 10491 C 975.53 -2.89063 -4.49829 0
M  V30 10492 C 976.83 -4.35841 -2.8782 0
M  V30 10493 H 978.524 -2.64081 -1.41073 0
M  V30 10494 H 976.07 -1.27081 -0.677239 0
M  V30 10495 H 978.023 -1.93531 -3.74331 0
M  V30 10496 H 976.747 -0.840131 -3.1561 0
M  V30 10497 H 975.406 -2.81419 -2.34944 0
M  V30 10498 H 975.054 -1.90844 -4.6539 0
M  V30 10499 H 974.754 -3.66345 -4.59418 0
M  V30 10500 H 976.278 -3.04539 -5.29234 0
M  V30 10501 H 977.692 -4.50205 -3.54948 0
M  V30 10502 H 976.089 -5.14515 -3.0886 0
M  V30 10503 H 977.159 -4.48739 -1.83742 0
M  V30 10504 N 978.502 0.731368 -1.39602 0
M  V30 10505 C 979.913 1.30981 -1.33045 0
M  V30 10506 C 980.264 1.962 0.00349918 0
M  V30 10507 O 979.389 1.96539 0.905615 0
M  V30 10508 C 979.984 2.3817 -2.40958 0
M  V30 10509 C 978.543 2.91678 -2.3791 0
M  V30 10510 C 977.69 1.65286 -2.22656 0
M  V30 10511 H 980.641 0.528615 -1.49637 0
M  V30 10512 H 980.662 3.18645 -2.07955 0
M  V30 10513 H 980.174 1.90673 -3.38032 0
M  V30 10514 H 978.275 3.43446 -1.44485 0
M  V30 10515 H 978.388 3.44545 -3.32904 0
M  V30 10516 H 976.752 1.89759 -1.69893 0
M  V30 10517 H 977.535 1.19836 -3.21705 0
M  V30 10518 N 979.98 1.24838 0.961938 0
M  V30 10519 C 981.229 1.0855 1.69999 0
M  V30 10520 C 981.542 -0.374645 1.91979 0
M  V30 10521 O 982.748 -0.657822 2.6341 0
M  V30 10522 C 981.204 1.89424 3.06017 0
M  V30 10523 C 980.812 3.39885 2.9186 0
M  V30 10524 C 982.556 1.81684 3.83655 0
M  V30 10525 C 980.463 4.13082 4.23223 0
M  V30 10526 H 979.393 0.402603 0.637516 0
M  V30 10527 H 982.044 1.4897 1.07146 0
M  V30 10528 H 980.426 1.41823 3.69733 0
M  V30 10529 H 981.6 3.95108 2.37121 0
M  V30 10530 H 979.915 3.4864 2.27683 0
M  V30 10531 H 982.512 2.3367 4.80939 0
M  V30 10532 H 982.855 0.783247 4.08865 0
M  V30 10533 H 983.388 2.26997 3.26676 0
M  V30 10534 H 980.127 5.16824 4.03204 0
M  V30 10535 H 979.647 3.62644 4.77755 0
M  V30 10536 H 981.326 4.20397 4.91808 0
M  V30 10537 N 981.458 -1.16348 1.06306 0
M  V30 10538 C 982.683 -1.91323 0.800636 0
M  V30 10539 C 983.108 -1.7691 -0.639105 0
M  V30 10540 O 982.466 -1.0945 -1.44535 0
M  V30 10541 C 982.514 -3.40038 1.20027 0
M  V30 10542 O 981.618 -4.11003 0.339142 0
M  V30 10543 H 980.959 -0.596057 0.292595 0
M  V30 10544 H 983.489 -1.47406 1.41889 0
M  V30 10545 H 983.499 -3.90808 1.17188 0
M  V30 10546 H 982.174 -3.49848 2.24898 0
M  V30 10547 H 980.751 -3.70423 0.42911 0
M  V30 10548 N 982.937 -0.845659 -1.3299 0
M  V30 10549 C 983.884 -0.281761 -2.29074 0
M  V30 10550 C 984.854 0.606237 -1.54641 0
M  V30 10551 O 986.039 0.543063 -1.82908 0
M  V30 10552 C 983.179 0.531451 -3.40983 0
M  V30 10553 C 982.292 -0.381328 -4.30314 0
M  V30 10554 C 981.427 0.443643 -5.29344 0
M  V30 10555 C 980.466 -0.467101 -6.10315 0
M  V30 10556 N 979.603 0.320148 -7.0137 0
M  V30 10557 H 984.443 -1.10641 -2.76699 0
M  V30 10558 H 981.98 -0.55706 -1.36144 0
M  V30 10559 H 983.938 1.01848 -4.04577 0
M  V30 10560 H 982.568 1.32101 -2.94532 0
M  V30 10561 H 981.62 -0.986701 -3.6738 0
M  V30 10562 H 982.932 -1.08067 -4.86953 0
M  V30 10563 H 982.086 0.994212 -5.98498 0
M  V30 10564 H 980.825 1.17639 -4.73299 0
M  V30 10565 H 979.83 -1.02963 -5.40073 0
M  V30 10566 H 981.055 -1.19832 -6.68444 0
M  V30 10567 H 979.001 1.03615 -6.47765 0
M  V30 10568 H 978.918 -0.320338 -7.55321 0
M  V30 10569 H 980.186 0.852735 -7.74822 0
M  V30 10570 N 984.415 1.45619 -0.602734 0
M  V30 10571 C 985.345 2.33258 0.106342 0
M  V30 10572 C 986.326 1.46543 0.863664 0
M  V30 10573 O 987.511 1.75324 0.835175 0
M  V30 10574 C 984.641 3.29168 1.10751 0
M  V30 10575 C 983.595 4.25481 0.463717 0
M  V30 10576 C 982.921 5.11046 1.57278 0
M  V30 10577 C 984.221 5.18702 -0.61199 0
M  V30 10578 H 985.915 2.92795 -0.625423 0
M  V30 10579 H 983.461 1.40793 -0.302213 0
M  V30 10580 H 985.414 3.89346 1.61208 0
M  V30 10581 H 984.138 2.6778 1.8698 0
M  V30 10582 H 982.797 3.66595 -0.0199496 0
M  V30 10583 H 982.445 4.46029 2.32524 0
M  V30 10584 H 982.145 5.76286 1.14755 0
M  V30 10585 H 983.669 5.74091 2.07972 0
M  V30 10586 H 985.083 5.72979 -0.191686 0
M  V30 10587 H 983.48 5.92393 -0.958686 0
M  V30 10588 H 984.55 4.61424 -1.4905 0
M  V30 10589 N 985.893 0.34162 1.53853 0
M  V30 10590 C 986.84 -0.516058 2.24957 0
M  V30 10591 C 987.81 -1.09711 1.2471 0
M  V30 10592 O 988.995 -1.13409 1.53438 0
M  V30 10593 C 986.135 -1.66207 3.02439 0
M  V30 10594 C 985.248 -1.10851 4.17536 0
M  V30 10595 C 984.383 -2.22167 4.82509 0
M  V30 10596 C 983.422 -1.64152 5.89678 0
M  V30 10597 N 982.559 -2.69203 6.4844 0
M  V30 10598 H 987.399 0.0968275 2.97843 0
M  V30 10599 H 984.936 0.0595565 1.46979 0
M  V30 10600 H 986.894 -2.33672 3.4562 0
M  V30 10601 H 985.524 -2.24597 2.31853 0
M  V30 10602 H 984.576 -0.324853 3.7901 0
M  V30 10603 H 985.888 -0.644151 4.94623 0
M  V30 10604 H 985.042 -2.97501 5.28751 0
M  V30 10605 H 983.781 -2.71946 4.04842 0
M  V30 10606 H 982.786 -0.873228 5.42821 0
M  V30 10607 H 984.011 -1.15228 6.69253 0
M  V30 10608 H 981.957 -3.1824 5.73637 0
M  V30 10609 H 981.874 -2.27383 7.20994 0
M  V30 10610 H 983.142 -3.44312 6.99335 0
M  V30 10611 N 987.371 -1.57444 0.0701946 0
M  V30 10612 C 988.648 -1.84826 -0.6402 0
M  V30 10613 C 989.028 -0.962344 -1.87889 0
M  V30 10614 O 988.376 -0.0282209 -2.28483 0
M  V30 10615 C 988.586 -3.34976 -0.979382 0
M  V30 10616 C 989.934 -4.02448 -1.35355 0
M  V30 10617 O 990.958 -3.39713 -1.07116 0
M  V30 10618 O 989.817 -5.13096 -1.88136 0
M  V30 10619 H 986.911 -0.763494 -0.317813 0
M  V30 10620 H 989.457 -1.69399 0.101004 0
M  V30 10621 H 988.229 -3.91173 -0.0995576 0
M  V30 10622 H 987.852 -3.5566 -1.7774 0
M  V30 10623 N 988.849 0.203349 -1.56283 0
M  V30 10624 C 990.096 0.92501 -1.80138 0
M  V30 10625 C 990.424 1.83598 -0.64204 0
M  V30 10626 O 989.679 1.92119 0.372658 0
M  V30 10627 C 989.978 1.78016 -3.09912 0
M  V30 10628 C 989.644 1.02088 -4.39191 0
M  V30 10629 C 988.306 0.811208 -4.74313 0
M  V30 10630 C 990.658 0.486037 -5.18929 0
M  V30 10631 C 987.986 0.0550856 -5.86674 0
M  V30 10632 C 990.338 -0.256833 -6.32078 0
M  V30 10633 C 989.002 -0.477594 -6.65789 0
M  V30 10634 H 988.272 0.338485 -0.659173 0
M  V30 10635 H 990.919 0.191923 -1.90536 0
M  V30 10636 H 989.224 2.58167 -2.94715 0
M  V30 10637 H 990.921 2.341 -3.25574 0
M  V30 10638 H 987.511 1.1943 -4.11624 0
M  V30 10639 H 991.695 0.635446 -4.92215 0
M  V30 10640 H 986.951 -0.126006 -6.1127 0
M  V30 10641 H 991.125 -0.678683 -6.93085 0
M  V30 10642 H 988.752 -1.0654 -7.52697 0
M  V30 10643 N 990.327 1.50405 0.470755 0
M  V30 10644 C 991.237 1.7208 1.59454 0
M  V30 10645 C 992.253 0.603932 1.63183 0
M  V30 10646 O 993.429 0.882296 1.81046 0
M  V30 10647 C 990.494 1.81057 2.95667 0
M  V30 10648 C 989.555 3.04792 3.02324 0
M  V30 10649 C 988.788 3.13332 4.3204 0
M  V30 10650 O 989.011 2.28655 5.22564 0
M  V30 10651 O 987.945 4.0606 4.44296 0
M  V30 10652 H 991.771 2.67343 1.44089 0
M  V30 10653 H 989.356 1.34505 0.650286 0
M  V30 10654 H 991.238 1.8914 3.76569 0
M  V30 10655 H 989.913 0.889782 3.11231 0
M  V30 10656 H 988.82 3.0221 2.205 0
M  V30 10657 H 990.153 3.96451 2.91698 0
M  V30 10658 N 991.805 -0.723954 1.39988 0
M  V30 10659 C 993.052 -1.48371 1.37812 0
M  V30 10660 C 993.38 -1.94487 -0.0223285 0
M  V30 10661 O 992.635 -1.67906 -1.00529 0
M  V30 10662 C 992.934 -2.73004 2.30659 0
M  V30 10663 C 992.6 -2.45698 3.78078 0
M  V30 10664 C 991.262 -2.37961 4.18244 0
M  V30 10665 C 993.614 -2.22601 4.71273 0
M  V30 10666 C 990.942 -2.05183 5.49652 0
M  V30 10667 C 993.294 -1.91339 6.0297 0
M  V30 10668 C 991.958 -1.82078 6.42187 0
M  V30 10669 H 991.228 -0.542929 0.504291 0
M  V30 10670 H 993.875 -0.829986 1.72579 0
M  V30 10671 H 992.18 -3.43174 1.89048 0
M  V30 10672 H 993.877 -3.31068 2.26263 0
M  V30 10673 H 990.467 -2.52603 3.46251 0
M  V30 10674 H 994.651 -2.2754 4.41066 0
M  V30 10675 H 989.907 -1.96544 5.78948 0
M  V30 10676 H 994.081 -1.72479 6.74703 0
M  V30 10677 H 991.708 -1.56446 7.43928 0
M  V30 10678 N 993.283 -1.25346 -0.955304 0
M  V30 10679 C 994.213 -1.08152 -2.06943 0
M  V30 10680 C 995.194 0.00922598 -1.70097 0
M  V30 10681 O 996.379 -0.160181 -1.93538 0
M  V30 10682 C 993.509 -0.698745 -3.40198 0
M  V30 10683 C 992.463 -1.73965 -3.9105 0
M  V30 10684 C 991.789 -1.21158 -5.20792 0
M  V30 10685 C 993.089 -3.13829 -4.17503 0
M  V30 10686 H 994.783 -2.01345 -2.21586 0
M  V30 10687 H 992.329 -0.969459 -1.06478 0
M  V30 10688 H 994.282 -0.565394 -4.1759 0
M  V30 10689 H 993.006 0.268892 -3.25491 0
M  V30 10690 H 991.665 -1.86143 -3.15827 0
M  V30 10691 H 991.313 -0.234193 -5.02455 0
M  V30 10692 H 991.013 -1.90728 -5.55785 0
M  V30 10693 H 992.537 -1.09061 -6.00781 0
M  V30 10694 H 993.951 -3.04809 -4.85556 0
M  V30 10695 H 992.348 -3.80863 -4.63749 0
M  V30 10696 H 993.418 -3.6094 -3.23806 0
M  V30 10697 N 994.761 1.15782 -1.06922 0
M  V30 10698 C 995.691 2.22538 -0.707045 0
M  V30 10699 C 996.672 1.67371 0.303471 0
M  V30 10700 O 997.857 1.9339 0.177189 0
M  V30 10701 C 994.987 3.47158 -0.0994269 0
M  V30 10702 C 993.941 4.15257 -1.03661 0
M  V30 10703 C 993.267 5.33902 -0.291974 0
M  V30 10704 C 994.567 4.65516 -2.36837 0
M  V30 10705 H 996.261 2.53089 -1.59958 0
M  V30 10706 H 993.807 1.21649 -0.770552 0
M  V30 10707 H 995.76 4.21073 0.165852 0
M  V30 10708 H 994.484 3.15926 0.828155 0
M  V30 10709 H 993.143 3.43276 -1.28674 0
M  V30 10710 H 992.791 4.98926 0.638928 0
M  V30 10711 H 992.491 5.80407 -0.916613 0
M  V30 10712 H 994.015 6.1059 -0.0343915 0
M  V30 10713 H 995.429 5.30981 -2.16175 0
M  V30 10714 H 993.826 5.22666 -2.94856 0
M  V30 10715 H 994.896 3.81387 -2.99453 0
M  V30 10716 N 996.239 0.8527 1.3254 0
M  V30 10717 C 997.65 0.510012 1.79599 0
M  V30 10718 C 998.001 -0.972002 1.70431 0
M  V30 10719 O 997.126 -1.7581 1.26173 0
M  V30 10720 C 997.721 0.918986 3.26098 0
M  V30 10721 C 996.28 0.628227 3.7112 0
M  V30 10722 C 995.427 1.11979 2.53685 0
M  V30 10723 H 998.378 1.04009 1.19866 0
M  V30 10724 H 998.399 0.234577 3.79776 0
M  V30 10725 H 997.911 1.99765 3.32739 0
M  V30 10726 H 996.012 -0.4398 3.69995 0
M  V30 10727 H 996.125 1.19315 4.64005 0
M  V30 10728 H 994.489 0.540133 2.48907 0
M  V30 10729 H 995.272 2.20552 2.63081 0
M  V30 10730 N 997.718 -1.45297 0.610449 0
M  V30 10731 C 998.943 -2.07101 0.111414 0
M  V30 10732 C 999.368 -1.45161 -1.19625 0
M  V30 10733 O 998.726 -0.545368 -1.72903 0
M  V30 10734 C 998.774 -3.60598 -0.0117372 0
M  V30 10735 O 997.878 -3.98512 -1.06122 0
M  V30 10736 H 997.219 -0.659709 0.075364 0
M  V30 10737 H 999.749 -1.86504 0.841269 0
M  V30 10738 H 999.759 -4.07464 -0.209028 0
M  V30 10739 H 998.434 -4.05067 0.943076 0
M  V30 10740 H 997.011 -3.63312 -0.840158 0
M  V30 10741 N 999.196 -0.349774 -1.5367 0
M  V30 10742 C 1000.42 0.248692 -2.05904 0
M  V30 10743 C 1000.85 1.42942 -1.22267 0
M  V30 10744 O 1000.2 1.79732 -0.237899 0
M  V30 10745 C 1000.25 0.635639 -3.54953 0
M  V30 10746 O 999.356 1.7349 -3.74132 0
M  V30 10747 H 998.697 0.0399477 -0.662797 0
M  V30 10748 H 1001.23 -0.505795 -1.9825 0
M  V30 10749 H 1001.24 0.911064 -3.97698 0
M  V30 10750 H 999.912 -0.227805 -4.15276 0
M  V30 10751 H 998.489 1.45626 -3.43289 0
M  V30 10752 N 1000.67 1.57404 -0.0785433 0
M  V30 10753 C 1001.92 1.93744 0.589024 0
M  V30 10754 C 1002.25 0.959087 1.69209 0
M  V30 10755 O 1001.5 -0.0241604 1.95685 0
M  V30 10756 C 1001.8 3.36684 1.1991 0
M  V30 10757 C 1001.47 4.50356 0.221493 0
M  V30 10758 C 1000.13 4.81177 -0.0474347 0
M  V30 10759 C 1002.48 5.1928 -0.446941 0
M  V30 10760 C 999.811 5.78257 -0.99177 0
M  V30 10761 C 1002.16 6.17372 -1.37964 0
M  V30 10762 C 1000.83 6.46607 -1.65697 0
M  V30 10763 H 1000.1 0.70896 0.215539 0
M  V30 10764 H 1002.74 1.90905 -0.150856 0
M  V30 10765 H 1001.05 3.36022 2.01486 0
M  V30 10766 H 1002.75 3.62095 1.72303 0
M  V30 10767 H 999.336 4.26322 0.441284 0
M  V30 10768 H 1003.52 4.95658 -0.252298 0
M  V30 10769 H 998.776 5.9923 -1.21381 0
M  V30 10770 H 1002.95 6.6988 -1.9035 0
M  V30 10771 H 1000.58 7.21643 -2.39031 0
M  V30 10772 N 1002.15 -0.195058 1.56388 0
M  V30 10773 C 1003.06 -1.26219 1.97752 0
M  V30 10774 C 1004.08 -1.49801 0.885192 0
M  V30 10775 O 1005.25 -1.62415 1.19094 0
M  V30 10776 C 1002.32 -2.5865 2.3087 0
M  V30 10777 C 1001.38 -2.4314 3.5381 0
M  V30 10778 C 1000.61 -3.69255 3.85339 0
M  V30 10779 O 1000.84 -4.73425 3.18159 0
M  V30 10780 O 999.77 -3.64782 4.78767 0
M  V30 10781 H 1003.6 -0.941161 2.88749 0
M  V30 10782 H 1001.18 -0.40006 1.43944 0
M  V30 10783 H 1003.06 -3.36814 2.53247 0
M  V30 10784 H 1001.74 -2.9038 1.43042 0
M  V30 10785 H 1000.64 -1.63086 3.3668 0
M  V30 10786 H 1001.98 -2.16341 4.42105 0
M  V30 10787 N 1003.63 -1.50653 -0.462772 0
M  V30 10788 C 1004.85 -1.66103 -1.24196 0
M  V30 10789 C 1005.28 -0.347421 -1.84864 0
M  V30 10790 O 1004.64 0.689673 -1.6767 0
M  V30 10791 C 1004.69 -2.76027 -2.32037 0
M  V30 10792 O 1003.79 -2.37859 -3.36893 0
M  V30 10793 H 1003.13 -0.554672 -0.365014 0
M  V30 10794 H 1005.66 -1.97076 -0.549734 0
M  V30 10795 H 1005.67 -2.99354 -2.77221 0
M  V30 10796 H 1004.35 -3.71361 -1.87253 0
M  V30 10797 H 1002.92 -2.2501 -2.97363 0
M  V30 10798 N 1005.11 0.71652 -1.4037 0
M  V30 10799 C 1006.02 1.86074 -1.42876 0
M  V30 10800 C 1007.03 1.71005 -0.321475 0
M  V30 10801 O 1008.21 1.93286 -0.565909 0
M  V30 10802 C 1005.28 3.21862 -1.28863 0
M  V30 10803 C 1004.34 3.49193 -2.49726 0
M  V30 10804 C 1003.57 4.78502 -2.36372 0
M  V30 10805 O 1003.79 5.53529 -1.37703 0
M  V30 10806 O 1002.73 5.06147 -3.25728 0
M  V30 10807 H 1006.55 1.86916 -2.39366 0
M  V30 10808 H 1004.14 0.866818 -1.21683 0
M  V30 10809 H 1006.02 4.02972 -1.23253 0
M  V30 10810 H 1004.69 3.2175 -0.354783 0
M  V30 10811 H 1003.6 2.68095 -2.60913 0
M  V30 10812 H 1004.93 3.54101 -3.41868 0
M  V30 10813 N 1006.59 1.25851 0.948643 0
M  V30 10814 C 1007.83 1.10735 1.69062 0
M  V30 10815 C 1008.16 -0.351257 1.9181 0
M  V30 10816 O 1007.43 -1.24867 1.50947 0
M  V30 10817 H 1006.01 0.406796 0.626519 0
M  V30 10818 H 1008.67 1.58066 1.14022 0
M  V30 10819 H 1007.76 1.62033 2.66743 0
M  V30 10820 N 1008.06 -1.15214 1.07534 0
M  V30 10821 C 1009.01 -2.18022 0.667108 0
M  V30 10822 C 1010 -1.57911 -0.308714 0
M  V30 10823 O 1011.19 -1.76578 -0.122147 0
M  V30 10824 C 1008.32 -3.43232 0.0684348 0
M  V30 10825 C 1007.41 -4.10393 1.06951 0
M  V30 10826 N 1007.8 -4.53013 2.24973 0
M  V30 10827 C 1006.09 -4.36758 0.903262 0
M  V30 10828 C 1006.8 -5.05118 2.88498 0
M  V30 10829 N 1005.77 -4.98777 2.16153 0
M  V30 10830 H 1009.57 -2.48706 1.56597 0
M  V30 10831 H 1007.09 -1.31801 0.948796 0
M  V30 10832 H 1009.08 -4.16197 -0.241934 0
M  V30 10833 H 1007.74 -3.14031 -0.825525 0
M  V30 10834 H 1008.76 -4.4634 2.6268 0
M  V30 10835 H 1005.43 -4.17453 0.0623543 0
M  V30 10836 H 1006.82 -5.48039 3.8872 0
M  V30 10837 N 1009.54 -0.859717 -1.32086 0
M  V30 10838 C 1010.79 -0.466271 -1.97367 0
M  V30 10839 C 1011.12 0.976728 -1.6785 0
M  V30 10840 O 1010.4 1.68618 -0.969449 0
M  V30 10841 C 1010.68 -0.711851 -3.52994 0
M  V30 10842 C 1010.53 -2.20364 -3.92122 0
M  V30 10843 C 1011.85 -0.17156 -4.39765 0
M  V30 10844 H 1008.97 -0.170883 -0.716916 0
M  V30 10845 H 1011.61 -1.07907 -1.56384 0
M  V30 10846 H 1009.76 -0.190258 -3.88034 0
M  V30 10847 H 1011.43 -2.7917 -3.67236 0
M  V30 10848 H 1009.68 -2.68019 -3.41099 0
M  V30 10849 H 1010.35 -2.32615 -5.00594 0
M  V30 10850 H 1012.82 -0.617665 -4.1149 0
M  V30 10851 H 1011.7 -0.372921 -5.47632 0
M  V30 10852 H 1011.96 0.925959 -4.32294 0
M  V30 10853 N 1011.02 1.44971 -0.618145 0
M  V30 10854 C 1012.27 2.02159 -0.117482 0
M  V30 10855 C 1012.6 1.48517 1.2559 0
M  V30 10856 O 1011.85 0.654192 1.84442 0
M  V30 10857 C 1012.15 3.57378 -0.0394861 0
M  V30 10858 C 1011.82 4.30218 -1.34993 0
M  V30 10859 C 1010.48 4.49835 -1.70886 0
M  V30 10860 C 1012.83 4.71768 -2.21551 0
M  V30 10861 C 1010.16 5.08258 -2.9307 0
M  V30 10862 C 1012.51 5.31543 -3.42993 0
M  V30 10863 C 1011.17 5.49381 -3.79126 0
M  V30 10864 H 1010.44 0.739752 -0.0429897 0
M  V30 10865 H 1013.09 1.73903 -0.801871 0
M  V30 10866 H 1011.4 3.84973 0.728217 0
M  V30 10867 H 1013.09 3.99343 0.364213 0
M  V30 10868 H 1009.68 4.15271 -1.06057 0
M  V30 10869 H 1013.87 4.56336 -1.95117 0
M  V30 10870 H 1009.12 5.20257 -3.21158 0
M  V30 10871 H 1013.3 5.62691 -4.10308 0
M  V30 10872 H 1010.92 5.94419 -4.73888 0
M  V30 10873 N 1012.5 0.357919 1.53482 0
M  V30 10874 C 1013.75 -0.235241 2.00324 0
M  V30 10875 C 1014.06 -1.50494 1.24944 0
M  V30 10876 O 1015.27 -2.17623 1.62335 0
M  V30 10877 C 1013.72 -0.469748 3.56821 0
M  V30 10878 C 1013.33 0.784877 4.41071 0
M  V30 10879 C 1015.07 -1.02098 4.12039 0
M  V30 10880 C 1012.98 0.520377 5.89106 0
M  V30 10881 H 1011.91 -0.0916816 0.748405 0
M  V30 10882 H 1014.56 0.475474 1.77233 0
M  V30 10883 H 1012.94 -1.24153 3.76035 0
M  V30 10884 H 1014.12 1.55886 4.33631 0
M  V30 10885 H 1012.43 1.25878 3.96918 0
M  V30 10886 H 1015.03 -1.23406 5.20264 0
M  V30 10887 H 1015.37 -1.98084 3.66154 0
M  V30 10888 H 1015.91 -0.309554 3.96594 0
M  V30 10889 H 1012.65 1.45035 6.39254 0
M  V30 10890 H 1012.17 -0.215254 5.99414 0
M  V30 10891 H 1013.84 0.143006 6.46842 0
M  V30 10892 N 1013.98 -1.5736 0.0868897 0
M  V30 10893 C 1014.94 -2.12436 -0.860439 0
M  V30 10894 C 1015.94 -1.05175 -1.21634 0
M  V30 10895 O 1017.13 -1.31098 -1.14713 0
M  V30 10896 C 1014.26 -2.63818 -2.159 0
M  V30 10897 H 1015.45 -2.97453 -0.382346 0
M  V30 10898 H 1013.01 -1.55458 -0.162009 0
M  V30 10899 H 1013.74 -1.82298 -2.68212 0
M  V30 10900 H 1013.53 -3.42234 -1.91359 0
M  V30 10901 H 1015.02 -3.06452 -2.83685 0
M  V30 10902 N 1015.45 0.186762 -1.56489 0
M  V30 10903 C 1016.87 0.750675 -1.70944 0
M  V30 10904 C 1017.22 1.83483 -0.694858 0
M  V30 10905 O 1016.34 2.159 0.147009 0
M  V30 10906 C 1016.94 1.36843 -3.09934 0
M  V30 10907 C 1015.5 1.87934 -3.26125 0
M  V30 10908 C 1014.64 0.75242 -2.66897 0
M  V30 10909 H 1017.59 -0.0384292 -1.58653 0
M  V30 10910 H 1017.61 2.23795 -3.07727 0
M  V30 10911 H 1017.13 0.579135 -3.83755 0
M  V30 10912 H 1015.23 2.69556 -2.57235 0
M  V30 10913 H 1015.34 2.0354 -4.33715 0
M  V30 10914 H 1013.7 1.16888 -2.26295 0
M  V30 10915 H 1014.49 -0.0247769 -3.43291 0
M  V30 10916 N 1016.93 1.50896 0.454776 0
M  V30 10917 C 1018.35 1.38684 0.78987 0
M  V30 10918 C 1018.55 0.455587 1.96282 0
M  V30 10919 O 1017.6 -0.0957503 2.52318 0
M  V30 10920 C 1018.92 2.80381 1.08661 0
M  V30 10921 C 1020.47 2.8941 1.19209 0
M  V30 10922 C 1020.94 4.31976 1.52187 0
M  V30 10923 N 1022.43 4.35002 1.59146 0
M  V30 10924 C 1023.17 5.42326 1.862 0
M  V30 10925 N 1022.66 6.59835 2.11164 0
M  V30 10926 N 1024.46 5.29786 1.87838 0
M  V30 10927 H 1016.61 2.10006 -0.317981 0
M  V30 10928 H 1018.87 0.944636 -0.0797969 0
M  V30 10929 H 1018.58 3.50438 0.297626 0
M  V30 10930 H 1018.45 3.18634 2.01872 0
M  V30 10931 H 1020.84 2.19561 1.97173 0
M  V30 10932 H 1020.92 2.54677 0.239401 0
M  V30 10933 H 1020.56 5.02368 0.747576 0
M  V30 10934 H 1020.49 4.64208 2.48633 0
M  V30 10935 H 1022.98 3.50276 1.41828 0
M  V30 10936 H 1023.3 7.37428 2.31128 0
M  V30 10937 H 1021.64 6.62981 2.08522 0
M  V30 10938 H 1024.83 4.36974 1.67843 0
M  V30 10939 H 1025 6.13511 2.08585 0
M  V30 10940 N 1018.41 -0.709066 1.40748 0
M  V30 10941 C 1019.32 -1.85314 1.43861 0
M  V30 10942 C 1020.34 -1.70832 0.330539 0
M  V30 10943 O 1021.51 -1.92983 0.576152 0
M  V30 10944 C 1018.58 -3.21174 1.30568 0
M  V30 10945 C 1017.64 -3.47863 2.51574 0
M  V30 10946 C 1016.87 -4.77241 2.38906 0
M  V30 10947 O 1017.09 -5.52791 1.40636 0
M  V30 10948 O 1016.03 -5.04413 3.28407 0
M  V30 10949 H 1019.85 -1.85644 2.40354 0
M  V30 10950 H 1017.44 -0.860352 1.2214 0
M  V30 10951 H 1019.32 -4.02313 1.25388 0
M  V30 10952 H 1018 -3.21557 0.371841 0
M  V30 10953 H 1016.9 -2.66708 2.62331 0
M  V30 10954 H 1018.24 -3.52283 3.43741 0
M  V30 10955 N 1019.89 -1.26353 -0.941956 0
M  V30 10956 C 1021.12 -1.1446 -1.71996 0
M  V30 10957 C 1021.53 0.302957 -1.86759 0
M  V30 10958 O 1020.87 1.2193 -1.374 0
M  V30 10959 C 1020.93 -1.73986 -3.14593 0
M  V30 10960 C 1020.6 -3.23078 -3.23217 0
M  V30 10961 C 1021.59 -4.19905 -3.06554 0
M  V30 10962 C 1019.28 -3.63526 -3.46632 0
M  V30 10963 C 1021.27 -5.55159 -3.13172 0
M  V30 10964 C 1018.96 -4.98914 -3.52886 0
M  V30 10965 C 1019.96 -5.9454 -3.36172 0
M  V30 10966 O 1019.65 -7.27462 -3.42132 0
M  V30 10967 H 1019.38 -0.399453 -0.545356 0
M  V30 10968 H 1021.93 -1.67455 -1.18945 0
M  V30 10969 H 1020.16 -1.15453 -3.69063 0
M  V30 10970 H 1021.85 -1.57011 -3.74302 0
M  V30 10971 H 1022.62 -3.89995 -2.88321 0
M  V30 10972 H 1018.5 -2.8958 -3.58698 0
M  V30 10973 H 1022.04 -6.29777 -3.00044 0
M  V30 10974 H 1017.94 -5.28485 -3.70639 0
M  V30 10975 H 1018.7 -7.35725 -3.5868 0
M  V30 10976 N 1021.37 1.14642 -1.08144 0
M  V30 10977 C 1022.61 1.87277 -0.818953 0
M  V30 10978 C 1022.97 1.80896 0.643482 0
M  V30 10979 O 1024.17 2.4864 1.02135 0
M  V30 10980 C 1022.44 3.32006 -1.32314 0
M  V30 10981 S 1024 4.22284 -1.19256 0
M  V30 10982 H 1020.82 0.646204 -0.29655 0
M  V30 10983 H 1023.42 1.38261 -1.38217 0
M  V30 10984 H 1022.13 3.34197 -2.38203 0
M  V30 10985 H 1021.66 3.86078 -0.75548 0
M  V30 10986 H 1023.67 4.96016 -0.135143 0
M  V30 10987 N 1022.85 0.866709 1.31628 0
M  V30 10988 C 1023.79 0.318169 2.28596 0
M  V30 10989 C 1024.76 -0.581558 1.55586 0
M  V30 10990 O 1025.95 -0.513895 1.83749 0
M  V30 10991 C 1023.09 -0.477137 3.41786 0
M  V30 10992 C 1022.2 0.449739 4.29653 0
M  V30 10993 C 1021.34 -0.359373 5.29983 0
M  V30 10994 C 1020.37 0.564138 6.09495 0
M  V30 10995 N 1019.51 -0.208526 7.0179 0
M  V30 10996 H 1024.35 1.15029 2.74904 0
M  V30 10997 H 1021.89 0.578649 1.35241 0
M  V30 10998 H 1023.85 -0.953985 4.06146 0
M  V30 10999 H 1022.48 -1.27398 2.96597 0
M  V30 11000 H 1021.53 1.04502 3.65764 0
M  V30 11001 H 1022.84 1.158 4.85172 0
M  V30 11002 H 1021.99 -0.89887 6.00004 0
M  V30 11003 H 1020.73 -1.10094 4.75111 0
M  V30 11004 H 1019.74 1.11542 5.38366 0
M  V30 11005 H 1020.96 1.30451 6.66453 0
M  V30 11006 H 1018.91 -0.932969 6.49332 0
M  V30 11007 H 1018.83 0.440463 7.54716 0
M  V30 11008 H 1020.09 -0.72936 7.7608 0
M  V30 11009 N 1024.32 -1.44642 0.625825 0
M  V30 11010 C 1025.6 -1.9551 0.0593587 0
M  V30 11011 C 1025.98 -1.56792 -1.41349 0
M  V30 11012 O 1025.33 -0.839373 -2.12525 0
M  V30 11013 C 1025.54 -3.47902 0.276647 0
M  V30 11014 C 1026.89 -4.24271 0.167044 0
M  V30 11015 O 1027.91 -3.55594 0.207731 0
M  V30 11016 O 1026.77 -5.46458 0.0675 0
M  V30 11017 H 1023.86 -0.826612 -0.0253422 0
M  V30 11018 H 1026.41 -1.54718 0.697159 0
M  V30 11019 H 1025.18 -3.69115 1.29885 0
M  V30 11020 H 1024.8 -3.95628 -0.395547 0
M  V30 11021 N 1025.8 -0.366053 -1.5329 0
M  V30 11022 C 1026.73 0.47211 -2.28677 0
M  V30 11023 C 1027.71 1.08353 -1.31125 0
M  V30 11024 O 1028.9 1.10069 -1.59995 0
M  V30 11025 C 1026.03 1.61174 -3.07637 0
M  V30 11026 C 1024.98 1.12755 -4.12881 0
M  V30 11027 C 1024.31 2.35745 -4.79925 0
M  V30 11028 C 1025.61 0.211954 -5.2187 0
M  V30 11029 H 1027.3 -0.156838 -2.98989 0
M  V30 11030 H 1024.85 -0.0768709 -1.43795 0
M  V30 11031 H 1026.8 2.20473 -3.59123 0
M  V30 11032 H 1025.52 2.26793 -2.35016 0
M  V30 11033 H 1024.18 0.557234 -3.6234 0
M  V30 11034 H 1023.83 2.99821 -4.03877 0
M  V30 11035 H 1023.53 2.04019 -5.51044 0
M  V30 11036 H 1025.06 2.95729 -5.34207 0
M  V30 11037 H 1026.47 0.71244 -5.68856 0
M  V30 11038 H 1024.87 -0.0144501 -6.00098 0
M  V30 11039 H 1025.94 -0.745753 -4.79131 0
M  V30 11040 N 1027.28 1.57312 -0.0952337 0
M  V30 11041 C 1028.23 2.15263 0.881167 0
M  V30 11042 C 1029.22 1.09552 1.29208 0
M  V30 11043 O 1030.43 1.27897 1.26659 0
M  V30 11044 H 1026.8 0.688611 0.302191 0
M  V30 11045 H 1028.77 2.96126 0.367694 0
M  V30 11046 C 1027.52 2.74779 2.13053 0
M  V30 11047 H 1026.85 3.55807 1.82323 0
M  V30 11048 H 1028.29 3.18895 2.79431 0
M  V30 11049 C 1026.74 1.7068 2.90465 0
M  V30 11050 O 1027.27 1.14582 3.85011 0
M  V30 11051 N 1025.48 1.41169 2.54007 0
M  V30 11052 H 1025.03 1.86977 1.77193 0
M  V30 11053 H 1024.99 0.717559 3.06102 0
M  V30 11054 N 1028.76 -0.17846 1.56586 0
M  V30 11055 C 1029.72 -1.20479 1.94981 0
M  V30 11056 C 1030.72 -1.37561 0.832677 0
M  V30 11057 O 1031.91 -1.35089 1.09984 0
M  V30 11058 C 1029.04 -2.57117 2.23839 0
M  V30 11059 H 1030.24 -0.876173 2.86816 0
M  V30 11060 H 1027.79 -0.420635 1.50534 0
M  V30 11061 H 1028.52 -2.95005 1.34695 0
M  V30 11062 H 1028.31 -2.46086 3.05261 0
M  V30 11063 H 1029.8 -3.31096 2.5449 0
M  V30 11064 N 1030.24 -1.51135 -0.446768 0
M  V30 11065 C 1031.46 -1.67411 -1.22427 0
M  V30 11066 C 1031.89 -0.367009 -1.84485 0
M  V30 11067 O 1031.24 0.67185 -1.68392 0
M  V30 11068 C 1031.29 -2.78473 -2.29096 0
M  V30 11069 O 1030.4 -2.41419 -3.34351 0
M  V30 11070 H 1029.74 -0.558512 -0.359111 0
M  V30 11071 H 1032.27 -1.97648 -0.5288 0
M  V30 11072 H 1032.28 -3.02277 -2.7403 0
M  V30 11073 H 1030.95 -3.73326 -1.83304 0
M  V30 11074 H 1029.53 -2.28152 -2.9496 0
M  V30 11075 N 1031.71 0.701592 -1.41122 0
M  V30 11076 C 1032.99 1.45569 -1.30648 0
M  V30 11077 C 1033.37 2.10988 0.068744 0
M  V30 11078 O 1032.72 2.01228 1.08257 0
M  V30 11079 C 1032.93 2.48003 -2.45551 0
M  V30 11080 C 1034.28 3.13431 -2.86437 0
M  V30 11081 O 1035.3 2.58327 -2.45247 0
M  V30 11082 O 1034.16 4.13221 -3.57646 0
M  V30 11083 H 1031.25 0.648 -0.513834 0
M  V30 11084 H 1033.8 0.73258 -1.53073 0
M  V30 11085 H 1032.57 1.98276 -3.37346 0
M  V30 11086 H 1032.19 3.27832 -2.24971 0
M  V30 11087 N 1033.19 1.2685 0.935242 0
M  V30 11088 C 1034.14 1.08746 2.05614 0
M  V30 11089 C 1035.13 0.012681 1.69395 0
M  V30 11090 O 1036.34 0.169822 1.79197 0
M  V30 11091 H 1032.71 0.33485 0.673335 0
M  V30 11092 H 1034.69 2.03725 2.18033 0
M  V30 11093 C 1033.43 0.74346 3.39659 0
M  V30 11094 H 1032.76 1.56236 3.68008 0
M  V30 11095 H 1034.2 0.656607 4.18885 0
M  V30 11096 C 1032.66 -0.551751 3.32351 0
M  V30 11097 O 1033.19 -1.58836 3.68963 0
M  V30 11098 N 1031.39 -0.544583 2.85452 0
M  V30 11099 H 1030.94 0.29939 2.55854 0
M  V30 11100 H 1030.9 -1.41129 2.80945 0
M  V30 11101 N 1034.67 -1.14067 1.0875 0
M  V30 11102 C 1035.62 -2.21332 0.715195 0
M  V30 11103 C 1036.61 -1.67059 -0.280679 0
M  V30 11104 O 1037.82 -1.79432 -0.142874 0
M  V30 11105 H 1034.19 -0.721126 0.213264 0
M  V30 11106 H 1036.16 -2.50002 1.62916 0
M  V30 11107 C 1034.91 -3.474 0.144401 0
M  V30 11108 H 1034.24 -3.89495 0.901884 0
M  V30 11109 H 1035.68 -4.23928 -0.0782564 0
M  V30 11110 C 1034.14 -3.17787 -1.11862 0
M  V30 11111 O 1034.67 -3.35906 -2.20295 0
M  V30 11112 N 1032.87 -2.71719 -1.03039 0
M  V30 11113 H 1032.42 -2.57175 -0.14793 0
M  V30 11114 H 1032.38 -2.52281 -1.87621 0
M  V30 11115 N 1036.15 -0.873678 -1.31166 0
M  V30 11116 C 1037.38 -0.501043 -2.00742 0
M  V30 11117 C 1037.79 0.907477 -1.65561 0
M  V30 11118 O 1037.15 1.59507 -0.886771 0
M  V30 11119 C 1037.2 -0.652877 -3.55556 0
M  V30 11120 O 1036.92 -2.00593 -3.89479 0
M  V30 11121 C 1038.42 -0.281742 -4.42404 0
M  V30 11122 H 1035.64 -0.194829 -0.642092 0
M  V30 11123 H 1038.19 -1.17587 -1.67313 0
M  V30 11124 H 1036.34 -0.0255627 -3.87392 0
M  V30 11125 H 1036.75 -2.01638 -4.84193 0
M  V30 11126 H 1038.23 -0.43892 -5.50252 0
M  V30 11127 H 1038.71 0.779389 -4.32229 0
M  V30 11128 H 1039.31 -0.88491 -4.15992 0
M  V30 11129 N 1037.63 1.44308 -0.633487 0
M  V30 11130 C 1038.54 2.34492 0.0711787 0
M  V30 11131 C 1039.55 1.52754 0.8332 0
M  V30 11132 O 1040.73 1.85475 0.784929 0
M  V30 11133 C 1037.79 3.30767 1.03895 0
M  V30 11134 C 1036.85 4.28412 0.276043 0
M  V30 11135 C 1036.09 5.20087 1.19772 0
M  V30 11136 O 1036.31 5.15743 2.4365 0
M  V30 11137 O 1035.24 5.98038 0.680764 0
M  V30 11138 H 1039.07 2.96203 -0.67063 0
M  V30 11139 H 1036.66 1.4412 -0.393678 0
M  V30 11140 H 1038.54 3.90021 1.59566 0
M  V30 11141 H 1037.21 2.71586 1.76133 0
M  V30 11142 H 1036.12 3.72696 -0.32377 0
M  V30 11143 H 1037.45 4.9052 -0.406364 0
M  V30 11144 N 1039.1 0.374177 1.53094 0
M  V30 11145 C 1040.35 -0.212816 2.01379 0
M  V30 11146 C 1040.68 -1.48069 1.26118 0
M  V30 11147 O 1039.93 -1.92625 0.345561 0
M  V30 11148 C 1040.23 -0.542179 3.53264 0
M  V30 11149 C 1039.9 0.632375 4.46444 0
M  V30 11150 C 1038.56 0.954635 4.71636 0
M  V30 11151 C 1040.91 1.41887 5.01515 0
M  V30 11152 C 1038.24 2.06521 5.4915 0
M  V30 11153 C 1040.59 2.51993 5.80243 0
M  V30 11154 C 1039.26 2.84744 6.03719 0
M  V30 11155 H 1038.53 -0.0778749 0.736897 0
M  V30 11156 H 1041.17 0.508412 1.84628 0
M  V30 11157 H 1039.48 -1.34454 3.68007 0
M  V30 11158 H 1041.18 -1.00874 3.88105 0
M  V30 11159 H 1037.77 0.371179 4.2699 0
M  V30 11160 H 1041.95 1.18315 4.81991 0
M  V30 11161 H 1037.21 2.32284 5.65557 0
M  V30 11162 H 1041.38 3.13346 6.21922 0
M  V30 11163 H 1039.01 3.70921 6.63568 0
M  V30 11164 N 1040.58 -1.57259 0.103575 0
M  V30 11165 C 1041.51 -2.17509 -0.84923 0
M  V30 11166 C 1042.49 -1.11079 -1.28824 0
M  V30 11167 O 1043.68 -1.39252 -1.35361 0
M  V30 11168 C 1040.81 -2.76221 -2.10522 0
M  V30 11169 C 1039.76 -3.88098 -1.80454 0
M  V30 11170 C 1039.09 -4.33549 -3.12952 0
M  V30 11171 C 1040.39 -5.10909 -1.08486 0
M  V30 11172 H 1042.08 -2.9738 -0.347217 0
M  V30 11173 H 1039.63 -1.43045 -0.165568 0
M  V30 11174 H 1041.58 -3.17024 -2.77621 0
M  V30 11175 H 1040.31 -1.93617 -2.63021 0
M  V30 11176 H 1038.96 -3.47847 -1.15749 0
M  V30 11177 H 1038.61 -3.47825 -3.63355 0
M  V30 11178 H 1038.31 -5.08984 -2.93614 0
M  V30 11179 H 1039.84 -4.76992 -3.81196 0
M  V30 11180 H 1041.25 -5.48828 -1.65711 0
M  V30 11181 H 1039.65 -5.91828 -0.992973 0
M  V30 11182 H 1040.72 -4.84851 -0.0690108 0
M  V30 11183 N 1042.06 0.170153 -1.56679 0
M  V30 11184 C 1043.01 1.21064 -1.965 0
M  V30 11185 C 1043.98 1.43928 -0.829092 0
M  V30 11186 O 1045.16 1.56649 -1.08931 0
M  V30 11187 C 1042.3 2.54468 -2.33109 0
M  V30 11188 C 1041.42 2.38974 -3.59883 0
M  V30 11189 C 1040.55 3.65252 -3.857 0
M  V30 11190 C 1039.59 3.44696 -5.05817 0
M  V30 11191 N 1038.73 4.63047 -5.27761 0
M  V30 11192 H 1043.57 0.864055 -2.85198 0
M  V30 11193 H 1041.1 0.415243 -1.41117 0
M  V30 11194 H 1043.06 3.32222 -2.52358 0
M  V30 11195 H 1041.69 2.8712 -1.4752 0
M  V30 11196 H 1040.74 1.5239 -3.48542 0
M  V30 11197 H 1042.06 2.19731 -4.47794 0
M  V30 11198 H 1041.21 4.51441 -4.05322 0
M  V30 11199 H 1039.95 3.87475 -2.96166 0
M  V30 11200 H 1038.95 2.56893 -4.86092 0
M  V30 11201 H 1040.18 3.23894 -5.96883 0
M  V30 11202 H 1038.12 4.85487 -4.41179 0
M  V30 11203 H 1038.04 4.46722 -6.09898 0
M  V30 11204 H 1039.31 5.50516 -5.51863 0
M  V30 11205 N 1043.54 1.5137 0.438746 0
M  V30 11206 C 1044.49 1.73154 1.55308 0
M  V30 11207 C 1045.48 0.597825 1.58501 0
M  V30 11208 O 1046.69 0.77917 1.62262 0
M  V30 11209 H 1043.06 0.547083 0.51595 0
M  V30 11210 H 1045.03 2.66566 1.34108 0
M  V30 11211 C 1043.78 1.87242 2.92977 0
M  V30 11212 H 1043.1 2.73884 2.91252 0
M  V30 11213 H 1044.54 2.06497 3.70317 0
M  V30 11214 C 1043 0.631887 3.30921 0
M  V30 11215 O 1043.53 -0.214099 4.01129 0
M  V30 11216 N 1041.74 0.47639 2.86669 0
M  V30 11217 H 1041.29 1.16589 2.29706 0
M  V30 11218 H 1041.24 -0.352403 3.12419 0
M  V30 11219 N 1045.02 -0.694098 1.41492 0
M  V30 11220 C 1046.26 -1.45415 1.40929 0
M  V30 11221 C 1046.59 -1.94491 0.0189301 0
M  V30 11222 O 1045.85 -1.7 -0.96945 0
M  V30 11223 C 1046.15 -2.6805 2.36398 0
M  V30 11224 C 1045.81 -2.37623 3.83205 0
M  V30 11225 C 1044.47 -2.29035 4.23198 0
M  V30 11226 C 1046.83 -2.12555 4.75888 0
M  V30 11227 C 1044.15 -1.93478 5.5388 0
M  V30 11228 C 1046.51 -1.78506 6.06892 0
M  V30 11229 C 1045.17 -1.68415 6.45905 0
M  V30 11230 H 1044.44 -0.53211 0.515694 0
M  V30 11231 H 1047.09 -0.793193 1.74301 0
M  V30 11232 H 1045.39 -3.39086 1.96285 0
M  V30 11233 H 1047.09 -3.26194 2.33234 0
M  V30 11234 H 1043.68 -2.45202 3.51531 0
M  V30 11235 H 1047.86 -2.18133 4.45793 0
M  V30 11236 H 1043.12 -1.84219 5.82986 0
M  V30 11237 H 1047.29 -1.58128 6.7821 0
M  V30 11238 H 1044.92 -1.40631 7.47079 0
M  V30 11239 N 1046.49 -1.27344 -0.928501 0
M  V30 11240 C 1047.74 -1.13019 -1.67061 0
M  V30 11241 C 1048.06 0.323614 -1.92904 0
M  V30 11242 O 1049.26 0.587752 -2.65062 0
M  V30 11243 C 1047.72 -1.97471 -3.00887 0
M  V30 11244 C 1047.33 -3.47504 -2.82746 0
M  V30 11245 C 1049.07 -1.91792 -3.78703 0
M  V30 11246 C 1046.98 -4.24158 -4.12122 0
M  V30 11247 H 1045.91 -0.419364 -0.626618 0
M  V30 11248 H 1048.56 -1.51759 -1.03158 0
M  V30 11249 H 1046.94 -1.51576 -3.65843 0
M  V30 11250 H 1048.11 -4.01256 -2.26562 0
M  V30 11251 H 1046.43 -3.54554 -2.18359 0
M  V30 11252 H 1049.03 -2.46339 -4.74575 0
M  V30 11253 H 1049.37 -0.891375 -4.06645 0
M  V30 11254 H 1049.9 -2.35578 -3.20543 0
M  V30 11255 H 1046.64 -5.27333 -3.89359 0
M  V30 11256 H 1046.16 -3.75183 -4.67972 0
M  V30 11257 H 1047.84 -4.33288 -4.80489 0
M  V30 11258 N 1047.97 1.13488 -1.09353 0
M  V30 11259 C 1048.88 2.2248 -0.744307 0
M  V30 11260 C 1049.9 1.72145 0.253404 0
M  V30 11261 O 1051.07 2.01176 0.0949339 0
M  V30 11262 C 1048.14 3.46286 -0.16928 0
M  V30 11263 C 1047.2 4.11516 -1.22284 0
M  V30 11264 C 1046.43 5.29412 -0.675161 0
M  V30 11265 O 1046.66 5.68185 0.502182 0
M  V30 11266 O 1045.59 5.8467 -1.42983 0
M  V30 11267 H 1049.42 2.54723 -1.65378 0
M  V30 11268 H 1047 1.21607 -0.867879 0
M  V30 11269 H 1048.88 4.2114 0.14811 0
M  V30 11270 H 1047.56 3.15745 0.713214 0
M  V30 11271 H 1046.47 3.38492 -1.59292 0
M  V30 11272 H 1047.8 4.46186 -2.07796 0
M  V30 11273 N 1049.45 0.880621 1.30701 0
M  V30 11274 C 1050.38 0.360251 2.30704 0
M  V30 11275 C 1051.36 -0.554572 1.60806 0
M  V30 11276 O 1052.55 -0.469345 1.88443 0
M  V30 11277 C 1049.68 -0.429888 3.44629 0
M  V30 11278 C 1048.63 0.392786 4.26194 0
M  V30 11279 C 1047.96 -0.52369 5.32129 0
M  V30 11280 C 1049.26 1.63258 4.96129 0
M  V30 11281 H 1050.95 1.19591 2.74478 0
M  V30 11282 H 1048.5 0.576508 1.31956 0
M  V30 11283 H 1050.45 -0.804532 4.13649 0
M  V30 11284 H 1049.17 -1.29916 2.99649 0
M  V30 11285 H 1047.83 0.749514 3.58856 0
M  V30 11286 H 1047.48 -1.39054 4.83397 0
M  V30 11287 H 1047.18 0.0229272 5.87596 0
M  V30 11288 H 1048.71 -0.894946 6.04006 0
M  V30 11289 H 1050.12 1.32877 5.57689 0
M  V30 11290 H 1048.52 2.11906 5.61441 0
M  V30 11291 H 1049.59 2.37944 4.22505 0
M  V30 11292 N 1050.93 -1.4397 0.641131 0
M  V30 11293 C 1051.86 -2.27948 -0.10731 0
M  V30 11294 C 1052.84 -1.39124 -0.841615 0
M  V30 11295 O 1054.02 -1.68566 -0.843662 0
M  V30 11296 C 1051.15 -3.18277 -1.15835 0
M  V30 11297 C 1050.2 -4.23276 -0.52345 0
M  V30 11298 S 1051.03 -5.30984 0.693969 0
M  V30 11299 C 1052.19 -6.24882 -0.356831 0
M  V30 11300 H 1052.42 -2.91077 0.605083 0
M  V30 11301 H 1049.95 -1.48303 0.429598 0
M  V30 11302 H 1051.91 -3.70867 -1.75977 0
M  V30 11303 H 1050.57 -2.54348 -1.84299 0
M  V30 11304 H 1049.76 -4.86533 -1.31536 0
M  V30 11305 H 1049.37 -3.74 0.00358355 0
M  V30 11306 H 1051.66 -6.66305 -1.22653 0
M  V30 11307 H 1052.6 -7.07692 0.240412 0
M  V30 11308 H 1053.01 -5.60301 -0.687217 0
M  V30 11309 N 1052.41 -0.382291 -1.52893 0
M  V30 11310 C 1053.32 0.463745 -2.29971 0
M  V30 11311 C 1054.33 1.07777 -1.36602 0
M  V30 11312 O 1055.51 1.0851 -1.69669 0
M  V30 11313 C 1052.57 1.57938 -3.08637 0
M  V30 11314 C 1051.64 0.991182 -4.17701 0
M  V30 11315 C 1050.87 2.05365 -4.92606 0
M  V30 11316 O 1051.09 3.26757 -4.67532 0
M  V30 11317 O 1050.03 1.67487 -5.78128 0
M  V30 11318 H 1053.85 -0.163962 -3.03257 0
M  V30 11319 H 1051.44 -0.146199 -1.48683 0
M  V30 11320 H 1053.32 2.22765 -3.57706 0
M  V30 11321 H 1051.99 2.19218 -2.3817 0
M  V30 11322 H 1050.9 0.306364 -3.72843 0
M  V30 11323 H 1052.23 0.422699 -4.90382 0
M  V30 11324 N 1053.89 1.57202 -0.111913 0
M  V30 11325 C 1054.83 2.14936 0.840908 0
M  V30 11326 C 1055.8 1.07242 1.2684 0
M  V30 11327 O 1056.99 1.35114 1.34718 0
M  V30 11328 C 1054.13 2.74743 2.0883 0
M  V30 11329 C 1053.24 3.96723 1.70982 0
M  V30 11330 C 1052.38 4.4464 2.90634 0
M  V30 11331 C 1051.41 5.59169 2.48992 0
M  V30 11332 N 1050.55 6.01862 3.61534 0
M  V30 11333 H 1055.39 2.96034 0.341735 0
M  V30 11334 H 1052.93 1.4626 0.156993 0
M  V30 11335 H 1054.89 3.07546 2.81907 0
M  V30 11336 H 1053.52 1.96346 2.56218 0
M  V30 11337 H 1052.57 3.70127 0.878072 0
M  V30 11338 H 1053.88 4.79795 1.36373 0
M  V30 11339 H 1053.03 4.79315 3.71944 0
M  V30 11340 H 1051.77 3.60503 3.28464 0
M  V30 11341 H 1050.78 5.24106 1.66113 0
M  V30 11342 H 1052 6.45067 2.12287 0
M  V30 11343 H 1049.95 5.20667 3.99051 0
M  V30 11344 H 1049.87 6.79772 3.30827 0
M  V30 11345 H 1051.13 6.41172 4.43305 0
M  V30 11346 N 1055.36 -0.161842 1.56767 0
M  V30 11347 C 1056.61 -0.878224 1.82798 0
M  V30 11348 C 1056.94 -1.81481 0.691242 0
M  V30 11349 O 1056.22 -1.92075 -0.30618 0
M  V30 11350 C 1056.5 -1.66565 3.19262 0
M  V30 11351 C 1056.35 -0.751551 4.43477 0
M  V30 11352 C 1057.67 -2.63134 3.52773 0
M  V30 11353 H 1054.79 -0.317828 0.664947 0
M  V30 11354 H 1057.43 -0.14402 1.89453 0
M  V30 11355 H 1055.58 -2.29157 3.13719 0
M  V30 11356 H 1057.26 -0.137783 4.61094 0
M  V30 11357 H 1055.5 -0.0601785 4.33758 0
M  V30 11358 H 1056.17 -1.33823 5.35533 0
M  V30 11359 H 1058.65 -2.10666 3.5883 0
M  V30 11360 H 1057.52 -3.15289 4.49315 0
M  V30 11361 H 1057.78 -3.43786 2.77963 0
M  V30 11362 N 1056.84 -1.516 -0.430713 0
M  V30 11363 C 1058.07 -1.68414 -1.20185 0
M  V30 11364 C 1058.48 -0.384297 -1.84847 0
M  V30 11365 O 1057.84 0.637808 -1.70992 0
M  V30 11366 C 1057.89 -2.80451 -2.28099 0
M  V30 11367 O 1057.61 -4.05399 -1.66081 0
M  V30 11368 C 1059.11 -3.0859 -3.18256 0
M  V30 11369 H 1056.33 -0.564982 -0.361989 0
M  V30 11370 H 1058.88 -1.9805 -0.50954 0
M  V30 11371 H 1057.03 -2.53395 -2.93036 0
M  V30 11372 H 1057.45 -4.67671 -2.37453 0
M  V30 11373 H 1058.92 -3.9055 -3.90096 0
M  V30 11374 H 1059.4 -2.21264 -3.79393 0
M  V30 11375 H 1060 -3.37331 -2.59014 0
M  V30 11376 N 1058.32 0.686584 -1.41858 0
M  V30 11377 C 1059.73 1.26682 -1.37145 0
M  V30 11378 C 1060.08 1.96112 -0.058922 0
M  V30 11379 O 1059.21 1.99321 0.842629 0
M  V30 11380 C 1059.8 2.30383 -2.48413 0
M  V30 11381 C 1058.36 2.83961 -2.47069 0
M  V30 11382 C 1057.51 1.58119 -2.27802 0
M  V30 11383 H 1060.46 0.480742 -1.51243 0
M  V30 11384 H 1060.48 3.11868 -2.17987 0
M  V30 11385 H 1059.99 1.79822 -3.43927 0
M  V30 11386 H 1058.09 3.38675 -1.55338 0
M  V30 11387 H 1058.21 3.3378 -3.43697 0
M  V30 11388 H 1056.57 1.84258 -1.75844 0
M  V30 11389 H 1057.35 1.09541 -3.25355 0
M  V30 11390 N 1059.8 1.27835 0.921735 0
M  V30 11391 C 1061.07 1.05238 1.64877 0
M  V30 11392 C 1061.45 -0.410921 2.07062 0
M  V30 11393 O 1060.8 -1.39538 1.80946 0
M  V30 11394 C 1061.01 2.01955 2.84632 0
M  V30 11395 C 1062.36 2.31657 3.55837 0
M  V30 11396 O 1063.38 1.99975 2.94768 0
M  V30 11397 O 1062.24 2.85692 4.65878 0
M  V30 11398 H 1059.34 0.401622 0.72293 0
M  V30 11399 H 1061.88 1.39123 0.971744 0
M  V30 11400 H 1060.66 3.00614 2.50494 0
M  V30 11401 H 1060.28 1.68667 3.60052 0
M  V30 11402 N 1061.28 -1.12907 1.09954 0
M  V30 11403 C 1062.5 -1.88679 0.861099 0
M  V30 11404 C 1062.93 -1.78853 -0.582499 0
M  V30 11405 O 1062.28 -1.13992 -1.4098 0
M  V30 11406 C 1062.33 -3.36047 1.30785 0
M  V30 11407 O 1061.44 -4.09716 0.469728 0
M  V30 11408 H 1060.78 -0.586447 0.31141 0
M  V30 11409 H 1063.31 -1.42818 1.46507 0
M  V30 11410 H 1063.32 -3.86882 1.29562 0
M  V30 11411 H 1061.99 -3.42516 2.35914 0
M  V30 11412 H 1060.57 -3.6887 0.54674 0
M  V30 11413 N 1062.75 -0.88754 -1.30232 0
M  V30 11414 C 1063.7 -0.354497 -2.28061 0
M  V30 11415 C 1064.67 0.556732 -1.56492 0
M  V30 11416 O 1065.86 0.484597 -1.84543 0
M  V30 11417 C 1063 0.422701 -3.42501 0
M  V30 11418 C 1062.11 -0.518036 -4.28883 0
M  V30 11419 C 1061.24 0.275011 -5.30488 0
M  V30 11420 C 1060.28 -0.661032 -6.0852 0
M  V30 11421 N 1059.42 0.0968509 -7.02033 0
M  V30 11422 H 1064.26 -1.19388 -2.73039 0
M  V30 11423 H 1061.8 -0.600091 -1.34303 0
M  V30 11424 H 1063.75 0.889249 -4.07613 0
M  V30 11425 H 1062.38 1.22664 -2.98586 0
M  V30 11426 H 1061.44 -1.10308 -3.64055 0
M  V30 11427 H 1062.75 -1.23504 -4.83268 0
M  V30 11428 H 1061.9 0.803301 -6.01358 0
M  V30 11429 H 1060.64 1.02522 -4.76802 0
M  V30 11430 H 1059.65 -1.20093 -5.36524 0
M  V30 11431 H 1060.87 -1.41037 -6.64293 0
M  V30 11432 H 1058.82 0.829548 -6.50734 0
M  V30 11433 H 1058.73 -0.560476 -7.5392 0
M  V30 11434 H 1060 0.6058 -7.77142 0
M  V30 11435 N 1064.23 1.43628 -0.648757 0
M  V30 11436 C 1065.16 2.29045 0.0841858 0
M  V30 11437 C 1066.18 1.42262 0.791537 0
M  V30 11438 O 1067.37 1.66243 0.650039 0
M  V30 11439 C 1064.47 3.19075 1.14212 0
M  V30 11440 C 1063.64 4.34372 0.513799 0
M  V30 11441 C 1062.7 5.05307 1.46803 0
M  V30 11442 O 1061.72 5.60729 0.978346 0
M  V30 11443 N 1062.93 5.08393 2.80209 0
M  V30 11444 H 1065.69 2.9259 -0.648948 0
M  V30 11445 H 1063.25 1.54268 -0.491209 0
M  V30 11446 H 1065.24 3.63395 1.78119 0
M  V30 11447 H 1063.81 2.57161 1.77728 0
M  V30 11448 H 1063.03 3.93024 -0.304262 0
M  V30 11449 H 1064.32 5.08745 0.0749871 0
M  V30 11450 H 1063.72 4.64729 3.22557 0
M  V30 11451 H 1062.28 5.56445 3.3943 0
M  V30 11452 N 1065.71 0.390394 1.52688 0
M  V30 11453 C 1066.95 -0.191207 2.03504 0
M  V30 11454 C 1067.31 -1.43952 1.27051 0
M  V30 11455 O 1068.52 -2.09835 1.67996 0
M  V30 11456 C 1066.79 -0.451552 3.54536 0
M  V30 11457 S 1068.35 -1.00328 4.27176 0
M  V30 11458 H 1065.16 -0.0537587 0.708965 0
M  V30 11459 H 1067.77 0.538993 1.87923 0
M  V30 11460 H 1066.47 0.464061 4.07768 0
M  V30 11461 H 1066 -1.21015 3.74325 0
M  V30 11462 H 1068.02 -2.28555 4.40428 0
M  V30 11463 N 1067.19 -1.57141 0.120249 0
M  V30 11464 C 1068.14 -2.16638 -0.846809 0
M  V30 11465 C 1069.13 -1.11594 -1.27449 0
M  V30 11466 O 1070.34 -1.29895 -1.24608 0
M  V30 11467 H 1066.71 -0.693331 -0.291197 0
M  V30 11468 H 1068.68 -2.96673 -0.320536 0
M  V30 11469 C 1067.43 -2.78134 -2.08655 0
M  V30 11470 H 1066.75 -3.58662 -1.76639 0
M  V30 11471 H 1068.19 -3.23301 -2.74322 0
M  V30 11472 C 1066.65 -1.7528 -2.87713 0
M  V30 11473 O 1067.18 -1.20693 -3.8314 0
M  V30 11474 N 1065.39 -1.45192 -2.51729 0
M  V30 11475 H 1064.94 -1.89773 -1.74195 0
M  V30 11476 H 1064.89 -0.766166 -3.04922 0
M  V30 11477 N 1068.67 0.153526 -1.5685 0
M  V30 11478 C 1069.61 1.20896 -1.98713 0
M  V30 11479 C 1070.61 1.44839 -0.878529 0
M  V30 11480 O 1071.81 1.45208 -1.0637 0
M  V30 11481 H 1068.19 0.406797 -0.632472 0
M  V30 11482 H 1070.16 0.829145 -2.86649 0
M  V30 11483 C 1068.91 2.53642 -2.37825 0
M  V30 11484 H 1068.23 2.36047 -3.22679 0
M  V30 11485 H 1069.67 3.26136 -2.70946 0
M  V30 11486 C 1068.13 3.13706 -1.22841 0
M  V30 11487 O 1068.66 3.98246 -0.525626 0
M  V30 11488 N 1066.87 2.73059 -0.99435 0
M  V30 11489 H 1066.41 2.0441 -1.56761 0
M  V30 11490 H 1066.37 3.1358 -0.226883 0
M  V30 11491 N 1070.14 1.51827 0.422667 0
M  V30 11492 C 1071.39 1.6522 1.17084 0
M  V30 11493 C 1071.72 0.375508 1.90841 0
M  V30 11494 O 1070.97 -0.641029 1.84903 0
M  V30 11495 C 1071.27 2.81572 2.20119 0
M  V30 11496 C 1070.94 4.20303 1.63268 0
M  V30 11497 C 1069.6 4.5804 1.47488 0
M  V30 11498 C 1071.95 5.06812 1.21618 0
M  V30 11499 C 1069.28 5.79979 0.885531 0
M  V30 11500 C 1071.63 6.29343 0.641071 0
M  V30 11501 C 1070.3 6.65841 0.470286 0
M  V30 11502 H 1069.57 0.604581 0.428442 0
M  V30 11503 H 1072.21 1.85896 0.459874 0
M  V30 11504 H 1070.52 2.55175 2.97309 0
M  V30 11505 H 1072.22 2.89132 2.77856 0
M  V30 11506 H 1068.81 3.90557 1.76531 0
M  V30 11507 H 1072.99 4.78251 1.32624 0
M  V30 11508 H 1068.25 6.06892 0.741105 0
M  V30 11509 H 1072.42 6.9571 0.309888 0
M  V30 11510 H 1070.05 7.60199 0.0115038 0
M  V30 11511 N 1071.62 -0.679052 1.4222 0
M  V30 11512 C 1072.55 -1.80481 1.48152 0
M  V30 11513 C 1073.53 -1.66698 0.338502 0
M  V30 11514 O 1074.72 -1.86183 0.552228 0
M  V30 11515 C 1071.85 -3.18746 1.37908 0
M  V30 11516 C 1070.8 -3.47258 2.50192 0
M  V30 11517 C 1070.13 -4.85052 2.25008 0
M  V30 11518 C 1071.43 -3.44576 3.92511 0
M  V30 11519 H 1073.12 -1.75774 2.42371 0
M  V30 11520 H 1070.67 -0.844241 1.16656 0
M  V30 11521 H 1072.62 -3.97229 1.40666 0
M  V30 11522 H 1071.35 -3.24119 0.401806 0
M  V30 11523 H 1070 -2.71133 2.46744 0
M  V30 11524 H 1069.65 -4.8707 1.25584 0
M  V30 11525 H 1069.35 -5.05092 3.00259 0
M  V30 11526 H 1070.88 -5.65825 2.29508 0
M  V30 11527 H 1072.29 -4.13036 3.97585 0
M  V30 11528 H 1070.69 -3.76151 4.67579 0
M  V30 11529 H 1071.76 -2.4323 4.19484 0
M  V30 11530 N 1073.1 -1.28322 -0.914942 0
M  V30 11531 C 1074.03 -1.14681 -2.03398 0
M  V30 11532 C 1075.01 -0.0448939 -1.70041 0
M  V30 11533 O 1076.2 -0.221672 -1.92931 0
M  V30 11534 C 1073.33 -0.806623 -3.37803 0
M  V30 11535 C 1072.28 -1.86318 -3.85318 0
M  V30 11536 C 1071.61 -1.37665 -5.16674 0
M  V30 11537 C 1072.91 -3.26953 -4.07307 0
M  V30 11538 H 1074.6 -2.08293 -2.15068 0
M  V30 11539 H 1072.15 -1.00284 -1.03339 0
M  V30 11540 H 1074.1 -0.69796 -4.1558 0
M  V30 11541 H 1072.82 0.165203 -3.26182 0
M  V30 11542 H 1071.48 -1.96096 -3.09745 0
M  V30 11543 H 1071.13 -0.393927 -5.01455 0
M  V30 11544 H 1070.83 -2.08313 -5.49435 0
M  V30 11545 H 1072.35 -1.28119 -5.97007 0
M  V30 11546 H 1073.77 -3.20102 -4.75613 0
M  V30 11547 H 1072.17 -3.95424 -4.51398 0
M  V30 11548 H 1073.24 -3.71059 -3.12159 0
M  V30 11549 N 1074.58 1.12322 -1.10551 0
M  V30 11550 C 1075.53 2.16177 -0.724679 0
M  V30 11551 C 1076.51 1.58674 0.266739 0
M  V30 11552 O 1077.7 1.7684 0.0752872 0
M  V30 11553 C 1074.83 3.4293 -0.159413 0
M  V30 11554 C 1073.92 4.07413 -1.17794 0
M  V30 11555 N 1074.31 4.46889 -2.36905 0
M  V30 11556 C 1072.61 4.34209 -1.01874 0
M  V30 11557 C 1073.31 4.97291 -3.01789 0
M  V30 11558 N 1072.29 4.92871 -2.29302 0
M  V30 11559 H 1076.09 2.44466 -1.63136 0
M  V30 11560 H 1073.6 1.2924 -0.983407 0
M  V30 11561 H 1075.6 4.16693 0.131502 0
M  V30 11562 H 1074.26 3.16109 0.741975 0
M  V30 11563 H 1075.27 4.39219 -2.74422 0
M  V30 11564 H 1071.95 4.17141 -0.173013 0
M  V30 11565 H 1073.34 5.3754 -4.03114 0
M  V30 11566 N 1076.06 0.894434 1.2976 0
M  V30 11567 C 1077 0.357958 2.29829 0
M  V30 11568 C 1078 -0.540093 1.6056 0
M  V30 11569 O 1079.2 -0.423478 1.74948 0
M  V30 11570 H 1075.58 0.0971183 0.745702 0
M  V30 11571 H 1077.55 1.21542 2.72526 0
M  V30 11572 C 1076.3 -0.404126 3.45343 0
M  V30 11573 H 1075.62 0.277671 3.98835 0
M  V30 11574 H 1077.06 -0.744446 4.17413 0
M  V30 11575 C 1075.52 -1.6048 2.96222 0
M  V30 11576 O 1076.05 -2.70414 2.97051 0
M  V30 11577 N 1074.26 -1.44517 2.52117 0
M  V30 11578 H 1073.8 -0.55082 2.51642 0
M  V30 11579 H 1073.76 -2.24987 2.1961 0
M  V30 11580 N 1077.53 -1.43282 0.656365 0
M  V30 11581 C 1078.46 -2.33492 -0.0196962 0
M  V30 11582 C 1079.45 -1.49647 -0.80868 0
M  V30 11583 O 1080.63 -1.78303 -0.769529 0
M  V30 11584 C 1077.76 -3.33052 -0.984574 0
M  V30 11585 C 1076.71 -4.26908 -0.305483 0
M  V30 11586 C 1076.04 -5.16531 -1.38202 0
M  V30 11587 C 1077.34 -5.16073 0.804081 0
M  V30 11588 H 1079.03 -2.90272 0.733661 0
M  V30 11589 H 1076.58 -1.39574 0.354259 0
M  V30 11590 H 1078.53 -3.9506 -1.46647 0
M  V30 11591 H 1077.26 -2.74535 -1.76913 0
M  V30 11592 H 1075.92 -3.66268 0.155995 0
M  V30 11593 H 1075.56 -4.54351 -2.1581 0
M  V30 11594 H 1075.26 -5.80148 -0.932878 0
M  V30 11595 H 1076.79 -5.81414 -1.86522 0
M  V30 11596 H 1078.2 -5.71873 0.404212 0
M  V30 11597 H 1076.6 -5.88427 1.17789 0
M  V30 11598 H 1077.67 -4.55574 1.66073 0
M  V30 11599 N 1079.01 -0.398486 -1.52479 0
M  V30 11600 C 1080.26 0.182046 -2.00877 0
M  V30 11601 C 1080.58 1.47128 -1.2889 0
M  V30 11602 O 1081.78 2.13242 -1.68048 0
M  V30 11603 C 1080.24 0.374978 -3.57941 0
M  V30 11604 C 1079.85 -0.901544 -4.38835 0
M  V30 11605 C 1081.59 0.911378 -4.14601 0
M  V30 11606 C 1079.5 -0.676385 -5.87519 0
M  V30 11607 H 1078.43 0.0718068 -0.750573 0
M  V30 11608 H 1081.08 -0.522297 -1.7591 0
M  V30 11609 H 1079.46 1.14139 -3.79194 0
M  V30 11610 H 1080.63 -1.67329 -4.29346 0
M  V30 11611 H 1078.95 -1.36357 -3.93441 0
M  V30 11612 H 1081.55 1.09569 -5.23353 0
M  V30 11613 H 1081.89 1.88306 -3.71277 0
M  V30 11614 H 1082.42 0.204296 -3.97275 0
M  V30 11615 H 1079.16 -1.61933 -6.35184 0
M  V30 11616 H 1078.68 0.0562542 -5.99774 0
M  V30 11617 H 1080.36 -0.314454 -6.46235 0
M  V30 11618 N 1080.49 1.57075 -0.12858 0
M  V30 11619 C 1081.42 2.18833 0.814519 0
M  V30 11620 C 1082.4 1.13114 1.2704 0
M  V30 11621 O 1083.59 1.41387 1.33129 0
M  V30 11622 C 1080.72 2.79535 2.06101 0
M  V30 11623 C 1079.67 3.9092 1.74257 0
M  V30 11624 C 1079 4.38473 3.06015 0
M  V30 11625 C 1080.3 5.1257 1.00345 0
M  V30 11626 H 1081.99 2.97895 0.299862 0
M  V30 11627 H 1079.54 1.4329 0.14279 0
M  V30 11628 H 1081.49 3.21401 2.72543 0
M  V30 11629 H 1080.21 1.97777 2.59907 0
M  V30 11630 H 1078.87 3.49645 1.102 0
M  V30 11631 H 1078.52 3.53561 3.57776 0
M  V30 11632 H 1078.22 5.13591 2.85479 0
M  V30 11633 H 1079.75 4.82997 3.7356 0
M  V30 11634 H 1081.16 5.51395 1.56959 0
M  V30 11635 H 1079.56 5.93333 0.898693 0
M  V30 11636 H 1080.63 4.84899 -0.0081335 0
M  V30 11637 N 1081.97 -0.145205 1.5693 0
M  V30 11638 C 1083.25 -0.88631 1.74367 0
M  V30 11639 C 1083.63 -1.99259 0.697081 0
M  V30 11640 O 1082.97 -2.26732 -0.28368 0
M  V30 11641 C 1083.18 -1.42712 3.18488 0
M  V30 11642 C 1084.53 -1.88982 3.80225 0
M  V30 11643 O 1085.56 -1.5245 3.21928 0
M  V30 11644 O 1084.42 -2.56361 4.8264 0
M  V30 11645 H 1081.51 -0.418979 0.713011 0
M  V30 11646 H 1084.06 -0.130991 1.69194 0
M  V30 11647 H 1082.83 -0.632165 3.8616 0
M  V30 11648 H 1082.45 -2.24589 3.28094 0
M  V30 11649 N 1083.45 -1.52049 -0.414609 0
M  V30 11650 C 1084.68 -1.69679 -1.18392 0
M  V30 11651 C 1085.09 -0.403881 -1.84429 0
M  V30 11652 O 1084.45 0.619636 -1.71659 0
M  V30 11653 C 1084.5 -2.82855 -2.25112 0
M  V30 11654 O 1084.22 -4.07138 -1.61772 0
M  V30 11655 C 1085.72 -3.11948 -3.14965 0
M  V30 11656 H 1082.94 -0.56879 -0.355977 0
M  V30 11657 H 1085.48 -1.9858 -0.488505 0
M  V30 11658 H 1083.64 -2.56488 -2.90332 0
M  V30 11659 H 1084.05 -4.70163 -2.32479 0
M  V30 11660 H 1085.53 -3.94665 -3.85932 0
M  V30 11661 H 1086 -2.25276 -3.77024 0
M  V30 11662 H 1086.61 -3.40059 -2.55421 0
M  V30 11663 N 1084.93 0.6715 -1.42579 0
M  V30 11664 C 1086.17 1.42871 -1.42941 0
M  V30 11665 C 1086.49 1.94941 -0.0480483 0
M  V30 11666 O 1085.76 1.73275 0.913921 0
M  V30 11667 H 1084.34 0.530189 -0.526221 0
M  V30 11668 H 1087.01 0.793219 -1.78028 0
M  V30 11669 H 1086.1 2.2801 -2.13114 0
M  V30 11670 N 1086.4 1.28806 0.908124 0
M  V30 11671 C 1087.65 1.15663 1.65242 0
M  V30 11672 C 1087.97 -0.292883 1.93395 0
M  V30 11673 O 1089.17 -0.545509 2.65963 0
M  V30 11674 C 1087.63 2.02233 2.97707 0
M  V30 11675 C 1087.24 3.51958 2.77181 0
M  V30 11676 C 1088.98 1.97792 3.75604 0
M  V30 11677 C 1086.89 4.3066 4.05322 0
M  V30 11678 H 1085.82 0.42928 0.619867 0
M  V30 11679 H 1088.47 1.5338 1.00731 0
M  V30 11680 H 1086.85 1.57377 3.63385 0
M  V30 11681 H 1088.02 4.0481 2.20149 0
M  V30 11682 H 1086.34 3.57983 2.12691 0
M  V30 11683 H 1088.94 2.53858 4.70596 0
M  V30 11684 H 1089.28 0.955956 4.05175 0
M  V30 11685 H 1089.81 2.40648 3.16755 0
M  V30 11686 H 1086.55 5.3346 3.8092 0
M  V30 11687 H 1086.07 3.8258 4.61944 0
M  V30 11688 H 1087.75 4.40878 4.73535 0
M  V30 11689 N 1087.88 -1.11734 1.11145 0
M  V30 11690 C 1089.11 -1.87215 0.880811 0
M  V30 11691 C 1089.52 -1.80016 -0.569195 0
M  V30 11692 O 1088.88 -1.17926 -1.39283 0
M  V30 11693 C 1088.93 -3.36146 1.32998 0
M  V30 11694 O 1088.65 -3.43187 2.72313 0
M  V30 11695 C 1090.15 -4.28542 1.1343 0
M  V30 11696 H 1087.37 -0.592123 0.315645 0
M  V30 11697 H 1089.92 -1.41335 1.478 0
M  V30 11698 H 1088.07 -3.79542 0.776308 0
M  V30 11699 H 1088.49 -4.359 2.91705 0
M  V30 11700 H 1089.96 -5.31295 1.49764 0
M  V30 11701 H 1090.44 -4.39138 0.0735859 0
M  V30 11702 H 1091.04 -3.90935 1.67481 0
M  V30 11703 N 1089.36 -0.901303 -1.29284 0
M  V30 11704 C 1090.29 -0.337552 -2.26701 0
M  V30 11705 C 1091.3 0.517039 -1.54371 0
M  V30 11706 O 1092.49 0.333937 -1.75349 0
M  V30 11707 C 1089.59 0.537214 -3.34615 0
M  V30 11708 C 1088.77 -0.292017 -4.36424 0
M  V30 11709 C 1087.83 0.515837 -5.23666 0
M  V30 11710 O 1086.85 -0.0672303 -5.6916 0
M  V30 11711 N 1088.05 1.82159 -5.51179 0
M  V30 11712 H 1090.82 -1.17484 -2.75713 0
M  V30 11713 H 1088.38 -0.765957 -1.42635 0
M  V30 11714 H 1090.37 1.0841 -3.8991 0
M  V30 11715 H 1088.94 1.2752 -2.85408 0
M  V30 11716 H 1088.16 -1.02031 -3.80767 0
M  V30 11717 H 1089.45 -0.859855 -5.01482 0
M  V30 11718 H 1088.85 2.318 -5.16028 0
M  V30 11719 H 1087.4 2.31556 -6.09282 0
M  V30 11720 N 1090.84 1.42931 -0.663954 0
M  V30 11721 C 1091.77 2.29122 0.0598878 0
M  V30 11722 C 1092.78 1.43094 0.776404 0
M  V30 11723 O 1093.97 1.66923 0.63237 0
M  V30 11724 C 1091.07 3.20268 1.10822 0
M  V30 11725 C 1090.24 4.34892 0.4677 0
M  V30 11726 C 1089.3 5.06836 1.41435 0
M  V30 11727 O 1088.33 5.61735 0.918818 0
M  V30 11728 N 1089.53 5.11336 2.74801 0
M  V30 11729 H 1092.3 2.91885 -0.679945 0
M  V30 11730 H 1089.86 1.53739 -0.507543 0
M  V30 11731 H 1091.85 3.65264 1.74255 0
M  V30 11732 H 1090.42 2.59031 1.7499 0
M  V30 11733 H 1089.64 3.92679 -0.34593 0
M  V30 11734 H 1090.93 5.08796 0.0210237 0
M  V30 11735 H 1090.33 4.68124 3.1761 0
M  V30 11736 H 1088.88 5.60013 3.33509 0
M  V30 11737 N 1092.32 0.406567 1.52266 0
M  V30 11738 C 1093.25 -0.411314 2.29849 0
M  V30 11739 C 1094.23 -1.04838 1.33952 0
M  V30 11740 O 1095.41 -1.05788 1.62857 0
M  V30 11741 C 1092.54 -1.52961 3.11802 0
M  V30 11742 C 1091.5 -1.01768 4.15725 0
M  V30 11743 C 1090.82 -2.22938 4.86007 0
M  V30 11744 C 1092.12 -0.073515 5.22248 0
M  V30 11745 H 1093.82 0.236054 2.98468 0
M  V30 11746 H 1091.36 0.114968 1.4354 0
M  V30 11747 H 1093.31 -2.10874 3.64843 0
M  V30 11748 H 1092.04 -2.20482 2.40947 0
M  V30 11749 H 1090.7 -0.46097 3.6369 0
M  V30 11750 H 1090.35 -2.89007 4.11684 0
M  V30 11751 H 1090.05 -1.89338 5.5626 0
M  V30 11752 H 1091.57 -2.81462 5.41859 0
M  V30 11753 H 1092.98 -0.561367 5.70545 0
M  V30 11754 H 1091.38 0.173551 5.99849 0
M  V30 11755 H 1092.45 0.872524 4.76985 0
M  V30 11756 N 1093.79 -1.57004 0.136909 0
M  V30 11757 C 1095.04 -1.96087 -0.517477 0
M  V30 11758 C 1095.37 -1.0213 -1.65176 0
M  V30 11759 O 1094.65 -0.0617958 -1.94402 0
M  V30 11760 C 1094.93 -3.44958 -1.03323 0
M  V30 11761 C 1094.78 -4.49691 0.0988609 0
M  V30 11762 C 1096.1 -3.96091 -1.91832 0
M  V30 11763 H 1093.22 -0.712978 -0.186632 0
M  V30 11764 H 1095.86 -1.88767 0.216095 0
M  V30 11765 H 1094.01 -3.51327 -1.65836 0
M  V30 11766 H 1095.69 -4.55409 0.734847 0
M  V30 11767 H 1093.93 -4.271 0.75947 0
M  V30 11768 H 1094.6 -5.51165 -0.303554 0
M  V30 11769 H 1097.08 -3.92139 -1.39164 0
M  V30 11770 H 1095.95 -5.00742 -2.24831 0
M  V30 11771 H 1096.21 -3.37846 -2.85153 0
M  V30 11772 N 1095.27 0.136881 -1.57004 0
M  V30 11773 C 1096.18 1.18793 -2.023 0
M  V30 11774 C 1097.2 1.46412 -0.94018 0
M  V30 11775 O 1098.37 1.57883 -1.2504 0
M  V30 11776 C 1095.44 2.49903 -2.40311 0
M  V30 11777 C 1094.5 2.29841 -3.6259 0
M  V30 11778 C 1093.73 3.54699 -3.98779 0
M  V30 11779 O 1093.96 4.61291 -3.3551 0
M  V30 11780 O 1092.89 3.46761 -4.91976 0
M  V30 11781 H 1096.72 0.833345 -2.92043 0
M  V30 11782 H 1094.3 0.346361 -1.4533 0
M  V30 11783 H 1096.18 3.27183 -2.65574 0
M  V30 11784 H 1094.86 2.84872 -1.5372 0
M  V30 11785 H 1093.77 1.50478 -3.42501 0
M  V30 11786 H 1095.1 1.99784 -4.4983 0
M  V30 11787 N 1096.75 1.52266 0.40654 0
M  V30 11788 C 1098.17 1.41127 0.745348 0
M  V30 11789 C 1098.37 0.517802 1.94733 0
M  V30 11790 O 1097.42 -0.0154286 2.52495 0
M  V30 11791 C 1098.74 2.83696 0.996859 0
M  V30 11792 C 1100.28 2.93056 1.09942 0
M  V30 11793 C 1100.76 4.36599 1.38367 0
M  V30 11794 N 1102.25 4.39845 1.45226 0
M  V30 11795 C 1102.98 5.47975 1.68852 0
M  V30 11796 N 1102.48 6.66219 1.90065 0
M  V30 11797 N 1104.27 5.35494 1.70888 0
M  V30 11798 H 1096.42 2.08888 -0.384632 0
M  V30 11799 H 1098.69 0.941619 -0.109809 0
M  V30 11800 H 1098.39 3.51208 0.185986 0
M  V30 11801 H 1098.27 3.24895 1.91632 0
M  V30 11802 H 1100.65 2.25723 1.90088 0
M  V30 11803 H 1100.74 2.5531 0.158256 0
M  V30 11804 H 1100.38 5.04492 0.587373 0
M  V30 11805 H 1100.31 4.71883 2.33739 0
M  V30 11806 H 1102.8 3.54611 1.30612 0
M  V30 11807 H 1103.11 7.44408 2.0755 0
M  V30 11808 H 1101.46 6.69279 1.87325 0
M  V30 11809 H 1104.65 4.42093 1.53856 0
M  V30 11810 H 1104.82 6.19837 1.88962 0
M  V30 11811 N 1098.23 -0.663929 1.42933 0
M  V30 11812 C 1099.47 -1.42603 1.44195 0
M  V30 11813 C 1099.81 -1.94101 0.0620284 0
M  V30 11814 O 1099.08 -1.71609 -0.91546 0
M  V30 11815 C 1099.37 -2.61522 2.47544 0
M  V30 11816 C 1099.22 -2.15587 3.94769 0
M  V30 11817 C 1100.54 -3.6374 2.47753 0
M  V30 11818 H 1097.66 -0.517189 0.525056 0
M  V30 11819 H 1100.3 -0.75361 1.74415 0
M  V30 11820 H 1098.45 -3.1889 2.21904 0
M  V30 11821 H 1100.12 -1.63303 4.31428 0
M  V30 11822 H 1098.36 -1.47057 4.08114 0
M  V30 11823 H 1099.03 -3.01053 4.62678 0
M  V30 11824 H 1101.51 -3.16111 2.70579 0
M  V30 11825 H 1100.39 -4.44512 3.22025 0
M  V30 11826 H 1100.65 -4.15607 1.50742 0
M  V30 11827 N 1099.71 -1.29285 -0.901281 0
M  V30 11828 C 1100.95 -1.18348 -1.65424 0
M  V30 11829 C 1101.31 0.26276 -1.90597 0
M  V30 11830 O 1100.6 1.1868 -1.50418 0
M  V30 11831 C 1100.79 -1.92865 -3.00895 0
M  V30 11832 C 1100.62 -3.44588 -2.88945 0
M  V30 11833 C 1099.39 -4.13938 -2.89799 0
M  V30 11834 C 1101.59 -4.40113 -2.66092 0
M  V30 11835 N 1099.57 -5.52036 -2.68569 0
M  V30 11836 C 1100.94 -5.65661 -2.53827 0
M  V30 11837 C 1103 -4.29895 -2.51187 0
M  V30 11838 C 1101.7 -6.8215 -2.28175 0
M  V30 11839 C 1103.73 -5.46134 -2.26917 0
M  V30 11840 C 1103.09 -6.70653 -2.15416 0
M  V30 11841 H 1099.19 -0.48806 -0.611 0
M  V30 11842 H 1101.77 -1.63094 -1.06341 0
M  V30 11843 H 1099.94 -1.50535 -3.58042 0
M  V30 11844 H 1101.68 -1.74207 -3.65286 0
M  V30 11845 H 1098.43 -3.65625 -3.01023 0
M  V30 11846 H 1098.86 -6.24662 -2.61011 0
M  V30 11847 H 1103.5 -3.34321 -2.58823 0
M  V30 11848 H 1101.22 -7.77781 -2.19277 0
M  V30 11849 H 1104.8 -5.40126 -2.1623 0
M  V30 11850 H 1103.68 -7.5908 -1.96896 0
M  V30 11851 N 1101.18 1.11143 -1.11736 0
M  V30 11852 C 1102.6 1.34962 -0.851905 0
M  V30 11853 C 1102.8 1.94627 0.521797 0
M  V30 11854 O 1101.86 2.18121 1.27198 0
M  V30 11855 C 1103.17 2.27832 -1.96248 0
M  V30 11856 C 1104.72 2.41388 -1.9925 0
M  V30 11857 C 1105.19 3.37582 -3.09519 0
M  V30 11858 N 1106.68 3.45147 -3.08914 0
M  V30 11859 C 1107.42 4.19527 -3.90876 0
M  V30 11860 N 1106.91 4.96858 -4.82809 0
M  V30 11861 N 1108.71 4.15071 -3.79042 0
M  V30 11862 H 1100.86 0.707801 -2.0026 0
M  V30 11863 H 1103.12 0.374172 -0.871033 0
M  V30 11864 H 1102.83 1.91189 -2.95194 0
M  V30 11865 H 1102.7 3.28078 -1.86132 0
M  V30 11866 H 1105.09 2.77304 -1.00928 0
M  V30 11867 H 1105.17 1.40983 -2.13442 0
M  V30 11868 H 1104.81 3.02393 -4.0807 0
M  V30 11869 H 1104.74 4.37849 -2.92568 0
M  V30 11870 H 1107.23 2.89991 -2.42309 0
M  V30 11871 H 1107.55 5.5099 -5.41876 0
M  V30 11872 H 1105.89 4.96008 -4.86828 0
M  V30 11873 H 1109.08 3.53748 -3.06562 0
M  V30 11874 H 1109.26 4.72781 -4.4315 0
M  V30 11875 N 1102.66 0.908147 1.28804 0
M  V30 11876 C 1103.94 0.457561 1.90173 0
M  V30 11877 C 1104.32 -1.06333 1.82364 0
M  V30 11878 O 1103.67 -1.90892 1.25589 0
M  V30 11879 C 1103.88 0.981624 3.34911 0
M  V30 11880 C 1105.23 1.03037 4.11908 0
M  V30 11881 O 1106.25 0.929878 3.43848 0
M  V30 11882 O 1105.11 1.18257 5.33552 0
M  V30 11883 H 1102.2 0.144081 0.814352 0
M  V30 11884 H 1104.75 0.998565 1.37211 0
M  V30 11885 H 1103.52 2.02561 3.34791 0
M  V30 11886 H 1103.14 0.421122 3.95364 0
M  V30 11887 N 1104.14 -1.42577 0.671525 0
M  V30 11888 C 1105.07 -2.2915 -0.0477361 0
M  V30 11889 C 1106.09 -1.43503 -0.768805 0
M  V30 11890 O 1107.27 -1.67256 -0.623509 0
M  V30 11891 C 1104.37 -3.20851 -1.09122 0
M  V30 11892 C 1103.55 -4.35134 -0.44463 0
M  V30 11893 C 1102.61 -5.07579 -1.38745 0
M  V30 11894 O 1101.63 -5.62215 -0.889015 0
M  V30 11895 N 1102.83 -5.12786 -2.72086 0
M  V30 11896 H 1105.6 -2.9152 0.695415 0
M  V30 11897 H 1103.16 -1.53467 0.515689 0
M  V30 11898 H 1105.15 -3.66183 -1.72315 0
M  V30 11899 H 1103.72 -2.59956 -1.73614 0
M  V30 11900 H 1102.94 -3.9249 0.36675 0
M  V30 11901 H 1104.23 -5.088 0.00595927 0
M  V30 11902 H 1103.63 -4.69802 -3.15123 0
M  V30 11903 H 1102.19 -5.61774 -3.30535 0
M  V30 11904 N 1105.62 -0.414636 -1.52048 0
M  V30 11905 C 1106.9 0.218172 -1.94379 0
M  V30 11906 C 1107.28 1.62133 -1.35189 0
M  V30 11907 O 1106.62 2.22271 -0.529877 0
M  V30 11908 C 1106.83 0.218932 -3.48313 0
M  V30 11909 C 1108.18 0.435604 -4.2236 0
M  V30 11910 O 1109.21 0.298049 -3.54951 0
M  V30 11911 O 1108.06 0.707217 -5.41905 0
M  V30 11912 H 1105.16 0.142173 -0.814688 0
M  V30 11913 H 1107.7 -0.470977 -1.63033 0
M  V30 11914 H 1106.48 -0.76292 -3.83791 0
M  V30 11915 H 1106.1 0.951949 -3.86036 0
M  V30 11916 N 1107.1 1.56929 -0.145233 0
M  V30 11917 C 1108.03 2.19685 0.791263 0
M  V30 11918 C 1109.01 1.14455 1.25833 0
M  V30 11919 O 1110.19 1.42791 1.31622 0
M  V30 11920 C 1107.32 2.81705 2.03124 0
M  V30 11921 C 1106.28 3.92746 1.70101 0
M  V30 11922 C 1105.6 4.41694 3.01347 0
M  V30 11923 C 1106.9 5.13606 0.949025 0
M  V30 11924 H 1108.6 2.98196 0.26825 0
M  V30 11925 H 1106.14 1.43434 0.127584 0
M  V30 11926 H 1108.1 3.24273 2.69119 0
M  V30 11927 H 1106.82 2.00523 2.57795 0
M  V30 11928 H 1105.48 3.50794 1.06486 0
M  V30 11929 H 1105.13 3.57336 3.54006 0
M  V30 11930 H 1104.83 5.1659 2.80016 0
M  V30 11931 H 1106.35 4.86931 3.68416 0
M  V30 11932 H 1107.76 5.53029 1.51102 0
M  V30 11933 H 1106.16 5.94252 0.835711 0
M  V30 11934 H 1107.23 4.84863 -0.0595631 0
M  V30 11935 N 1108.58 -0.128553 1.57075 0
M  V30 11936 C 1109.52 -1.17719 2.00611 0
M  V30 11937 C 1110.52 -1.43423 0.90146 0
M  V30 11938 O 1111.72 -1.43498 1.08666 0
M  V30 11939 H 1108.1 -0.396683 0.638864 0
M  V30 11940 H 1110.07 -0.783437 2.87932 0
M  V30 11941 C 1108.82 -2.49826 2.41831 0
M  V30 11942 H 1108.14 -2.30883 3.26394 0
M  V30 11943 H 1109.58 -3.21784 2.761 0
M  V30 11944 C 1108.04 -3.11712 1.27816 0
M  V30 11945 O 1108.57 -3.9736 0.588917 0
M  V30 11946 N 1106.78 -2.71442 1.03767 0
M  V30 11947 H 1106.32 -2.01891 1.59994 0
M  V30 11948 H 1106.28 -3.1318 0.276743 0
M  V30 11949 N 1110.05 -1.5248 -0.398459 0
M  V30 11950 C 1111.28 -1.70925 -1.16586 0
M  V30 11951 C 1111.7 -0.42342 -1.83991 0
M  V30 11952 O 1111.05 0.601395 -1.72306 0
M  V30 11953 C 1111.1 -2.85226 -2.22099 0
M  V30 11954 O 1110.83 -4.08831 -1.57444 0
M  V30 11955 C 1112.33 -3.15272 -3.11639 0
M  V30 11956 H 1109.55 -0.572533 -0.349924 0
M  V30 11957 H 1112.09 -1.99087 -0.467416 0
M  V30 11958 H 1110.25 -2.59553 -2.87595 0
M  V30 11959 H 1110.66 -4.72603 -2.2748 0
M  V30 11960 H 1112.13 -3.98737 -3.81724 0
M  V30 11961 H 1112.61 -2.29262 -3.74614 0
M  V30 11962 H 1113.22 -3.42749 -2.518 0
M  V30 11963 N 1111.53 0.65634 -1.43283 0
M  V30 11964 C 1112.76 1.44199 -1.47954 0
M  V30 11965 C 1113.17 1.88961 -0.0950315 0
M  V30 11966 O 1112.51 1.59895 0.904388 0
M  V30 11967 C 1112.57 2.71161 -2.36033 0
M  V30 11968 C 1112.24 2.48359 -3.83623 0
M  V30 11969 C 1113.24 2.1178 -4.74811 0
M  V30 11970 C 1110.92 2.6278 -4.28079 0
M  V30 11971 C 1112.91 1.89915 -6.0845 0
M  V30 11972 C 1110.6 2.4053 -5.61772 0
M  V30 11973 C 1111.6 2.04154 -6.51775 0
M  V30 11974 O 1111.29 1.82134 -7.82996 0
M  V30 11975 H 1111.02 0.449567 -0.504842 0
M  V30 11976 H 1113.57 0.812234 -1.88658 0
M  V30 11977 H 1111.8 3.36685 -1.9021 0
M  V30 11978 H 1113.49 3.33102 -2.31944 0
M  V30 11979 H 1114.26 2.00217 -4.41744 0
M  V30 11980 H 1110.14 2.9007 -3.58302 0
M  V30 11981 H 1113.68 1.61445 -6.78661 0
M  V30 11982 H 1109.58 2.51695 -5.94407 0
M  V30 11983 H 1110.35 1.96584 -7.94542 0
M  V30 11984 N 1113.01 1.29761 0.894412 0
M  V30 11985 C 1114.23 1.21064 1.68399 0
M  V30 11986 C 1114.66 -0.224608 1.86754 0
M  V30 11987 O 1114.02 -1.16199 1.39167 0
M  V30 11988 C 1114.07 1.93468 3.04306 0
M  V30 11989 O 1113.17 1.25533 3.9283 0
M  V30 11990 H 1112.51 0.419223 0.514925 0
M  V30 11991 H 1115.04 1.71421 1.11696 0
M  V30 11992 H 1115.05 2.02127 3.54413 0
M  V30 11993 H 1113.73 2.97857 2.90265 0
M  V30 11994 H 1112.3 1.25168 3.51266 0
M  V30 11995 N 1114.49 -1.10549 1.12324 0
M  V30 11996 C 1115.42 -2.18911 0.812416 0
M  V30 11997 C 1116.4 -1.68628 -0.22327 0
M  V30 11998 O 1117.58 -1.94015 -0.0847184 0
M  V30 11999 C 1114.71 -3.46288 0.264947 0
M  V30 12000 C 1113.67 -4.09838 1.23356 0
M  V30 12001 C 1112.99 -5.31901 0.546374 0
M  V30 12002 C 1114.29 -4.53686 2.58778 0
M  V30 12003 H 1115.99 -2.45169 1.71851 0
M  V30 12004 H 1113.53 -1.17834 0.827715 0
M  V30 12005 H 1115.49 -4.21385 0.0352364 0
M  V30 12006 H 1114.21 -3.19517 -0.676479 0
M  V30 12007 H 1112.87 -3.36746 1.44906 0
M  V30 12008 H 1112.52 -5.01406 -0.400157 0
M  V30 12009 H 1112.22 -5.75372 1.19249 0
M  V30 12010 H 1113.74 -6.09731 0.325673 0
M  V30 12011 H 1115.16 -5.20063 2.41263 0
M  V30 12012 H 1113.55 -5.08003 3.19457 0
M  V30 12013 H 1114.62 -3.66665 3.17309 0
M  V30 12014 N 1115.97 -0.914965 -1.28321 0
M  V30 12015 C 1116.9 -0.421292 -2.29668 0
M  V30 12016 C 1117.88 0.511743 -1.6222 0
M  V30 12017 O 1119.06 0.419218 -1.89621 0
M  V30 12018 C 1116.19 0.338364 -3.45648 0
M  V30 12019 C 1115.15 -0.505646 -4.25003 0
M  V30 12020 C 1114.47 0.382421 -5.33331 0
M  V30 12021 C 1115.77 -1.76354 -4.91626 0
M  V30 12022 H 1117.47 -1.26826 -2.71211 0
M  V30 12023 H 1115.01 -0.611291 -1.30381 0
M  V30 12024 H 1116.96 0.694578 -4.15636 0
M  V30 12025 H 1115.69 1.21925 -3.02988 0
M  V30 12026 H 1114.35 -0.844395 -3.56743 0
M  V30 12027 H 1114 1.26189 -4.86914 0
M  V30 12028 H 1113.7 -0.17871 -5.87328 0
M  V30 12029 H 1115.22 0.73449 -6.06166 0
M  V30 12030 H 1116.63 -1.47616 -5.5397 0
M  V30 12031 H 1115.03 -2.26717 -5.55625 0
M  V30 12032 H 1116.1 -2.49063 -4.16048 0
M  V30 12033 N 1117.44 1.42219 -0.679077 0
M  V30 12034 C 1118.41 2.29197 -0.0125475 0
M  V30 12035 C 1119.41 1.43544 0.724691 0
M  V30 12036 O 1120.6 1.64884 0.562052 0
M  V30 12037 C 1117.73 3.26122 0.992846 0
M  V30 12038 H 1118.92 2.89629 -0.778154 0
M  V30 12039 H 1116.47 1.4993 -0.44166 0
M  V30 12040 H 1117.21 2.70637 1.78679 0
M  V30 12041 H 1116.99 3.89302 0.467544 0
M  V30 12042 H 1118.48 3.91339 1.45751 0
M  V30 12043 N 1118.92 0.422693 1.51826 0
M  V30 12044 C 1120.17 -0.148861 2.02253 0
M  V30 12045 C 1120.5 -1.43629 1.30707 0
M  V30 12046 O 1119.78 -1.89967 0.417482 0
M  V30 12047 C 1120.06 -0.382672 3.58061 0
M  V30 12048 C 1119.91 0.922386 4.40241 0
M  V30 12049 C 1121.23 -1.1589 4.24567 0
M  V30 12050 H 1118.35 -0.0526279 0.735119 0
M  V30 12051 H 1120.99 0.558821 1.81596 0
M  V30 12052 H 1119.14 -0.985495 3.75793 0
M  V30 12053 H 1120.81 1.55806 4.34191 0
M  V30 12054 H 1119.06 1.53032 4.05911 0
M  V30 12055 H 1119.73 0.713012 5.47376 0
M  V30 12056 H 1122.2 -0.648415 4.11017 0
M  V30 12057 H 1121.08 -1.29125 5.33496 0
M  V30 12058 H 1121.34 -2.18315 3.84436 0
M  V30 12059 N 1120.4 -1.5685 0.153553 0
M  V30 12060 C 1121.65 -1.96334 -0.495915 0
M  V30 12061 C 1121.97 -1.03873 -1.64441 0
M  V30 12062 O 1121.23 -0.069231 -1.95578 0
M  V30 12063 C 1121.53 -3.42022 -1.0371 0
M  V30 12064 C 1121.19 -4.509 -0.00637049 0
M  V30 12065 C 1119.86 -4.80402 0.276956 0
M  V30 12066 C 1122.21 -5.16556 0.694187 0
M  V30 12067 C 1119.54 -5.72866 1.26653 0
M  V30 12068 C 1121.89 -6.10087 1.67263 0
M  V30 12069 C 1120.55 -6.37965 1.96359 0
M  V30 12070 H 1119.82 -0.718436 -0.181468 0
M  V30 12071 H 1122.47 -1.89968 0.241768 0
M  V30 12072 H 1120.77 -3.45252 -1.85225 0
M  V30 12073 H 1122.47 -3.69903 -1.54831 0
M  V30 12074 H 1119.06 -4.27942 -0.237378 0
M  V30 12075 H 1123.25 -4.9389 0.488496 0
M  V30 12076 H 1118.5 -5.92756 1.49833 0
M  V30 12077 H 1122.68 -6.60036 2.22094 0
M  V30 12078 H 1120.3 -7.09416 2.73189 0
M  V30 12079 N 1121.88 0.120221 -1.57141 0
M  V30 12080 C 1122.84 1.13159 -1.99318 0
M  V30 12081 C 1123.84 1.34376 -0.883158 0
M  V30 12082 O 1125.03 1.30914 -1.14922 0
M  V30 12083 C 1122.16 2.48632 -2.33227 0
M  V30 12084 H 1123.36 0.769119 -2.8987 0
M  V30 12085 H 1120.91 0.364475 -1.51991 0
M  V30 12086 H 1121.64 2.89802 -1.45551 0
M  V30 12087 H 1121.43 2.34587 -3.14184 0
M  V30 12088 H 1122.92 3.21423 -2.66603 0
M  V30 12089 N 1123.36 1.52689 0.390367 0
M  V30 12090 C 1124.32 1.76726 1.45947 0
M  V30 12091 C 1125.32 0.637269 1.47633 0
M  V30 12092 O 1126.51 0.905312 1.48828 0
M  V30 12093 C 1123.64 1.86678 2.85244 0
M  V30 12094 H 1124.83 2.72185 1.25918 0
M  V30 12095 H 1122.39 1.4339 0.622023 0
M  V30 12096 H 1123.12 0.931991 3.10619 0
M  V30 12097 H 1122.91 2.68843 2.85422 0
M  V30 12098 H 1124.4 2.06952 3.62713 0
M  V30 12099 N 1124.83 -0.648732 1.43629 0
M  V30 12100 C 1126.06 -1.4362 1.48932 0
M  V30 12101 C 1126.48 -1.88487 0.108599 0
M  V30 12102 O 1125.83 -1.59768 -0.882066 0
M  V30 12103 C 1125.89 -2.66822 2.43903 0
M  V30 12104 O 1125.61 -2.2383 3.76606 0
M  V30 12105 C 1127.11 -3.60134 2.58493 0
M  V30 12106 H 1124.33 -0.441055 0.505679 0
M  V30 12107 H 1126.87 -0.794936 1.88417 0
M  V30 12108 H 1125.03 -3.27079 2.07601 0
M  V30 12109 H 1125.44 -3.03575 4.27718 0
M  V30 12110 H 1126.91 -4.43234 3.29011 0
M  V30 12111 H 1127.39 -4.07779 1.63134 0
M  V30 12112 H 1128 -3.05756 2.95624 0
M  V30 12113 N 1126.31 -1.30234 -0.887518 0
M  V30 12114 C 1127.59 -1.09572 -1.62029 0
M  V30 12115 C 1127.97 0.355877 -2.08079 0
M  V30 12116 O 1127.32 1.34692 -1.84582 0
M  V30 12117 C 1127.53 -2.0943 -2.79177 0
M  V30 12118 C 1128.88 -2.4101 -3.4957 0
M  V30 12119 O 1129.9 -2.0772 -2.89363 0
M  V30 12120 O 1128.76 -2.97943 -4.5814 0
M  V30 12121 H 1125.85 -0.420648 -0.712028 0
M  V30 12122 H 1128.4 -1.41651 -0.934517 0
M  V30 12123 H 1127.17 -3.07149 -2.42436 0
M  V30 12124 H 1126.79 -1.78154 -3.55453 0
M  V30 12125 N 1127.79 1.09952 -1.12909 0
M  V30 12126 C 1129.04 1.81657 -0.885729 0
M  V30 12127 C 1129.36 1.85863 0.589913 0
M  V30 12128 O 1128.63 1.34028 1.42875 0
M  V30 12129 H 1127.21 0.672743 -0.324694 0
M  V30 12130 H 1129.87 1.33013 -1.42456 0
M  V30 12131 H 1128.97 2.85018 -1.27167 0
M  V30 12132 N 1129.27 0.921757 1.27833 0
M  V30 12133 C 1130.52 0.557974 1.94245 0
M  V30 12134 C 1130.84 -0.90268 1.72849 0
M  V30 12135 O 1130.11 -1.63915 1.07279 0
M  V30 12136 H 1128.69 0.203364 0.718785 0
M  V30 12137 H 1131.35 1.17286 1.5566 0
M  V30 12138 H 1130.45 0.759202 3.02725 0
M  V30 12139 N 1130.75 -1.41857 0.686609 0
M  V30 12140 C 1132 -2.00594 0.21095 0
M  V30 12141 C 1132.31 -1.54974 -1.19341 0
M  V30 12142 O 1133.51 -2.0621 -1.76607 0
M  V30 12143 C 1131.97 -3.58418 0.326261 0
M  V30 12144 C 1131.58 -4.13022 1.73542 0
M  V30 12145 C 1133.32 -4.24404 -0.0900816 0
M  V30 12146 C 1131.23 -5.6325 1.80287 0
M  V30 12147 H 1130.16 -0.75025 0.0751077 0
M  V30 12148 H 1132.81 -1.62442 0.853508 0
M  V30 12149 H 1131.19 -3.9413 -0.384394 0
M  V30 12150 H 1132.37 -3.88747 2.47411 0
M  V30 12151 H 1130.68 -3.5953 2.10065 0
M  V30 12152 H 1133.28 -5.34666 -0.060004 0
M  V30 12153 H 1133.62 -4.00745 -1.12733 0
M  V30 12154 H 1134.15 -3.93695 0.569979 0
M  V30 12155 H 1130.89 -5.91724 2.82034 0
M  V30 12156 H 1130.41 -5.89479 1.1079 0
M  V30 12157 H 1132.09 -6.2787 1.56167 0
M  V30 12158 N 1132.22 -0.430739 -1.51599 0
M  V30 12159 C 1133.45 0.136797 -2.06447 0
M  V30 12160 C 1133.87 1.37027 -1.29881 0
M  V30 12161 O 1133.22 1.78983 -0.356543 0
M  V30 12162 C 1133.28 0.465637 -3.58489 0
M  V30 12163 O 1133 -0.718873 -4.32162 0
M  V30 12164 C 1134.5 1.08456 -4.29828 0
M  V30 12165 H 1131.72 0.0108468 -0.670912 0
M  V30 12166 H 1134.26 -0.607921 -1.95255 0
M  V30 12167 H 1132.42 1.16025 -3.69617 0
M  V30 12168 H 1132.83 -0.439195 -5.22658 0
M  V30 12169 H 1134.3 1.2647 -5.37317 0
M  V30 12170 H 1134.78 2.06376 -3.87693 0
M  V30 12171 H 1135.39 0.429525 -4.23125 0
M  V30 12172 N 1133.7 1.56767 -0.161869 0
M  V30 12173 C 1135.12 1.58412 0.194403 0
M  V30 12174 C 1135.32 1.17682 1.63564 0
M  V30 12175 O 1134.37 0.884024 2.36519 0
M  V30 12176 C 1135.69 3.00599 -0.0778438 0
M  V30 12177 C 1137.24 3.12996 -0.015307 0
M  V30 12178 C 1137.71 4.57259 -0.260418 0
M  V30 12179 N 1139.2 4.62733 -0.207863 0
M  V30 12180 C 1139.94 5.72193 -0.371821 0
M  V30 12181 N 1139.43 6.90246 -0.594318 0
M  V30 12182 N 1141.23 5.61253 -0.308384 0
M  V30 12183 H 1133.38 1.81531 -1.10274 0
M  V30 12184 H 1135.64 0.840919 -0.437675 0
M  V30 12185 H 1135.35 3.3484 -1.07587 0
M  V30 12186 H 1135.22 3.71819 0.634845 0
M  V30 12187 H 1137.61 2.78588 0.97329 0
M  V30 12188 H 1137.69 2.44232 -0.760559 0
M  V30 12189 H 1137.33 4.92375 -1.24618 0
M  V30 12190 H 1137.26 5.2417 0.505334 0
M  V30 12191 H 1139.75 3.77878 -0.0411541 0
M  V30 12192 H 1140.07 7.6954 -0.70913 0
M  V30 12193 H 1138.41 6.92131 -0.630819 0
M  V30 12194 H 1141.6 4.67905 -0.135217 0
M  V30 12195 H 1141.77 6.46507 -0.439592 0
M  V30 12196 N 1135.18 -0.111886 1.57202 0
M  V30 12197 C 1136.43 -0.819623 1.85499 0
M  V30 12198 C 1136.76 -1.7919 0.748629 0
M  V30 12199 O 1136.03 -1.92952 -0.244918 0
M  V30 12200 C 1136.32 -1.56324 3.24399 0
M  V30 12201 C 1136.17 -0.610081 4.45643 0
M  V30 12202 C 1137.49 -2.51777 3.60966 0
M  V30 12203 H 1134.61 -0.296512 0.674722 0
M  V30 12204 H 1137.25 -0.0836741 1.89816 0
M  V30 12205 H 1135.4 -2.1906 3.2085 0
M  V30 12206 H 1137.07 0.00898038 4.61299 0
M  V30 12207 H 1135.32 0.0778488 4.3373 0
M  V30 12208 H 1135.99 -1.16718 5.39519 0
M  V30 12209 H 1138.46 -1.99143 3.65351 0
M  V30 12210 H 1137.34 -3.00835 4.59118 0
M  V30 12211 H 1137.6 -3.34769 2.8876 0
M  V30 12212 N 1136.66 -1.52894 -0.382264 0
M  V30 12213 C 1137.91 -1.68266 -1.12663 0
M  V30 12214 C 1138.23 -0.425974 -1.89778 0
M  V30 12215 O 1137.49 0.59178 -1.86538 0
M  V30 12216 C 1137.79 -2.87309 -2.12576 0
M  V30 12217 C 1137.45 -4.24484 -1.52067 0
M  V30 12218 C 1136.12 -4.6179 -1.35292 0
M  V30 12219 C 1138.47 -5.09858 -1.08138 0
M  V30 12220 C 1135.8 -5.82123 -0.731449 0
M  V30 12221 C 1138.15 -6.30822 -0.473986 0
M  V30 12222 C 1136.81 -6.66854 -0.293585 0
M  V30 12223 H 1136.08 -0.615728 -0.412262 0
M  V30 12224 H 1138.73 -1.8705 -0.410425 0
M  V30 12225 H 1137.03 -2.62968 -2.90439 0
M  V30 12226 H 1138.73 -2.96397 -2.70092 0
M  V30 12227 H 1135.32 -3.951 -1.66114 0
M  V30 12228 H 1139.5 -4.816 -1.19898 0
M  V30 12229 H 1134.76 -6.08643 -0.579938 0
M  V30 12230 H 1138.93 -6.96287 -0.125324 0
M  V30 12231 H 1136.56 -7.59962 0.190054 0
M  V30 12232 N 1138.14 0.641106 -1.43971 0
M  V30 12233 C 1139.55 1.22254 -1.41106 0
M  V30 12234 C 1139.9 1.95825 -0.121284 0
M  V30 12235 O 1139.02 2.01901 0.77879 0
M  V30 12236 C 1139.62 2.22364 -2.55617 0
M  V30 12237 C 1138.18 2.75957 -2.55978 0
M  V30 12238 C 1137.33 1.50792 -2.32717 0
M  V30 12239 H 1140.28 0.432381 -1.52696 0
M  V30 12240 H 1140.3 3.04775 -2.27799 0
M  V30 12241 H 1139.81 1.68789 -3.49474 0
M  V30 12242 H 1137.91 3.33562 -1.66034 0
M  V30 12243 H 1138.02 3.22676 -3.54142 0
M  V30 12244 H 1136.39 1.7857 -1.81617 0
M  V30 12245 H 1137.17 0.991343 -3.28675 0
M  V30 12246 N 1139.62 1.30703 0.880598 0
M  V30 12247 C 1140.56 1.17369 2.00817 0
M  V30 12248 C 1141.56 0.0845159 1.69189 0
M  V30 12249 O 1142.76 0.245673 1.78316 0
M  V30 12250 H 1139.14 0.363107 0.658527 0
M  V30 12251 H 1141.11 2.12789 2.09197 0
M  V30 12252 C 1139.86 0.886851 3.362 0
M  V30 12253 H 1139.18 1.71704 3.61051 0
M  V30 12254 H 1140.62 0.83368 4.15723 0
M  V30 12255 C 1139.08 -0.410293 3.34392 0
M  V30 12256 O 1139.61 -1.43044 3.75368 0
M  V30 12257 N 1137.82 -0.423023 2.87505 0
M  V30 12258 H 1137.36 0.407637 2.54354 0
M  V30 12259 H 1137.32 -1.29086 2.86678 0
M  V30 12260 N 1141.09 -1.09351 1.1349 0
M  V30 12261 C 1142.04 -2.16008 0.812981 0
M  V30 12262 C 1143.01 -1.64566 -0.225252 0
M  V30 12263 O 1144.2 -1.90552 -0.0973261 0
M  V30 12264 C 1141.34 -3.43913 0.285996 0
M  V30 12265 C 1140.45 -4.09251 1.38338 0
M  V30 12266 C 1139.58 -5.24916 0.814652 0
M  V30 12267 C 1138.62 -5.82178 1.89038 0
M  V30 12268 N 1137.76 -6.89203 1.33955 0
M  V30 12269 H 1142.6 -2.42887 1.72655 0
M  V30 12270 H 1140.14 -1.19209 0.861833 0
M  V30 12271 H 1142.09 -4.17183 -0.0376794 0
M  V30 12272 H 1140.72 -3.17349 -0.590707 0
M  V30 12273 H 1139.78 -3.33838 1.82363 0
M  V30 12274 H 1141.09 -4.4784 2.19638 0
M  V30 12275 H 1140.24 -6.05086 0.442306 0
M  V30 12276 H 1138.98 -4.87691 -0.029416 0
M  V30 12277 H 1137.99 -5.00669 2.27179 0
M  V30 12278 H 1139.21 -6.21464 2.73787 0
M  V30 12279 H 1137.16 -6.53956 0.517494 0
M  V30 12280 H 1137.07 -7.26565 2.08902 0
M  V30 12281 H 1138.34 -7.73126 0.994793 0
M  V30 12282 N 1142.57 -0.928524 -1.27343 0
M  V30 12283 C 1143.53 -0.43292 -2.25074 0
M  V30 12284 C 1144.53 0.448976 -1.54405 0
M  V30 12285 O 1145.72 0.249939 -1.72398 0
M  V30 12286 C 1142.86 0.377539 -3.38803 0
M  V30 12287 H 1144.05 -1.29642 -2.70431 0
M  V30 12288 H 1141.6 -0.709289 -1.3928 0
M  V30 12289 H 1142.34 1.25982 -2.98829 0
M  V30 12290 H 1142.12 -0.254782 -3.91271 0
M  V30 12291 H 1143.61 0.714634 -4.1144 0
M  V30 12292 N 1144.05 1.41491 -0.694123 0
M  V30 12293 C 1145.01 2.2917 -0.0368562 0
M  V30 12294 C 1146.01 1.44305 0.709426 0
M  V30 12295 O 1147.2 1.6547 0.544533 0
M  V30 12296 C 1144.33 3.27156 0.958201 0
M  V30 12297 H 1145.53 2.88787 -0.808829 0
M  V30 12298 H 1143.08 1.49453 -0.457538 0
M  V30 12299 H 1143.82 2.72516 1.75799 0
M  V30 12300 H 1143.6 3.89776 0.426227 0
M  V30 12301 H 1145.09 3.92863 1.41592 0
M  V30 12302 N 1145.53 0.438773 1.51369 0
M  V30 12303 C 1146.44 -0.378074 2.31534 0
M  V30 12304 C 1147.45 -1.02632 1.40508 0
M  V30 12305 O 1148.63 -1.02138 1.73579 0
M  V30 12306 C 1145.69 -1.46374 3.14286 0
M  V30 12307 C 1144.76 -0.835473 4.21092 0
M  V30 12308 C 1143.99 -1.86941 4.99889 0
M  V30 12309 O 1144.21 -3.0918 4.79337 0
M  V30 12310 O 1143.15 -1.45914 5.83946 0
M  V30 12311 H 1146.97 0.276401 3.0244 0
M  V30 12312 H 1144.56 0.201281 1.48038 0
M  V30 12313 H 1146.44 -2.09335 3.65728 0
M  V30 12314 H 1145.11 -2.10227 2.46143 0
M  V30 12315 H 1144.02 -0.167775 3.73724 0
M  V30 12316 H 1145.35 -0.240406 4.91613 0
M  V30 12317 N 1147.01 -1.56678 0.170181 0
M  V30 12318 C 1148.28 -1.88524 -0.521362 0
M  V30 12319 C 1148.66 -1.07989 -1.81388 0
M  V30 12320 O 1148.01 -0.17347 -2.27841 0
M  V30 12321 C 1148.22 -3.40527 -0.764367 0
M  V30 12322 C 1149.57 -4.10241 -1.09487 0
M  V30 12323 O 1150.59 -3.45837 -0.852945 0
M  V30 12324 O 1149.45 -5.24022 -1.55124 0
M  V30 12325 H 1146.55 -0.782161 -0.268614 0
M  V30 12326 H 1149.09 -1.68414 0.208531 0
M  V30 12327 H 1147.86 -3.91015 0.149416 0
M  V30 12328 H 1147.49 -3.66244 -1.54762 0
M  V30 12329 N 1148.48 0.103547 -1.57259 0
M  V30 12330 C 1149.73 0.804704 -1.86805 0
M  V30 12331 C 1150.08 1.76756 -0.759942 0
M  V30 12332 O 1149.38 1.90106 0.238789 0
M  V30 12333 C 1149.57 1.57946 -3.20605 0
M  V30 12334 C 1149.4 0.693136 -4.44326 0
M  V30 12335 C 1148.17 0.342079 -5.04141 0
M  V30 12336 C 1150.37 0.00385713 -5.143 0
M  V30 12337 N 1148.35 -0.553293 -6.11402 0
M  V30 12338 C 1149.72 -0.74991 -6.15448 0
M  V30 12339 C 1151.78 -0.0709485 -4.97849 0
M  V30 12340 C 1150.48 -1.57148 -7.01924 0
M  V30 12341 C 1152.51 -0.879391 -5.84825 0
M  V30 12342 C 1151.87 -1.6213 -6.85488 0
M  V30 12343 H 1147.97 0.270899 -0.733579 0
M  V30 12344 H 1150.55 0.0676446 -1.94582 0
M  V30 12345 H 1148.72 2.28745 -3.13895 0
M  V30 12346 H 1150.45 2.22715 -3.37905 0
M  V30 12347 H 1147.21 0.687831 -4.68579 0
M  V30 12348 H 1147.63 -0.993284 -6.69674 0
M  V30 12349 H 1152.27 0.488299 -4.19971 0
M  V30 12350 H 1149.99 -2.14182 -7.79199 0
M  V30 12351 H 1153.58 -0.939834 -5.74159 0
M  V30 12352 H 1152.46 -2.2368 -7.51623 0
M  V30 12353 N 1149.96 1.53094 0.37415 0
M  V30 12354 C 1151.19 1.72758 1.13852 0
M  V30 12355 C 1151.6 0.452638 1.83294 0
M  V30 12356 O 1150.96 -0.573906 1.73241 0
M  V30 12357 C 1151.01 2.88724 2.17534 0
M  V30 12358 O 1150.73 4.11284 1.5092 0
M  V30 12359 C 1152.23 3.2019 3.06584 0
M  V30 12360 H 1149.45 0.578028 0.340771 0
M  V30 12361 H 1152 1.99805 0.435683 0
M  V30 12362 H 1150.15 2.64096 2.83429 0
M  V30 12363 H 1150.57 4.76162 2.19932 0
M  V30 12364 H 1152.04 4.04759 3.75332 0
M  V30 12365 H 1152.52 2.35193 3.70919 0
M  V30 12366 H 1153.12 3.46712 2.46315 0
M  V30 12367 N 1151.44 -0.633461 1.44309 0
M  V30 12368 C 1152.35 -1.77428 1.53481 0
M  V30 12369 C 1153.37 -1.68839 0.420628 0
M  V30 12370 O 1154.54 -1.89658 0.677638 0
M  V30 12371 C 1151.61 -3.13801 1.47409 0
M  V30 12372 C 1150.67 -3.34039 2.6966 0
M  V30 12373 C 1149.9 -4.63907 2.63868 0
M  V30 12374 O 1150.12 -5.44559 1.69741 0
M  V30 12375 O 1149.06 -4.86295 3.54684 0
M  V30 12376 H 1152.88 -1.72642 2.49857 0
M  V30 12377 H 1150.47 -0.794399 1.26529 0
M  V30 12378 H 1152.35 -3.95101 1.46537 0
M  V30 12379 H 1151.03 -3.19134 0.541769 0
M  V30 12380 H 1149.93 -2.52427 2.761 0
M  V30 12381 H 1151.27 -3.33566 3.61931 0
M  V30 12382 N 1152.92 -1.31168 -0.873655 0
M  V30 12383 C 1153.87 -1.18432 -2.00191 0
M  V30 12384 C 1154.86 -0.0934873 -1.69142 0
M  V30 12385 O 1156.07 -0.255126 -1.78183 0
M  V30 12386 H 1152.44 -0.366594 -0.656592 0
M  V30 12387 H 1154.41 -2.13896 -2.08065 0
M  V30 12388 C 1153.16 -0.904668 -3.35725 0
M  V30 12389 H 1152.48 -1.73617 -3.60135 0
M  V30 12390 H 1153.92 -0.855715 -4.15275 0
M  V30 12391 C 1152.38 0.392554 -3.34605 0
M  V30 12392 O 1152.91 1.41052 -3.76121 0
M  V30 12393 N 1151.12 0.40777 -2.87725 0
M  V30 12394 H 1150.67 -0.42112 -2.54134 0
M  V30 12395 H 1150.62 1.27564 -2.87358 0
M  V30 12396 N 1154.4 1.08748 -1.14068 0
M  V30 12397 C 1155.81 1.62551 -0.918379 0
M  V30 12398 C 1156.16 1.8852 0.543583 0
M  V30 12399 O 1155.28 1.64007 1.41176 0
M  V30 12400 C 1155.88 2.95309 -1.66066 0
M  V30 12401 C 1154.44 3.4591 -1.48403 0
M  V30 12402 C 1153.58 2.20204 -1.6854 0
M  V30 12403 H 1156.54 0.920196 -1.29298 0
M  V30 12404 H 1156.56 3.63587 -1.12181 0
M  V30 12405 H 1156.07 2.76377 -2.72465 0
M  V30 12406 H 1154.17 3.69953 -0.443353 0
M  V30 12407 H 1154.28 4.2289 -2.25169 0
M  V30 12408 H 1152.65 2.29203 -1.11077 0
M  V30 12409 H 1153.43 2.03783 -2.76274 0
M  V30 12410 N 1155.87 0.935264 1.26849 0
M  V30 12411 C 1156.78 0.446122 2.30319 0
M  V30 12412 C 1157.8 -0.476965 1.67335 0
M  V30 12413 O 1158.98 -0.357934 1.98194 0
M  V30 12414 C 1156.04 -0.286297 3.45516 0
M  V30 12415 C 1155.1 0.672626 4.23998 0
M  V30 12416 C 1154.34 -0.0249345 5.33694 0
M  V30 12417 O 1154.56 -1.24296 5.56693 0
M  V30 12418 O 1153.49 0.650752 5.98372 0
M  V30 12419 H 1157.32 1.30546 2.74211 0
M  V30 12420 H 1154.9 0.70091 1.31938 0
M  V30 12421 H 1156.79 -0.699109 4.1556 0
M  V30 12422 H 1155.46 -1.12112 3.03665 0
M  V30 12423 H 1154.37 1.13527 3.56458 0
M  V30 12424 H 1155.7 1.47489 4.69583 0
M  V30 12425 N 1157.35 -1.41121 0.701616 0
M  V30 12426 C 1158.76 -1.84122 0.309208 0
M  V30 12427 C 1159.11 -1.58695 -1.15371 0
M  V30 12428 O 1158.24 -1.06053 -1.88631 0
M  V30 12429 C 1158.83 -3.34233 0.554429 0
M  V30 12430 C 1157.39 -3.7578 0.215876 0
M  V30 12431 C 1156.54 -2.6447 0.833729 0
M  V30 12432 H 1159.49 -1.30587 0.901822 0
M  V30 12433 H 1159.51 -3.8005 -0.18491 0
M  V30 12434 H 1159.02 -3.52707 1.61923 0
M  V30 12435 H 1157.13 -3.62905 -0.844421 0
M  V30 12436 H 1157.24 -4.74319 0.675118 0
M  V30 12437 H 1155.6 -2.5334 0.262851 0
M  V30 12438 H 1156.39 -2.85761 1.90252 0
M  V30 12439 N 1158.83 -0.446794 -1.51134 0
M  V30 12440 C 1160.08 0.116493 -2.02165 0
M  V30 12441 C 1160.41 1.41884 -1.33039 0
M  V30 12442 O 1159.66 1.90757 -0.437071 0
M  V30 12443 C 1159.96 0.373015 -3.55448 0
M  V30 12444 C 1159.63 -0.844659 -4.42918 0
M  V30 12445 C 1158.29 -1.17857 -4.66544 0
M  V30 12446 C 1160.64 -1.65653 -4.94174 0
M  V30 12447 C 1157.97 -2.32486 -5.38672 0
M  V30 12448 C 1160.32 -2.7939 -5.6756 0
M  V30 12449 C 1158.98 -3.13224 -5.89446 0
M  V30 12450 H 1158.25 0.0426279 -0.739773 0
M  V30 12451 H 1160.9 -0.595921 -1.81992 0
M  V30 12452 H 1159.21 1.16742 -3.74003 0
M  V30 12453 H 1160.9 0.822425 -3.92476 0
M  V30 12454 H 1157.49 -0.574478 -4.24733 0
M  V30 12455 H 1161.68 -1.41176 -4.75797 0
M  V30 12456 H 1156.93 -2.59003 -5.5383 0
M  V30 12457 H 1161.11 -3.42662 -6.06264 0
M  V30 12458 H 1158.73 -4.02158 -6.45115 0
M  V30 12459 N 1160.31 1.56586 -0.178487 0
M  V30 12460 C 1161.26 2.19631 0.765822 0
M  V30 12461 C 1162.25 1.16247 1.23219 0
M  V30 12462 O 1163.46 1.34431 1.19701 0
M  V30 12463 H 1159.83 0.703661 0.265264 0
M  V30 12464 H 1161.8 2.97659 0.210207 0
M  V30 12465 C 1160.55 2.85686 1.98188 0
M  V30 12466 H 1159.87 3.64971 1.63206 0
M  V30 12467 H 1161.31 3.33259 2.62134 0
M  V30 12468 C 1159.77 1.85837 2.81009 0
M  V30 12469 O 1160.3 1.3483 3.78396 0
M  V30 12470 N 1158.51 1.54435 2.46167 0
M  V30 12471 H 1158.06 1.96107 1.67032 0
M  V30 12472 H 1158.01 0.878808 3.01868 0
M  V30 12473 N 1161.79 -0.095206 1.57312 0
M  V30 12474 C 1162.75 -1.09974 2.01093 0
M  V30 12475 C 1163.75 -1.32954 0.904424 0
M  V30 12476 O 1164.94 -1.29069 1.16991 0
M  V30 12477 C 1162.07 -2.4489 2.37153 0
M  V30 12478 H 1163.26 -0.722906 2.91057 0
M  V30 12479 H 1160.82 -0.340249 1.52552 0
M  V30 12480 H 1161.55 -2.8745 1.50143 0
M  V30 12481 H 1161.34 -2.29559 3.17876 0
M  V30 12482 H 1162.83 -3.17141 2.71683 0
M  V30 12483 N 1163.26 -1.53291 -0.366026 0
M  V30 12484 C 1164.49 -1.73665 -1.13381 0
M  V30 12485 C 1164.91 -0.464284 -1.8228 0
M  V30 12486 O 1164.27 0.581645 -1.71717 0
M  V30 12487 C 1164.32 -2.90225 -2.14013 0
M  V30 12488 O 1163.42 -2.58803 -3.21084 0
M  V30 12489 H 1162.77 -0.576762 -0.329 0
M  V30 12490 H 1165.3 -2.00174 -0.423287 0
M  V30 12491 H 1165.31 -3.16378 -2.57622 0
M  V30 12492 H 1163.98 -3.82518 -1.63257 0
M  V30 12493 H 1162.56 -2.43466 -2.82451 0
M  V30 12494 N 1164.74 0.6258 -1.44643 0
M  V30 12495 C 1165.99 1.38525 -1.47706 0
M  V30 12496 C 1166.32 1.94179 -0.111703 0
M  V30 12497 O 1165.57 1.74432 0.887237 0
M  V30 12498 C 1165.87 2.56466 -2.48917 0
M  V30 12499 C 1165.54 2.19069 -3.94106 0
M  V30 12500 C 1164.2 2.08583 -4.33643 0
M  V30 12501 C 1166.55 1.89608 -4.85488 0
M  V30 12502 C 1163.88 1.66831 -5.6248 0
M  V30 12503 C 1166.23 1.49347 -6.14718 0
M  V30 12504 C 1164.9 1.37406 -6.53204 0
M  V30 12505 H 1164.17 0.506899 -0.540494 0
M  V30 12506 H 1166.81 0.709128 -1.77887 0
M  V30 12507 H 1165.12 3.29335 -2.12239 0
M  V30 12508 H 1166.81 3.14695 -2.48532 0
M  V30 12509 H 1163.4 2.28151 -3.62829 0
M  V30 12510 H 1167.59 1.96616 -4.55693 0
M  V30 12511 H 1162.84 1.56195 -5.91112 0
M  V30 12512 H 1167.02 1.2559 -6.84982 0
M  V30 12513 H 1164.65 1.04826 -7.52938 0
M  V30 12514 N 1166.22 1.31629 0.866686 0
M  V30 12515 C 1167.45 1.24293 1.6503 0
M  V30 12516 C 1167.86 -0.193556 1.88207 0
M  V30 12517 O 1167.2 -1.13712 1.44275 0
M  V30 12518 C 1167.26 1.92032 3.03914 0
M  V30 12519 C 1166.93 3.41373 3.03831 0
M  V30 12520 C 1167.92 4.37064 2.81551 0
M  V30 12521 C 1165.61 3.83118 3.24848 0
M  V30 12522 C 1167.6 5.72474 2.80272 0
M  V30 12523 C 1165.29 5.18639 3.23197 0
M  V30 12524 C 1166.29 6.13128 3.00936 0
M  V30 12525 O 1165.98 7.46172 2.99137 0
M  V30 12526 H 1165.71 0.430569 0.521139 0
M  V30 12527 H 1168.26 1.74105 1.0898 0
M  V30 12528 H 1166.49 1.36774 3.61704 0
M  V30 12529 H 1168.18 1.78567 3.64512 0
M  V30 12530 H 1168.95 4.06142 2.65093 0
M  V30 12531 H 1164.83 3.10001 3.41204 0
M  V30 12532 H 1168.37 6.46199 2.62816 0
M  V30 12533 H 1164.27 5.49196 3.39197 0
M  V30 12534 H 1165.04 7.55385 3.15175 0
M  V30 12535 N 1167.7 -1.08142 1.14644 0
M  V30 12536 C 1169.12 -1.32656 0.887388 0
M  V30 12537 C 1169.32 -1.95942 -0.470012 0
M  V30 12538 O 1168.37 -2.21417 -1.21371 0
M  V30 12539 C 1169.68 -2.22549 2.02219 0
M  V30 12540 C 1171.23 -2.36021 2.0558 0
M  V30 12541 C 1171.71 -3.29257 3.18361 0
M  V30 12542 N 1173.2 -3.36835 3.17957 0
M  V30 12543 C 1173.93 -4.09017 4.01862 0
M  V30 12544 N 1173.43 -4.83882 4.95812 0
M  V30 12545 N 1175.22 -4.04875 3.89913 0
M  V30 12546 H 1167.37 -0.654457 2.02066 0
M  V30 12547 H 1169.64 -0.350947 0.880648 0
M  V30 12548 H 1169.34 -1.83296 3.00159 0
M  V30 12549 H 1169.22 -3.23027 1.94765 0
M  V30 12550 H 1171.6 -2.74531 1.08245 0
M  V30 12551 H 1171.68 -1.35275 2.17105 0
M  V30 12552 H 1171.33 -2.91468 4.15944 0
M  V30 12553 H 1171.26 -4.29938 3.04074 0
M  V30 12554 H 1173.75 -2.83465 2.49912 0
M  V30 12555 H 1174.06 -5.3643 5.56294 0
M  V30 12556 H 1172.41 -4.82926 4.99808 0
M  V30 12557 H 1175.6 -3.45496 3.15833 0
M  V30 12558 H 1175.77 -4.60866 4.55529 0
M  V30 12559 N 1169.18 -0.941978 -1.26351 0
M  V30 12560 C 1170.59 -0.644413 -1.46012 0
M  V30 12561 C 1170.79 0.802031 -1.84851 0
M  V30 12562 O 1169.85 1.57859 -1.9707 0
M  V30 12563 C 1171.16 -1.60652 -2.54188 0
M  V30 12564 C 1172.71 -1.6163 -2.68038 0
M  V30 12565 C 1173.19 -2.56573 -3.79387 0
M  V30 12566 N 1174.68 -2.54863 -3.8678 0
M  V30 12567 C 1175.41 -3.2501 -4.72394 0
M  V30 12568 N 1174.91 -4.04586 -5.6239 0
M  V30 12569 N 1176.7 -3.13958 -4.66247 0
M  V30 12570 H 1168.85 -1.8769 -0.994293 0
M  V30 12571 H 1171.11 -0.806621 -0.498063 0
M  V30 12572 H 1170.82 -2.63907 -2.32478 0
M  V30 12573 H 1170.69 -1.3592 -3.5186 0
M  V30 12574 H 1173.08 -0.59099 -2.89122 0
M  V30 12575 H 1173.16 -1.90417 -1.70807 0
M  V30 12576 H 1172.81 -3.59223 -3.59056 0
M  V30 12577 H 1172.74 -2.25077 -4.76076 0
M  V30 12578 H 1175.23 -1.97082 -3.22439 0
M  V30 12579 H 1175.54 -4.55061 -6.24612 0
M  V30 12580 H 1173.89 -4.08687 -5.62139 0
M  V30 12581 H 1177.08 -2.51273 -3.94943 0
M  V30 12582 H 1177.25 -3.68894 -5.32749 0
M  V30 12583 N 1170.66 1.40747 -0.709091 0
M  V30 12584 C 1171.88 2.05841 -0.253816 0
M  V30 12585 C 1172.31 1.53056 1.09341 0
M  V30 12586 O 1171.66 0.663181 1.68735 0
M  V30 12587 C 1171.71 3.59822 -0.236699 0
M  V30 12588 O 1170.82 4.04876 0.784168 0
M  V30 12589 H 1170.16 0.65295 -0.120631 0
M  V30 12590 H 1172.69 1.80266 -0.967749 0
M  V30 12591 H 1172.7 4.07936 -0.0721616 0
M  V30 12592 H 1171.37 3.97608 -1.21988 0
M  V30 12593 H 1169.95 3.68237 0.587884 0
M  V30 12594 N 1172.13 0.454803 1.50895 0
M  V30 12595 C 1173.06 -0.337982 2.31041 0
M  V30 12596 C 1174.04 -1.00523 1.37219 0
M  V30 12597 O 1175.23 -1.00553 1.66141 0
M  V30 12598 C 1172.36 -1.42964 3.1651 0
M  V30 12599 C 1171.31 -0.884907 4.18752 0
M  V30 12600 C 1170.64 -2.07363 4.92854 0
M  V30 12601 C 1171.94 0.0926716 5.22218 0
M  V30 12602 H 1173.63 0.33089 2.97566 0
M  V30 12603 H 1171.18 0.160577 1.43102 0
M  V30 12604 H 1173.13 -1.9916 3.71367 0
M  V30 12605 H 1171.86 -2.12705 2.47839 0
M  V30 12606 H 1170.52 -0.345031 3.64973 0
M  V30 12607 H 1170.16 -2.75764 4.2067 0
M  V30 12608 H 1169.86 -1.71545 5.62002 0
M  V30 12609 H 1171.39 -2.6408 5.5054 0
M  V30 12610 H 1172.8 -0.379568 5.72042 0
M  V30 12611 H 1171.2 0.3643 5.98993 0
M  V30 12612 H 1172.27 1.02383 4.73968 0
M  V30 12613 N 1173.61 -1.56489 0.186789 0
M  V30 12614 C 1174.89 -1.89066 -0.501337 0
M  V30 12615 C 1175.27 -1.09906 -1.80233 0
M  V30 12616 O 1174.62 -0.197626 -2.27644 0
M  V30 12617 C 1174.83 -3.41318 -0.728207 0
M  V30 12618 C 1176.17 -4.11379 -1.0513 0
M  V30 12619 O 1177.2 -3.46722 -0.816216 0
M  V30 12620 O 1176.06 -5.25638 -1.49557 0
M  V30 12621 H 1173.15 -0.784966 -0.260303 0
M  V30 12622 H 1175.7 -1.68183 0.226382 0
M  V30 12623 H 1174.47 -3.90834 0.19088 0
M  V30 12624 H 1174.09 -3.67865 -1.50869 0
M  V30 12625 N 1175.09 0.086862 -1.5736 0
M  V30 12626 C 1176.04 1.12359 -2.03662 0
M  V30 12627 C 1177.03 1.40982 -0.939169 0
M  V30 12628 O 1178.24 1.40566 -1.12433 0
M  V30 12629 H 1174.61 0.379605 -0.649156 0
M  V30 12630 H 1176.58 0.706822 -2.89908 0
M  V30 12631 C 1175.33 2.43327 -2.48369 0
M  V30 12632 H 1174.66 2.22148 -3.324 0
M  V30 12633 H 1176.1 3.14351 -2.84534 0
M  V30 12634 C 1174.55 3.08214 -1.36036 0
M  V30 12635 O 1175.08 3.95659 -0.694063 0
M  V30 12636 N 1173.29 2.68596 -1.10927 0
M  V30 12637 H 1172.84 1.97578 -1.6529 0
M  V30 12638 H 1172.8 3.12336 -0.359679 0
M  V30 12639 N 1176.57 1.53483 0.357892 0
M  V30 12640 C 1177.52 1.76843 1.43911 0
M  V30 12641 C 1178.5 0.623178 1.48342 0
M  V30 12642 O 1179.69 0.882102 1.53453 0
M  V30 12643 C 1176.82 1.96865 2.81246 0
M  V30 12644 C 1175.91 3.17414 2.81263 0
M  V30 12645 N 1176.3 4.39172 2.50921 0
M  V30 12646 C 1174.6 3.18292 3.1242 0
M  V30 12647 C 1175.3 5.20953 2.58811 0
M  V30 12648 N 1174.27 4.57338 2.93841 0
M  V30 12649 H 1178.08 2.68586 1.19327 0
M  V30 12650 H 1175.59 1.52212 0.566142 0
M  V30 12651 H 1177.59 2.11731 3.59132 0
M  V30 12652 H 1176.25 1.06355 3.06788 0
M  V30 12653 H 1177.26 4.66772 2.24376 0
M  V30 12654 H 1173.94 2.37702 3.43226 0
M  V30 12655 H 1175.33 6.28095 2.38633 0
M  V30 12656 N 1178.05 -0.61812 1.44973 0
M  V30 12657 C 1179.29 -1.37468 1.48145 0
M  V30 12658 C 1179.61 -1.94628 0.120366 0
M  V30 12659 O 1178.88 -1.76548 -0.848982 0
M  V30 12660 H 1177.46 -0.510293 0.545536 0
M  V30 12661 H 1180.13 -0.726598 1.8085 0
M  V30 12662 H 1179.22 -2.19944 2.2143 0
M  V30 12663 N 1179.52 -1.32087 -0.859693 0
M  V30 12664 C 1180.75 -1.25167 -1.64368 0
M  V30 12665 C 1181.16 0.183572 -1.88307 0
M  V30 12666 O 1180.5 1.12945 -1.44876 0
M  V30 12667 C 1180.57 -1.93641 -3.02892 0
M  V30 12668 C 1180.23 -3.4298 -3.02017 0
M  V30 12669 C 1181.23 -4.38551 -2.79229 0
M  V30 12670 C 1178.91 -3.84835 -3.22812 0
M  V30 12671 C 1180.91 -5.73952 -2.77232 0
M  V30 12672 C 1178.59 -5.20346 -3.20442 0
M  V30 12673 C 1179.59 -6.14716 -2.97681 0
M  V30 12674 O 1179.28 -7.47748 -2.95175 0
M  V30 12675 H 1179.01 -0.433327 -0.518848 0
M  V30 12676 H 1181.57 -1.7468 -1.08055 0
M  V30 12677 H 1179.8 -1.3869 -3.60974 0
M  V30 12678 H 1181.48 -1.80497 -3.63559 0
M  V30 12679 H 1182.25 -4.07542 -2.62935 0
M  V30 12680 H 1178.13 -3.11806 -3.39555 0
M  V30 12681 H 1181.67 -6.47584 -2.59385 0
M  V30 12682 H 1177.57 -5.50987 -3.36279 0
M  V30 12683 H 1178.34 -7.57046 -3.11165 0
M  V30 12684 N 1181 1.07532 -1.15215 0
M  V30 12685 C 1182.25 1.8036 -0.927263 0
M  V30 12686 C 1182.58 1.86414 0.544371 0
M  V30 12687 O 1181.86 1.34653 1.40353 0
M  V30 12688 C 1182.14 3.25512 -1.53992 0
M  V30 12689 C 1181.99 3.27614 -3.08203 0
M  V30 12690 C 1183.31 4.22731 -1.22418 0
M  V30 12691 H 1180.43 0.654775 -0.338289 0
M  V30 12692 H 1183.07 1.25842 -1.42351 0
M  V30 12693 H 1181.22 3.72068 -1.11791 0
M  V30 12694 H 1182.89 2.89315 -3.59297 0
M  V30 12695 H 1181.14 2.66627 -3.42188 0
M  V30 12696 H 1181.81 4.29956 -3.46182 0
M  V30 12697 H 1184.28 3.84557 -1.58919 0
M  V30 12698 H 1183.16 5.22589 -1.67906 0
M  V30 12699 H 1183.42 4.41875 -0.14091 0
M  V30 12700 N 1182.48 0.948665 1.2585 0
M  V30 12701 C 1183.73 0.600236 1.934 0
M  V30 12702 C 1184.06 -0.86185 1.74363 0
M  V30 12703 O 1183.31 -1.63294 1.07858 0
M  V30 12704 C 1183.61 0.89784 3.45939 0
M  V30 12705 C 1183.28 2.345 3.85124 0
M  V30 12706 C 1181.94 2.74058 3.95532 0
M  V30 12707 C 1184.29 3.2851 4.04636 0
M  V30 12708 C 1181.62 4.06707 4.22855 0
M  V30 12709 C 1183.97 4.60764 4.3345 0
M  V30 12710 C 1182.63 5.00127 4.42074 0
M  V30 12711 H 1181.9 0.219642 0.707699 0
M  V30 12712 H 1184.55 1.19658 1.49513 0
M  V30 12713 H 1182.86 0.219037 3.91187 0
M  V30 12714 H 1184.55 0.606916 3.96381 0
M  V30 12715 H 1181.14 2.02819 3.77574 0
M  V30 12716 H 1185.33 2.99141 3.96015 0
M  V30 12717 H 1180.58 4.36856 4.27746 0
M  V30 12718 H 1184.76 5.33594 4.47493 0
M  V30 12719 H 1182.38 6.02939 4.63 0
M  V30 12720 N 1183.96 -1.40369 0.716545 0
M  V30 12721 C 1184.91 -2.3071 0.0645944 0
M  V30 12722 C 1185.88 -1.48239 -0.749294 0
M  V30 12723 O 1187.06 -1.76975 -0.713045 0
M  V30 12724 C 1184.2 -3.34456 -0.850478 0
M  V30 12725 C 1183.31 -4.31992 -0.0259594 0
M  V30 12726 C 1182.45 -5.22806 -0.940599 0
M  V30 12727 C 1181.49 -6.12001 -0.110228 0
M  V30 12728 N 1180.62 -6.9523 -0.979796 0
M  V30 12729 H 1185.46 -2.85896 0.840682 0
M  V30 12730 H 1183 -1.40789 0.426258 0
M  V30 12731 H 1184.96 -3.93177 -1.39528 0
M  V30 12732 H 1183.59 -2.8077 -1.59274 0
M  V30 12733 H 1182.64 -3.75045 0.636036 0
M  V30 12734 H 1183.95 -4.94971 0.616883 0
M  V30 12735 H 1183.11 -5.86463 -1.5539 0
M  V30 12736 H 1181.85 -4.60104 -1.61726 0
M  V30 12737 H 1180.85 -5.47373 0.516001 0
M  V30 12738 H 1182.08 -6.76763 0.562944 0
M  V30 12739 H 1180.02 -6.35115 -1.64209 0
M  V30 12740 H 1179.94 -7.54978 -0.393012 0
M  V30 12741 H 1181.21 -7.63335 -1.57924 0
M  V30 12742 N 1185.44 -0.462799 -1.50652 0
M  V30 12743 C 1186.85 -0.00568907 -1.86699 0
M  V30 12744 C 1187.2 1.39641 -1.37822 0
M  V30 12745 O 1186.32 2.03366 -0.739679 0
M  V30 12746 C 1186.92 -0.00354783 -3.388 0
M  V30 12747 C 1185.48 0.398061 -3.74289 0
M  V30 12748 C 1184.62 -0.392574 -2.74507 0
M  V30 12749 H 1187.58 -0.677469 -1.43513 0
M  V30 12750 H 1187.6 0.800456 -3.71985 0
M  V30 12751 H 1187.11 -1.02414 -3.74344 0
M  V30 12752 H 1185.21 1.42331 -3.44344 0
M  V30 12753 H 1185.32 0.105168 -4.78985 0
M  V30 12754 H 1183.69 0.152608 -2.54242 0
M  V30 12755 H 1184.47 -1.41252 -3.12894 0
M  V30 12756 N 1186.91 1.56388 -0.195085 0
M  V30 12757 C 1188.33 1.8398 0.317513 0
M  V30 12758 C 1188.68 1.11575 1.61386 0
M  V30 12759 O 1187.8 0.376557 2.13099 0
M  V30 12760 C 1188.4 3.33749 0.582859 0
M  V30 12761 C 1186.96 3.61752 1.03983 0
M  V30 12762 C 1186.1 2.77159 0.088434 0
M  V30 12763 H 1189.05 1.53072 -0.418871 0
M  V30 12764 H 1189.07 3.52519 1.43216 0
M  V30 12765 H 1188.59 3.86419 -0.360813 0
M  V30 12766 H 1186.69 3.14515 1.99778 0
M  V30 12767 H 1186.8 4.69937 0.932549 0
M  V30 12768 H 1185.16 2.47765 0.590317 0
M  V30 12769 H 1185.95 3.32619 -0.849682 0
M  V30 12770 N 1188.39 -0.0785156 1.57404 0
M  V30 12771 C 1189.34 -1.10077 1.99668 0
M  V30 12772 C 1190.33 -1.34855 0.87767 0
M  V30 12773 O 1191.52 -1.35268 1.14156 0
M  V30 12774 C 1188.65 -2.41641 2.43854 0
M  V30 12775 C 1187.73 -2.20166 3.62475 0
M  V30 12776 N 1188.12 -1.68602 4.76872 0
M  V30 12777 C 1186.42 -2.50666 3.68894 0
M  V30 12778 C 1187.12 -1.61785 5.58749 0
M  V30 12779 N 1186.1 -2.07595 5.02399 0
M  V30 12780 H 1189.9 -0.695297 2.85557 0
M  V30 12781 H 1187.42 -0.285694 1.59867 0
M  V30 12782 H 1189.41 -3.15629 2.72367 0
M  V30 12783 H 1188.07 -2.8291 1.59348 0
M  V30 12784 H 1189.08 -1.37561 4.99297 0
M  V30 12785 H 1185.76 -2.95348 2.95087 0
M  V30 12786 H 1187.15 -1.22828 6.60578 0
M  V30 12787 N 1189.87 -1.5367 -0.349747 0
M  V30 12788 C 1190.8 -1.77528 -1.4497 0
M  V30 12789 C 1191.82 -0.656412 -1.4898 0
M  V30 12790 O 1193 -0.933016 -1.52174 0
M  V30 12791 C 1190.1 -1.85445 -2.8366 0
M  V30 12792 C 1189.28 -3.15295 -3.03163 0
M  V30 12793 C 1188.34 -3.1425 -4.22059 0
M  V30 12794 O 1187.36 -3.87994 -4.16472 0
M  V30 12795 N 1188.56 -2.36181 -5.30282 0
M  V30 12796 H 1191.33 -2.72444 -1.24877 0
M  V30 12797 H 1188.89 -1.52644 -0.539586 0
M  V30 12798 H 1190.88 -1.82204 -3.61364 0
M  V30 12799 H 1189.45 -0.977436 -2.96926 0
M  V30 12800 H 1188.67 -3.31711 -2.12983 0
M  V30 12801 H 1189.96 -4.01078 -3.13072 0
M  V30 12802 H 1189.36 -1.75808 -5.37688 0
M  V30 12803 H 1187.92 -2.38744 -6.06502 0
M  V30 12804 N 1191.35 0.610423 -1.45298 0
M  V30 12805 C 1192.63 1.36966 -1.39641 0
M  V30 12806 C 1193.01 2.10998 -0.0655757 0
M  V30 12807 O 1192.35 2.07705 0.952407 0
M  V30 12808 C 1192.56 2.31885 -2.60826 0
M  V30 12809 C 1193.91 2.9458 -3.05791 0
M  V30 12810 O 1194.94 2.42207 -2.61179 0
M  V30 12811 O 1193.79 3.89639 -3.83202 0
M  V30 12812 H 1190.89 0.61401 -0.554004 0
M  V30 12813 H 1193.43 0.633748 -1.57422 0
M  V30 12814 H 1192.21 1.76421 -3.49272 0
M  V30 12815 H 1191.83 3.12861 -2.45364 0
M  V30 12816 N 1192.83 1.32541 0.852676 0
M  V30 12817 C 1193.79 1.21578 1.94297 0
M  V30 12818 C 1194.79 0.138318 1.60204 0
M  V30 12819 O 1195.98 0.388864 1.69804 0
M  V30 12820 C 1193.11 0.870209 3.29606 0
M  V30 12821 H 1194.3 2.18476 2.05446 0
M  V30 12822 H 1191.86 1.16401 1.0431 0
M  V30 12823 H 1192.59 -0.0968698 3.24155 0
M  V30 12824 H 1192.38 1.64924 3.55728 0
M  V30 12825 H 1193.87 0.817874 4.09513 0
M  V30 12826 N 1194.3 -1.0692 1.15784 0
M  V30 12827 C 1195.23 -2.16216 0.881649 0
M  V30 12828 C 1196.22 -1.69253 -0.16951 0
M  V30 12829 O 1197.4 -1.94186 -0.0229511 0
M  V30 12830 C 1194.53 -3.4527 0.374982 0
M  V30 12831 C 1193.48 -4.05706 1.36332 0
M  V30 12832 C 1192.81 -5.29894 0.715317 0
M  V30 12833 C 1194.11 -4.45224 2.7308 0
M  V30 12834 H 1195.8 -2.39577 1.79563 0
M  V30 12835 H 1193.35 -1.15141 0.864784 0
M  V30 12836 H 1195.3 -4.2106 0.169279 0
M  V30 12837 H 1194.03 -3.21508 -0.574485 0
M  V30 12838 H 1192.69 -3.31965 1.55546 0
M  V30 12839 H 1192.33 -5.02425 -0.240436 0
M  V30 12840 H 1192.03 -5.71287 1.37494 0
M  V30 12841 H 1193.56 -6.08386 0.519489 0
M  V30 12842 H 1194.97 -5.12124 2.57686 0
M  V30 12843 H 1193.37 -4.97583 3.35457 0
M  V30 12844 H 1194.44 -3.56384 3.28813 0
M  V30 12845 N 1195.78 -0.955326 -1.25345 0
M  V30 12846 C 1196.71 -0.494145 -2.28211 0
M  V30 12847 C 1197.69 0.459875 -1.63766 0
M  V30 12848 O 1198.88 0.358679 -1.90859 0
M  V30 12849 C 1196.01 0.228228 -3.46549 0
M  V30 12850 C 1194.96 -0.640601 -4.23179 0
M  V30 12851 C 1194.29 0.212553 -5.34277 0
M  V30 12852 C 1195.59 -1.91906 -4.85767 0
M  V30 12853 H 1197.28 -1.35391 -2.67039 0
M  V30 12854 H 1194.83 -0.652462 -1.2837 0
M  V30 12855 H 1196.78 0.561995 -4.17636 0
M  V30 12856 H 1195.51 1.12224 -3.06714 0
M  V30 12857 H 1194.16 -0.957462 -3.53876 0
M  V30 12858 H 1193.81 1.10634 -4.90682 0
M  V30 12859 H 1193.51 -0.365473 -5.86462 0
M  V30 12860 H 1195.04 0.541271 -6.08196 0
M  V30 12861 H 1196.45 -1.65165 -5.48993 0
M  V30 12862 H 1194.85 -2.44279 -5.48131 0
M  V30 12863 H 1195.92 -2.62173 -4.07914 0
M  V30 12864 N 1197.26 1.39987 -0.723979 0
M  V30 12865 C 1198.68 1.54547 -0.398403 0
M  V30 12866 C 1198.88 1.69348 1.09194 0
M  V30 12867 O 1197.93 1.68778 1.87804 0
M  V30 12868 C 1199.25 2.76929 -1.1718 0
M  V30 12869 C 1200.79 2.90754 -1.15893 0
M  V30 12870 C 1201.27 4.16059 -1.91465 0
M  V30 12871 N 1202.76 4.23076 -1.88576 0
M  V30 12872 C 1203.5 5.18957 -2.43867 0
M  V30 12873 N 1202.99 6.20695 -3.0775 0
M  V30 12874 N 1204.78 5.11095 -2.33962 0
M  V30 12875 H 1196.94 1.28626 -1.69024 0
M  V30 12876 H 1199.2 0.6226 -0.714894 0
M  V30 12877 H 1198.9 2.72298 -2.22591 0
M  V30 12878 H 1198.78 3.69279 -0.768941 0
M  V30 12879 H 1201.17 2.94884 -0.112978 0
M  V30 12880 H 1201.25 1.99498 -1.60107 0
M  V30 12881 H 1200.89 4.12691 -2.96055 0
M  V30 12882 H 1200.82 5.06339 -1.44665 0
M  V30 12883 H 1203.31 3.50195 -1.42027 0
M  V30 12884 H 1203.62 6.90296 -3.47435 0
M  V30 12885 H 1201.97 6.21114 -3.11837 0
M  V30 12886 H 1205.16 4.30546 -1.83706 0
M  V30 12887 H 1205.33 5.85644 -2.77353 0
M  V30 12888 N 1198.74 0.470782 1.50404 0
M  V30 12889 C 1200.15 0.0155901 1.86693 0
M  V30 12890 C 1200.5 -1.38908 1.38561 0
M  V30 12891 O 1199.63 -2.02971 0.750454 0
M  V30 12892 C 1200.22 0.0215152 3.38793 0
M  V30 12893 C 1198.78 -0.378206 3.74495 0
M  V30 12894 C 1197.93 0.407126 2.74295 0
M  V30 12895 H 1200.88 0.68507 1.43152 0
M  V30 12896 H 1200.9 -0.780717 3.72404 0
M  V30 12897 H 1200.41 1.04397 3.73795 0
M  V30 12898 H 1198.51 -1.40503 3.45094 0
M  V30 12899 H 1198.63 -0.0797643 4.79034 0
M  V30 12900 H 1196.99 -0.139123 2.5432 0
M  V30 12901 H 1197.77 1.42909 3.12141 0
M  V30 12902 N 1200.22 -1.56282 0.203376 0
M  V30 12903 C 1201.15 -2.2247 -0.709183 0
M  V30 12904 C 1202.13 -1.19046 -1.21499 0
M  V30 12905 O 1203.31 -1.47578 -1.26231 0
M  V30 12906 C 1200.44 -2.8905 -1.92529 0
M  V30 12907 C 1199.4 -3.98789 -1.55407 0
M  V30 12908 C 1198.72 -4.52574 -2.84747 0
M  V30 12909 C 1200.02 -5.16774 -0.75775 0
M  V30 12910 H 1201.72 -2.98986 -0.157392 0
M  V30 12911 H 1199.26 -1.43808 -0.0742613 0
M  V30 12912 H 1201.22 -3.34038 -2.56898 0
M  V30 12913 H 1199.94 -2.09952 -2.50175 0
M  V30 12914 H 1198.6 -3.54504 -0.933928 0
M  V30 12915 H 1198.25 -3.70229 -3.40499 0
M  V30 12916 H 1197.95 -5.26627 -2.6065 0
M  V30 12917 H 1199.47 -5.00269 -3.5009 0
M  V30 12918 H 1200.89 -5.58256 -1.30472 0
M  V30 12919 H 1199.28 -5.96945 -0.614583 0
M  V30 12920 H 1200.35 -4.84308 0.239476 0
M  V30 12921 N 1201.7 0.070167 -1.57444 0
M  V30 12922 C 1202.61 1.10106 -2.07157 0
M  V30 12923 C 1203.62 1.42293 -1.00143 0
M  V30 12924 O 1204.8 1.52437 -1.31624 0
M  V30 12925 C 1201.86 2.39486 -2.50694 0
M  V30 12926 C 1200.92 2.14255 -3.72012 0
M  V30 12927 C 1200.16 3.37466 -4.13464 0
M  V30 12928 O 1200.38 4.46645 -3.54773 0
M  V30 12929 O 1199.31 3.25583 -5.0624 0
M  V30 12930 H 1203.14 0.70873 -2.95315 0
M  V30 12931 H 1200.72 0.28441 -1.46668 0
M  V30 12932 H 1202.61 3.15625 -2.79212 0
M  V30 12933 H 1201.28 2.78095 -1.65664 0
M  V30 12934 H 1200.19 1.35816 -3.48575 0
M  V30 12935 H 1201.52 1.80525 -4.57899 0
M  V30 12936 N 1203.17 1.53854 0.341593 0
M  V30 12937 C 1204.1 1.84966 1.42513 0
M  V30 12938 C 1205.08 0.704944 1.54805 0
M  V30 12939 O 1206.27 0.957036 1.68981 0
M  V30 12940 C 1203.4 2.06099 2.79536 0
M  V30 12941 C 1202.35 3.21919 2.82049 0
M  V30 12942 C 1201.68 3.28389 4.21977 0
M  V30 12943 C 1202.98 4.59984 2.4741 0
M  V30 12944 H 1204.67 2.7571 1.16724 0
M  V30 12945 H 1202.22 1.32662 0.560073 0
M  V30 12946 H 1204.17 2.26448 3.55386 0
M  V30 12947 H 1202.9 1.12087 3.06764 0
M  V30 12948 H 1201.56 3.01429 2.08653 0
M  V30 12949 H 1201.2 2.3197 4.46317 0
M  V30 12950 H 1200.9 4.0622 4.24569 0
M  V30 12951 H 1202.43 3.50951 4.99666 0
M  V30 12952 H 1203.84 4.80334 3.12973 0
M  V30 12953 H 1202.24 5.40233 2.61282 0
M  V30 12954 H 1203.31 4.6346 1.42594 0
M  V30 12955 N 1204.65 -0.602709 1.4562 0
M  V30 12956 C 1205.56 -1.74132 1.5721 0
M  V30 12957 C 1206.58 -1.67909 0.456347 0
M  V30 12958 O 1207.75 -1.88178 0.717714 0
M  V30 12959 C 1204.82 -3.10604 1.54032 0
M  V30 12960 C 1203.88 -3.28244 2.76685 0
M  V30 12961 C 1203.11 -4.58205 2.73649 0
M  V30 12962 O 1203.34 -5.40836 1.81254 0
M  V30 12963 O 1202.27 -4.78663 3.64919 0
M  V30 12964 H 1206.1 -1.67304 2.53462 0
M  V30 12965 H 1203.68 -0.767381 1.28186 0
M  V30 12966 H 1205.56 -3.91904 1.54885 0
M  V30 12967 H 1204.24 -3.17913 0.60934 0
M  V30 12968 H 1203.14 -2.46514 2.81393 0
M  V30 12969 H 1204.48 -3.25814 3.68925 0
M  V30 12970 N 1206.13 -1.32992 -0.845635 0
M  V30 12971 C 1207.08 -1.22652 -1.97634 0
M  V30 12972 C 1208.07 -0.129344 -1.68905 0
M  V30 12973 O 1209.28 -0.292863 -1.77602 0
M  V30 12974 H 1205.65 -0.380439 -0.648668 0
M  V30 12975 H 1207.62 -2.18261 -2.03481 0
M  V30 12976 C 1206.37 -0.975677 -3.3373 0
M  V30 12977 H 1205.7 -1.81217 -3.56371 0
M  V30 12978 H 1207.14 -0.943608 -4.13367 0
M  V30 12979 C 1205.59 0.321491 -3.35363 0
M  V30 12980 O 1206.12 1.33042 -3.79029 0
M  V30 12981 N 1204.33 0.346648 -2.88525 0
M  V30 12982 H 1203.88 -0.474931 -2.53184 0
M  V30 12983 H 1203.84 1.2144 -2.9 0
M  V30 12984 N 1207.61 1.06304 -1.1635 0
M  V30 12985 C 1208.88 1.75916 -0.855166 0
M  V30 12986 C 1209.26 2.0094 0.647024 0
M  V30 12987 O 1208.61 1.63642 1.59479 0
M  V30 12988 C 1208.82 3.06028 -1.67774 0
M  V30 12989 C 1210.17 3.80184 -1.89065 0
M  V30 12990 O 1211.19 3.15868 -1.64639 0
M  V30 12991 O 1210.05 4.95723 -2.30045 0
M  V30 12992 H 1207.15 0.764432 -0.315551 0
M  V30 12993 H 1209.69 1.12574 -1.26985 0
M  V30 12994 H 1208.47 2.83498 -2.69712 0
M  V30 12995 H 1208.09 3.77104 -1.26009 0
M  V30 12996 N 1209.09 0.96196 1.24836 0
M  V30 12997 C 1210.31 0.63814 1.96813 0
M  V30 12998 C 1210.73 -0.79127 1.71419 0
M  V30 12999 O 1210.09 -1.5302 0.994546 0
M  V30 13000 C 1210.14 0.89626 3.50213 0
M  V30 13001 O 1209.86 2.26947 3.74735 0
M  V30 13002 C 1211.36 0.585836 4.39412 0
M  V30 13003 H 1208.58 0.238598 0.627146 0
M  V30 13004 H 1211.12 1.28833 1.58815 0
M  V30 13005 H 1209.28 0.292368 3.86295 0
M  V30 13006 H 1209.69 2.34514 4.69152 0
M  V30 13007 H 1211.17 0.816935 5.45921 0
M  V30 13008 H 1211.64 -0.479784 4.36572 0
M  V30 13009 H 1212.25 1.16938 4.08908 0
M  V30 13010 N 1210.56 -1.39601 0.731392 0
M  V30 13011 C 1211.81 -2.00883 0.278168 0
M  V30 13012 C 1212.14 -1.57897 -1.13059 0
M  V30 13013 O 1211.42 -0.806203 -1.77005 0
M  V30 13014 C 1211.7 -3.58132 0.375969 0
M  V30 13015 C 1211.55 -4.11147 1.82423 0
M  V30 13016 C 1212.87 -4.39425 -0.243702 0
M  V30 13017 H 1209.99 -0.729831 0.102549 0
M  V30 13018 H 1212.63 -1.65859 0.926869 0
M  V30 13019 H 1210.78 -3.881 -0.176329 0
M  V30 13020 H 1212.46 -3.91914 2.43313 0
M  V30 13021 H 1210.7 -3.64842 2.34675 0
M  V30 13022 H 1211.37 -5.20291 1.84396 0
M  V30 13023 H 1213.85 -4.1548 0.227067 0
M  V30 13024 H 1212.72 -5.48709 -0.144907 0
M  V30 13025 H 1212.98 -4.21642 -1.32929 0
M  V30 13026 N 1212.04 -0.478751 -1.50152 0
M  V30 13027 C 1213.29 0.0734397 -2.01967 0
M  V30 13028 C 1213.61 1.39523 -1.36229 0
M  V30 13029 O 1212.88 1.89141 -0.510149 0
M  V30 13030 H 1211.46 0.0301305 -0.746392 0
M  V30 13031 H 1214.12 -0.630921 -1.84406 0
M  V30 13032 H 1213.22 0.21937 -3.11328 0
M  V30 13033 N 1213.52 1.56172 -0.211661 0
M  V30 13034 C 1214.77 1.97214 0.423008 0
M  V30 13035 C 1215.08 1.10203 1.616 0
M  V30 13036 O 1216.29 1.411 2.31955 0
M  V30 13037 C 1214.74 3.50805 0.803977 0
M  V30 13038 C 1214.35 4.46505 -0.365654 0
M  V30 13039 C 1216.1 4.00582 1.4048 0
M  V30 13040 C 1214 5.91388 0.0371986 0
M  V30 13041 H 1212.93 0.736432 0.161814 0
M  V30 13042 H 1215.58 1.80925 -0.306307 0
M  V30 13043 H 1213.97 3.62659 1.59043 0
M  V30 13044 H 1215.14 4.46394 -1.14321 0
M  V30 13045 H 1213.46 4.07015 -0.879061 0
M  V30 13046 H 1216.05 5.06317 1.71894 0
M  V30 13047 H 1216.4 3.45853 2.31713 0
M  V30 13048 H 1216.93 3.9191 0.681984 0
M  V30 13049 H 1213.67 6.50078 -0.841367 0
M  V30 13050 H 1213.19 5.94716 0.77927 0
M  V30 13051 H 1214.87 6.4531 0.467309 0
M  V30 13052 N 1215 -0.0618163 1.57479 0
M  V30 13053 C 1215.93 -1.07252 2.07411 0
M  V30 13054 C 1216.91 -1.39756 0.969649 0
M  V30 13055 O 1218.09 -1.4921 1.24298 0
M  V30 13056 C 1215.22 -2.38313 2.52635 0
M  V30 13057 C 1214.18 -2.20136 3.67048 0
M  V30 13058 C 1213.5 -3.56668 3.98361 0
M  V30 13059 C 1214.8 -1.61437 4.96725 0
M  V30 13060 H 1216.5 -0.656983 2.92103 0
M  V30 13061 H 1214.04 -0.314579 1.40522 0
M  V30 13062 H 1216 -3.09319 2.86181 0
M  V30 13063 H 1214.72 -2.81865 1.64984 0
M  V30 13064 H 1213.38 -1.51569 3.338 0
M  V30 13065 H 1213.03 -3.97809 3.07826 0
M  V30 13066 H 1212.73 -3.45342 4.75408 0
M  V30 13067 H 1214.25 -4.2909 4.34413 0
M  V30 13068 H 1215.67 -2.2232 5.28438 0
M  V30 13069 H 1214.06 -1.60779 5.78161 0
M  V30 13070 H 1215.13 -0.576795 4.81457 0
M  V30 13071 N 1216.48 -1.54033 -0.333429 0
M  V30 13072 C 1217.72 -1.72019 -1.07411 0
M  V30 13073 C 1218.06 -0.487265 -1.87988 0
M  V30 13074 O 1217.33 0.515757 -1.87537 0
M  V30 13075 C 1217.61 -2.98986 -2.00698 0
M  V30 13076 C 1217.47 -4.32509 -1.23517 0
M  V30 13077 C 1218.79 -3.21663 -3.00368 0
M  V30 13078 H 1215.9 -0.625919 -0.389094 0
M  V30 13079 H 1218.55 -1.86717 -0.351697 0
M  V30 13080 H 1216.7 -2.86586 -2.62298 0
M  V30 13081 H 1218.37 -4.56775 -0.644522 0
M  V30 13082 H 1216.61 -4.3046 -0.537298 0
M  V30 13083 H 1217.28 -5.17547 -1.91962 0
M  V30 13084 H 1219.76 -3.33459 -2.48886 0
M  V30 13085 H 1218.63 -4.11877 -3.62834 0
M  V30 13086 H 1218.9 -2.3843 -3.72295 0
M  V30 13087 N 1217.95 0.594978 -1.45938 0
M  V30 13088 C 1219.18 1.38482 -1.54394 0
M  V30 13089 C 1219.6 1.87222 -0.181563 0
M  V30 13090 O 1218.96 1.60869 0.836119 0
M  V30 13091 C 1219.01 2.55676 -2.54287 0
M  V30 13092 O 1218.11 3.5672 -2.06941 0
M  V30 13093 H 1217.46 0.412918 -0.519995 0
M  V30 13094 H 1219.99 0.722899 -1.91404 0
M  V30 13095 H 1220 3.02756 -2.73501 0
M  V30 13096 H 1218.67 2.19552 -3.53228 0
M  V30 13097 H 1217.25 3.16204 -1.97661 0
M  V30 13098 N 1219.43 1.33438 0.838571 0
M  V30 13099 C 1220.66 1.27951 1.62592 0
M  V30 13100 C 1221.08 -0.149502 1.88207 0
M  V30 13101 O 1220.43 -1.09174 1.46244 0
M  V30 13102 C 1220.48 2.0523 2.97595 0
M  V30 13103 O 1220.2 3.42557 2.73105 0
M  V30 13104 C 1221.71 2.06957 3.92025 0
M  V30 13105 H 1218.93 0.440796 0.505905 0
M  V30 13106 H 1221.47 1.75814 1.0445 0
M  V30 13107 H 1219.62 1.61049 3.52338 0
M  V30 13108 H 1220.04 3.82314 3.59076 0
M  V30 13109 H 1221.51 2.65481 4.83967 0
M  V30 13110 H 1221.99 1.0599 4.26219 0
M  V30 13111 H 1222.6 2.51158 3.4322 0
M  V30 13112 N 1220.91 -1.05686 1.16912 0
M  V30 13113 C 1221.87 -2.11481 0.883647 0
M  V30 13114 C 1222.87 -1.60321 -0.124034 0
M  V30 13115 O 1224.06 -1.73868 0.107566 0
M  V30 13116 C 1221.2 -3.3937 0.322649 0
M  V30 13117 H 1222.39 -2.38239 1.8216 0
M  V30 13118 H 1219.94 -1.2185 0.978895 0
M  V30 13119 H 1220.68 -3.18266 -0.622695 0
M  V30 13120 H 1220.46 -3.77812 1.04883 0
M  V30 13121 H 1221.95 -4.17362 0.141072 0
M  V30 13122 N 1222.39 -0.968567 -1.24324 0
M  V30 13123 C 1223.63 -0.631863 -1.92705 0
M  V30 13124 C 1223.97 0.83096 -1.75524 0
M  V30 13125 O 1223.24 1.59795 -1.10887 0
M  V30 13126 C 1223.53 -1.00845 -3.45691 0
M  V30 13127 C 1223.38 -2.52803 -3.72036 0
M  V30 13128 C 1224.7 -0.543647 -4.36729 0
M  V30 13129 H 1221.82 -0.231027 -0.699854 0
M  V30 13130 H 1224.46 -1.20773 -1.46676 0
M  V30 13131 H 1222.61 -0.518434 -3.85025 0
M  V30 13132 H 1224.28 -3.09289 -3.42255 0
M  V30 13133 H 1222.52 -2.95963 -3.17157 0
M  V30 13134 H 1223.19 -2.74203 -4.79079 0
M  V30 13135 H 1225.67 -0.964182 -4.04775 0
M  V30 13136 H 1224.55 -0.8357 -5.42501 0
M  V30 13137 H 1224.81 0.556256 -4.38587 0
M  V30 13138 N 1223.87 1.39211 -0.738786 0
M  V30 13139 C 1224.78 2.34374 -0.102958 0
M  V30 13140 C 1225.79 1.58514 0.717596 0
M  V30 13141 O 1226.97 1.90786 0.645186 0
M  V30 13142 C 1224.03 3.37562 0.790733 0
M  V30 13143 C 1223.09 4.29279 -0.0425028 0
M  V30 13144 C 1222.33 5.27539 0.808628 0
M  V30 13145 O 1222.55 5.32396 2.04722 0
M  V30 13146 O 1221.48 6.0144 0.235279 0
M  V30 13147 H 1225.31 2.90412 -0.888498 0
M  V30 13148 H 1222.9 1.40803 -0.499498 0
M  V30 13149 H 1224.78 4.00783 1.30196 0
M  V30 13150 H 1223.45 2.83903 1.55502 0
M  V30 13151 H 1222.36 3.69268 -0.599335 0
M  V30 13152 H 1223.69 4.86154 -0.7691 0
M  V30 13153 N 1225.34 0.486708 1.49896 0
M  V30 13154 C 1226.27 -0.288898 2.31706 0
M  V30 13155 C 1227.26 -0.975901 1.3932 0
M  V30 13156 O 1228.44 -0.970065 1.68236 0
M  V30 13157 C 1225.57 -1.36218 3.19471 0
M  V30 13158 C 1224.52 -0.795884 4.20535 0
M  V30 13159 C 1223.85 -1.96862 4.97141 0
M  V30 13160 C 1225.15 0.203421 5.21904 0
M  V30 13161 H 1226.84 0.393934 2.96797 0
M  V30 13162 H 1224.39 0.190894 1.42729 0
M  V30 13163 H 1226.34 -1.91238 3.75508 0
M  V30 13164 H 1225.07 -2.074 2.52295 0
M  V30 13165 H 1223.73 -0.267538 3.65622 0
M  V30 13166 H 1223.37 -2.66779 4.26425 0
M  V30 13167 H 1223.07 -1.59585 5.65514 0
M  V30 13168 H 1224.6 -2.52343 5.56017 0
M  V30 13169 H 1226.01 -0.258144 5.72719 0
M  V30 13170 H 1224.41 0.491273 5.98086 0
M  V30 13171 H 1225.48 1.12414 4.7169 0
M  V30 13172 N 1226.82 -1.56058 0.219941 0
M  V30 13173 C 1228.05 -2.031 -0.42014 0
M  V30 13174 C 1228.47 -1.09875 -1.52673 0
M  V30 13175 O 1227.83 -0.0866458 -1.81093 0
M  V30 13176 C 1227.88 -3.48389 -0.93047 0
M  V30 13177 O 1226.98 -3.583 -2.04192 0
M  V30 13178 H 1226.32 -0.657129 -0.0952772 0
M  V30 13179 H 1228.85 -2.01787 0.338105 0
M  V30 13180 H 1228.86 -3.88678 -1.2407 0
M  V30 13181 H 1227.54 -4.15725 -0.120539 0
M  V30 13182 H 1226.12 -3.29898 -1.73845 0
M  V30 13183 N 1228.3 0.053464 -1.57509 0
M  V30 13184 C 1229.23 1.06151 -2.07977 0
M  V30 13185 C 1230.21 1.3924 -0.977047 0
M  V30 13186 O 1231.4 1.48549 -1.25087 0
M  V30 13187 C 1228.53 2.36969 -2.53895 0
M  V30 13188 C 1227.48 2.18186 -3.6821 0
M  V30 13189 C 1226.81 3.54551 -4.00247 0
M  V30 13190 C 1228.11 1.588 -4.97574 0
M  V30 13191 H 1229.8 0.641483 -2.92447 0
M  V30 13192 H 1227.35 0.307122 -1.40687 0
M  V30 13193 H 1229.3 3.07797 -2.87817 0
M  V30 13194 H 1228.02 2.80986 -1.66476 0
M  V30 13195 H 1226.68 1.49796 -3.34599 0
M  V30 13196 H 1226.33 3.96171 -3.09932 0
M  V30 13197 H 1226.03 3.42816 -4.77232 0
M  V30 13198 H 1227.56 4.2678 -4.36682 0
M  V30 13199 H 1228.97 2.19515 -5.29609 0
M  V30 13200 H 1227.37 1.57711 -5.79006 0
M  V30 13201 H 1228.44 0.551254 -4.81756 0
M  V30 13202 N 1229.78 1.54207 0.325255 0
M  V30 13203 C 1231.03 1.71991 1.0613 0
M  V30 13204 C 1231.35 0.495505 1.88599 0
M  V30 13205 O 1230.62 -0.490504 1.8966 0
M  V30 13206 H 1229.2 0.634137 0.394816 0
M  V30 13207 H 1231.86 1.91507 0.362101 0
M  V30 13208 H 1230.96 2.59878 1.72829 0
M  V30 13209 N 1231.26 -0.58723 1.46251 0
M  V30 13210 C 1232.67 -0.910129 1.31106 0
M  V30 13211 C 1232.87 -1.99557 0.279141 0
M  V30 13212 O 1231.93 -2.50466 -0.319867 0
M  V30 13213 C 1233.24 -1.33177 2.69601 0
M  V30 13214 C 1234.79 -1.44486 2.77656 0
M  V30 13215 C 1235.27 -1.90018 4.16722 0
M  V30 13216 N 1236.76 -1.97219 4.19117 0
M  V30 13217 C 1237.49 -2.33714 5.23608 0
M  V30 13218 N 1236.99 -2.69034 6.3843 0
M  V30 13219 N 1238.78 -2.3423 5.10972 0
M  V30 13220 H 1230.93 0.12987 2.12003 0
M  V30 13221 H 1233.19 -0.00456718 0.947989 0
M  V30 13222 H 1232.9 -0.608243 3.464 0
M  V30 13223 H 1232.77 -2.29421 2.99409 0
M  V30 13224 H 1235.16 -2.15926 2.01147 0
M  V30 13225 H 1235.24 -0.465047 2.51537 0
M  V30 13226 H 1234.89 -1.19159 4.93724 0
M  V30 13227 H 1234.82 -2.88949 4.40245 0
M  V30 13228 H 1237.31 -1.72431 3.36268 0
M  V30 13229 H 1237.62 -2.95822 7.13939 0
M  V30 13230 H 1235.97 -2.66683 6.41798 0
M  V30 13231 H 1239.16 -2.06056 4.20308 0
M  V30 13232 H 1239.33 -2.62345 5.92519 0
M  V30 13233 N 1232.74 -1.33881 -0.831482 0
M  V30 13234 C 1234.15 -1.13376 -1.1233 0
M  V30 13235 C 1234.35 0.0704402 -2.01377 0
M  V30 13236 O 1233.41 0.748516 -2.4115 0
M  V30 13237 C 1234.72 -2.42484 -1.77826 0
M  V30 13238 C 1236.27 -2.4846 -1.90359 0
M  V30 13239 C 1236.74 -3.77548 -2.59272 0
M  V30 13240 N 1238.23 -3.7866 -2.66778 0
M  V30 13241 C 1238.97 -4.75258 -3.20807 0
M  V30 13242 N 1238.47 -5.82234 -3.75466 0
M  V30 13243 N 1240.26 -4.62724 -3.19128 0
M  V30 13244 H 1232.41 -2.11051 -0.238998 0
M  V30 13245 H 1234.67 -0.932893 -0.168565 0
M  V30 13246 H 1234.38 -3.30647 -1.19857 0
M  V30 13247 H 1234.25 -2.55186 -2.77777 0
M  V30 13248 H 1236.64 -1.60742 -2.47479 0
M  V30 13249 H 1236.72 -2.39693 -0.893359 0
M  V30 13250 H 1236.36 -4.65651 -2.02808 0
M  V30 13251 H 1236.29 -3.83594 -3.60781 0
M  V30 13252 H 1238.79 -3.01351 -2.28026 0
M  V30 13253 H 1239.1 -6.51968 -4.14918 0
M  V30 13254 H 1237.44 -5.85959 -3.73733 0
M  V30 13255 H 1240.63 -3.78303 -2.75688 0
M  V30 13256 H 1240.81 -5.38175 -3.60932 0
M  V30 13257 N 1234.21 1.05064 -1.1747 0
M  V30 13258 C 1235.44 1.81761 -0.988464 0
M  V30 13259 C 1235.86 1.83028 0.463272 0
M  V30 13260 O 1235.21 1.25846 1.32171 0
M  V30 13261 C 1235.26 3.2782 -1.5237 0
M  V30 13262 O 1234.99 3.26726 -2.91859 0
M  V30 13263 C 1236.49 4.212 -1.38223 0
M  V30 13264 H 1233.71 0.572712 -0.349631 0
M  V30 13265 H 1236.25 1.32477 -1.55789 0
M  V30 13266 H 1234.41 3.7437 -0.996272 0
M  V30 13267 H 1234.82 4.18151 -3.16623 0
M  V30 13268 H 1236.29 5.2166 -1.80485 0
M  V30 13269 H 1236.77 4.37962 -0.329491 0
M  V30 13270 H 1237.38 3.80506 -1.89988 0
M  V30 13271 N 1235.69 0.975146 1.23809 0
M  V30 13272 C 1236.62 0.530389 2.27396 0
M  V30 13273 C 1237.6 -0.433763 1.64476 0
M  V30 13274 O 1238.79 -0.32827 1.91405 0
M  V30 13275 C 1235.92 -0.173066 3.46869 0
M  V30 13276 C 1234.87 0.707844 4.22106 0
M  V30 13277 C 1234.2 -0.127527 5.34548 0
M  V30 13278 C 1235.5 1.99609 4.82652 0
M  V30 13279 H 1237.19 1.39622 2.64851 0
M  V30 13280 H 1234.74 0.672802 1.27316 0
M  V30 13281 H 1236.69 -0.495481 4.18477 0
M  V30 13282 H 1235.41 -1.0733 3.0846 0
M  V30 13283 H 1234.07 1.01364 3.52308 0
M  V30 13284 H 1233.72 -1.02814 4.9238 0
M  V30 13285 H 1233.42 0.458728 5.85807 0
M  V30 13286 H 1234.95 -0.444443 6.0898 0
M  V30 13287 H 1236.36 1.73878 5.46296 0
M  V30 13288 H 1234.76 2.52969 5.44175 0
M  V30 13289 H 1235.83 2.68629 4.03691 0
M  V30 13290 N 1237.17 -1.38817 0.746158 0
M  V30 13291 C 1238.59 -1.53894 0.42294 0
M  V30 13292 C 1238.79 -1.71064 -1.06486 0
M  V30 13293 O 1237.84 -1.71744 -1.85095 0
M  V30 13294 C 1239.15 -2.75029 1.2157 0
M  V30 13295 C 1240.7 -2.88873 1.20504 0
M  V30 13296 C 1241.18 -4.1296 1.9806 0
M  V30 13297 N 1242.67 -4.20022 1.95283 0
M  V30 13298 C 1243.4 -5.15011 2.52093 0
M  V30 13299 N 1242.9 -6.1572 3.17586 0
M  V30 13300 N 1244.69 -5.07308 2.42064 0
M  V30 13301 H 1236.84 -1.25921 1.71049 0
M  V30 13302 H 1239.11 -0.611148 0.724708 0
M  V30 13303 H 1238.81 -2.68722 2.26895 0
M  V30 13304 H 1238.69 -3.68009 0.827593 0
M  V30 13305 H 1241.07 -2.94667 0.159877 0
M  V30 13306 H 1241.15 -1.96925 1.63261 0
M  V30 13307 H 1240.8 -4.07929 3.02583 0
M  V30 13308 H 1240.73 -5.03974 1.52702 0
M  V30 13309 H 1243.22 -3.47892 1.4758 0
M  V30 13310 H 1243.53 -6.84682 3.58373 0
M  V30 13311 H 1241.88 -6.16075 3.21678 0
M  V30 13312 H 1245.07 -4.27569 1.90532 0
M  V30 13313 H 1245.24 -5.81158 2.86635 0
M  V30 13314 N 1238.65 -0.49465 -1.49636 0
M  V30 13315 C 1240.06 -0.0452894 -1.86645 0
M  V30 13316 C 1240.41 1.36686 -1.40753 0
M  V30 13317 O 1239.53 2.01751 -0.78265 0
M  V30 13318 C 1240.13 -0.0754115 -3.38716 0
M  V30 13319 C 1238.69 0.318579 -3.75049 0
M  V30 13320 C 1237.84 -0.450712 -2.73613 0
M  V30 13321 H 1240.79 -0.707758 -1.42044 0
M  V30 13322 H 1240.81 0.721372 -3.73599 0
M  V30 13323 H 1240.32 -1.10331 -3.72087 0
M  V30 13324 H 1238.42 1.34995 -3.47285 0
M  V30 13325 H 1238.53 0.00354416 -4.791 0
M  V30 13326 H 1236.9 0.0986455 -2.54509 0
M  V30 13327 H 1237.68 -1.47857 -3.09828 0
M  V30 13328 N 1240.13 1.55939 -0.228214 0
M  V30 13329 C 1241.09 2.1932 0.665681 0
M  V30 13330 C 1242.09 1.15699 1.11671 0
M  V30 13331 O 1243.28 1.40893 1.02444 0
M  V30 13332 C 1240.41 2.82185 1.9127 0
M  V30 13333 H 1241.6 2.99687 0.112986 0
M  V30 13334 H 1239.16 1.56285 0.0213865 0
M  V30 13335 H 1239.89 2.05706 2.5071 0
M  V30 13336 H 1239.68 3.58073 1.5977 0
M  V30 13337 H 1241.17 3.30748 2.54942 0
M  V30 13338 N 1241.6 -0.0451101 1.57535 0
M  V30 13339 C 1242.85 -0.740209 1.88809 0
M  V30 13340 C 1243.18 -1.75854 0.823956 0
M  V30 13341 O 1242.46 -1.93817 -0.16286 0
M  V30 13342 C 1242.74 -1.42424 3.30737 0
M  V30 13343 C 1242.59 -0.42052 4.4783 0
M  V30 13344 C 1243.91 -2.36241 3.7132 0
M  V30 13345 H 1241.03 -0.267628 0.686691 0
M  V30 13346 H 1243.67 -0.00309149 1.9 0
M  V30 13347 H 1241.82 -2.05254 3.29853 0
M  V30 13348 H 1243.5 0.204625 4.60846 0
M  V30 13349 H 1241.74 0.261739 4.3301 0
M  V30 13350 H 1242.41 -0.937298 5.43984 0
M  V30 13351 H 1244.89 -1.83468 3.73468 0
M  V30 13352 H 1243.76 -2.81091 4.71465 0
M  V30 13353 H 1244.02 -3.2222 3.02699 0
M  V30 13354 N 1243.08 -1.54377 -0.317073 0
M  V30 13355 C 1244.33 -1.73149 -1.05581 0
M  V30 13356 C 1244.66 -0.507176 -1.8746 0
M  V30 13357 O 1243.94 0.495837 -1.88074 0
M  V30 13358 C 1244.22 -3.01098 -1.97515 0
M  V30 13359 C 1244.07 -4.33794 -1.18922 0
M  V30 13360 C 1245.39 -3.24831 -2.9694 0
M  V30 13361 H 1242.51 -0.630011 -0.382434 0
M  V30 13362 H 1245.15 -1.87079 -0.331873 0
M  V30 13363 H 1243.3 -2.89352 -2.59244 0
M  V30 13364 H 1244.97 -4.57433 -0.596039 0
M  V30 13365 H 1243.22 -4.31005 -0.491612 0
M  V30 13366 H 1243.89 -5.19554 -1.86462 0
M  V30 13367 H 1246.36 -3.3608 -2.45335 0
M  V30 13368 H 1245.24 -4.15702 -3.58445 0
M  V30 13369 H 1245.5 -2.42365 -3.69745 0
M  V30 13370 N 1244.56 0.579466 -1.4656 0
M  V30 13371 C 1245.81 1.33492 -1.51738 0
M  V30 13372 C 1246.13 1.94241 -0.171926 0
M  V30 13373 O 1245.4 1.78737 0.801875 0
M  V30 13374 H 1243.98 0.49565 -0.558874 0
M  V30 13375 H 1246.64 0.678394 -1.82712 0
M  V30 13376 H 1245.74 2.13995 -2.27183 0
M  V30 13377 N 1246.04 1.3432 0.824371 0
M  V30 13378 C 1247.28 1.26783 1.58284 0
M  V30 13379 C 1247.62 -0.162282 1.93521 0
M  V30 13380 O 1246.89 -1.1073 1.59903 0
M  V30 13381 C 1247.18 2.15725 2.88331 0
M  V30 13382 C 1247.03 3.67266 2.59684 0
M  V30 13383 C 1248.35 2.04141 3.8989 0
M  V30 13384 H 1245.47 0.461893 0.574303 0
M  V30 13385 H 1248.11 1.64558 0.949769 0
M  V30 13386 H 1246.26 1.83639 3.42358 0
M  V30 13387 H 1247.93 4.09711 2.11978 0
M  V30 13388 H 1246.17 3.88426 1.93151 0
M  V30 13389 H 1246.84 4.24863 3.52414 0
M  V30 13390 H 1249.32 2.3231 3.45212 0
M  V30 13391 H 1248.2 2.68601 4.7869 0
M  V30 13392 H 1248.46 1.01795 4.30221 0
M  V30 13393 N 1247.52 -1.0444 1.18026 0
M  V30 13394 C 1248.46 -2.12365 0.903865 0
M  V30 13395 C 1249.43 -1.65373 -0.155252 0
M  V30 13396 O 1250.62 -1.90793 -0.016419 0
M  V30 13397 C 1247.76 -3.4239 0.431603 0
M  V30 13398 C 1246.87 -4.03016 1.55571 0
M  V30 13399 C 1246.01 -5.20988 1.03655 0
M  V30 13400 C 1245.05 -5.73636 2.1356 0
M  V30 13401 N 1244.18 -6.82901 1.63066 0
M  V30 13402 H 1249.02 -2.35346 1.82802 0
M  V30 13403 H 1246.56 -1.15447 0.911618 0
M  V30 13404 H 1248.52 -4.16967 0.139296 0
M  V30 13405 H 1247.15 -3.19569 -0.455576 0
M  V30 13406 H 1246.2 -3.25803 1.96358 0
M  V30 13407 H 1247.51 -4.38122 2.38434 0
M  V30 13408 H 1246.67 -6.02665 0.698546 0
M  V30 13409 H 1245.4 -4.87377 0.177457 0
M  V30 13410 H 1244.41 -4.90583 2.4821 0
M  V30 13411 H 1245.63 -6.09293 2.99899 0
M  V30 13412 H 1243.58 -6.51172 0.794394 0
M  V30 13413 H 1243.5 -7.1705 2.3953 0
M  V30 13414 H 1244.77 -7.68211 1.32181 0
M  V30 13415 N 1248.99 -0.981699 -1.2329 0
M  V30 13416 C 1249.92 -0.542441 -2.27112 0
M  V30 13417 C 1250.91 0.425034 -1.64704 0
M  V30 13418 O 1252.09 0.318114 -1.91577 0
M  V30 13419 C 1249.22 0.154668 -3.46955 0
M  V30 13420 C 1248.17 -0.73022 -4.21725 0
M  V30 13421 C 1247.5 0.0991766 -5.34608 0
M  V30 13422 C 1248.8 -2.02166 -4.81587 0
M  V30 13423 H 1250.49 -1.41024 -2.64107 0
M  V30 13424 H 1248.04 -0.679544 -1.26957 0
M  V30 13425 H 1249.99 0.473281 -4.18734 0
M  V30 13426 H 1248.72 1.05693 -3.09025 0
M  V30 13427 H 1247.38 -1.03231 -3.51765 0
M  V30 13428 H 1247.02 1.00201 -4.92919 0
M  V30 13429 H 1246.72 -0.489788 -5.85555 0
M  V30 13430 H 1248.25 0.412141 -6.09207 0
M  V30 13431 H 1249.66 -1.76773 -5.45366 0
M  V30 13432 H 1248.06 -2.55851 -5.42826 0
M  V30 13433 H 1249.13 -2.70766 -4.02261 0
M  V30 13434 N 1250.47 1.3842 -0.753509 0
M  V30 13435 C 1251.75 1.94181 -0.235142 0
M  V30 13436 C 1252.13 1.68881 1.26659 0
M  V30 13437 O 1251.48 1.02731 2.04104 0
M  V30 13438 C 1251.69 3.43998 -0.588751 0
M  V30 13439 C 1253.04 4.21044 -0.548352 0
M  V30 13440 O 1254.06 3.52279 -0.52704 0
M  V30 13441 O 1252.92 5.43631 -0.559221 0
M  V30 13442 H 1250.01 0.825536 -0.0491834 0
M  V30 13443 H 1252.56 1.47813 -0.833626 0
M  V30 13444 H 1251.33 3.55921 -1.6259 0
M  V30 13445 H 1250.95 3.97582 0.0377429 0
M  V30 13446 N 1251.95 0.502579 1.49372 0
M  V30 13447 C 1252.88 -0.264307 2.31999 0
M  V30 13448 C 1253.86 -0.96107 1.40348 0
M  V30 13449 O 1255.05 -0.952167 1.69255 0
M  V30 13450 C 1252.18 -1.32822 3.20898 0
M  V30 13451 C 1251.13 -0.751236 4.21355 0
M  V30 13452 C 1250.46 -1.91578 4.99201 0
M  V30 13453 C 1251.76 0.258764 5.21659 0
M  V30 13454 H 1253.45 0.425391 2.96363 0
M  V30 13455 H 1251 0.206022 1.42519 0
M  V30 13456 H 1252.95 -1.87245 3.77515 0
M  V30 13457 H 1251.67 -2.04712 2.54481 0
M  V30 13458 H 1250.33 -0.228743 3.65886 0
M  V30 13459 H 1249.98 -2.62241 4.2923 0
M  V30 13460 H 1249.68 -1.53578 5.67175 0
M  V30 13461 H 1251.2 -2.46432 5.58663 0
M  V30 13462 H 1252.62 -0.197385 5.7296 0
M  V30 13463 H 1251.02 0.554681 5.97531 0
M  V30 13464 H 1252.09 1.1741 4.70471 0
M  V30 13465 N 1253.43 -1.55816 0.23648 0
M  V30 13466 C 1254.34 -2.24576 -0.678439 0
M  V30 13467 C 1255.35 -1.25836 -1.20172 0
M  V30 13468 O 1256.53 -1.58686 -1.24019 0
M  V30 13469 C 1253.6 -2.92376 -1.86325 0
M  V30 13470 C 1252.66 -4.06499 -1.38047 0
M  V30 13471 C 1251.89 -4.71057 -2.50881 0
M  V30 13472 O 1252.11 -4.34652 -3.69369 0
M  V30 13473 O 1251.05 -5.59768 -2.21232 0
M  V30 13474 H 1254.87 -3.03452 -0.122601 0
M  V30 13475 H 1252.46 -1.49399 0.00540803 0
M  V30 13476 H 1254.34 -3.35117 -2.55488 0
M  V30 13477 H 1253.01 -2.16448 -2.40691 0
M  V30 13478 H 1251.92 -3.68296 -0.656422 0
M  V30 13479 H 1253.25 -4.84214 -0.883024 0
M  V30 13480 N 1254.91 0.036755 -1.57557 0
M  V30 13481 C 1255.87 1.02435 -2.05036 0
M  V30 13482 C 1256.87 1.29506 -0.953146 0
M  V30 13483 O 1258.06 1.24638 -1.217 0
M  V30 13484 C 1255.19 2.3592 -2.46079 0
M  V30 13485 H 1256.38 0.614384 -2.93539 0
M  V30 13486 H 1253.94 0.283396 -1.53709 0
M  V30 13487 H 1254.67 2.8168 -1.60708 0
M  V30 13488 H 1254.46 2.17603 -3.26177 0
M  V30 13489 H 1255.95 3.06839 -2.83266 0
M  V30 13490 N 1256.39 1.54543 0.308881 0
M  V30 13491 C 1257.63 1.74639 1.04273 0
M  V30 13492 C 1257.99 0.521584 1.85195 0
M  V30 13493 O 1257.28 -0.486029 1.85333 0
M  V30 13494 C 1257.47 2.97124 1.98626 0
M  V30 13495 C 1257.3 4.31399 1.26983 0
M  V30 13496 C 1256.07 4.95301 1.00025 0
M  V30 13497 C 1258.27 5.09808 0.67827 0
M  V30 13498 N 1256.25 6.13377 0.253269 0
M  V30 13499 C 1257.62 6.19967 0.0636574 0
M  V30 13500 C 1259.68 4.9448 0.582538 0
M  V30 13501 C 1258.38 7.1647 -0.637416 0
M  V30 13502 C 1260.41 5.91307 -0.104864 0
M  V30 13503 C 1259.77 7.00829 -0.70836 0
M  V30 13504 H 1255.87 0.691718 0.36476 0
M  V30 13505 H 1258.45 1.92015 0.322233 0
M  V30 13506 H 1256.62 2.81187 2.67934 0
M  V30 13507 H 1258.36 3.05781 2.65104 0
M  V30 13508 H 1255.11 4.55512 1.29638 0
M  V30 13509 H 1255.53 6.76916 -0.106505 0
M  V30 13510 H 1260.18 4.0994 1.03483 0
M  V30 13511 H 1257.89 8.00558 -1.1015 0
M  V30 13512 H 1261.48 5.81525 -0.178774 0
M  V30 13513 H 1260.36 7.74465 -1.23182 0
M  V30 13514 N 1257.86 -0.571685 1.46866 0
M  V30 13515 C 1258.83 -1.66198 1.57832 0
M  V30 13516 C 1259.83 -1.54242 0.454547 0
M  V30 13517 O 1261.02 -1.58661 0.719191 0
M  V30 13518 C 1258.15 -3.05678 1.5091 0
M  V30 13519 H 1259.34 -1.57829 2.5501 0
M  V30 13520 H 1256.89 -0.790433 1.3484 0
M  V30 13521 H 1257.63 -3.19593 0.550529 0
M  V30 13522 H 1257.41 -3.15765 2.32454 0
M  V30 13523 H 1258.9 -3.85027 1.61692 0
M  V30 13524 N 1259.34 -1.34755 -0.817236 0
M  V30 13525 C 1260.25 -1.28888 -1.96023 0
M  V30 13526 C 1261.27 -0.195582 -1.72897 0
M  V30 13527 O 1262.44 -0.423071 -1.96906 0
M  V30 13528 C 1259.51 -1.04985 -3.30423 0
M  V30 13529 C 1258.57 -2.23526 -3.66517 0
M  V30 13530 C 1257.8 -2.00753 -4.94504 0
M  V30 13531 O 1258.03 -0.968622 -5.62116 0
M  V30 13532 O 1256.96 -2.87848 -5.28608 0
M  V30 13533 H 1260.79 -2.25059 -2.03917 0
M  V30 13534 H 1258.37 -1.15019 -0.953467 0
M  V30 13535 H 1260.25 -0.934589 -4.10906 0
M  V30 13536 H 1258.93 -0.118582 -3.23483 0
M  V30 13537 H 1257.83 -2.40613 -2.86455 0
M  V30 13538 H 1259.17 -3.15062 -3.78149 0
M  V30 13539 N 1260.82 1.03812 -1.18578 0
M  V30 13540 C 1261.77 2.11883 -0.915115 0
M  V30 13541 C 1262.74 1.65453 0.146479 0
M  V30 13542 O 1263.92 1.90799 0.00630058 0
M  V30 13543 C 1261.06 3.42157 -0.449755 0
M  V30 13544 C 1260.17 4.02185 -1.57706 0
M  V30 13545 C 1259.31 5.20431 -1.06417 0
M  V30 13546 C 1258.35 5.72496 -2.16599 0
M  V30 13547 N 1257.49 6.82027 -1.66685 0
M  V30 13548 H 1262.33 2.34373 -1.84047 0
M  V30 13549 H 1259.86 1.14962 -0.917728 0
M  V30 13550 H 1261.82 4.16888 -0.161407 0
M  V30 13551 H 1260.45 3.19806 0.438622 0
M  V30 13552 H 1259.5 3.24757 -1.98083 0
M  V30 13553 H 1260.81 4.36851 -2.40754 0
M  V30 13554 H 1259.97 6.02286 -0.730497 0
M  V30 13555 H 1258.71 4.87276 -0.203301 0
M  V30 13556 H 1257.71 4.8926 -2.50808 0
M  V30 13557 H 1258.94 6.07694 -3.03126 0
M  V30 13558 H 1256.88 6.50742 -0.828916 0
M  V30 13559 H 1256.8 7.1577 -2.43329 0
M  V30 13560 H 1258.07 7.67499 -1.36253 0
M  V30 13561 N 1262.3 0.988223 1.22768 0
M  V30 13562 C 1263.54 0.661461 1.91392 0
M  V30 13563 C 1263.87 -0.805942 1.77016 0
M  V30 13564 O 1263.13 -1.5978 1.12999 0
M  V30 13565 C 1263.43 1.00744 3.42907 0
M  V30 13566 C 1263.09 2.46634 3.77469 0
M  V30 13567 C 1261.75 2.86503 3.86613 0
M  V30 13568 C 1264.11 3.41217 3.9398 0
M  V30 13569 C 1261.43 4.19954 4.09702 0
M  V30 13570 C 1263.79 4.74321 4.18572 0
M  V30 13571 C 1262.45 5.13938 4.25939 0
M  V30 13572 H 1261.72 0.242046 0.700353 0
M  V30 13573 H 1264.37 1.24354 1.45631 0
M  V30 13574 H 1262.67 0.34338 3.90292 0
M  V30 13575 H 1264.37 0.732714 3.94249 0
M  V30 13576 H 1260.96 2.14729 3.70931 0
M  V30 13577 H 1265.14 3.11589 3.86298 0
M  V30 13578 H 1260.4 4.50243 4.13631 0
M  V30 13579 H 1264.57 5.47561 4.30291 0
M  V30 13580 H 1262.2 6.17364 4.43583 0
M  V30 13581 N 1263.78 -1.38018 0.760839 0
M  V30 13582 C 1264.72 -2.30387 0.13796 0
M  V30 13583 C 1265.69 -1.50548 -0.701754 0
M  V30 13584 O 1266.88 -1.79154 -0.656381 0
M  V30 13585 C 1264.02 -3.36993 -0.743642 0
M  V30 13586 C 1263.13 -4.31856 0.111489 0
M  V30 13587 C 1262.27 -5.25534 -0.773796 0
M  V30 13588 C 1261.3 -6.12042 0.0845311 0
M  V30 13589 N 1260.44 -6.97995 -0.758118 0
M  V30 13590 H 1265.28 -2.83077 0.931212 0
M  V30 13591 H 1262.82 -1.39361 0.470833 0
M  V30 13592 H 1264.78 -3.97417 -1.26948 0
M  V30 13593 H 1263.41 -2.85695 -1.50261 0
M  V30 13594 H 1262.46 -3.72832 0.755031 0
M  V30 13595 H 1263.77 -4.92758 0.774042 0
M  V30 13596 H 1262.92 -5.9111 -1.36653 0
M  V30 13597 H 1261.66 -4.65017 -1.47006 0
M  V30 13598 H 1260.67 -5.45455 0.689883 0
M  V30 13599 H 1261.89 -6.74629 0.777966 0
M  V30 13600 H 1259.84 -6.40018 -1.4392 0
M  V30 13601 H 1259.76 -7.55846 -0.152623 0
M  V30 13602 H 1261.02 -7.67973 -1.33559 0
M  V30 13603 N 1265.25 -0.510493 -1.49103 0
M  V30 13604 C 1266.5 0.030689 -2.02777 0
M  V30 13605 C 1266.83 1.35765 -1.38858 0
M  V30 13606 O 1266.11 1.87209 -0.527528 0
M  V30 13607 C 1266.39 0.173261 -3.59683 0
M  V30 13608 C 1266.24 -1.17749 -4.34114 0
M  V30 13609 C 1267.56 0.909395 -4.30602 0
M  V30 13610 H 1264.68 0.0096789 -0.736936 0
M  V30 13611 H 1267.32 -0.663746 -1.78029 0
M  V30 13612 H 1265.47 0.764721 -3.80899 0
M  V30 13613 H 1267.15 -1.80856 -4.24369 0
M  V30 13614 H 1265.39 -1.76438 -3.96298 0
M  V30 13615 H 1266.06 -1.03094 -5.42287 0
M  V30 13616 H 1268.54 0.407677 -4.14098 0
M  V30 13617 H 1267.41 0.978012 -5.40117 0
M  V30 13618 H 1267.67 1.9553 -3.96511 0
M  V30 13619 N 1266.73 1.55688 -0.24474 0
M  V30 13620 C 1267.66 2.24272 0.64995 0
M  V30 13621 C 1268.64 1.22226 1.183 0
M  V30 13622 O 1269.83 1.50873 1.22274 0
M  V30 13623 C 1266.96 2.94053 1.84798 0
M  V30 13624 C 1265.91 4.02769 1.44779 0
M  V30 13625 C 1265.24 4.59965 2.72647 0
M  V30 13626 C 1266.54 5.18601 0.62047 0
M  V30 13627 H 1268.23 2.99298 0.0780654 0
M  V30 13628 H 1265.78 1.43955 0.0361069 0
M  V30 13629 H 1267.73 3.40732 2.47951 0
M  V30 13630 H 1266.45 2.16511 2.44521 0
M  V30 13631 H 1265.11 3.56856 0.839609 0
M  V30 13632 H 1264.76 3.79126 3.30564 0
M  V30 13633 H 1264.46 5.33352 2.46596 0
M  V30 13634 H 1265.99 5.09376 3.36703 0
M  V30 13635 H 1267.4 5.61519 1.15625 0
M  V30 13636 H 1265.8 5.98364 0.456097 0
M  V30 13637 H 1266.87 4.83503 -0.367798 0
M  V30 13638 N 1268.21 -0.0283989 1.57574 0
M  V30 13639 C 1269.17 -1.01346 2.05576 0
M  V30 13640 C 1270.17 -1.28999 0.960001 0
M  V30 13641 O 1271.36 -1.23991 1.2236 0
M  V30 13642 C 1268.49 -2.34611 2.47327 0
M  V30 13643 H 1269.69 -0.598809 2.93861 0
M  V30 13644 H 1267.24 -0.27524 1.53857 0
M  V30 13645 H 1267.98 -2.80823 1.622 0
M  V30 13646 H 1267.76 -2.1587 3.27326 0
M  V30 13647 H 1269.25 -3.05332 2.84889 0
M  V30 13648 N 1269.69 -1.54705 -0.300681 0
M  V30 13649 C 1270.91 -1.78318 -1.05913 0
M  V30 13650 C 1271.34 -0.541177 -1.80147 0
M  V30 13651 O 1270.7 0.508291 -1.74029 0
M  V30 13652 C 1270.74 -2.99041 -2.01511 0
M  V30 13653 O 1269.85 -2.72188 -3.09818 0
M  V30 13654 H 1269.19 -0.590197 -0.304242 0
M  V30 13655 H 1271.72 -2.01789 -0.338006 0
M  V30 13656 H 1271.73 -3.2702 -2.43971 0
M  V30 13657 H 1270.4 -3.89098 -1.46886 0
M  V30 13658 H 1268.98 -2.55227 -2.71871 0
M  V30 13659 N 1271.17 0.563888 -1.47167 0
M  V30 13660 C 1272.11 1.69254 -1.59549 0
M  V30 13661 C 1273.11 1.62948 -0.463078 0
M  V30 13662 O 1274.31 1.68214 -0.640639 0
M  V30 13663 H 1270.69 0.559925 -0.501984 0
M  V30 13664 H 1272.66 1.55946 -2.54408 0
M  V30 13665 C 1271.41 3.0762 -1.62066 0
M  V30 13666 H 1270.73 3.13151 -2.48549 0
M  V30 13667 H 1272.17 3.863 -1.74781 0
M  V30 13668 C 1270.63 3.35048 -0.352721 0
M  V30 13669 O 1271.16 3.9793 0.549053 0
M  V30 13670 N 1269.37 2.8965 -0.234805 0
M  V30 13671 H 1268.91 2.38657 -0.969561 0
M  V30 13672 H 1268.87 3.08373 0.61263 0
M  V30 13673 N 1272.64 1.35187 0.810078 0
M  V30 13674 C 1274.06 1.15149 1.10512 0
M  V30 13675 C 1274.26 -0.038394 2.01463 0
M  V30 13676 O 1273.32 -0.710056 2.42311 0
M  V30 13677 C 1274.63 2.45282 1.73946 0
M  V30 13678 C 1276.18 2.51457 1.86382 0
M  V30 13679 C 1276.65 3.81625 2.53232 0
M  V30 13680 N 1278.14 3.82856 2.6072 0
M  V30 13681 C 1278.88 4.80302 3.13206 0
M  V30 13682 N 1278.37 5.88134 3.66156 0
M  V30 13683 N 1280.17 4.67743 3.11726 0
M  V30 13684 H 1272.32 2.11405 0.205391 0
M  V30 13685 H 1274.58 0.935457 0.153702 0
M  V30 13686 H 1274.29 3.32512 1.14582 0
M  V30 13687 H 1274.16 2.59573 2.73682 0
M  V30 13688 H 1276.55 1.64659 2.44891 0
M  V30 13689 H 1276.63 2.41084 0.855113 0
M  V30 13690 H 1276.27 4.68819 1.95375 0
M  V30 13691 H 1276.2 3.89285 3.54633 0
M  V30 13692 H 1278.69 3.04941 2.23203 0
M  V30 13693 H 1279.01 6.58487 4.04494 0
M  V30 13694 H 1277.35 5.91831 3.64364 0
M  V30 13695 H 1280.54 3.82642 2.69635 0
M  V30 13696 H 1280.72 5.43849 3.52324 0
M  V30 13697 N 1274.12 -1.03182 1.19127 0
M  V30 13698 C 1275.35 -1.80165 1.01726 0
M  V30 13699 C 1275.77 -1.83742 -0.434095 0
M  V30 13700 O 1275.12 -1.27932 -1.30152 0
M  V30 13701 C 1275.17 -3.25354 1.57566 0
M  V30 13702 O 1274.89 -3.22042 2.9702 0
M  V30 13703 C 1276.4 -4.18948 1.44906 0
M  V30 13704 H 1273.62 -0.567078 0.358698 0
M  V30 13705 H 1276.16 -1.29982 1.57877 0
M  V30 13706 H 1274.31 -3.72738 1.0557 0
M  V30 13707 H 1274.73 -4.13061 3.23235 0
M  V30 13708 H 1276.2 -5.18723 1.88762 0
M  V30 13709 H 1276.68 -4.37383 0.399125 0
M  V30 13710 H 1277.29 -3.77435 1.96018 0
M  V30 13711 N 1275.6 -0.99472 -1.22242 0
M  V30 13712 C 1276.55 -0.517696 -2.22045 0
M  V30 13713 C 1277.53 0.415108 -1.55453 0
M  V30 13714 O 1278.73 0.241632 -1.75343 0
M  V30 13715 C 1275.86 0.164524 -3.42906 0
M  V30 13716 C 1274.94 -0.788692 -4.16702 0
M  V30 13717 N 1275.33 -1.93729 -4.67229 0
M  V30 13718 C 1273.63 -0.604946 -4.41878 0
M  V30 13719 C 1274.33 -2.53573 -5.23522 0
M  V30 13720 N 1273.31 -1.81825 -5.12289 0
M  V30 13721 H 1277.11 -1.39368 -2.58754 0
M  V30 13722 H 1274.62 -0.857215 -1.37933 0
M  V30 13723 H 1276.62 0.523668 -4.13598 0
M  V30 13724 H 1275.28 1.03662 -3.07708 0
M  V30 13725 H 1276.29 -2.31802 -4.63129 0
M  V30 13726 H 1272.97 0.220932 -4.16915 0
M  V30 13727 H 1274.36 -3.50653 -5.73142 0
M  V30 13728 N 1277.08 1.37613 -0.768148 0
M  V30 13729 C 1278.01 2.28935 -0.110234 0
M  V30 13730 C 1279.02 1.48459 0.668122 0
M  V30 13731 O 1280.21 1.71154 0.506808 0
M  V30 13732 C 1277.31 3.27606 0.867598 0
M  V30 13733 C 1276.49 4.37163 0.143819 0
M  V30 13734 C 1275.54 5.15931 1.03449 0
M  V30 13735 O 1274.57 5.67003 0.499605 0
M  V30 13736 N 1275.77 5.30311 2.36114 0
M  V30 13737 H 1278.54 2.86037 -0.894585 0
M  V30 13738 H 1276.1 1.4955 -0.620185 0
M  V30 13739 H 1278.09 3.77183 1.4668 0
M  V30 13740 H 1276.66 2.71298 1.55294 0
M  V30 13741 H 1275.88 3.89031 -0.636257 0
M  V30 13742 H 1277.17 5.0755 -0.356446 0
M  V30 13743 H 1276.57 4.90394 2.82011 0
M  V30 13744 H 1275.12 5.83209 2.9105 0
M  V30 13745 N 1278.56 0.518393 1.4883 0
M  V30 13746 C 1279.83 -0.0837498 1.95421 0
M  V30 13747 C 1280.21 -1.52435 1.46037 0
M  V30 13748 O 1279.56 -2.18093 0.681736 0
M  V30 13749 C 1279.77 0.0215333 3.48993 0
M  V30 13750 C 1281.12 -0.143615 4.24357 0
M  V30 13751 O 1282.14 -0.0528223 3.56161 0
M  V30 13752 O 1281 -0.332231 5.45489 0
M  V30 13753 H 1278.1 -0.0857132 0.822546 0
M  V30 13754 H 1280.64 0.582169 1.59402 0
M  V30 13755 H 1279.41 1.02549 3.77623 0
M  V30 13756 H 1279.04 -0.683756 3.91677 0
M  V30 13757 N 1280.03 -1.55556 0.252993 0
M  V30 13758 C 1280.97 -2.18978 -0.676837 0
M  V30 13759 C 1281.98 -1.16788 -1.13421 0
M  V30 13760 O 1283.17 -1.43623 -1.05993 0
M  V30 13761 C 1280.27 -2.78404 -1.93248 0
M  V30 13762 C 1279.44 -4.06072 -1.62555 0
M  V30 13763 C 1278.5 -4.49757 -2.7314 0
M  V30 13764 O 1277.53 -5.16005 -2.40266 0
M  V30 13765 N 1278.73 -4.18049 -4.0276 0
M  V30 13766 H 1281.49 -2.994 -0.134142 0
M  V30 13767 H 1279.05 -1.61734 0.0731965 0
M  V30 13768 H 1281.05 -3.04583 -2.6648 0
M  V30 13769 H 1279.62 -2.02104 -2.3848 0
M  V30 13770 H 1278.84 -3.87417 -0.728115 0
M  V30 13771 H 1280.12 -4.89297 -1.39521 0
M  V30 13772 H 1279.52 -3.64876 -4.32298 0
M  V30 13773 H 1278.08 -4.4905 -4.72438 0
M  V30 13774 N 1281.51 0.0200419 -1.57587 0
M  V30 13775 C 1282.92 0.565484 -1.7793 0
M  V30 13776 C 1283.27 1.75096 -0.885201 0
M  V30 13777 O 1282.4 2.16243 -0.0823831 0
M  V30 13778 C 1282.99 1.03263 -3.2268 0
M  V30 13779 C 1281.55 1.52352 -3.44189 0
M  V30 13780 C 1280.7 0.465637 -2.73363 0
M  V30 13781 H 1283.65 -0.206174 -1.57355 0
M  V30 13782 H 1283.67 1.89959 -3.2969 0
M  V30 13783 H 1283.18 0.169613 -3.87729 0
M  V30 13784 H 1281.29 2.40809 -2.84327 0
M  V30 13785 H 1281.4 1.5648 -4.52825 0
M  V30 13786 H 1279.76 0.922738 -2.37398 0
M  V30 13787 H 1280.55 -0.388068 -3.411 0
M  V30 13788 N 1282.99 1.54862 0.292472 0
M  V30 13789 C 1283.92 1.82786 1.38282 0
M  V30 13790 C 1284.94 0.711253 1.46441 0
M  V30 13791 O 1286.12 0.988851 1.48607 0
M  V30 13792 C 1283.22 1.95845 2.76582 0
M  V30 13793 C 1282.4 3.2633 2.91252 0
M  V30 13794 C 1281.46 3.29697 4.10105 0
M  V30 13795 O 1280.48 4.03184 4.01785 0
M  V30 13796 N 1281.68 2.557 5.21151 0
M  V30 13797 H 1284.45 2.76891 1.1468 0
M  V30 13798 H 1282.01 1.54541 0.482561 0
M  V30 13799 H 1284 1.95491 3.54352 0
M  V30 13800 H 1282.57 1.08696 2.93094 0
M  V30 13801 H 1281.79 3.39387 2.00525 0
M  V30 13802 H 1283.08 4.12421 2.9797 0
M  V30 13803 H 1282.48 1.95642 5.30792 0
M  V30 13804 H 1281.04 2.61089 5.97223 0
M  V30 13805 N 1284.47 -0.556076 1.47464 0
M  V30 13806 C 1285.42 -1.66304 1.60036 0
M  V30 13807 C 1286.39 -1.60074 0.443348 0
M  V30 13808 O 1287.57 -1.7889 0.663545 0
M  V30 13809 C 1284.71 -3.04624 1.62167 0
M  V30 13810 C 1283.82 -3.21283 2.88793 0
M  V30 13811 C 1282.96 -4.50008 2.82252 0
M  V30 13812 C 1282 -4.60103 4.03698 0
M  V30 13813 N 1281.13 -5.80184 3.95387 0
M  V30 13814 H 1285.97 -1.54897 2.5458 0
M  V30 13815 H 1283.51 -0.754533 1.26274 0
M  V30 13816 H 1285.47 -3.84721 1.61386 0
M  V30 13817 H 1284.1 -3.14865 0.711348 0
M  V30 13818 H 1283.15 -2.34611 2.99436 0
M  V30 13819 H 1284.46 -3.24607 3.78724 0
M  V30 13820 H 1283.62 -5.38366 2.79726 0
M  V30 13821 H 1282.36 -4.49165 1.90005 0
M  V30 13822 H 1281.36 -3.70157 4.06527 0
M  V30 13823 H 1282.59 -4.62704 4.97073 0
M  V30 13824 H 1280.53 -5.80288 3.05944 0
M  V30 13825 H 1280.45 -5.8489 4.78998 0
M  V30 13826 H 1281.72 -6.709 3.96879 0
M  V30 13827 N 1285.95 -1.35615 -0.802897 0
M  V30 13828 C 1287.19 -1.30462 -1.5735 0
M  V30 13829 C 1287.55 0.118488 -1.91634 0
M  V30 13830 O 1288.75 0.294421 -2.67183 0
M  V30 13831 C 1287.02 -2.18916 -2.82508 0
M  V30 13832 S 1288.58 -2.31315 -3.72879 0
M  V30 13833 H 1285.4 -0.463588 -0.53908 0
M  V30 13834 H 1288 -1.71045 -0.946782 0
M  V30 13835 H 1286.71 -3.21285 -2.5535 0
M  V30 13836 H 1286.24 -1.79304 -3.50162 0
M  V30 13837 H 1288.25 -1.50069 -4.72963 0
M  V30 13838 N 1287.43 1.02549 -1.19673 0
M  V30 13839 C 1288.67 1.75656 -0.999463 0
M  V30 13840 C 1288.99 1.89238 0.470517 0
M  V30 13841 O 1288.26 1.42843 1.34062 0
M  V30 13842 H 1286.84 0.650732 -0.366821 0
M  V30 13843 H 1289.51 1.23684 -1.50627 0
M  V30 13844 H 1288.6 2.76353 -1.45035 0
M  V30 13845 N 1288.9 1.00119 1.21713 0
M  V30 13846 C 1290.31 0.715611 1.72441 0
M  V30 13847 C 1290.67 -0.767 1.80587 0
M  V30 13848 O 1289.79 -1.59928 1.45781 0
M  V30 13849 C 1290.39 1.29234 3.13184 0
M  V30 13850 C 1288.94 1.05597 3.61284 0
M  V30 13851 C 1288.09 1.40749 2.38925 0
M  V30 13852 H 1291.04 1.17255 1.06943 0
M  V30 13853 H 1291.06 0.67507 3.74464 0
M  V30 13854 H 1290.58 2.37141 3.07223 0
M  V30 13855 H 1288.68 -0.00610816 3.72599 0
M  V30 13856 H 1288.79 1.72517 4.46961 0
M  V30 13857 H 1287.15 0.826207 2.40927 0
M  V30 13858 H 1287.94 2.49678 2.35618 0
M  V30 13859 N 1290.38 -1.37203 0.775435 0
M  V30 13860 C 1291.33 -2.32102 0.152051 0
M  V30 13861 C 1292.32 -1.55117 -0.680806 0
M  V30 13862 O 1293.53 -1.70486 -0.577455 0
M  V30 13863 H 1289.9 -0.751386 0.0303853 0
M  V30 13864 H 1291.88 -2.82259 0.968121 0
M  V30 13865 C 1290.62 -3.40378 -0.709788 0
M  V30 13866 H 1289.95 -3.99723 -0.0782879 0
M  V30 13867 H 1291.39 -4.09134 -1.11288 0
M  V30 13868 C 1289.85 -2.80769 -1.862 0
M  V30 13869 O 1290.38 -2.71813 -2.95771 0
M  V30 13870 N 1288.58 -2.38259 -1.66376 0
M  V30 13871 H 1288.13 -2.45743 -0.772531 0
M  V30 13872 H 1288.09 -1.98721 -2.43634 0
M  V30 13873 N 1291.86 -0.526279 -1.48553 0
M  V30 13874 C 1293.08 0.00731432 -2.07399 0
M  V30 13875 C 1293.51 1.27737 -1.38075 0
M  V30 13876 O 1292.87 1.75741 -0.445503 0
M  V30 13877 C 1292.92 0.218126 -3.5994 0
M  V30 13878 O 1292.02 1.28759 -3.91784 0
M  V30 13879 H 1291.36 -0.0374784 -0.662941 0
M  V30 13880 H 1293.89 -0.733133 -1.91014 0
M  V30 13881 H 1293.9 0.44192 -4.056 0
M  V30 13882 H 1292.58 -0.709668 -4.09801 0
M  V30 13883 H 1291.15 1.04674 -3.57907 0
M  V30 13884 N 1293.34 1.5542 -0.261239 0
M  V30 13885 C 1294.29 2.18644 0.646442 0
M  V30 13886 C 1295.27 1.14672 1.12868 0
M  V30 13887 O 1296.46 1.40534 1.07606 0
M  V30 13888 C 1293.59 2.90045 1.83655 0
M  V30 13889 C 1292.68 4.01289 1.37214 0
M  V30 13890 N 1293.07 5.01949 0.622927 0
M  V30 13891 C 1291.37 4.14107 1.65625 0
M  V30 13892 C 1292.07 5.80454 0.380569 0
M  V30 13893 N 1291.04 5.35253 0.94897 0
M  V30 13894 H 1294.85 2.93826 0.0660348 0
M  V30 13895 H 1292.36 1.62273 -0.0641794 0
M  V30 13896 H 1294.36 3.33778 2.49796 0
M  V30 13897 H 1293.02 2.16369 2.42104 0
M  V30 13898 H 1294.03 5.17187 0.271619 0
M  V30 13899 H 1290.71 3.51613 2.2511 0
M  V30 13900 H 1292.1 6.71545 -0.218528 0
M  V30 13901 N 1294.82 -0.0116844 1.57596 0
M  V30 13902 C 1296.06 -0.703597 1.91908 0
M  V30 13903 C 1296.42 -1.71581 0.861628 0
M  V30 13904 O 1297.62 -2.45724 1.08963 0
M  V30 13905 C 1295.89 -1.34031 3.31316 0
M  V30 13906 S 1297.45 -2.05896 3.87495 0
M  V30 13907 H 1294.27 -0.23269 0.671846 0
M  V30 13908 H 1296.87 0.0421973 1.95454 0
M  V30 13909 H 1295.57 -0.590617 4.06128 0
M  V30 13910 H 1295.11 -2.12428 3.31116 0
M  V30 13911 H 1297.12 -3.33266 3.67626 0
M  V30 13912 N 1296.29 -1.55015 -0.284256 0
M  V30 13913 C 1297.2 -1.90203 -1.37332 0
M  V30 13914 C 1298.22 -0.797994 -1.54622 0
M  V30 13915 O 1299.4 -1.09602 -1.68965 0
M  V30 13916 C 1296.46 -2.15687 -2.71441 0
M  V30 13917 C 1295.52 -3.39313 -2.62993 0
M  V30 13918 C 1294.75 -3.63571 -3.90707 0
M  V30 13919 O 1294.98 -2.90538 -4.9086 0
M  V30 13920 O 1293.91 -4.57102 -3.91589 0
M  V30 13921 H 1297.74 -2.82888 -1.1049 0
M  V30 13922 H 1295.32 -1.41418 -0.481798 0
M  V30 13923 H 1297.2 -2.33553 -3.50758 0
M  V30 13924 H 1295.88 -1.26185 -2.98092 0
M  V30 13925 H 1294.79 -3.26793 -1.82091 0
M  V30 13926 H 1296.12 -4.28997 -2.41293 0
M  V30 13927 N 1297.77 0.548248 -1.47757 0
M  V30 13928 C 1298.7 1.6705 -1.55466 0
M  V30 13929 C 1299.68 1.57444 -0.406208 0
M  V30 13930 O 1300.87 1.78176 -0.615268 0
M  V30 13931 C 1297.99 3.0535 -1.46558 0
M  V30 13932 C 1297.04 3.33372 -2.66017 0
M  V30 13933 S 1297.87 3.21643 -4.28143 0
M  V30 13934 C 1299.03 4.62421 -4.21803 0
M  V30 13935 H 1299.26 1.60258 -2.50409 0
M  V30 13936 H 1296.79 0.72978 -1.36065 0
M  V30 13937 H 1298.75 3.85118 -1.42106 0
M  V30 13938 H 1297.41 3.09599 -0.529838 0
M  V30 13939 H 1296.61 4.34218 -2.55873 0
M  V30 13940 H 1296.21 2.6124 -2.67638 0
M  V30 13941 H 1298.5 5.53561 -3.9061 0
M  V30 13942 H 1299.44 4.77621 -5.22766 0
M  V30 13943 H 1299.85 4.40887 -3.52532 0
M  V30 13944 N 1299.25 1.36039 0.795694 0
M  V30 13945 C 1300.53 1.20474 1.54096 0
M  V30 13946 C 1300.91 -0.211691 2.10036 0
M  V30 13947 O 1300.25 -1.21656 1.93422 0
M  V30 13948 C 1300.46 2.28164 2.64087 0
M  V30 13949 C 1301.81 2.64519 3.32137 0
M  V30 13950 O 1302.84 2.2716 2.74366 0
M  V30 13951 O 1301.7 3.28796 4.36527 0
M  V30 13952 H 1298.79 0.468699 0.681359 0
M  V30 13953 H 1301.34 1.47752 0.834716 0
M  V30 13954 H 1300.11 3.23121 2.20701 0
M  V30 13955 H 1299.73 2.02217 3.42336 0
M  V30 13956 N 1300.73 -1.01913 1.20215 0
M  V30 13957 C 1301.97 -1.77015 1.02202 0
M  V30 13958 C 1302.33 -1.86927 -0.43845 0
M  V30 13959 O 1303.53 -2.58451 -0.73869 0
M  V30 13960 C 1301.8 -3.15244 1.68393 0
M  V30 13961 S 1303.36 -4.06414 1.65449 0
M  V30 13962 H 1300.18 -0.609242 0.366531 0
M  V30 13963 H 1302.78 -1.22044 1.52727 0
M  V30 13964 H 1301.49 -3.05653 2.73869 0
M  V30 13965 H 1301.02 -3.7529 1.17988 0
M  V30 13966 H 1303.03 -4.91441 0.685571 0
M  V30 13967 N 1302.21 -1.00763 -1.2118 0
M  V30 13968 C 1303.12 -0.579646 -2.27326 0
M  V30 13969 C 1304.13 0.378592 -1.69831 0
M  V30 13970 O 1305.31 0.241772 -1.99944 0
M  V30 13971 C 1302.37 0.0843648 -3.46597 0
M  V30 13972 C 1301.43 -0.918685 -4.19355 0
M  V30 13973 C 1300.67 -0.286267 -5.32932 0
M  V30 13974 O 1300.89 0.916274 -5.62993 0
M  V30 13975 O 1299.82 -0.998513 -5.9356 0
M  V30 13976 H 1303.65 -1.46311 -2.66133 0
M  V30 13977 H 1301.24 -0.776641 -1.27627 0
M  V30 13978 H 1303.12 0.455636 -4.18929 0
M  V30 13979 H 1301.79 0.942166 -3.09685 0
M  V30 13980 H 1300.7 -1.34116 -3.49233 0
M  V30 13981 H 1302.03 -1.74616 -4.60185 0
M  V30 13982 N 1303.68 1.3679 -0.7827 0
M  V30 13983 C 1304.93 1.99712 -0.352533 0
M  V30 13984 C 1305.26 1.61984 1.0712 0
M  V30 13985 O 1304.54 0.871342 1.7389 0
M  V30 13986 C 1304.82 3.5649 -0.508628 0
M  V30 13987 C 1304.67 4.04093 -1.97557 0
M  V30 13988 C 1305.99 4.40026 0.0804447 0
M  V30 13989 H 1303.11 0.725522 -0.129566 0
M  V30 13990 H 1305.75 1.62305 -0.987788 0
M  V30 13991 H 1303.9 3.88487 0.0321664 0
M  V30 13992 H 1305.58 3.82613 -2.57691 0
M  V30 13993 H 1303.82 3.55881 -2.48055 0
M  V30 13994 H 1304.49 5.13088 -2.03579 0
M  V30 13995 H 1306.97 4.14351 -0.381113 0
M  V30 13996 H 1305.84 5.48868 -0.0588424 0
M  V30 13997 H 1306.1 4.26285 1.17189 0
M  V30 13998 N 1305.16 0.53415 1.48272 0
M  V30 13999 C 1306.11 -0.239672 2.31362 0
M  V30 14000 C 1307.1 -0.931501 1.4149 0
M  V30 14001 O 1308.31 -0.855411 1.58375 0
M  V30 14002 H 1304.69 -0.09616 0.745827 0
M  V30 14003 H 1306.66 0.480638 2.94504 0
M  V30 14004 C 1305.41 -1.27102 3.23636 0
M  V30 14005 H 1304.73 -0.748082 3.92739 0
M  V30 14006 H 1306.17 -1.78379 3.84652 0
M  V30 14007 C 1304.63 -2.30683 2.45534 0
M  V30 14008 O 1305.16 -3.37197 2.18314 0
M  V30 14009 N 1303.36 -2.04006 2.06954 0
M  V30 14010 H 1302.91 -1.17403 2.29291 0
M  V30 14011 H 1302.87 -2.73531 1.5501 0
M  V30 14012 N 1306.64 -1.55279 0.269478 0
M  V30 14013 C 1307.59 -2.23723 -0.636468 0
M  V30 14014 C 1308.58 -1.23234 -1.16232 0
M  V30 14015 O 1309.79 -1.41181 -1.1166 0
M  V30 14016 H 1306.16 -0.71793 -0.223788 0
M  V30 14017 H 1308.13 -2.98378 -0.0363057 0
M  V30 14018 C 1306.88 -2.96755 -1.81195 0
M  V30 14019 H 1306.21 -3.73865 -1.4165 0
M  V30 14020 H 1307.65 -3.47975 -2.42258 0
M  V30 14021 C 1306.11 -2.01905 -2.69696 0
M  V30 14022 O 1306.64 -1.56662 -3.69892 0
M  V30 14023 N 1304.84 -1.68524 -2.36744 0
M  V30 14024 H 1304.39 -2.05512 -1.55314 0
M  V30 14025 H 1304.35 -1.05331 -2.96231 0
M  V30 14026 N 1308.12 0.00332656 -1.576 0
M  V30 14027 C 1309.03 1.01221 -2.1164 0
M  V30 14028 C 1310.04 1.37918 -1.06088 0
M  V30 14029 O 1311.22 1.46717 -1.37971 0
M  V30 14030 C 1308.29 2.28638 -2.60626 0
M  V30 14031 C 1307.35 1.98284 -3.80765 0
M  V30 14032 C 1306.58 3.19626 -4.27405 0
M  V30 14033 O 1306.8 4.31196 -3.73398 0
M  V30 14034 O 1305.74 3.03819 -5.19594 0
M  V30 14035 H 1309.56 0.582839 -2.98055 0
M  V30 14036 H 1307.15 0.221947 -1.47742 0
M  V30 14037 H 1309.03 3.03498 -2.92347 0
M  V30 14038 H 1307.7 2.70819 -1.7731 0
M  V30 14039 H 1306.61 1.2091 -3.54022 0
M  V30 14040 H 1307.94 1.60942 -4.65144 0
M  V30 14041 N 1309.6 1.55164 0.276031 0
M  V30 14042 C 1310.87 1.66338 1.02913 0
M  V30 14043 C 1311.25 0.527876 2.04393 0
M  V30 14044 O 1310.6 -0.472437 2.23563 0
M  V30 14045 C 1310.81 3.05427 1.68865 0
M  V30 14046 C 1312.16 3.63075 2.2014 0
M  V30 14047 O 1313.18 3.0804 1.78857 0
M  V30 14048 O 1312.04 4.59492 2.95854 0
M  V30 14049 H 1309.14 0.675446 0.477181 0
M  V30 14050 H 1311.68 1.67504 0.272129 0
M  V30 14051 H 1310.45 3.79514 0.953125 0
M  V30 14052 H 1310.08 3.08147 2.5126 0
M  V30 14053 N 1311.07 -0.540404 1.48045 0
M  V30 14054 C 1312 -1.65538 1.6468 0
M  V30 14055 C 1312.99 -1.62713 0.495847 0
M  V30 14056 O 1314.17 -1.80072 0.727172 0
M  V30 14057 C 1311.3 -3.0415 1.67661 0
M  V30 14058 C 1310.25 -3.2183 2.82152 0
M  V30 14059 C 1309.58 -4.61397 2.70216 0
M  V30 14060 C 1310.88 -3.05596 4.23567 0
M  V30 14061 H 1312.57 -1.51873 2.58021 0
M  V30 14062 H 1310.12 -0.729208 1.24171 0
M  V30 14063 H 1312.07 -3.82013 1.77887 0
M  V30 14064 H 1310.8 -3.18814 0.708907 0
M  V30 14065 H 1309.46 -2.4638 2.71463 0
M  V30 14066 H 1309.1 -4.72883 1.71437 0
M  V30 14067 H 1308.8 -4.74174 3.47035 0
M  V30 14068 H 1310.33 -5.41374 2.82395 0
M  V30 14069 H 1311.74 -3.73261 4.35143 0
M  V30 14070 H 1310.14 -3.29871 5.01303 0
M  V30 14071 H 1311.21 -2.0214 4.40758 0
M  V30 14072 N 1312.55 -1.36459 -0.788468 0
M  V30 14073 C 1313.48 -1.33545 -1.91541 0
M  V30 14074 C 1314.46 -0.206762 -1.68839 0
M  V30 14075 O 1315.65 -0.404553 -1.89939 0
M  V30 14076 C 1312.78 -1.12492 -3.28577 0
M  V30 14077 C 1311.73 -2.22196 -3.65805 0
M  V30 14078 C 1311.06 -1.86285 -5.01201 0
M  V30 14079 C 1312.36 -3.64286 -3.7429 0
M  V30 14080 H 1314.05 -2.27844 -1.94236 0
M  V30 14081 H 1311.6 -1.09677 -0.933105 0
M  V30 14082 H 1313.55 -1.09089 -4.07035 0
M  V30 14083 H 1312.28 -0.146446 -3.26272 0
M  V30 14084 H 1310.93 -2.24727 -2.89644 0
M  V30 14085 H 1310.58 -0.87009 -4.95417 0
M  V30 14086 H 1310.28 -2.59734 -5.27079 0
M  V30 14087 H 1311.81 -1.84439 -5.82078 0
M  V30 14088 H 1313.22 -3.63977 -4.42937 0
M  V30 14089 H 1311.62 -4.36648 -4.11653 0
M  V30 14090 H 1312.69 -3.99123 -2.75371 0
M  V30 14091 N 1314.03 1.01274 -1.20754 0
M  V30 14092 C 1315.27 1.7647 -1.03139 0
M  V30 14093 C 1315.63 1.87157 0.428531 0
M  V30 14094 O 1316.84 2.58839 0.724973 0
M  V30 14095 C 1315.11 3.14346 -1.70063 0
M  V30 14096 S 1316.67 4.05531 -1.67602 0
M  V30 14097 H 1313.48 0.60729 -0.369756 0
M  V30 14098 H 1316.09 1.21232 -1.53372 0
M  V30 14099 H 1314.79 3.04197 -2.75486 0
M  V30 14100 H 1314.32 3.74659 -1.19977 0
M  V30 14101 H 1316.34 4.91071 -0.711623 0
M  V30 14102 N 1315.51 1.01404 1.20644 0
M  V30 14103 C 1316.76 0.702949 1.90227 0
M  V30 14104 C 1317.09 -0.765243 1.78487 0
M  V30 14105 O 1316.36 -1.55569 1.16741 0
M  V30 14106 C 1316.65 1.13606 3.4171 0
M  V30 14107 C 1316.5 2.66437 3.62397 0
M  V30 14108 C 1317.82 0.705361 4.34411 0
M  V30 14109 H 1314.94 0.256842 0.690797 0
M  V30 14110 H 1317.58 1.26133 1.42093 0
M  V30 14111 H 1315.73 0.660977 3.82836 0
M  V30 14112 H 1317.4 3.21778 3.3054 0
M  V30 14113 H 1315.64 3.0753 3.05954 0
M  V30 14114 H 1316.32 2.91795 4.68572 0
M  V30 14115 H 1318.79 1.11375 4.00918 0
M  V30 14116 H 1317.67 1.03647 5.39026 0
M  V30 14117 H 1317.93 -0.393094 4.40349 0
M  V30 14118 N 1316.99 -1.36373 0.789944 0
M  V30 14119 C 1317.92 -2.32616 0.202944 0
M  V30 14120 C 1318.9 -1.56674 -0.662364 0
M  V30 14121 O 1320.08 -1.84826 -0.596078 0
M  V30 14122 C 1317.21 -3.4092 -0.662646 0
M  V30 14123 C 1316.17 -4.27877 0.102811 0
M  V30 14124 C 1315.49 -5.27352 -0.883407 0
M  V30 14125 C 1316.79 -5.0606 1.29231 0
M  V30 14126 H 1318.49 -2.81958 1.00699 0
M  V30 14127 H 1316.03 -1.35562 0.48568 0
M  V30 14128 H 1317.99 -4.07239 -1.08324 0
M  V30 14129 H 1316.71 -2.90147 -1.4994 0
M  V30 14130 H 1315.37 -3.63114 0.504389 0
M  V30 14131 H 1315.02 -4.72853 -1.71521 0
M  V30 14132 H 1314.72 -5.86398 -0.375669 0
M  V30 14133 H 1316.24 -5.96545 -1.30256 0
M  V30 14134 H 1317.66 -5.65417 0.947446 0
M  V30 14135 H 1316.05 -5.74521 1.73338 0
M  V30 14136 H 1317.12 -4.37671 2.08739 0
M  V30 14137 N 1318.47 -0.542005 -1.47987 0
M  V30 14138 C 1319.71 -0.010246 -2.01697 0
M  V30 14139 C 1320.03 1.34173 -1.42327 0
M  V30 14140 O 1321.23 1.96254 -1.87607 0
M  V30 14141 C 1319.69 0.0321032 -3.59886 0
M  V30 14142 C 1319.3 -1.31571 -4.28244 0
M  V30 14143 C 1321.04 0.512056 -4.214 0
M  V30 14144 C 1318.95 -1.23329 -5.78398 0
M  V30 14145 H 1317.88 -6.02097e-05 -0.754 0
M  V30 14146 H 1320.53 -0.687586 -1.70131 0
M  V30 14147 H 1318.91 0.774774 -3.88347 0
M  V30 14148 H 1320.09 -2.07489 -4.11442 0
M  V30 14149 H 1318.4 -1.73237 -3.78653 0
M  V30 14150 H 1321 0.591875 -5.31414 0
M  V30 14151 H 1321.34 1.52061 -3.87535 0
M  V30 14152 H 1321.87 -0.175293 -3.97414 0
M  V30 14153 H 1318.61 -2.21737 -6.16857 0
M  V30 14154 H 1318.13 -0.51567 -5.97579 0
M  V30 14155 H 1319.81 -0.928975 -6.40296 0
M  V30 14156 N 1319.94 1.55134 -0.277709 0
M  V30 14157 C 1321.22 1.91667 0.390253 0
M  V30 14158 C 1321.6 1.20228 1.73518 0
M  V30 14159 O 1320.95 0.330013 2.26104 0
M  V30 14160 C 1321.16 3.44983 0.52797 0
M  V30 14161 C 1322.51 4.16809 0.809665 0
M  V30 14162 O 1323.53 3.50891 0.612679 0
M  V30 14163 O 1322.39 5.33463 1.18656 0
M  V30 14164 H 1319.48 0.798807 0.214095 0
M  V30 14165 H 1322.03 1.66577 -0.324053 0
M  V30 14166 H 1320.8 3.89056 -0.418422 0
M  V30 14167 H 1320.42 3.76035 1.29164 0
M  V30 14168 N 1321.42 0.00503138 1.57599 0
M  V30 14169 C 1322.7 -0.716079 1.82021 0
M  V30 14170 C 1323.08 -1.91707 0.883829 0
M  V30 14171 O 1322.43 -2.28404 -0.0662812 0
M  V30 14172 C 1322.64 -1.11706 3.3064 0
M  V30 14173 C 1323.98 -1.51881 3.96506 0
M  V30 14174 O 1325.01 -1.21071 3.34993 0
M  V30 14175 O 1323.87 -2.09191 5.04877 0
M  V30 14176 H 1320.96 -0.349112 0.7497 0
M  V30 14177 H 1323.51 0.030871 1.69672 0
M  V30 14178 H 1322.28 -0.261223 3.90427 0
M  V30 14179 H 1321.9 -1.92295 3.48006 0
M  V30 14180 N 1322.9 -1.55308 -0.267798 0
M  V30 14181 C 1324.15 -1.75811 -0.996734 0
M  V30 14182 C 1324.47 -0.565161 -1.8663 0
M  V30 14183 O 1323.74 0.419775 -1.9135 0
M  V30 14184 H 1322.32 -0.648353 -0.371008 0
M  V30 14185 H 1324.98 -1.92719 -0.290775 0
M  V30 14186 H 1324.08 -2.66113 -1.63064 0
M  V30 14187 N 1324.38 0.532545 -1.4833 0
M  V30 14188 C 1325.63 1.28597 -1.55908 0
M  V30 14189 C 1325.95 1.93595 -0.233635 0
M  V30 14190 O 1325.22 1.81197 0.744605 0
M  V30 14191 H 1323.8 0.477619 -0.57436 0
M  V30 14192 H 1326.46 0.619922 -1.84778 0
M  V30 14193 H 1325.55 2.0666 -2.33877 0
M  V30 14194 N 1325.86 1.36875 0.78122 0
M  V30 14195 C 1327.1 1.31559 1.53943 0
M  V30 14196 C 1327.43 -0.10273 1.94229 0
M  V30 14197 O 1326.69 -1.07386 1.63605 0
M  V30 14198 C 1326.98 2.19173 2.82309 0
M  V30 14199 C 1326.65 3.67595 2.61121 0
M  V30 14200 C 1325.31 4.08047 2.55051 0
M  V30 14201 C 1327.66 4.61665 2.41898 0
M  V30 14202 C 1324.99 5.40697 2.27736 0
M  V30 14203 C 1327.34 5.94542 2.16108 0
M  V30 14204 C 1326.01 6.34109 2.08476 0
M  V30 14205 H 1325.28 0.48141 0.563317 0
M  V30 14206 H 1327.93 1.68999 0.900638 0
M  V30 14207 H 1326.23 1.74696 3.50697 0
M  V30 14208 H 1327.93 2.12379 3.40141 0
M  V30 14209 H 1324.52 3.35509 2.66705 0
M  V30 14210 H 1328.7 4.3128 2.45584 0
M  V30 14211 H 1323.96 5.70325 2.20315 0
M  V30 14212 H 1328.13 6.66994 2.0023 0
M  V30 14213 H 1325.76 7.36823 1.87073 0
M  V30 14214 N 1327.33 -1.00632 1.21289 0
M  V30 14215 C 1328.26 -2.11238 0.995021 0
M  V30 14216 C 1329.24 -1.69914 -0.0795537 0
M  V30 14217 O 1330.43 -1.94035 0.0800152 0
M  V30 14218 C 1327.56 -3.42797 0.557475 0
M  V30 14219 C 1326.51 -3.97909 1.57646 0
M  V30 14220 C 1325.84 -5.25357 0.995197 0
M  V30 14221 C 1327.14 -4.30123 2.96297 0
M  V30 14222 H 1328.83 -2.29722 1.9201 0
M  V30 14223 H 1326.38 -1.10395 0.924602 0
M  V30 14224 H 1328.33 -4.19571 0.392236 0
M  V30 14225 H 1327.06 -3.24101 -0.403253 0
M  V30 14226 H 1325.72 -3.23254 1.72924 0
M  V30 14227 H 1325.36 -5.02993 0.026227 0
M  V30 14228 H 1325.06 -5.63196 1.67583 0
M  V30 14229 H 1326.59 -6.04777 0.841251 0
M  V30 14230 H 1328 -4.97744 2.8447 0
M  V30 14231 H 1326.4 -4.79101 3.61361 0
M  V30 14232 H 1327.47 -3.38454 3.47242 0
M  V30 14233 N 1328.81 -1.02043 -1.20104 0
M  V30 14234 C 1330.06 -0.713027 -1.89852 0
M  V30 14235 C 1330.39 0.755767 -1.7889 0
M  V30 14236 O 1329.67 1.54948 -1.17564 0
M  V30 14237 C 1329.95 -1.15417 -3.41103 0
M  V30 14238 C 1329.8 -2.68355 -3.60979 0
M  V30 14239 C 1331.12 -0.728389 -4.34031 0
M  V30 14240 H 1328.24 -0.260502 -0.689426 0
M  V30 14241 H 1330.88 -1.26885 -1.41422 0
M  V30 14242 H 1329.03 -0.68127 -3.8248 0
M  V30 14243 H 1330.7 -3.23526 -3.28829 0
M  V30 14244 H 1328.95 -3.09148 -3.04319 0
M  V30 14245 H 1329.62 -2.94276 -4.67018 0
M  V30 14246 H 1332.09 -1.13499 -4.00321 0
M  V30 14247 H 1330.97 -1.06504 -5.38468 0
M  V30 14248 H 1331.23 0.369736 -4.40551 0
M  V30 14249 N 1330.29 1.35952 -0.797165 0
M  V30 14250 C 1331.22 2.32506 -0.215277 0
M  V30 14251 C 1332.2 1.57023 0.654046 0
M  V30 14252 O 1333.39 1.85139 0.586268 0
M  V30 14253 C 1330.52 3.41266 0.644557 0
M  V30 14254 C 1329.47 4.27816 -0.125501 0
M  V30 14255 C 1328.8 5.27813 0.855428 0
M  V30 14256 C 1330.1 5.05367 -1.31913 0
M  V30 14257 H 1331.79 2.8142 -1.02193 0
M  V30 14258 H 1329.34 1.35303 -0.492862 0
M  V30 14259 H 1331.29 4.07808 1.06163 0
M  V30 14260 H 1330.01 2.90938 1.484 0
M  V30 14261 H 1328.67 3.62841 -0.523639 0
M  V30 14262 H 1328.32 4.73755 1.69011 0
M  V30 14263 H 1328.02 5.86589 0.344566 0
M  V30 14264 H 1329.54 5.97227 1.2709 0
M  V30 14265 H 1330.96 5.64907 -0.977418 0
M  V30 14266 H 1329.36 5.73593 -1.76382 0
M  V30 14267 H 1330.43 4.36558 -2.11057 0
M  V30 14268 N 1331.77 0.549846 1.47697 0
M  V30 14269 C 1332.99 0.0256819 2.07384 0
M  V30 14270 C 1333.42 -1.25525 1.4009 0
M  V30 14271 O 1332.78 -1.7501 0.473406 0
M  V30 14272 C 1332.82 -0.160835 3.60241 0
M  V30 14273 O 1331.93 -1.22509 3.93783 0
M  V30 14274 H 1331.27 0.0480204 0.662261 0
M  V30 14275 H 1333.8 0.763429 1.89823 0
M  V30 14276 H 1333.81 -0.377337 4.06251 0
M  V30 14277 H 1332.48 0.774774 4.0862 0
M  V30 14278 H 1331.06 -0.98967 3.59527 0
M  V30 14279 N 1333.25 -1.54984 0.285932 0
M  V30 14280 C 1334.19 -2.24385 -0.612703 0
M  V30 14281 C 1335.19 -1.24459 -1.14918 0
M  V30 14282 O 1336.39 -1.42357 -1.10156 0
M  V30 14283 H 1332.77 -0.720263 -0.21616 0
M  V30 14284 H 1334.74 -2.984 -0.00465668 0
M  V30 14285 C 1333.49 -2.98661 -1.78037 0
M  V30 14286 H 1332.81 -3.75347 -1.37676 0
M  V30 14287 H 1334.25 -3.50525 -2.38554 0
M  V30 14288 C 1332.71 -2.04754 -2.67539 0
M  V30 14289 O 1333.24 -1.60577 -3.68209 0
M  V30 14290 N 1331.45 -1.71026 -2.34944 0
M  V30 14291 H 1330.99 -2.07148 -1.53126 0
M  V30 14292 H 1330.95 -1.08467 -2.95097 0
M  V30 14293 N 1334.72 -0.0133892 -1.57594 0
M  V30 14294 C 1335.66 1.00211 -2.06132 0
M  V30 14295 C 1336.67 1.29869 -0.98173 0
M  V30 14296 O 1337.86 1.2661 -1.25826 0
M  V30 14297 C 1334.96 2.33354 -2.45763 0
M  V30 14298 C 1334.13 2.22441 -3.76615 0
M  V30 14299 C 1333.19 3.38385 -4.02967 0
M  V30 14300 O 1332.22 3.15973 -4.73445 0
M  V30 14301 N 1333.42 4.61672 -3.51908 0
M  V30 14302 H 1336.18 0.588079 -2.93874 0
M  V30 14303 H 1333.74 0.173714 -1.60965 0
M  V30 14304 H 1335.74 3.09716 -2.60496 0
M  V30 14305 H 1334.31 2.66451 -1.6347 0
M  V30 14306 H 1333.53 1.30905 -3.7183 0
M  V30 14307 H 1334.81 2.12337 -4.62375 0
M  V30 14308 H 1334.21 4.82777 -2.9486 0
M  V30 14309 H 1332.77 5.35256 -3.71947 0
M  V30 14310 N 1336.2 1.55448 0.259558 0
M  V30 14311 C 1337.15 1.90056 1.34096 0
M  V30 14312 C 1338.14 0.778267 1.50464 0
M  V30 14313 O 1339.35 0.962758 1.52089 0
M  V30 14314 H 1335.73 0.603424 0.448758 0
M  V30 14315 H 1337.7 2.80365 1.02166 0
M  V30 14316 C 1336.45 2.20074 2.69189 0
M  V30 14317 H 1335.77 3.05926 2.57389 0
M  V30 14318 H 1337.21 2.48201 3.43762 0
M  V30 14319 C 1335.67 1.01281 3.21316 0
M  V30 14320 O 1336.2 0.2543 4.00894 0
M  V30 14321 N 1334.4 0.806855 2.79174 0
M  V30 14322 H 1333.95 1.42536 2.14572 0
M  V30 14323 H 1333.91 0.0136714 3.14397 0
M  V30 14324 N 1337.68 -0.524672 1.4861 0
M  V30 14325 C 1338.63 -1.62504 1.59927 0
M  V30 14326 C 1339.61 -1.543 0.456094 0
M  V30 14327 O 1340.81 -1.62231 0.707818 0
M  V30 14328 C 1337.94 -3.01207 1.64709 0
M  V30 14329 C 1337.02 -3.14495 2.84523 0
M  V30 14330 N 1337.41 -2.97741 4.08882 0
M  V30 14331 C 1335.71 -3.45559 2.81967 0
M  V30 14332 C 1336.41 -3.14585 4.89297 0
M  V30 14333 N 1335.39 -3.424 4.22212 0
M  V30 14334 H 1339.19 -1.48168 2.53818 0
M  V30 14335 H 1336.7 -0.730258 1.45055 0
M  V30 14336 H 1338.7 -3.80257 1.7091 0
M  V30 14337 H 1337.36 -3.16631 0.719376 0
M  V30 14338 H 1338.37 -2.74395 4.39235 0
M  V30 14339 H 1335.05 -3.67307 1.98474 0
M  V30 14340 H 1336.44 -3.06324 5.98009 0
M  V30 14341 N 1339.16 -1.37287 -0.77395 0
M  V30 14342 C 1340.09 -1.28746 -1.89624 0
M  V30 14343 C 1341.1 -0.203715 -1.6152 0
M  V30 14344 O 1342.29 -0.459684 -1.72479 0
M  V30 14345 C 1339.39 -0.967342 -3.24801 0
M  V30 14346 C 1338.57 -2.1561 -3.80567 0
M  V30 14347 C 1337.62 -1.80661 -4.94215 0
M  V30 14348 O 1336.65 -2.5293 -5.09917 0
M  V30 14349 N 1337.85 -0.749424 -5.75642 0
M  V30 14350 H 1340.62 -2.25447 -1.97468 0
M  V30 14351 H 1338.18 -1.30883 -0.952956 0
M  V30 14352 H 1340.17 -0.714421 -3.98344 0
M  V30 14353 H 1338.74 -0.0889573 -3.12473 0
M  V30 14354 H 1337.96 -2.57091 -2.98828 0
M  V30 14355 H 1339.25 -2.94993 -4.14556 0
M  V30 14356 H 1338.65 -0.149673 -5.65502 0
M  V30 14357 H 1337.2 -0.556358 -6.49421 0
M  V30 14358 N 1340.64 0.999871 -1.21821 0
M  V30 14359 C 1341.88 1.74194 -1.05014 0
M  V30 14360 C 1342.24 1.8795 0.411388 0
M  V30 14361 O 1341.53 1.4065 1.30108 0
M  V30 14362 C 1341.72 3.1509 -1.6868 0
M  V30 14363 C 1341.55 3.15073 -3.20872 0
M  V30 14364 C 1340.32 3.21361 -3.89942 0
M  V30 14365 C 1342.52 2.9978 -4.17896 0
M  V30 14366 N 1340.5 3.11024 -5.2928 0
M  V30 14367 C 1341.87 2.97396 -5.44018 0
M  V30 14368 C 1343.93 2.84119 -4.08877 0
M  V30 14369 C 1342.63 2.80956 -6.6216 0
M  V30 14370 C 1344.66 2.69038 -5.26662 0
M  V30 14371 C 1344.02 2.67335 -6.51699 0
M  V30 14372 H 1340.12 0.647385 -0.438653 0
M  V30 14373 H 1342.7 1.18801 -1.54255 0
M  V30 14374 H 1340.87 3.68742 -1.22 0
M  V30 14375 H 1342.61 3.7782 -1.45031 0
M  V30 14376 H 1339.36 3.28763 -3.40898 0
M  V30 14377 H 1339.79 3.09184 -6.02274 0
M  V30 14378 H 1344.43 2.84238 -3.12999 0
M  V30 14379 H 1342.15 2.79583 -7.58194 0
M  V30 14380 H 1345.73 2.57913 -5.21509 0
M  V30 14381 H 1344.61 2.55805 -7.41305 0
M  V30 14382 N 1342.11 1.02678 1.19562 0
M  V30 14383 C 1343.39 0.63674 1.84946 0
M  V30 14384 C 1343.77 -0.884667 1.91669 0
M  V30 14385 O 1343.12 -1.78053 1.43211 0
M  V30 14386 C 1343.33 1.29637 3.2403 0
M  V30 14387 C 1344.68 1.41828 4.00212 0
M  V30 14388 O 1345.7 1.25338 3.3342 0
M  V30 14389 O 1344.56 1.68573 5.19851 0
M  V30 14390 H 1341.65 0.221044 0.796912 0
M  V30 14391 H 1344.2 1.1248 1.27068 0
M  V30 14392 H 1342.97 2.33549 3.1396 0
M  V30 14393 H 1342.6 0.796041 3.8955 0
M  V30 14394 N 1343.59 -1.35528 0.804364 0
M  V30 14395 C 1344.52 -2.28562 0.170893 0
M  V30 14396 C 1345.54 -1.50178 -0.628526 0
M  V30 14397 O 1346.73 -1.72438 -0.461252 0
M  V30 14398 C 1343.83 -3.29792 -0.780434 0
M  V30 14399 C 1343 -4.37391 -0.0278619 0
M  V30 14400 C 1342.06 -5.18492 -0.897341 0
M  V30 14401 O 1341.08 -5.68128 -0.349098 0
M  V30 14402 N 1342.29 -5.36385 -2.21971 0
M  V30 14403 H 1345.05 -2.83565 0.970108 0
M  V30 14404 H 1342.61 -1.47854 0.659617 0
M  V30 14405 H 1344.6 -3.80939 -1.36628 0
M  V30 14406 H 1343.17 -2.7532 -1.48046 0
M  V30 14407 H 1342.39 -3.87208 0.739178 0
M  V30 14408 H 1343.68 -5.06426 0.490889 0
M  V30 14409 H 1343.08 -4.97699 -2.6891 0
M  V30 14410 H 1341.64 -5.90721 -2.75485 0
M  V30 14411 N 1345.07 -0.557671 -1.47404 0
M  V30 14412 C 1346.32 -0.0338384 -2.02772 0
M  V30 14413 C 1346.65 1.31278 -1.43107 0
M  V30 14414 O 1345.93 1.85436 -0.58682 0
M  V30 14415 C 1346.21 0.0587427 -3.60052 0
M  V30 14416 C 1346.06 -1.315 -4.30148 0
M  V30 14417 C 1347.38 0.771942 -4.33277 0
M  V30 14418 H 1344.5 -0.0137711 -0.736871 0
M  V30 14419 H 1347.14 -0.720049 -1.75827 0
M  V30 14420 H 1345.29 0.643154 -3.83139 0
M  V30 14421 H 1346.96 -1.94265 -4.184 0
M  V30 14422 H 1345.21 -1.88956 -3.90484 0
M  V30 14423 H 1345.88 -1.20294 -5.38733 0
M  V30 14424 H 1348.35 0.275729 -4.15185 0
M  V30 14425 H 1347.23 0.805683 -5.42955 0
M  V30 14426 H 1347.49 1.82816 -4.0253 0
M  V30 14427 N 1346.55 1.54831 -0.294147 0
M  V30 14428 C 1347.8 1.99606 0.316509 0
M  V30 14429 C 1348.12 1.18405 1.54936 0
M  V30 14430 O 1347.39 0.278289 1.93913 0
M  V30 14431 H 1345.97 0.737309 0.119938 0
M  V30 14432 H 1348.63 1.90669 -0.403891 0
M  V30 14433 H 1347.73 3.06409 0.593282 0
M  V30 14434 N 1348.03 0.0217466 1.57585 0
M  V30 14435 C 1349.44 -0.334576 1.56054 0
M  V30 14436 C 1349.64 -1.73386 1.02663 0
M  V30 14437 O 1348.7 -2.43447 0.670078 0
M  V30 14438 C 1350.01 -0.189919 3.001 0
M  V30 14439 C 1351.56 -0.263238 3.11891 0
M  V30 14440 C 1352.04 -0.147455 4.57763 0
M  V30 14441 N 1353.53 -0.204672 4.62748 0
M  V30 14442 C 1354.26 -0.138755 5.73232 0
M  V30 14443 N 1353.76 -0.0221762 6.92796 0
M  V30 14444 N 1355.55 -0.192206 5.61771 0
M  V30 14445 H 1347.7 0.936849 1.90622 0
M  V30 14446 H 1349.96 0.361119 0.876526 0
M  V30 14447 H 1349.67 0.773687 3.43084 0
M  V30 14448 H 1349.54 -0.963148 3.64696 0
M  V30 14449 H 1351.93 -1.2173 2.68823 0
M  V30 14450 H 1352.01 0.540241 2.5003 0
M  V30 14451 H 1351.66 0.803155 5.0151 0
M  V30 14452 H 1351.59 -0.969703 5.17595 0
M  V30 14453 H 1354.08 -0.29522 3.76745 0
M  V30 14454 H 1354.39 0.021631 7.72797 0
M  V30 14455 H 1352.74 0.0125033 6.94999 0
M  V30 14456 H 1355.93 -0.28163 4.67252 0
M  V30 14457 H 1356.1 -0.137372 6.47854 0
M  V30 14458 N 1349.51 -1.55583 -0.251311 0
M  V30 14459 C 1350.75 -1.77209 -0.979966 0
M  V30 14460 C 1351.08 -0.585279 -1.85485 0
M  V30 14461 O 1350.34 0.431559 -1.90882 0
M  V30 14462 C 1350.63 -3.04291 -1.87461 0
M  V30 14463 C 1350.3 -4.35844 -1.15545 0
M  V30 14464 C 1348.96 -4.71594 -0.956679 0
M  V30 14465 C 1351.31 -5.17189 -0.645381 0
M  V30 14466 C 1348.64 -5.86227 -0.235465 0
M  V30 14467 C 1350.99 -6.32569 0.0623441 0
M  V30 14468 C 1349.66 -6.66943 0.272634 0
M  V30 14469 H 1348.93 -0.648452 -0.358595 0
M  V30 14470 H 1351.58 -1.89856 -0.250423 0
M  V30 14471 H 1349.88 -2.86637 -2.67108 0
M  V30 14472 H 1351.58 -3.18221 -2.44001 0
M  V30 14473 H 1348.17 -4.07757 -1.32031 0
M  V30 14474 H 1352.35 -4.90028 -0.786505 0
M  V30 14475 H 1347.61 -6.11369 -0.0620232 0
M  V30 14476 H 1351.78 -6.94844 0.465234 0
M  V30 14477 H 1349.41 -7.55617 0.833442 0
M  V30 14478 N 1350.98 0.516783 -1.48886 0
M  V30 14479 C 1352.23 1.27187 -1.57574 0
M  V30 14480 C 1352.56 1.92815 -0.255432 0
M  V30 14481 O 1351.81 1.80533 0.755403 0
M  V30 14482 C 1352.11 2.37296 -2.67256 0
M  V30 14483 C 1351.78 1.89232 -4.0927 0
M  V30 14484 C 1350.44 1.75842 -4.47921 0
M  V30 14485 C 1352.79 1.53073 -4.98215 0
M  V30 14486 C 1350.12 1.24648 -5.73306 0
M  V30 14487 C 1352.47 1.03337 -6.24103 0
M  V30 14488 C 1351.14 0.885744 -6.61597 0
M  V30 14489 H 1350.41 0.46541 -0.576606 0
M  V30 14490 H 1353.05 0.575223 -1.82657 0
M  V30 14491 H 1351.36 3.12685 -2.36084 0
M  V30 14492 H 1353.06 2.95393 -2.7119 0
M  V30 14493 H 1349.65 2.00608 -3.78754 0
M  V30 14494 H 1353.83 1.62272 -4.69022 0
M  V30 14495 H 1349.09 1.11917 -6.0107 0
M  V30 14496 H 1353.26 0.744338 -6.92411 0
M  V30 14497 H 1350.89 0.486866 -7.58639 0
M  V30 14498 N 1352.46 1.37696 0.766659 0
M  V30 14499 C 1353.69 1.36564 1.56093 0
M  V30 14500 C 1354.11 -0.0455828 1.88045 0
M  V30 14501 O 1353.47 -1.02405 1.49609 0
M  V30 14502 C 1353.52 2.21592 2.84481 0
M  V30 14503 O 1352.62 1.62404 3.79076 0
M  V30 14504 H 1351.96 0.466394 0.472623 0
M  V30 14505 H 1354.49 1.81287 0.948486 0
M  V30 14506 H 1354.5 2.34987 3.33534 0
M  V30 14507 H 1353.18 3.24167 2.60554 0
M  V30 14508 H 1351.75 1.58078 3.37736 0
M  V30 14509 N 1353.94 -0.993397 1.22349 0
M  V30 14510 C 1354.85 -2.11771 1.00947 0
M  V30 14511 C 1355.87 -1.73949 -0.0420679 0
M  V30 14512 O 1357.04 -2.00837 0.150548 0
M  V30 14513 C 1354.11 -3.41654 0.589359 0
M  V30 14514 C 1353.17 -3.93579 1.71446 0
M  V30 14515 C 1352.4 -5.17264 1.3143 0
M  V30 14516 O 1352.62 -5.70074 0.192876 0
M  V30 14517 O 1351.56 -5.62929 2.13059 0
M  V30 14518 H 1355.38 -2.32708 1.95142 0
M  V30 14519 H 1352.97 -1.10144 1.00939 0
M  V30 14520 H 1354.85 -4.19813 0.365403 0
M  V30 14521 H 1353.53 -3.22077 -0.323738 0
M  V30 14522 H 1352.43 -3.16596 1.99294 0
M  V30 14523 H 1353.77 -4.17588 2.6054 0
M  V30 14524 N 1355.42 -1.03311 -1.19015 0
M  V30 14525 C 1356.66 -0.733124 -1.89085 0
M  V30 14526 C 1357 0.73675 -1.79682 0
M  V30 14527 O 1356.27 1.53692 -1.19201 0
M  V30 14528 C 1356.55 -1.19028 -3.39859 0
M  V30 14529 C 1356.41 -2.72169 -3.58112 0
M  V30 14530 C 1357.73 -0.774383 -4.33234 0
M  V30 14531 H 1354.85 -0.2678 -0.686624 0
M  V30 14532 H 1357.49 -1.28378 -1.40068 0
M  V30 14533 H 1355.64 -0.721799 -3.81736 0
M  V30 14534 H 1357.31 -3.26996 -3.25379 0
M  V30 14535 H 1355.55 -3.12358 -3.01023 0
M  V30 14536 H 1356.22 -2.99213 -4.6387 0
M  V30 14537 H 1358.7 -1.17739 -3.99095 0
M  V30 14538 H 1357.58 -1.12209 -5.37308 0
M  V30 14539 H 1357.84 0.322989 -4.40919 0
M  V30 14540 N 1356.9 1.35099 -0.81154 0
M  V30 14541 C 1358.17 1.93009 -0.317289 0
M  V30 14542 C 1358.55 1.74101 1.19382 0
M  V30 14543 O 1357.9 1.11295 1.99564 0
M  V30 14544 C 1358.11 3.41191 -0.734123 0
M  V30 14545 C 1359.46 4.1834 -0.726437 0
M  V30 14546 O 1360.48 3.49727 -0.67598 0
M  V30 14547 O 1359.34 5.4077 -0.789291 0
M  V30 14548 H 1356.44 0.822707 -0.084153 0
M  V30 14549 H 1358.98 1.44145 -0.895569 0
M  V30 14550 H 1357.75 3.48705 -1.7754 0
M  V30 14551 H 1357.38 3.97384 -0.130919 0
M  V30 14552 N 1358.37 0.56548 1.47106 0
M  V30 14553 C 1359.34 -0.167191 2.28589 0
M  V30 14554 C 1360.34 -0.835005 1.3742 0
M  V30 14555 O 1361.53 -0.689598 1.59969 0
M  V30 14556 C 1358.66 -1.24548 3.17333 0
M  V30 14557 H 1359.85 0.548677 2.94838 0
M  V30 14558 H 1357.4 0.322749 1.52931 0
M  V30 14559 H 1358.14 -1.99348 2.55794 0
M  V30 14560 H 1357.92 -0.771335 3.84438 0
M  V30 14561 H 1359.41 -1.75985 3.78707 0
M  V30 14562 N 1359.85 -1.54672 0.302354 0
M  V30 14563 C 1360.8 -2.25022 -0.58887 0
M  V30 14564 C 1361.79 -1.25671 -1.13592 0
M  V30 14565 O 1363 -1.43518 -1.0864 0
M  V30 14566 H 1359.38 -0.722515 -0.208509 0
M  V30 14567 H 1361.35 -2.98388 0.0269928 0
M  V30 14568 C 1360.1 -3.00532 -1.74859 0
M  V30 14569 H 1359.42 -3.76786 -1.33688 0
M  V30 14570 H 1360.86 -3.53036 -2.34823 0
M  V30 14571 C 1359.32 -2.0758 -2.65353 0
M  V30 14572 O 1359.85 -1.64473 -3.66485 0
M  V30 14573 N 1358.05 -1.73508 -2.33116 0
M  V30 14574 H 1357.6 -2.0876 -1.5092 0
M  V30 14575 H 1357.56 -1.11591 -2.9393 0
M  V30 14576 N 1361.33 -0.0301034 -1.57571 0
M  V30 14577 C 1362.26 0.94977 -2.13311 0
M  V30 14578 C 1363.24 1.33865 -1.04948 0
M  V30 14579 O 1364.43 1.4171 -1.32786 0
M  V30 14580 C 1361.56 2.23178 -2.66099 0
M  V30 14581 C 1360.51 1.98362 -3.79258 0
M  V30 14582 C 1359.84 3.32836 -4.18479 0
M  V30 14583 C 1361.14 1.32201 -5.05292 0
M  V30 14584 H 1362.83 0.485562 -2.95436 0
M  V30 14585 H 1360.38 0.232116 -1.42117 0
M  V30 14586 H 1362.33 2.92108 -3.03728 0
M  V30 14587 H 1361.05 2.71766 -1.81137 0
M  V30 14588 H 1359.71 1.31849 -3.42069 0
M  V30 14589 H 1359.36 3.79185 -3.30496 0
M  V30 14590 H 1359.06 3.17037 -4.94733 0
M  V30 14591 H 1360.58 4.03032 -4.58691 0
M  V30 14592 H 1362 1.91133 -5.40501 0
M  V30 14593 H 1360.4 1.26797 -5.86551 0
M  V30 14594 H 1361.47 0.29511 -4.84001 0
M  V30 14595 N 1362.81 1.55714 0.243056 0
M  V30 14596 C 1363.74 1.85615 1.32748 0
M  V30 14597 C 1364.72 0.711577 1.46203 0
M  V30 14598 O 1365.9 0.957732 1.62357 0
M  V30 14599 C 1363.03 2.04425 2.70052 0
M  V30 14600 C 1362.08 3.27071 2.73727 0
M  V30 14601 S 1362.91 4.83615 2.2995 0
M  V30 14602 C 1364.07 5.05434 3.69171 0
M  V30 14603 H 1364.3 2.77305 1.07187 0
M  V30 14604 H 1361.83 1.47871 0.444234 0
M  V30 14605 H 1363.79 2.15946 3.4911 0
M  V30 14606 H 1362.45 1.1357 2.92849 0
M  V30 14607 H 1361.64 3.37211 3.74573 0
M  V30 14608 H 1361.25 3.14296 2.02716 0
M  V30 14609 H 1363.54 4.93013 4.64698 0
M  V30 14610 H 1364.48 6.07401 3.63963 0
M  V30 14611 H 1364.89 4.33262 3.61862 0
M  V30 14612 N 1364.29 -0.50888 1.49158 0
M  V30 14613 C 1365.22 -1.62008 1.68154 0
M  V30 14614 C 1366.2 -1.61624 0.53025 0
M  V30 14615 O 1367.38 -1.78489 0.765205 0
M  V30 14616 C 1364.51 -3.00525 1.74075 0
M  V30 14617 C 1363.47 -3.15773 2.88915 0
M  V30 14618 C 1362.79 -4.55562 2.79942 0
M  V30 14619 C 1364.09 -2.96542 4.29953 0
M  V30 14620 H 1365.79 -1.46365 2.61185 0
M  V30 14621 H 1363.33 -0.702705 1.2569 0
M  V30 14622 H 1365.29 -3.78154 1.8595 0
M  V30 14623 H 1364.01 -3.17238 0.776373 0
M  V30 14624 H 1362.67 -2.40567 2.76628 0
M  V30 14625 H 1362.32 -4.6914 1.81429 0
M  V30 14626 H 1362.02 -4.66706 3.57015 0
M  V30 14627 H 1363.54 -5.35262 2.93814 0
M  V30 14628 H 1364.95 -3.63947 4.42963 0
M  V30 14629 H 1363.35 -3.19164 5.08187 0
M  V30 14630 H 1364.42 -1.92745 4.44946 0
M  V30 14631 N 1365.76 -1.381 -0.759346 0
M  V30 14632 C 1366.73 -1.34674 -1.8546 0
M  V30 14633 C 1367.73 -0.248351 -1.58871 0
M  V30 14634 O 1368.92 -0.504915 -1.66722 0
M  V30 14635 C 1366.05 -1.0952 -3.22828 0
M  V30 14636 H 1367.24 -2.3211 -1.89908 0
M  V30 14637 H 1364.8 -1.2331 -0.960435 0
M  V30 14638 H 1365.53 -0.126664 -3.24053 0
M  V30 14639 H 1365.32 -1.89037 -3.43522 0
M  V30 14640 H 1366.81 -1.09804 -4.02906 0
M  V30 14641 N 1367.24 0.986894 -1.22875 0
M  V30 14642 C 1368.17 2.09628 -1.0285 0
M  V30 14643 C 1369.15 1.70019 0.0525118 0
M  V30 14644 O 1370.34 1.93883 -0.110874 0
M  V30 14645 C 1367.47 3.41866 -0.61194 0
M  V30 14646 C 1366.42 3.95351 -1.63956 0
M  V30 14647 C 1365.75 5.23707 -1.07865 0
M  V30 14648 C 1367.05 4.25354 -3.03102 0
M  V30 14649 H 1368.74 2.26639 -1.95641 0
M  V30 14650 H 1366.29 1.0891 -0.942048 0
M  V30 14651 H 1368.24 4.18893 -0.458936 0
M  V30 14652 H 1366.97 3.24701 0.35164 0
M  V30 14653 H 1365.62 3.20462 -1.78045 0
M  V30 14654 H 1365.27 5.02888 -0.106246 0
M  V30 14655 H 1364.97 5.60459 -1.76522 0
M  V30 14656 H 1366.5 6.03362 -0.937359 0
M  V30 14657 H 1367.91 4.93156 -2.92353 0
M  V30 14658 H 1366.31 4.73292 -3.68938 0
M  V30 14659 H 1367.38 3.32887 -3.52583 0
M  V30 14660 N 1368.72 1.0394 1.18466 0
M  V30 14661 C 1369.95 0.760909 1.92077 0
M  V30 14662 C 1370.36 -0.685622 1.7634 0
M  V30 14663 O 1369.7 -1.47894 1.08963 0
M  V30 14664 C 1369.76 1.04583 3.43952 0
M  V30 14665 C 1369.43 2.48602 3.83466 0
M  V30 14666 C 1370.42 3.46775 3.87354 0
M  V30 14667 C 1368.11 2.8328 4.14798 0
M  V30 14668 C 1370.1 4.77678 4.22022 0
M  V30 14669 C 1367.79 4.1439 4.49138 0
M  V30 14670 C 1368.79 5.11399 4.52725 0
M  V30 14671 O 1368.48 6.40159 4.86264 0
M  V30 14672 H 1368.21 0.276991 0.616646 0
M  V30 14673 H 1370.76 1.3898 1.5124 0
M  V30 14674 H 1368.99 0.359807 3.85022 0
M  V30 14675 H 1370.68 0.755336 3.9881 0
M  V30 14676 H 1371.45 3.21323 3.63286 0
M  V30 14677 H 1367.33 2.08444 4.11184 0
M  V30 14678 H 1370.87 5.53393 4.24737 0
M  V30 14679 H 1366.77 4.39611 4.72666 0
M  V30 14680 H 1367.54 6.4479 5.04171 0
M  V30 14681 N 1370.2 -1.34667 0.818693 0
M  V30 14682 C 1371.15 -2.31501 0.225816 0
M  V30 14683 C 1372.14 -1.57205 -0.631112 0
M  V30 14684 O 1373.35 -1.72237 -0.522924 0
M  V30 14685 H 1369.72 -0.750039 0.0542747 0
M  V30 14686 H 1371.69 -2.79036 1.05743 0
M  V30 14687 C 1370.44 -3.42464 -0.60114 0
M  V30 14688 H 1369.76 -3.9977 0.0489207 0
M  V30 14689 H 1371.2 -4.12468 -0.982154 0
M  V30 14690 C 1369.66 -2.86551 -1.77173 0
M  V30 14691 O 1370.19 -2.81085 -2.86974 0
M  V30 14692 N 1368.4 -2.43432 -1.58712 0
M  V30 14693 H 1367.95 -2.48077 -0.693958 0
M  V30 14694 H 1367.9 -2.06371 -2.37188 0
M  V30 14695 N 1371.68 -0.573274 -1.46804 0
M  V30 14696 C 1372.62 0.178246 -2.31916 0
M  V30 14697 C 1373.62 0.89366 -1.4391 0
M  V30 14698 O 1374.82 0.81312 -1.60588 0
M  V30 14699 H 1371.2 0.0763519 -0.748114 0
M  V30 14700 H 1373.17 -0.558552 -2.93126 0
M  V30 14701 C 1371.92 1.18476 -3.26892 0
M  V30 14702 H 1371.24 0.643691 -3.94584 0
M  V30 14703 H 1372.68 1.68118 -3.89246 0
M  V30 14704 C 1371.14 2.24092 -2.51564 0
M  V30 14705 O 1371.67 3.3129 -2.27178 0
M  V30 14706 N 1369.88 1.98447 -2.1229 0
M  V30 14707 H 1369.42 1.11283 -2.32323 0
M  V30 14708 H 1369.38 2.69325 -1.62207 0
M  V30 14709 N 1373.15 1.5451 -0.310553 0
M  V30 14710 C 1374.38 2.05204 0.301013 0
M  V30 14711 C 1374.8 1.1859 1.46007 0
M  V30 14712 O 1374.16 0.192081 1.8028 0
M  V30 14713 C 1374.21 3.53221 0.725767 0
M  V30 14714 O 1373.31 3.69596 1.82955 0
M  V30 14715 H 1372.66 0.661566 0.0568026 0
M  V30 14716 H 1375.19 1.99473 -0.455178 0
M  V30 14717 H 1375.2 3.9525 1.01198 0
M  V30 14718 H 1373.87 4.15721 -0.122046 0
M  V30 14719 H 1372.45 3.39472 1.54315 0
M  V30 14720 N 1374.63 0.0384594 1.57553 0
M  V30 14721 C 1375.88 -0.63814 1.92182 0
M  V30 14722 C 1376.21 -1.71595 0.915714 0
M  V30 14723 O 1375.46 -1.9556 -0.0739533 0
M  V30 14724 C 1375.76 -1.28439 3.33524 0
M  V30 14725 C 1375.43 -0.336034 4.49646 0
M  V30 14726 C 1374.09 -0.0750373 4.81141 0
M  V30 14727 C 1376.44 0.314642 5.20249 0
M  V30 14728 C 1373.77 0.844286 5.80593 0
M  V30 14729 C 1376.12 1.22208 6.20684 0
M  V30 14730 C 1374.79 1.49187 6.50615 0
M  V30 14731 H 1374.06 -0.233512 0.703245 0
M  V30 14732 H 1376.7 0.102223 1.91227 0
M  V30 14733 H 1375.01 -2.09973 3.30785 0
M  V30 14734 H 1376.71 -1.81462 3.57593 0
M  V30 14735 H 1373.3 -0.549638 4.25061 0
M  V30 14736 H 1377.48 0.126074 4.9614 0
M  V30 14737 H 1372.74 1.06092 6.02125 0
M  V30 14738 H 1376.91 1.7324 6.74508 0
M  V30 14739 H 1374.54 2.20588 7.27492 0
M  V30 14740 N 1376.11 -1.55841 -0.234795 0
M  V30 14741 C 1377.34 -1.82043 -0.976937 0
M  V30 14742 C 1377.75 -0.613552 -1.78975 0
M  V30 14743 O 1377.09 0.427271 -1.78662 0
M  V30 14744 C 1377.15 -3.0178 -1.95369 0
M  V30 14745 C 1376.82 -4.3732 -1.32666 0
M  V30 14746 C 1377.82 -5.14847 -0.723107 0
M  V30 14747 C 1375.5 -4.8403 -1.3424 0
M  V30 14748 C 1377.49 -6.37238 -0.143646 0
M  V30 14749 C 1375.18 -6.06367 -0.759087 0
M  V30 14750 C 1376.18 -6.82811 -0.16075 0
M  V30 14751 O 1375.87 -8.02836 0.41352 0
M  V30 14752 H 1375.6 -0.609424 -0.292537 0
M  V30 14753 H 1378.15 -2.03758 -0.259216 0
M  V30 14754 H 1376.38 -2.7585 -2.71005 0
M  V30 14755 H 1378.07 -3.14968 -2.56027 0
M  V30 14756 H 1378.84 -4.79873 -0.703371 0
M  V30 14757 H 1374.72 -4.24512 -1.7975 0
M  V30 14758 H 1378.26 -6.96847 0.324002 0
M  V30 14759 H 1374.16 -6.40816 -0.776191 0
M  V30 14760 H 1374.93 -8.17926 0.306554 0
M  V30 14761 N 1377.59 0.500963 -1.49426 0
M  V30 14762 C 1378.82 1.27911 -1.62624 0
M  V30 14763 C 1379.23 1.86439 -0.297651 0
M  V30 14764 O 1378.59 1.67831 0.716879 0
M  V30 14765 C 1378.64 2.40934 -2.69505 0
M  V30 14766 O 1378.36 1.84811 -3.97211 0
M  V30 14767 C 1379.86 3.32305 -2.93408 0
M  V30 14768 H 1377.08 0.387951 -0.547481 0
M  V30 14769 H 1379.63 0.601372 -1.95458 0
M  V30 14770 H 1377.78 3.04537 -2.39449 0
M  V30 14771 H 1378.2 2.59011 -4.56085 0
M  V30 14772 H 1379.67 4.0789 -3.71927 0
M  V30 14773 H 1380.15 3.89301 -2.03325 0
M  V30 14774 H 1380.75 2.74467 -3.24881 0
M  V30 14775 N 1379.07 1.38501 0.752011 0
M  V30 14776 C 1380.48 1.19733 1.05529 0
M  V30 14777 C 1380.68 0.047088 2.01445 0
M  V30 14778 O 1379.74 -0.606645 2.45104 0
M  V30 14779 C 1381.05 2.52439 1.63386 0
M  V30 14780 C 1382.6 2.59136 1.7555 0
M  V30 14781 C 1383.08 3.92022 2.36819 0
M  V30 14782 N 1384.57 3.9357 2.44248 0
M  V30 14783 C 1385.3 4.93154 2.92553 0
M  V30 14784 N 1384.8 6.03135 3.40882 0
M  V30 14785 N 1386.59 4.80543 2.91607 0
M  V30 14786 H 1378.74 2.12085 0.115543 0
M  V30 14787 H 1381 0.941134 0.113888 0
M  V30 14788 H 1380.71 3.37072 1.00376 0
M  V30 14789 H 1380.58 2.70947 2.62427 0
M  V30 14790 H 1382.97 1.74897 2.37687 0
M  V30 14791 H 1383.05 2.44494 0.752092 0
M  V30 14792 H 1382.7 4.76684 1.75314 0
M  V30 14793 H 1382.63 4.03976 3.37803 0
M  V30 14794 H 1385.12 3.14133 2.10068 0
M  V30 14795 H 1385.43 6.7505 3.76201 0
M  V30 14796 H 1383.78 6.06752 3.38935 0
M  V30 14797 H 1386.97 3.93733 2.53163 0
M  V30 14798 H 1387.14 5.58303 3.28941 0
M  V30 14799 N 1380.55 -0.980364 1.23396 0
M  V30 14800 C 1381.49 -2.07275 1.01516 0
M  V30 14801 C 1382.46 -1.65963 -0.0673729 0
M  V30 14802 O 1383.65 -1.90612 0.0847392 0
M  V30 14803 C 1380.79 -3.39621 0.61249 0
M  V30 14804 C 1379.9 -3.94203 1.76715 0
M  V30 14805 C 1379.04 -5.14761 1.31126 0
M  V30 14806 C 1378.07 -5.61509 2.43667 0
M  V30 14807 N 1377.21 -6.73297 1.99035 0
M  V30 14808 H 1382.05 -2.25325 1.9502 0
M  V30 14809 H 1379.59 -1.10452 0.971532 0
M  V30 14810 H 1381.55 -4.15643 0.360126 0
M  V30 14811 H 1380.18 -3.21535 -0.285539 0
M  V30 14812 H 1379.23 -3.14937 2.13352 0
M  V30 14813 H 1380.54 -4.24867 2.61323 0
M  V30 14814 H 1379.69 -5.98115 1.01702 0
M  V30 14815 H 1378.43 -4.85751 0.435555 0
M  V30 14816 H 1377.44 -4.76737 2.73865 0
M  V30 14817 H 1378.66 -5.92539 3.31774 0
M  V30 14818 H 1376.61 -6.46046 1.13845 0
M  V30 14819 H 1376.53 -7.03345 2.77203 0
M  V30 14820 H 1377.79 -7.60125 1.72716 0
M  V30 14821 N 1382.02 -1.04567 -1.17913 0
M  V30 14822 C 1382.93 -0.651674 -2.25367 0
M  V30 14823 C 1383.95 0.32437 -1.7095 0
M  V30 14824 O 1385.13 0.178039 -2.00612 0
M  V30 14825 C 1382.19 -0.0259452 -3.4669 0
M  V30 14826 C 1381.25 -1.05163 -4.1622 0
M  V30 14827 C 1380.48 -0.45567 -5.31751 0
M  V30 14828 O 1380.71 0.736698 -5.65623 0
M  V30 14829 O 1379.64 -1.18684 -5.90083 0
M  V30 14830 H 1383.47 -1.54704 -2.61344 0
M  V30 14831 H 1381.05 -0.816852 -1.25092 0
M  V30 14832 H 1382.93 0.322126 -4.20167 0
M  V30 14833 H 1381.61 0.843165 -3.12526 0
M  V30 14834 H 1380.52 -1.45159 -3.44789 0
M  V30 14835 H 1381.85 -1.89168 -4.54397 0
M  V30 14836 N 1383.5 1.34231 -0.825823 0
M  V30 14837 C 1384.73 2.02949 -0.427354 0
M  V30 14838 C 1385.15 1.61772 0.959755 0
M  V30 14839 O 1384.51 0.803799 1.62508 0
M  V30 14840 C 1384.56 3.56522 -0.540799 0
M  V30 14841 O 1383.66 4.10065 0.438213 0
M  V30 14842 H 1383 0.640378 -0.175535 0
M  V30 14843 H 1385.53 1.71416 -1.11704 0
M  V30 14844 H 1385.54 4.05857 -0.41763 0
M  V30 14845 H 1384.22 3.85839 -1.55246 0
M  V30 14846 H 1382.79 3.71894 0.273687 0
M  V30 14847 N 1384.98 0.581051 1.46498 0
M  V30 14848 C 1386.21 0.0714615 2.06476 0
M  V30 14849 C 1386.62 -1.23815 1.43061 0
M  V30 14850 O 1385.96 -1.75903 0.529504 0
M  V30 14851 C 1386.02 -0.170353 3.59096 0
M  V30 14852 C 1385.69 1.05341 4.44694 0
M  V30 14853 C 1386.68 1.96503 4.81334 0
M  V30 14854 C 1384.37 1.27479 4.85854 0
M  V30 14855 C 1386.36 3.08154 5.57961 0
M  V30 14856 C 1384.05 2.39434 5.62241 0
M  V30 14857 C 1385.05 3.29601 5.98207 0
M  V30 14858 O 1384.74 4.39612 6.7305 0
M  V30 14859 H 1384.47 0.0537502 0.67386 0
M  V30 14860 H 1387.02 0.800993 1.89138 0
M  V30 14861 H 1385.25 -0.954477 3.74735 0
M  V30 14862 H 1386.94 -0.628248 4.01009 0
M  V30 14863 H 1387.71 1.80615 4.50115 0
M  V30 14864 H 1383.59 0.582051 4.57311 0
M  V30 14865 H 1387.13 3.78557 5.85953 0
M  V30 14866 H 1383.03 2.55286 5.92874 0
M  V30 14867 H 1383.79 4.37959 6.91473 0
M  V30 14868 N 1386.46 -1.54343 0.318742 0
M  V30 14869 C 1387.73 -1.92635 -0.339299 0
M  V30 14870 C 1388.11 -1.24786 -1.7027 0
M  V30 14871 O 1387.46 -0.389844 -2.2515 0
M  V30 14872 C 1387.67 -3.46262 -0.436318 0
M  V30 14873 C 1389.02 -4.18809 -0.698871 0
M  V30 14874 O 1390.04 -3.52392 -0.519431 0
M  V30 14875 O 1388.9 -5.36422 -1.04471 0
M  V30 14876 H 1386 -0.804202 -0.192841 0
M  V30 14877 H 1388.54 -1.6566 0.368104 0
M  V30 14878 H 1387.32 -3.8781 0.521427 0
M  V30 14879 H 1386.94 -3.79327 -1.19149 0
M  V30 14880 N 1387.94 -0.0468143 -1.5753 0
M  V30 14881 C 1389.17 0.636723 -1.96544 0
M  V30 14882 C 1389.57 1.65169 -0.922814 0
M  V30 14883 O 1388.92 1.83417 0.101892 0
M  V30 14884 C 1388.98 1.38435 -3.31777 0
M  V30 14885 C 1388.64 0.525714 -4.53966 0
M  V30 14886 C 1389.64 -0.206392 -5.1949 0
M  V30 14887 C 1387.32 0.457919 -5.00208 0
M  V30 14888 C 1389.32 -0.994779 -6.29589 0
M  V30 14889 C 1387.01 -0.334159 -6.10186 0
M  V30 14890 C 1388 -1.0592 -6.74737 0
M  V30 14891 O 1387.69 -1.83826 -7.826 0
M  V30 14892 H 1387.42 0.179197 -0.651816 0
M  V30 14893 H 1389.98 -0.108214 -2.05115 0
M  V30 14894 H 1388.21 2.17482 -3.19748 0
M  V30 14895 H 1389.9 1.9577 -3.55568 0
M  V30 14896 H 1390.66 -0.163457 -4.84724 0
M  V30 14897 H 1386.54 1.01185 -4.49758 0
M  V30 14898 H 1390.09 -1.56121 -6.79906 0
M  V30 14899 H 1385.98 -0.378748 -6.44388 0
M  V30 14900 H 1386.75 -1.75991 -7.99356 0
M  V30 14901 N 1389.41 1.55964 0.226527 0
M  V30 14902 C 1390.35 1.88487 1.30405 0
M  V30 14903 C 1391.36 0.772723 1.43293 0
M  V30 14904 O 1392.55 1.05099 1.44279 0
M  V30 14905 C 1389.65 2.074 2.68027 0
M  V30 14906 C 1388.82 3.38389 2.77149 0
M  V30 14907 C 1387.88 3.46795 3.95752 0
M  V30 14908 O 1386.91 4.19862 3.84323 0
M  V30 14909 N 1388.11 2.77573 5.09836 0
M  V30 14910 H 1390.87 2.81506 1.02833 0
M  V30 14911 H 1388.43 1.56449 0.416581 0
M  V30 14912 H 1390.43 2.10344 3.45742 0
M  V30 14913 H 1389 1.2103 2.8822 0
M  V30 14914 H 1388.22 3.47586 1.8595 0
M  V30 14915 H 1389.5 4.24688 2.8021 0
M  V30 14916 H 1388.9 2.17979 5.22017 0
M  V30 14917 H 1387.46 2.86185 5.85612 0
M  V30 14918 N 1390.89 -0.493031 1.4969 0
M  V30 14919 C 1391.86 -1.57598 1.6642 0
M  V30 14920 C 1392.86 -1.51615 0.535668 0
M  V30 14921 O 1394.05 -1.54626 0.802283 0
M  V30 14922 C 1391.18 -2.97249 1.66901 0
M  V30 14923 H 1392.37 -1.4409 2.63017 0
M  V30 14924 H 1389.92 -0.717846 1.3884 0
M  V30 14925 H 1390.66 -3.16225 0.719164 0
M  V30 14926 H 1390.44 -3.02999 2.48865 0
M  V30 14927 H 1391.93 -3.75914 1.81874 0
M  V30 14928 N 1392.37 -1.38898 -0.744656 0
M  V30 14929 C 1393.33 -1.36633 -1.84022 0
M  V30 14930 C 1394.33 -0.265187 -1.58598 0
M  V30 14931 O 1395.52 -0.522569 -1.66177 0
M  V30 14932 C 1392.66 -1.12938 -3.21649 0
M  V30 14933 H 1393.85 -2.34111 -1.87435 0
M  V30 14934 H 1391.4 -1.24322 -0.947302 0
M  V30 14935 H 1392.14 -0.161027 -3.239 0
M  V30 14936 H 1391.92 -1.9267 -3.41498 0
M  V30 14937 H 1393.41 -1.14071 -4.01718 0
M  V30 14938 N 1393.85 0.973806 -1.23914 0
M  V30 14939 C 1395.09 1.731 -1.08701 0
M  V30 14940 C 1395.45 1.88425 0.368772 0
M  V30 14941 O 1396.65 2.61014 0.642259 0
M  V30 14942 C 1394.92 3.08777 -1.79977 0
M  V30 14943 S 1396.48 3.99993 -1.80419 0
M  V30 14944 H 1393.3 0.595219 -0.38889 0
M  V30 14945 H 1395.9 1.16291 -1.57152 0
M  V30 14946 H 1394.61 2.95278 -2.85024 0
M  V30 14947 H 1394.14 3.70652 -1.31835 0
M  V30 14948 H 1396.15 4.88558 -0.867494 0
M  V30 14949 N 1395.33 1.05191 1.17357 0
M  V30 14950 C 1396.29 0.65713 2.19578 0
M  V30 14951 C 1397.29 -0.29138 1.58138 0
M  V30 14952 O 1398.48 -0.075254 1.74037 0
M  V30 14953 C 1395.61 -0.0348162 3.40882 0
M  V30 14954 H 1396.8 1.56188 2.56018 0
M  V30 14955 H 1394.36 0.845795 1.31438 0
M  V30 14956 H 1395.09 -0.952835 3.09986 0
M  V30 14957 H 1394.88 0.647076 3.86724 0
M  V30 14958 H 1396.37 -0.297135 4.16542 0
M  V30 14959 N 1396.8 -1.33791 0.83293 0
M  V30 14960 C 1398.22 -1.80336 0.483294 0
M  V30 14961 C 1398.57 -1.68969 -0.997195 0
M  V30 14962 O 1397.69 -1.23549 -1.77664 0
M  V30 14963 C 1398.29 -3.27427 0.870475 0
M  V30 14964 C 1396.85 -3.72012 0.573064 0
M  V30 14965 C 1395.99 -2.55319 1.08201 0
M  V30 14966 H 1398.94 -1.21396 1.02218 0
M  V30 14967 H 1398.96 -3.80083 0.178173 0
M  V30 14968 H 1398.48 -3.35668 1.94804 0
M  V30 14969 H 1396.58 -3.69302 -0.494678 0
M  V30 14970 H 1396.69 -4.65725 1.12414 0
M  V30 14971 H 1395.05 -2.49681 0.503123 0
M  V30 14972 H 1395.84 -2.66326 2.16623 0
M  V30 14973 N 1398.28 -0.588812 -1.46187 0
M  V30 14974 C 1399.21 0.178825 -2.28501 0
M  V30 14975 C 1400.23 0.849686 -1.38867 0
M  V30 14976 O 1401.42 0.718224 -1.63413 0
M  V30 14977 C 1398.52 1.27309 -3.14079 0
M  V30 14978 C 1397.69 0.692974 -4.31876 0
M  V30 14979 C 1396.75 1.67572 -4.98805 0
M  V30 14980 O 1395.77 1.20937 -5.56204 0
M  V30 14981 N 1396.98 3.00992 -4.96371 0
M  V30 14982 H 1399.74 -0.527407 -2.95023 0
M  V30 14983 H 1397.3 -0.426998 -1.56168 0
M  V30 14984 H 1399.29 1.92993 -3.55719 0
M  V30 14985 H 1397.86 1.88209 -2.49592 0
M  V30 14986 H 1397.08 -0.141485 -3.93946 0
M  V30 14987 H 1398.37 0.28529 -5.08 0
M  V30 14988 H 1397.77 3.41498 -4.50994 0
M  V30 14989 H 1396.33 3.62149 -5.41933 0
M  V30 14990 N 1399.76 1.54172 -0.326923 0
M  V30 14991 C 1401.17 1.86009 0.160446 0
M  V30 14992 C 1401.52 1.24851 1.51349 0
M  V30 14993 O 1400.65 0.555804 2.09141 0
M  V30 14994 C 1401.24 3.37488 0.297909 0
M  V30 14995 C 1399.8 3.69263 0.7295 0
M  V30 14996 C 1398.95 2.76911 -0.146778 0
M  V30 14997 H 1401.9 1.48972 -0.547093 0
M  V30 14998 H 1401.92 3.63388 1.12825 0
M  V30 14999 H 1401.43 3.81971 -0.687007 0
M  V30 15000 H 1399.53 3.30314 1.72404 0
M  V30 15001 H 1399.65 4.76149 0.53092 0
M  V30 15002 H 1398.01 2.51876 0.378212 0
M  V30 15003 H 1398.79 3.24221 -1.12852 0
M  V30 15004 N 1401.24 0.0551678 1.57503 0
M  V30 15005 C 1402.65 -0.479948 1.80426 0
M  V30 15006 C 1403 -1.70673 0.967733 0
M  V30 15007 O 1402.13 -2.15604 0.185462 0
M  V30 15008 C 1402.72 -0.877496 3.27239 0
M  V30 15009 C 1401.28 -1.35757 3.51066 0
M  V30 15010 C 1400.43 -0.334681 2.75273 0
M  V30 15011 H 1403.38 0.281016 1.56192 0
M  V30 15012 H 1403.4 -1.74013 3.38378 0
M  V30 15013 H 1402.91 0.015571 3.88097 0
M  V30 15014 H 1401.01 -2.26969 2.95492 0
M  V30 15015 H 1401.12 -1.34697 4.59776 0
M  V30 15016 H 1399.49 -0.808421 2.4153 0
M  V30 15017 H 1400.27 0.550369 3.3886 0
M  V30 15018 N 1402.72 -1.56081 -0.218252 0
M  V30 15019 C 1403.96 -1.78893 -0.940296 0
M  V30 15020 C 1404.29 -0.62425 -1.84738 0
M  V30 15021 O 1403.56 0.358686 -1.92588 0
M  V30 15022 H 1402.14 -0.659828 -0.350193 0
M  V30 15023 H 1404.8 -1.93546 -0.229316 0
M  V30 15024 H 1403.89 -2.71167 -1.54516 0
M  V30 15025 N 1404.2 0.485086 -1.49949 0
M  V30 15026 C 1405.14 1.60559 -1.68296 0
M  V30 15027 C 1406.14 1.60264 -0.548802 0
M  V30 15028 O 1407.34 1.64581 -0.728905 0
M  V30 15029 H 1403.72 0.532529 -0.530958 0
M  V30 15030 H 1405.69 1.42242 -2.62316 0
M  V30 15031 C 1404.44 2.98596 -1.78145 0
M  V30 15032 H 1403.76 2.99536 -2.64799 0
M  V30 15033 H 1405.2 3.76492 -1.95012 0
M  V30 15034 C 1403.66 3.32708 -0.529828 0
M  V30 15035 O 1404.19 4.00281 0.337347 0
M  V30 15036 N 1402.4 2.87998 -0.388012 0
M  V30 15037 H 1401.94 2.33182 -1.0947 0
M  V30 15038 H 1401.9 3.11187 0.448307 0
M  V30 15039 N 1405.67 1.39291 0.737279 0
M  V30 15040 C 1406.6 1.40562 1.86452 0
M  V30 15041 C 1407.58 0.269283 1.67955 0
M  V30 15042 O 1408.77 0.474769 1.88307 0
M  V30 15043 C 1405.9 1.2461 3.24175 0
M  V30 15044 C 1404.85 2.35619 3.57306 0
M  V30 15045 C 1404.18 2.04758 4.93941 0
M  V30 15046 C 1405.48 3.77927 3.60512 0
M  V30 15047 H 1407.17 2.34896 1.85646 0
M  V30 15048 H 1404.72 1.13065 0.891756 0
M  V30 15049 H 1406.67 1.2412 4.02706 0
M  V30 15050 H 1405.4 0.267438 3.25503 0
M  V30 15051 H 1404.06 2.35322 2.81104 0
M  V30 15052 H 1403.7 1.05336 4.91847 0
M  V30 15053 H 1403.4 2.79117 5.17076 0
M  V30 15054 H 1404.93 2.05915 5.74832 0
M  V30 15055 H 1406.34 3.80166 4.29123 0
M  V30 15056 H 1404.74 4.51626 3.95164 0
M  V30 15057 H 1405.81 4.09068 2.60368 0
M  V30 15058 N 1407.15 -0.967221 1.24429 0
M  V30 15059 C 1408.4 -1.70688 1.08213 0
M  V30 15060 C 1408.72 -1.91268 -0.379693 0
M  V30 15061 O 1407.99 -1.49077 -1.27094 0
M  V30 15062 H 1406.57 -0.632489 0.39745 0
M  V30 15063 H 1409.23 -1.16356 1.56356 0
M  V30 15064 H 1408.33 -2.69119 1.58055 0
M  V30 15065 N 1408.63 -1.05812 -1.16797 0
M  V30 15066 C 1409.59 -0.668766 -2.19226 0
M  V30 15067 C 1410.59 0.28299 -1.5829 0
M  V30 15068 O 1411.78 0.0660233 -1.74075 0
M  V30 15069 C 1408.91 0.0167379 -3.40896 0
M  V30 15070 H 1410.11 -1.57543 -2.55187 0
M  V30 15071 H 1407.66 -0.852753 -1.30988 0
M  V30 15072 H 1408.4 0.936382 -3.10487 0
M  V30 15073 H 1408.18 -0.667576 -3.86375 0
M  V30 15074 H 1409.67 0.275041 -4.16693 0
M  V30 15075 N 1410.11 1.33347 -0.840014 0
M  V30 15076 C 1411.07 2.27492 -0.279264 0
M  V30 15077 C 1412.07 1.51004 0.552669 0
M  V30 15078 O 1413.26 1.70305 0.366295 0
M  V30 15079 C 1410.39 3.35462 0.606466 0
M  V30 15080 H 1411.59 2.78601 -1.11001 0
M  V30 15081 H 1409.14 1.4377 -0.613187 0
M  V30 15082 H 1409.87 2.89596 1.45961 0
M  V30 15083 H 1409.66 3.92098 0.0111889 0
M  V30 15084 H 1411.15 4.05645 0.992052 0
M  V30 15085 N 1411.59 0.596556 1.45873 0
M  V30 15086 C 1413 0.173758 1.8589 0
M  V30 15087 C 1413.35 -1.26665 1.49835 0
M  V30 15088 O 1412.47 -1.9588 0.919773 0
M  V30 15089 C 1413.07 0.308567 3.37392 0
M  V30 15090 C 1411.63 -0.0594585 3.76353 0
M  V30 15091 C 1410.77 0.638127 2.69858 0
M  V30 15092 H 1413.72 0.803928 1.36831 0
M  V30 15093 H 1413.75 -0.462294 3.77681 0
M  V30 15094 H 1413.26 1.35701 3.63603 0
M  V30 15095 H 1411.36 -1.1075 3.5576 0
M  V30 15096 H 1411.47 0.326506 4.77986 0
M  V30 15097 H 1409.84 0.0769147 2.54584 0
M  V30 15098 H 1410.62 1.68849 2.98906 0
M  V30 15099 N 1413.06 -1.53996 0.335095 0
M  V30 15100 C 1414.48 -1.59591 -0.0171422 0
M  V30 15101 C 1414.68 -1.35132 -1.49471 0
M  V30 15102 O 1413.74 -1.14141 -2.25229 0
M  V30 15103 C 1415.05 -2.97872 0.411443 0
M  V30 15104 C 1416.6 -3.10887 0.363072 0
M  V30 15105 C 1417.07 -4.51532 0.766995 0
M  V30 15106 N 1418.56 -4.57557 0.72085 0
M  V30 15107 C 1419.3 -5.64516 1.00544 0
M  V30 15108 N 1418.79 -6.79365 1.35777 0
M  V30 15109 N 1420.59 -5.54349 0.930243 0
M  V30 15110 H 1412.74 -1.68151 1.29766 0
M  V30 15111 H 1415 -0.787067 0.528422 0
M  V30 15112 H 1414.71 -3.20809 1.44134 0
M  V30 15113 H 1414.58 -3.76571 -0.217678 0
M  V30 15114 H 1416.97 -2.87679 -0.657642 0
M  V30 15115 H 1417.05 -2.34266 1.02728 0
M  V30 15116 H 1416.69 -4.75474 1.78568 0
M  V30 15117 H 1416.62 -5.26539 0.0803511 0
M  V30 15118 H 1419.11 -3.75079 0.460867 0
M  V30 15119 H 1419.43 -7.56891 1.55999 0
M  V30 15120 H 1417.77 -6.80833 1.39614 0
M  V30 15121 H 1420.96 -4.63503 0.654402 0
M  V30 15122 H 1421.14 -6.37616 1.15539 0
M  V30 15123 N 1414.54 -0.0635198 -1.57472 0
M  V30 15124 C 1415.79 0.606285 -1.92792 0
M  V30 15125 C 1416.11 1.70648 -0.943615 0
M  V30 15126 O 1415.38 1.95898 0.00957612 0
M  V30 15127 H 1413.96 0.226943 -0.711692 0
M  V30 15128 H 1416.62 -0.119429 -1.94534 0
M  V30 15129 H 1415.72 1.03694 -2.9437 0
M  V30 15130 N 1416.02 1.56195 0.209972 0
M  V30 15131 C 1417.27 1.80011 0.93402 0
M  V30 15132 C 1417.6 0.635109 1.83521 0
M  V30 15133 O 1416.87 -0.365099 1.91043 0
M  V30 15134 C 1417.16 3.13989 1.76304 0
M  V30 15135 C 1417.01 4.40956 0.887567 0
M  V30 15136 C 1418.33 3.44514 2.73857 0
M  V30 15137 H 1415.45 0.654859 0.338125 0
M  V30 15138 H 1418.09 1.88921 0.20221 0
M  V30 15139 H 1416.24 3.06524 2.38695 0
M  V30 15140 H 1417.91 4.60452 0.279507 0
M  V30 15141 H 1416.15 4.33368 0.193533 0
M  V30 15142 H 1416.83 5.31164 1.50228 0
M  V30 15143 H 1419.3 3.52182 2.216 0
M  V30 15144 H 1418.18 4.39407 3.28957 0
M  V30 15145 H 1418.44 2.6726 3.52171 0
M  V30 15146 N 1417.5 -0.477127 1.50204 0
M  V30 15147 C 1418.74 -1.22964 1.60891 0
M  V30 15148 C 1419.07 -1.9207 0.306464 0
M  V30 15149 O 1418.33 -1.82472 -0.707272 0
M  V30 15150 C 1418.63 -2.30126 2.73453 0
M  V30 15151 C 1418.29 -1.78314 4.14143 0
M  V30 15152 C 1416.95 -1.63904 4.52425 0
M  V30 15153 C 1419.31 -1.3981 5.02098 0
M  V30 15154 C 1416.63 -1.09404 5.76409 0
M  V30 15155 C 1418.99 -0.867538 6.26623 0
M  V30 15156 C 1417.65 -0.710022 6.63713 0
M  V30 15157 H 1416.92 -0.449959 0.588743 0
M  V30 15158 H 1419.57 -0.526592 1.84118 0
M  V30 15159 H 1417.87 -3.06315 2.44291 0
M  V30 15160 H 1419.57 -2.88099 2.78927 0
M  V30 15161 H 1416.16 -1.90496 3.83939 0
M  V30 15162 H 1420.34 -1.49779 4.73159 0
M  V30 15163 H 1415.6 -0.959413 6.03825 0
M  V30 15164 H 1419.77 -0.560496 6.94141 0
M  V30 15165 H 1417.4 -0.285555 7.59663 0
M  V30 15166 N 1418.98 -1.3968 -0.729882 0
M  V30 15167 C 1420.22 -1.37385 -1.49175 0
M  V30 15168 C 1420.56 0.0285839 -1.94179 0
M  V30 15169 O 1419.83 0.994516 -1.67152 0
M  V30 15170 C 1420.11 -2.35075 -2.72785 0
M  V30 15171 C 1419.97 -3.84282 -2.33767 0
M  V30 15172 C 1421.29 -2.30515 -3.74901 0
M  V30 15173 H 1418.4 -0.500359 -0.541119 0
M  V30 15174 H 1421.05 -1.7071 -0.834152 0
M  V30 15175 H 1419.2 -2.06787 -3.28894 0
M  V30 15176 H 1420.87 -4.2334 -1.8325 0
M  V30 15177 H 1419.11 -4.00809 -1.65935 0
M  V30 15178 H 1419.78 -4.48131 -3.22309 0
M  V30 15179 H 1422.26 -2.55539 -3.28389 0
M  V30 15180 H 1421.13 -3.00939 -4.5905 0
M  V30 15181 H 1421.4 -1.3119 -4.22187 0
M  V30 15182 N 1420.45 0.960609 -1.2494 0
M  V30 15183 C 1421.87 1.51915 -1.0853 0
M  V30 15184 C 1422.22 1.93215 0.340949 0
M  V30 15185 O 1421.34 1.78031 1.2302 0
M  V30 15186 C 1421.94 2.76069 -1.96396 0
M  V30 15187 C 1420.5 3.28255 -1.84189 0
M  V30 15188 C 1419.64 2.01124 -1.90905 0
M  V30 15189 H 1422.59 0.778141 -1.38314 0
M  V30 15190 H 1422.61 3.49668 -1.50042 0
M  V30 15191 H 1422.13 2.45979 -3.00193 0
M  V30 15192 H 1420.23 3.6318 -0.832518 0
M  V30 15193 H 1420.34 3.96675 -2.68673 0
M  V30 15194 H 1418.7 2.16155 -1.34718 0
M  V30 15195 H 1419.49 1.73389 -2.96295 0
M  V30 15196 N 1421.93 1.0643 1.16234 0
M  V30 15197 C 1423.16 0.802644 1.90697 0
M  V30 15198 C 1423.58 -0.643145 1.77508 0
M  V30 15199 O 1422.93 -1.4404 1.12065 0
M  V30 15200 C 1422.98 1.18984 3.41358 0
M  V30 15201 O 1422.7 2.5789 3.54153 0
M  V30 15202 C 1424.21 0.956132 4.32866 0
M  V30 15203 H 1421.43 0.290891 0.604668 0
M  V30 15204 H 1423.97 1.41829 1.47325 0
M  V30 15205 H 1422.12 0.618703 3.82428 0
M  V30 15206 H 1422.54 2.73431 4.47589 0
M  V30 15207 H 1424.01 1.27667 5.37034 0
M  V30 15208 H 1424.49 -0.108062 4.39067 0
M  V30 15209 H 1425.1 1.51172 3.97526 0
M  V30 15210 N 1423.41 -1.329 0.847073 0
M  V30 15211 C 1424.66 -1.97803 0.447417 0
M  V30 15212 C 1424.99 -1.6691 -0.9927 0
M  V30 15213 O 1424.26 -0.953315 -1.69535 0
M  V30 15214 C 1424.55 -3.53657 0.678135 0
M  V30 15215 C 1424.4 -3.94207 2.16612 0
M  V30 15216 C 1425.72 -4.39909 0.129589 0
M  V30 15217 H 1422.84 -0.718514 0.164034 0
M  V30 15218 H 1425.48 -1.57407 1.0641 0
M  V30 15219 H 1423.63 -3.88198 0.153222 0
M  V30 15220 H 1425.3 -3.69883 2.75653 0
M  V30 15221 H 1423.55 -3.43641 2.64752 0
M  V30 15222 H 1424.22 -5.02791 2.27827 0
M  V30 15223 H 1426.69 -4.12061 0.578371 0
M  V30 15224 H 1425.57 -5.47963 0.320648 0
M  V30 15225 H 1425.83 -4.31391 -0.967167 0
M  V30 15226 N 1424.89 -0.604284 -1.45555 0
M  V30 15227 C 1425.85 0.106526 -2.28952 0
M  V30 15228 C 1426.85 0.798277 -1.39586 0
M  V30 15229 O 1428.04 0.646943 -1.61741 0
M  V30 15230 C 1425.17 1.16091 -3.20524 0
M  V30 15231 H 1426.37 -0.626655 -2.9328 0
M  V30 15232 H 1423.92 -0.363183 -1.52022 0
M  V30 15233 H 1424.65 1.92496 -2.6099 0
M  V30 15234 H 1424.44 0.669137 -3.86348 0
M  V30 15235 H 1425.93 1.65882 -3.8324 0
M  V30 15236 N 1426.37 1.53816 -0.343257 0
M  V30 15237 C 1427.64 1.9315 0.308609 0
M  V30 15238 C 1428.02 1.27479 1.68263 0
M  V30 15239 O 1427.37 0.425614 2.24501 0
M  V30 15240 C 1427.58 3.46912 0.381176 0
M  V30 15241 C 1428.93 4.19868 0.632153 0
M  V30 15242 O 1429.95 3.53174 0.463303 0
M  V30 15243 O 1428.81 5.38016 0.959237 0
M  V30 15244 H 1425.91 0.807169 0.180022 0
M  V30 15245 H 1428.45 1.65053 -0.394412 0
M  V30 15246 H 1427.22 3.86932 -0.583058 0
M  V30 15247 H 1426.85 3.81175 1.13099 0
M  V30 15248 N 1427.84 0.0718701 1.57436 0
M  V30 15249 C 1429.09 -0.597231 1.93493 0
M  V30 15250 C 1429.42 -1.69614 0.951906 0
M  V30 15251 O 1428.67 -1.95673 -0.0324554 0
M  V30 15252 C 1428.97 -1.21336 3.36173 0
M  V30 15253 C 1428.64 -0.240582 4.50258 0
M  V30 15254 C 1427.3 0.0270368 4.81192 0
M  V30 15255 C 1429.65 0.424924 5.19465 0
M  V30 15256 C 1426.98 0.967249 5.78672 0
M  V30 15257 C 1429.33 1.35346 6.17952 0
M  V30 15258 C 1428 1.62954 6.47304 0
M  V30 15259 H 1427.27 -0.218542 0.70804 0
M  V30 15260 H 1429.91 0.142762 1.90967 0
M  V30 15261 H 1428.22 -2.02909 3.35164 0
M  V30 15262 H 1429.92 -1.73836 3.61361 0
M  V30 15263 H 1426.51 -0.459352 4.26131 0
M  V30 15264 H 1430.69 0.231285 4.95761 0
M  V30 15265 H 1425.95 1.1884 5.99739 0
M  V30 15266 H 1430.12 1.87509 6.70681 0
M  V30 15267 H 1427.75 2.3597 7.2265 0
M  V30 15268 N 1429.32 -1.56304 -0.201686 0
M  V30 15269 C 1430.25 -1.97046 -1.25281 0
M  V30 15270 C 1431.23 -0.841458 -1.47829 0
M  V30 15271 O 1432.42 -1.10529 -1.59678 0
M  V30 15272 C 1429.55 -2.30429 -2.59845 0
M  V30 15273 C 1428.5 -3.46006 -2.5192 0
M  V30 15274 C 1427.83 -3.65047 -3.90697 0
M  V30 15275 C 1429.13 -4.80391 -2.04992 0
M  V30 15276 H 1430.82 -2.85099 -0.914272 0
M  V30 15277 H 1428.37 -1.37166 -0.438359 0
M  V30 15278 H 1430.32 -2.57525 -3.33555 0
M  V30 15279 H 1429.05 -1.39251 -2.95426 0
M  V30 15280 H 1427.7 -3.18991 -1.80667 0
M  V30 15281 H 1427.35 -2.71211 -4.2362 0
M  V30 15282 H 1427.05 -4.42796 -3.86271 0
M  V30 15283 H 1428.58 -3.94512 -4.66039 0
M  V30 15284 H 1429.99 -5.06561 -2.68456 0
M  V30 15285 H 1428.39 -5.61563 -2.11582 0
M  V30 15286 H 1429.46 -4.74416 -1.00288 0
M  V30 15287 N 1430.8 0.469154 -1.50455 0
M  V30 15288 C 1431.75 1.58765 -1.6999 0
M  V30 15289 C 1432.74 1.59673 -0.56577 0
M  V30 15290 O 1433.95 1.63799 -0.74632 0
M  V30 15291 H 1430.32 0.526868 -0.536577 0
M  V30 15292 H 1432.29 1.39451 -2.6381 0
M  V30 15293 C 1431.04 2.9669 -1.81302 0
M  V30 15294 H 1430.37 2.96711 -2.67961 0
M  V30 15295 H 1431.81 3.74403 -1.98994 0
M  V30 15296 C 1430.27 3.32127 -0.565086 0
M  V30 15297 O 1430.8 4.00616 0.294873 0
M  V30 15298 N 1429 2.8757 -0.418537 0
M  V30 15299 H 1428.55 2.32008 -1.11938 0
M  V30 15300 H 1428.51 3.11645 0.415276 0
M  V30 15301 N 1432.28 1.40065 0.722464 0
M  V30 15302 C 1433.21 1.42532 1.84951 0
M  V30 15303 C 1434.19 0.287082 1.6766 0
M  V30 15304 O 1435.37 0.494715 1.87793 0
M  V30 15305 C 1432.5 1.28041 3.22836 0
M  V30 15306 C 1431.46 2.39396 3.54787 0
M  V30 15307 C 1430.78 2.09986 4.91742 0
M  V30 15308 C 1432.08 3.81729 3.56483 0
M  V30 15309 H 1433.78 2.36851 1.83144 0
M  V30 15310 H 1431.32 1.14005 0.879714 0
M  V30 15311 H 1433.28 1.28385 4.01367 0
M  V30 15312 H 1432 0.301947 3.25201 0
M  V30 15313 H 1430.66 2.3829 2.78592 0
M  V30 15314 H 1430.31 1.10547 4.90702 0
M  V30 15315 H 1430.01 2.84586 5.14086 0
M  V30 15316 H 1431.53 2.12 5.72615 0
M  V30 15317 H 1432.95 3.84696 4.25067 0
M  V30 15318 H 1431.34 4.55791 3.90351 0
M  V30 15319 H 1432.41 4.11807 2.56014 0
M  V30 15320 N 1433.76 -0.95397 1.25448 0
M  V30 15321 C 1434.72 -2.03231 1.0597 0
M  V30 15322 C 1435.72 -1.60795 0.0122855 0
M  V30 15323 O 1436.91 -1.7233 0.254533 0
M  V30 15324 C 1434.04 -3.35414 0.609105 0
M  V30 15325 H 1435.24 -2.21943 2.01696 0
M  V30 15326 H 1432.79 -1.13115 1.07864 0
M  V30 15327 H 1433.52 -3.22398 -0.350723 0
M  V30 15328 H 1433.31 -3.67564 1.36526 0
M  V30 15329 H 1434.8 -4.14664 0.49428 0
M  V30 15330 N 1435.24 -1.07045 -1.15668 0
M  V30 15331 C 1436.48 -0.802736 -1.8689 0
M  V30 15332 C 1436.84 0.663897 -1.80583 0
M  V30 15333 O 1436.13 1.48076 -1.2159 0
M  V30 15334 C 1436.32 -1.24127 -3.35153 0
M  V30 15335 C 1436.15 -2.749 -3.55894 0
M  V30 15336 C 1434.92 -3.42466 -3.71544 0
M  V30 15337 C 1437.12 -3.73102 -3.53977 0
M  V30 15338 N 1435.1 -4.81912 -3.80308 0
M  V30 15339 C 1436.47 -4.98371 -3.68817 0
M  V30 15340 C 1438.53 -3.66304 -3.37233 0
M  V30 15341 C 1437.23 -6.17651 -3.68645 0
M  V30 15342 C 1439.26 -4.85045 -3.38357 0
M  V30 15343 C 1438.62 -6.09146 -3.53725 0
M  V30 15344 H 1434.72 -0.346254 -0.701165 0
M  V30 15345 H 1437.3 -1.36609 -1.3873 0
M  V30 15346 H 1435.47 -0.705653 -3.81936 0
M  V30 15347 H 1437.21 -0.92143 -3.94071 0
M  V30 15348 H 1433.96 -2.92871 -3.72187 0
M  V30 15349 H 1434.38 -5.54475 -3.88441 0
M  V30 15350 H 1439.03 -2.71306 -3.24273 0
M  V30 15351 H 1436.74 -7.12975 -3.80384 0
M  V30 15352 H 1440.33 -4.81458 -3.26634 0
M  V30 15353 H 1439.21 -6.99487 -3.54524 0
M  V30 15354 N 1436.71 1.32449 -0.85411 0
M  V30 15355 C 1437.96 1.97962 -0.467177 0
M  V30 15356 C 1438.31 1.66368 0.966409 0
M  V30 15357 O 1437.61 0.941277 1.66885 0
M  V30 15358 C 1437.8 3.51577 -0.642499 0
M  V30 15359 C 1437.63 3.98099 -2.09158 0
M  V30 15360 C 1436.4 4.25207 -2.72996 0
M  V30 15361 C 1438.6 4.13207 -3.0621 0
M  V30 15362 N 1436.58 4.57973 -4.0882 0
M  V30 15363 C 1437.95 4.49504 -4.2702 0
M  V30 15364 C 1440.01 3.95539 -3.02412 0
M  V30 15365 C 1438.71 4.69978 -5.4453 0
M  V30 15366 C 1440.74 4.17197 -4.19167 0
M  V30 15367 C 1440.1 4.5381 -5.38735 0
M  V30 15368 H 1436.2 0.75051 -0.21968 0
M  V30 15369 H 1438.78 1.60279 -1.10538 0
M  V30 15370 H 1436.95 3.88385 -0.033996 0
M  V30 15371 H 1438.68 4.04071 -0.225515 0
M  V30 15372 H 1435.44 4.17258 -2.24038 0
M  V30 15373 H 1435.86 4.78541 -4.78881 0
M  V30 15374 H 1440.5 3.66334 -2.1109 0
M  V30 15375 H 1438.22 4.98037 -6.36384 0
M  V30 15376 H 1441.81 4.0503 -4.17663 0
M  V30 15377 H 1440.69 4.70233 -6.27575 0
M  V30 15378 N 1438.19 0.611994 1.45232 0
M  V30 15379 C 1439.42 0.115409 2.06578 0
M  V30 15380 C 1439.83 -1.20206 1.45588 0
M  V30 15381 O 1439.19 -1.73315 0.571668 0
M  V30 15382 C 1439.24 -0.0259943 3.61491 0
M  V30 15383 O 1438.96 1.23936 4.20204 0
M  V30 15384 C 1440.46 -0.553522 4.39831 0
M  V30 15385 H 1437.68 0.0708656 0.667247 0
M  V30 15386 H 1440.23 0.840977 1.86408 0
M  V30 15387 H 1438.38 -0.701909 3.80988 0
M  V30 15388 H 1438.8 1.07187 5.13431 0
M  V30 15389 H 1440.27 -0.601536 5.48713 0
M  V30 15390 H 1440.75 -1.57671 4.09923 0
M  V30 15391 H 1441.35 0.0884954 4.25208 0
M  V30 15392 N 1439.67 -1.53632 0.351409 0
M  V30 15393 C 1440.89 -2.0593 -0.246501 0
M  V30 15394 C 1441.32 -1.22419 -1.42812 0
M  V30 15395 O 1440.68 -0.239811 -1.79707 0
M  V30 15396 C 1440.73 -3.55021 -0.631862 0
M  V30 15397 O 1439.83 -3.74317 -1.73092 0
M  V30 15398 H 1439.17 -0.662839 -0.0392424 0
M  V30 15399 H 1441.7 -1.98196 0.507904 0
M  V30 15400 H 1441.71 -3.97795 -0.906831 0
M  V30 15401 H 1440.39 -4.15251 0.232224 0
M  V30 15402 H 1438.96 -3.43444 -1.4526 0
M  V30 15403 N 1441.15 -0.0802183 -1.57396 0
M  V30 15404 C 1442.11 0.869437 -2.12069 0
M  V30 15405 C 1443.11 1.22079 -1.04658 0
M  V30 15406 O 1444.3 1.15267 -1.3061 0
M  V30 15407 C 1441.43 2.17016 -2.62901 0
M  V30 15408 H 1442.63 0.394952 -2.97288 0
M  V30 15409 H 1440.18 0.168597 -1.55388 0
M  V30 15410 H 1440.91 2.68983 -1.8116 0
M  V30 15411 H 1440.7 1.92808 -3.4142 0
M  V30 15412 H 1442.19 2.84982 -3.05246 0
M  V30 15413 N 1442.63 1.56409 0.193394 0
M  V30 15414 C 1443.59 1.93822 1.22334 0
M  V30 15415 C 1444.59 0.819513 1.3835 0
M  V30 15416 O 1445.78 1.0869 1.36132 0
M  V30 15417 C 1442.91 2.21375 2.59241 0
M  V30 15418 H 1444.1 2.85967 0.903502 0
M  V30 15419 H 1441.66 1.50125 0.43498 0
M  V30 15420 H 1442.39 1.31874 2.96277 0
M  V30 15421 H 1442.18 3.02899 2.48988 0
M  V30 15422 H 1443.67 2.51319 3.33509 0
M  V30 15423 N 1444.1 -0.461169 1.50702 0
M  V30 15424 C 1445.07 -1.54032 1.69725 0
M  V30 15425 C 1446.07 -1.50445 0.567707 0
M  V30 15426 O 1447.26 -1.52889 0.834901 0
M  V30 15427 C 1444.39 -2.93642 1.73168 0
M  V30 15428 H 1445.58 -1.38478 2.66015 0
M  V30 15429 H 1443.13 -0.688235 1.40332 0
M  V30 15430 H 1443.87 -3.14629 0.786078 0
M  V30 15431 H 1443.65 -2.97652 2.55236 0
M  V30 15432 H 1445.14 -3.71972 1.89807 0
M  V30 15433 N 1445.58 -1.40446 -0.715026 0
M  V30 15434 C 1446.83 -1.39962 -1.47587 0
M  V30 15435 C 1447.18 -0.00170702 -1.924 0
M  V30 15436 O 1446.48 0.968788 -1.65303 0
M  V30 15437 C 1446.67 -2.32392 -2.7153 0
M  V30 15438 C 1446.5 -3.81032 -2.3884 0
M  V30 15439 C 1445.27 -4.49842 -2.30153 0
M  V30 15440 C 1447.47 -4.7251 -2.03073 0
M  V30 15441 N 1445.45 -5.83711 -1.90143 0
M  V30 15442 C 1446.82 -5.9518 -1.73668 0
M  V30 15443 C 1448.87 -4.6034 -1.89714 0
M  V30 15444 C 1447.58 -7.07038 -1.32248 0
M  V30 15445 C 1449.6 -5.7214 -1.49698 0
M  V30 15446 C 1448.97 -6.93896 -1.21191 0
M  V30 15447 H 1445.06 -0.567409 -0.538118 0
M  V30 15448 H 1447.65 -1.76163 -0.829144 0
M  V30 15449 H 1445.82 -1.98319 -3.33953 0
M  V30 15450 H 1447.55 -2.22762 -3.37875 0
M  V30 15451 H 1444.31 -4.0353 -2.47912 0
M  V30 15452 H 1444.73 -6.54608 -1.72675 0
M  V30 15453 H 1449.37 -3.66723 -2.10414 0
M  V30 15454 H 1447.09 -8.00538 -1.10291 0
M  V30 15455 H 1450.68 -5.6472 -1.39939 0
M  V30 15456 H 1449.56 -7.78938 -0.906925 0
M  V30 15457 N 1447.06 0.947303 -1.25952 0
M  V30 15458 C 1448.28 1.73261 -1.13997 0
M  V30 15459 C 1448.71 1.85666 0.301639 0
M  V30 15460 O 1448.07 1.34244 1.21854 0
M  V30 15461 C 1448.12 3.12046 -1.8072 0
M  V30 15462 O 1447.22 3.97684 -1.09182 0
M  V30 15463 H 1446.56 0.53182 -0.397572 0
M  V30 15464 H 1449.09 1.18689 -1.66656 0
M  V30 15465 H 1449.1 3.62468 -1.87299 0
M  V30 15466 H 1447.78 3.02334 -2.856 0
M  V30 15467 H 1446.35 3.56141 -1.10536 0
M  V30 15468 N 1448.54 1.07657 1.15099 0
M  V30 15469 C 1449.47 0.721201 2.22083 0
M  V30 15470 C 1450.45 -0.292808 1.67561 0
M  V30 15471 O 1451.63 -0.164872 1.93499 0
M  V30 15472 C 1448.76 0.12153 3.47087 0
M  V30 15473 C 1447.72 1.06303 4.14588 0
M  V30 15474 C 1447.04 0.325964 5.33706 0
M  V30 15475 C 1448.34 2.39796 4.63999 0
M  V30 15476 H 1450.04 1.61566 2.52065 0
M  V30 15477 H 1447.58 0.778282 1.21156 0
M  V30 15478 H 1449.54 -0.139037 4.21171 0
M  V30 15479 H 1448.26 -0.808022 3.16447 0
M  V30 15480 H 1446.92 1.30858 3.4245 0
M  V30 15481 H 1446.57 -0.607147 4.99322 0
M  V30 15482 H 1446.27 0.953552 5.79811 0
M  V30 15483 H 1447.79 0.0732695 6.10556 0
M  V30 15484 H 1449.21 2.19552 5.29594 0
M  V30 15485 H 1447.6 2.98178 5.20778 0
M  V30 15486 H 1448.67 3.01876 3.79472 0
M  V30 15487 N 1450.02 -1.31994 0.861122 0
M  V30 15488 C 1451.26 -1.97025 0.467678 0
M  V30 15489 C 1451.59 -1.68116 -0.978129 0
M  V30 15490 O 1450.85 -0.965342 -1.70234 0
M  V30 15491 C 1451.15 -3.51232 0.661135 0
M  V30 15492 C 1450.81 -4.00142 2.07839 0
M  V30 15493 C 1449.47 -4.1321 2.466 0
M  V30 15494 C 1451.83 -4.25986 3.00309 0
M  V30 15495 C 1449.15 -4.49467 3.7709 0
M  V30 15496 C 1451.51 -4.63704 4.30304 0
M  V30 15497 C 1450.17 -4.74978 4.68991 0
M  V30 15498 H 1449.44 -0.720967 0.171136 0
M  V30 15499 H 1452.09 -1.57285 1.09242 0
M  V30 15500 H 1450.39 -3.91772 -0.0467947 0
M  V30 15501 H 1452.09 -3.99584 0.336669 0
M  V30 15502 H 1448.68 -3.90461 1.76743 0
M  V30 15503 H 1452.86 -4.15393 2.71592 0
M  V30 15504 H 1448.12 -4.56391 4.06838 0
M  V30 15505 H 1452.29 -4.82654 5.02014 0
M  V30 15506 H 1449.92 -5.02828 5.70147 0
M  V30 15507 N 1451.49 -0.619688 -1.44906 0
M  V30 15508 C 1452.43 0.130316 -2.28829 0
M  V30 15509 C 1453.44 0.820039 -1.40639 0
M  V30 15510 O 1454.63 0.683401 -1.649 0
M  V30 15511 C 1451.73 1.20618 -3.16709 0
M  V30 15512 C 1450.9 0.60121 -4.33248 0
M  V30 15513 C 1449.96 1.56954 -5.02247 0
M  V30 15514 O 1448.99 1.09112 -5.58644 0
M  V30 15515 N 1450.19 2.90395 -5.02644 0
M  V30 15516 H 1452.95 -0.589867 -2.93838 0
M  V30 15517 H 1450.51 -0.460028 -1.55227 0
M  V30 15518 H 1452.51 1.85404 -3.59732 0
M  V30 15519 H 1451.08 1.82873 -2.53528 0
M  V30 15520 H 1450.3 -0.225015 -3.93557 0
M  V30 15521 H 1451.58 0.177471 -5.0849 0
M  V30 15522 H 1450.98 3.31855 -4.58136 0
M  V30 15523 H 1449.54 3.50572 -5.49493 0
M  V30 15524 N 1452.97 1.53444 -0.359552 0
M  V30 15525 C 1453.9 2.23121 0.524379 0
M  V30 15526 C 1454.92 1.24324 1.05106 0
M  V30 15527 O 1456.11 1.50584 0.958476 0
M  V30 15528 C 1453.21 2.91055 1.7361 0
M  V30 15529 C 1452.38 4.16306 1.34195 0
M  V30 15530 C 1451.44 4.67504 2.41508 0
M  V30 15531 O 1450.46 5.3133 2.04149 0
M  V30 15532 N 1451.67 4.44801 3.73005 0
M  V30 15533 H 1454.43 2.99612 -0.072427 0
M  V30 15534 H 1451.99 1.60846 -0.184438 0
M  V30 15535 H 1453.98 3.22216 2.44865 0
M  V30 15536 H 1452.55 2.18052 2.23991 0
M  V30 15537 H 1451.77 3.91513 0.459501 0
M  V30 15538 H 1453.06 4.97746 1.05483 0
M  V30 15539 H 1452.46 3.9379 4.06136 0
M  V30 15540 H 1451.02 4.80528 4.40382 0
M  V30 15541 N 1454.45 0.0885642 1.57351 0
M  V30 15542 C 1455.38 -0.869946 2.16689 0
M  V30 15543 C 1456.36 -1.29878 1.09844 0
M  V30 15544 O 1457.55 -1.36684 1.37954 0
M  V30 15545 C 1454.68 -2.13148 2.74199 0
M  V30 15546 C 1453.63 -1.84149 3.86359 0
M  V30 15547 C 1452.96 -3.17075 4.30543 0
M  V30 15548 C 1454.26 -1.13357 5.09851 0
M  V30 15549 H 1455.95 -0.375578 2.97035 0
M  V30 15550 H 1453.5 -0.17921 1.42881 0
M  V30 15551 H 1455.45 -2.80634 3.14361 0
M  V30 15552 H 1454.17 -2.64856 1.91098 0
M  V30 15553 H 1452.83 -1.19063 3.46727 0
M  V30 15554 H 1452.48 -3.66658 3.44342 0
M  V30 15555 H 1452.18 -2.98457 5.06159 0
M  V30 15556 H 1453.7 -3.85731 4.73333 0
M  V30 15557 H 1455.12 -1.70941 5.47222 0
M  V30 15558 H 1453.52 -1.0494 5.90853 0
M  V30 15559 H 1454.59 -0.115273 4.84763 0
M  V30 15560 N 1455.93 -1.56509 -0.185096 0
M  V30 15561 C 1456.86 -1.98363 -1.23184 0
M  V30 15562 C 1457.84 -0.85709 -1.46929 0
M  V30 15563 O 1459.02 -1.12216 -1.58497 0
M  V30 15564 C 1456.15 -2.33172 -2.57387 0
M  V30 15565 C 1455.11 -3.48658 -2.48236 0
M  V30 15566 C 1454.43 -3.69171 -3.86804 0
M  V30 15567 C 1455.73 -4.82538 -1.99885 0
M  V30 15568 H 1457.43 -2.86053 -0.883982 0
M  V30 15569 H 1454.97 -1.37623 -0.423786 0
M  V30 15570 H 1456.93 -2.61048 -3.30805 0
M  V30 15571 H 1455.65 -1.42377 -2.93933 0
M  V30 15572 H 1454.31 -3.20889 -1.77273 0
M  V30 15573 H 1453.96 -2.75689 -4.20719 0
M  V30 15574 H 1453.66 -4.46868 -3.81553 0
M  V30 15575 H 1455.18 -3.99433 -4.61829 0
M  V30 15576 H 1456.6 -5.0938 -2.63068 0
M  V30 15577 H 1454.99 -5.63775 -2.05614 0
M  V30 15578 H 1456.06 -4.75453 -0.952503 0
M  V30 15579 N 1457.41 0.45317 -1.50944 0
M  V30 15580 C 1458.64 1.22494 -1.66369 0
M  V30 15581 C 1459.04 1.85862 -0.353854 0
M  V30 15582 O 1458.39 1.70808 0.676031 0
M  V30 15583 C 1458.45 2.36145 -2.71064 0
M  V30 15584 C 1458.11 1.93273 -4.14119 0
M  V30 15585 C 1459.11 1.44508 -4.99413 0
M  V30 15586 C 1456.8 2.01447 -4.60135 0
M  V30 15587 C 1458.79 1.04482 -6.28778 0
M  V30 15588 C 1456.48 1.61033 -5.89501 0
M  V30 15589 C 1457.47 1.1263 -6.73649 0
M  V30 15590 O 1457.16 0.727835 -8.00598 0
M  V30 15591 H 1456.89 0.37591 -0.561843 0
M  V30 15592 H 1459.45 0.545218 -1.98032 0
M  V30 15593 H 1457.68 3.07345 -2.34682 0
M  V30 15594 H 1459.37 2.9806 -2.75527 0
M  V30 15595 H 1460.13 1.376 -4.65071 0
M  V30 15596 H 1456.01 2.38068 -3.94771 0
M  V30 15597 H 1459.56 0.666322 -6.9441 0
M  V30 15598 H 1455.45 1.67606 -6.23361 0
M  V30 15599 H 1456.22 0.855097 -8.14021 0
M  V30 15600 N 1458.88 1.40823 0.707568 0
M  V30 15601 C 1460.13 1.39259 1.46463 0
M  V30 15602 C 1460.45 -0.00157854 1.95 0
M  V30 15603 O 1459.72 -0.957723 1.70893 0
M  V30 15604 H 1458.3 0.512558 0.543409 0
M  V30 15605 H 1460.97 1.75952 0.838269 0
M  V30 15606 H 1460.06 2.07243 2.3336 0
M  V30 15607 N 1460.36 -0.94061 1.26453 0
M  V30 15608 C 1461.29 -2.05667 1.10559 0
M  V30 15609 C 1462.27 -1.70097 0.0106258 0
M  V30 15610 O 1463.46 -1.93338 0.182756 0
M  V30 15611 C 1460.59 -3.3936 0.7384 0
M  V30 15612 C 1459.54 -3.88993 1.78517 0
M  V30 15613 C 1458.87 -5.19343 1.27228 0
M  V30 15614 C 1460.17 -4.13812 3.1868 0
M  V30 15615 H 1461.86 -2.19221 2.03918 0
M  V30 15616 H 1459.41 -1.05339 0.98182 0
M  V30 15617 H 1461.36 -4.16902 0.61409 0
M  V30 15618 H 1460.09 -3.25783 -0.230887 0
M  V30 15619 H 1458.74 -3.13633 1.89816 0
M  V30 15620 H 1458.39 -5.02147 0.292816 0
M  V30 15621 H 1458.09 -5.53521 1.97201 0
M  V30 15622 H 1459.62 -5.99468 1.16065 0
M  V30 15623 H 1461.03 -4.81966 3.10455 0
M  V30 15624 H 1459.43 -4.59273 3.86249 0
M  V30 15625 H 1460.5 -3.19571 3.64695 0
M  V30 15626 N 1461.84 -1.08266 -1.14527 0
M  V30 15627 C 1463.09 -0.806405 -1.84878 0
M  V30 15628 C 1463.4 0.670151 -1.83762 0
M  V30 15629 O 1464.61 1.06151 -2.49888 0
M  V30 15630 C 1463.06 -1.39257 -3.31867 0
M  V30 15631 C 1462.67 -2.90081 -3.41404 0
M  V30 15632 C 1464.42 -1.19475 -4.0734 0
M  V30 15633 C 1462.32 -3.41842 -4.82595 0
M  V30 15634 H 1461.25 -0.297993 -0.692615 0
M  V30 15635 H 1463.9 -1.30389 -1.29116 0
M  V30 15636 H 1462.29 -0.822802 -3.87358 0
M  V30 15637 H 1463.46 -3.53182 -2.95971 0
M  V30 15638 H 1461.78 -3.08761 -2.79385 0
M  V30 15639 H 1464.37 -1.55614 -5.11555 0
M  V30 15640 H 1464.72 -0.134455 -4.16083 0
M  V30 15641 H 1465.25 -1.73138 -3.58145 0
M  V30 15642 H 1461.99 -4.47439 -4.79039 0
M  V30 15643 H 1461.51 -2.835 -5.28572 0
M  V30 15644 H 1463.19 -3.38346 -5.51481 0
M  V30 15645 N 1463.32 1.31536 -0.86811 0
M  V30 15646 C 1464.55 2.00661 -0.491815 0
M  V30 15647 C 1464.96 1.65341 0.919733 0
M  V30 15648 O 1464.3 0.87773 1.61374 0
M  V30 15649 C 1464.36 3.55002 -0.566926 0
M  V30 15650 C 1464.03 4.1379 -1.93976 0
M  V30 15651 C 1465.02 4.31032 -2.90702 0
M  V30 15652 C 1462.71 4.4956 -2.24056 0
M  V30 15653 C 1464.7 4.8323 -4.15653 0
M  V30 15654 C 1462.39 5.01461 -3.49257 0
M  V30 15655 C 1463.39 5.18246 -4.44871 0
M  V30 15656 O 1463.08 5.69033 -5.67852 0
M  V30 15657 H 1462.81 0.648663 -0.190296 0
M  V30 15658 H 1465.36 1.68783 -1.17053 0
M  V30 15659 H 1463.59 3.86332 0.168704 0
M  V30 15660 H 1465.28 4.05385 -0.204323 0
M  V30 15661 H 1466.05 4.03717 -2.6877 0
M  V30 15662 H 1461.93 4.35772 -1.50412 0
M  V30 15663 H 1465.47 4.96247 -4.9029 0
M  V30 15664 H 1461.37 5.28209 -3.71033 0
M  V30 15665 H 1462.13 5.87405 -5.69998 0
M  V30 15666 N 1464.8 0.627364 1.44575 0
M  V30 15667 C 1465.75 -0.101618 2.27773 0
M  V30 15668 C 1466.73 -0.819759 1.38451 0
M  V30 15669 O 1467.92 -0.706487 1.62289 0
M  V30 15670 C 1465.05 -1.08507 3.25701 0
M  V30 15671 C 1464.14 -0.366745 4.22511 0
M  V30 15672 N 1464.53 0.602571 5.02198 0
M  V30 15673 C 1462.83 -0.611691 4.41785 0
M  V30 15674 C 1463.53 1.02662 5.72569 0
M  V30 15675 N 1462.5 0.366195 5.42365 0
M  V30 15676 H 1466.31 0.642569 2.8679 0
M  V30 15677 H 1463.82 0.452571 1.55967 0
M  V30 15678 H 1465.82 -1.62189 3.84058 0
M  V30 15679 H 1464.48 -1.8296 2.68246 0
M  V30 15680 H 1465.49 0.980215 5.08539 0
M  V30 15681 H 1462.17 -1.33938 3.95432 0
M  V30 15682 H 1463.56 1.82721 6.46578 0
M  V30 15683 N 1466.28 -1.53251 0.367684 0
M  V30 15684 C 1467.5 -2.0618 -0.224645 0
M  V30 15685 C 1467.93 -1.23927 -1.41505 0
M  V30 15686 O 1467.28 -0.258858 -1.79443 0
M  V30 15687 C 1467.33 -3.55671 -0.594171 0
M  V30 15688 O 1466.44 -3.76132 -1.69112 0
M  V30 15689 H 1465.78 -0.663218 -0.0322099 0
M  V30 15690 H 1468.31 -1.97646 0.528897 0
M  V30 15691 H 1468.32 -3.98734 -0.864589 0
M  V30 15692 H 1466.99 -4.14982 0.276254 0
M  V30 15693 H 1465.57 -3.44965 -1.41609 0
M  V30 15694 N 1467.75 -0.0969077 -1.57302 0
M  V30 15695 C 1469 0.561074 -1.95508 0
M  V30 15696 C 1469.35 1.6568 -0.97816 0
M  V30 15697 O 1468.65 1.91599 -0.00445428 0
M  V30 15698 C 1468.84 1.15972 -3.38061 0
M  V30 15699 C 1468.67 0.123524 -4.4953 0
M  V30 15700 C 1467.44 -0.30062 -5.04405 0
M  V30 15701 C 1469.64 -0.649001 -5.10189 0
M  V30 15702 N 1467.62 -1.3249 -5.99433 0
M  V30 15703 C 1468.99 -1.52506 -6.00951 0
M  V30 15704 C 1471.05 -0.70232 -4.92922 0
M  V30 15705 C 1469.75 -2.44976 -6.76298 0
M  V30 15706 C 1471.78 -1.61463 -5.68932 0
M  V30 15707 C 1471.14 -2.47831 -6.59363 0
M  V30 15708 H 1467.24 0.175591 -0.762031 0
M  V30 15709 H 1469.82 -0.179896 -1.93867 0
M  V30 15710 H 1467.99 1.87051 -3.40392 0
M  V30 15711 H 1469.72 1.78022 -3.63442 0
M  V30 15712 H 1466.48 0.0874763 -4.73519 0
M  V30 15713 H 1466.9 -1.8353 -6.51648 0
M  V30 15714 H 1471.54 -0.0487412 -4.22772 0
M  V30 15715 H 1469.26 -3.11358 -7.45709 0
M  V30 15716 H 1472.85 -1.66104 -5.57585 0
M  V30 15717 H 1471.73 -3.17278 -7.1715 0
M  V30 15718 N 1469.23 1.56605 0.176793 0
M  V30 15719 C 1470.48 1.81682 0.894302 0
M  V30 15720 C 1470.81 0.67311 1.82481 0
M  V30 15721 O 1470.06 -0.339995 1.92724 0
M  V30 15722 C 1470.36 3.12888 1.7273 0
M  V30 15723 C 1470.03 4.40861 0.946186 0
M  V30 15724 C 1468.69 4.75622 0.730586 0
M  V30 15725 C 1471.04 5.19679 0.397889 0
M  V30 15726 C 1468.37 5.86683 -0.0444995 0
M  V30 15727 C 1470.72 6.31551 -0.36408 0
M  V30 15728 C 1469.38 6.64883 -0.59053 0
M  V30 15729 H 1468.65 0.664823 0.327248 0
M  V30 15730 H 1471.3 1.90834 0.159555 0
M  V30 15731 H 1469.61 2.99055 2.53128 0
M  V30 15732 H 1471.3 3.295 2.2854 0
M  V30 15733 H 1467.89 4.13592 1.12426 0
M  V30 15734 H 1472.08 4.93223 0.55181 0
M  V30 15735 H 1467.33 6.10968 -0.229739 0
M  V30 15736 H 1471.51 6.91833 -0.796223 0
M  V30 15737 H 1469.13 7.50781 -1.19301 0
M  V30 15738 N 1470.71 -0.445159 1.51182 0
M  V30 15739 C 1471.64 -1.55788 1.68115 0
M  V30 15740 C 1472.65 -1.52793 0.561964 0
M  V30 15741 O 1473.84 -1.57711 0.836029 0
M  V30 15742 C 1470.94 -2.94702 1.67344 0
M  V30 15743 C 1470.12 -3.22286 2.9572 0
M  V30 15744 C 1469.18 -4.40884 2.87241 0
M  V30 15745 O 1468.2 -4.3992 3.61191 0
M  V30 15746 N 1469.4 -5.44013 2.02558 0
M  V30 15747 H 1472.17 -1.4167 2.64102 0
M  V30 15748 H 1469.73 -0.633984 1.48971 0
M  V30 15749 H 1471.72 -3.7205 1.5925 0
M  V30 15750 H 1470.29 -3.02457 0.789842 0
M  V30 15751 H 1469.51 -2.33309 3.17743 0
M  V30 15752 H 1470.8 -3.3754 3.80715 0
M  V30 15753 H 1470.2 -5.47629 1.4184 0
M  V30 15754 H 1468.75 -6.20245 2.0035 0
M  V30 15755 N 1472.19 -1.41197 -0.700089 0
M  V30 15756 C 1473.15 -1.42419 -1.79582 0
M  V30 15757 C 1474.15 -0.31551 -1.57674 0
M  V30 15758 O 1475.34 -0.575173 -1.64431 0
M  V30 15759 C 1472.47 -1.23114 -3.17893 0
M  V30 15760 H 1473.67 -2.39956 -1.79892 0
M  V30 15761 H 1471.22 -1.27273 -0.907271 0
M  V30 15762 H 1471.95 -0.263992 -3.23224 0
M  V30 15763 H 1471.74 -2.03437 -3.35195 0
M  V30 15764 H 1473.23 -1.26793 -3.97886 0
M  V30 15765 N 1473.67 0.933891 -1.2695 0
M  V30 15766 C 1474.94 1.65874 -1.0366 0
M  V30 15767 C 1475.32 2.0666 0.43066 0
M  V30 15768 O 1474.67 1.79606 1.41259 0
M  V30 15769 C 1474.88 2.86546 -1.99229 0
M  V30 15770 C 1476.23 3.58031 -2.28251 0
M  V30 15771 O 1477.25 2.96663 -1.97154 0
M  V30 15772 O 1476.11 4.68583 -2.81233 0
M  V30 15773 H 1473.21 0.72673 -0.394706 0
M  V30 15774 H 1475.75 0.984975 -1.38189 0
M  V30 15775 H 1474.52 2.53351 -2.9821 0
M  V30 15776 H 1474.15 3.61645 -1.65224 0
M  V30 15777 N 1475.14 1.08871 1.13951 0
M  V30 15778 C 1476.55 0.841552 1.66658 0
M  V30 15779 C 1476.91 -0.630932 1.85779 0
M  V30 15780 O 1476.03 -1.48673 1.57243 0
M  V30 15781 C 1476.63 1.52109 3.02735 0
M  V30 15782 C 1475.18 1.32105 3.52456 0
M  V30 15783 C 1474.33 1.58084 2.27826 0
M  V30 15784 H 1477.28 1.24865 0.97951 0
M  V30 15785 H 1477.3 0.950978 3.68425 0
M  V30 15786 H 1476.82 2.59276 2.88786 0
M  V30 15787 H 1474.92 0.270294 3.71618 0
M  V30 15788 H 1475.03 2.05197 4.32933 0
M  V30 15789 H 1473.39 1.00264 2.34135 0
M  V30 15790 H 1474.18 2.66467 2.16449 0
M  V30 15791 N 1476.62 -1.31073 0.875073 0
M  V30 15792 C 1477.58 -2.26672 0.339481 0
M  V30 15793 C 1478.58 -1.52416 -0.512439 0
M  V30 15794 O 1479.77 -1.71217 -0.321012 0
M  V30 15795 C 1476.91 -3.36952 -0.517311 0
M  V30 15796 H 1478.1 -2.7556 1.18349 0
M  V30 15797 H 1475.65 -1.42093 0.65109 0
M  V30 15798 H 1476.39 -2.93364 -1.38231 0
M  V30 15799 H 1476.17 -3.9199 0.092773 0
M  V30 15800 H 1477.66 -4.08133 -0.884154 0
M  V30 15801 N 1478.1 -0.635022 -1.4424 0
M  V30 15802 C 1479.01 0.0686832 -2.34499 0
M  V30 15803 C 1480.03 0.831574 -1.52843 0
M  V30 15804 O 1481.2 0.782954 -1.85558 0
M  V30 15805 C 1478.27 1.03543 -3.30877 0
M  V30 15806 C 1477.33 0.271484 -4.28441 0
M  V30 15807 C 1476.56 1.19218 -5.20214 0
M  V30 15808 O 1476.78 2.43101 -5.16002 0
M  V30 15809 O 1475.72 0.6744 -5.9811 0
M  V30 15810 H 1479.54 -0.673781 -2.96132 0
M  V30 15811 H 1477.13 -0.395211 -1.44078 0
M  V30 15812 H 1479.01 1.59151 -3.90191 0
M  V30 15813 H 1477.69 1.75844 -2.71773 0
M  V30 15814 H 1476.59 -0.327736 -3.72662 0
M  V30 15815 H 1477.93 -0.411584 -4.90476 0
M  V30 15816 N 1479.58 1.53054 -0.375806 0
M  V30 15817 C 1480.54 2.24666 0.453608 0
M  V30 15818 C 1481.54 1.25816 1.00135 0
M  V30 15819 O 1482.73 1.50016 0.885481 0
M  V30 15820 C 1479.86 2.99131 1.63503 0
M  V30 15821 H 1481.06 2.994 -0.173172 0
M  V30 15822 H 1478.61 1.55778 -0.127673 0
M  V30 15823 H 1479.34 2.28666 2.29962 0
M  V30 15824 H 1479.13 3.71671 1.24913 0
M  V30 15825 H 1480.62 3.53542 2.22256 0
M  V30 15826 N 1481.06 0.105248 1.57248 0
M  V30 15827 C 1481.97 -0.864007 2.1811 0
M  V30 15828 C 1482.98 -1.30282 1.15337 0
M  V30 15829 O 1484.16 -1.36864 1.4775 0
M  V30 15830 C 1481.22 -2.1014 2.75757 0
M  V30 15831 C 1480.28 -1.71583 3.9352 0
M  V30 15832 C 1479.52 -2.89424 4.48408 0
M  V30 15833 O 1479.74 -4.04449 4.02215 0
M  V30 15834 O 1478.67 -2.67303 5.39289 0
M  V30 15835 H 1482.5 -0.376131 3.01362 0
M  V30 15836 H 1480.09 -0.119643 1.4892 0
M  V30 15837 H 1481.97 -2.82638 3.1256 0
M  V30 15838 H 1480.64 -2.57961 1.95545 0
M  V30 15839 H 1479.55 -0.962347 3.6151 0
M  V30 15840 H 1480.88 -1.28517 4.75126 0
M  V30 15841 N 1482.53 -1.56697 -0.168486 0
M  V30 15842 C 1483.78 -1.81794 -0.882907 0
M  V30 15843 C 1484.1 -0.682707 -1.82658 0
M  V30 15844 O 1483.37 0.297234 -1.93632 0
M  V30 15845 H 1481.95 -0.670636 -0.329024 0
M  V30 15846 H 1484.62 -1.94178 -0.167625 0
M  V30 15847 H 1483.71 -2.75945 -1.45811 0
M  V30 15848 N 1484.01 0.437135 -1.51416 0
M  V30 15849 C 1485.24 1.21359 -1.68187 0
M  V30 15850 C 1485.66 1.84247 -0.378748 0
M  V30 15851 O 1485.02 1.68816 0.661115 0
M  V30 15852 C 1485.07 2.27319 -2.79926 0
M  V30 15853 O 1484.17 3.32807 -2.43543 0
M  V30 15854 H 1483.51 0.355547 -0.560787 0
M  V30 15855 H 1486.04 0.516204 -1.97981 0
M  V30 15856 H 1486.05 2.721 -3.04016 0
M  V30 15857 H 1484.73 1.80923 -3.74486 0
M  V30 15858 H 1483.31 2.93501 -2.30025 0
M  V30 15859 N 1485.49 1.41566 0.692592 0
M  V30 15860 C 1486.9 1.36606 1.27262 0
M  V30 15861 C 1487.25 0.0506082 1.96135 0
M  V30 15862 O 1486.38 -0.851071 1.98962 0
M  V30 15863 C 1486.97 2.47434 2.31434 0
M  V30 15864 C 1485.53 2.45863 2.85006 0
M  V30 15865 C 1484.68 2.2713 1.59083 0
M  V30 15866 H 1487.63 1.51038 0.487149 0
M  V30 15867 H 1487.65 2.16663 3.12789 0
M  V30 15868 H 1487.16 3.43161 1.81278 0
M  V30 15869 H 1485.26 1.53901 3.3933 0
M  V30 15870 H 1485.38 3.42279 3.35234 0
M  V30 15871 H 1483.74 1.75061 1.85002 0
M  V30 15872 H 1484.52 3.24887 1.10919 0
M  V30 15873 N 1486.97 -0.927146 1.27443 0
M  V30 15874 C 1487.88 -2.06122 1.12031 0
M  V30 15875 C 1488.89 -1.73928 0.0501979 0
M  V30 15876 O 1490.07 -1.99756 0.256796 0
M  V30 15877 C 1487.14 -3.3805 0.769634 0
M  V30 15878 C 1486.2 -3.83938 1.92068 0
M  V30 15879 C 1485.43 -5.0957 1.58664 0
M  V30 15880 O 1485.65 -5.6825 0.494789 0
M  V30 15881 O 1484.59 -5.50844 2.42599 0
M  V30 15882 H 1488.41 -2.22037 2.07203 0
M  V30 15883 H 1486 -1.04638 1.06636 0
M  V30 15884 H 1487.88 -4.17286 0.587423 0
M  V30 15885 H 1486.55 -3.2334 -0.152557 0
M  V30 15886 H 1485.46 -3.05587 2.15795 0
M  V30 15887 H 1486.79 -4.0319 2.8231 0
M  V30 15888 N 1488.45 -1.09474 -1.13372 0
M  V30 15889 C 1489.67 -0.852921 -1.88502 0
M  V30 15890 C 1490.09 0.595855 -1.79151 0
M  V30 15891 O 1489.45 1.41019 -1.15845 0
M  V30 15892 C 1489.5 -1.27993 -3.38083 0
M  V30 15893 O 1489.22 -2.67189 -3.47191 0
M  V30 15894 C 1490.72 -1.07056 -4.30179 0
M  V30 15895 H 1487.94 -0.30682 -0.596743 0
M  V30 15896 H 1490.48 -1.45685 -1.43513 0
M  V30 15897 H 1488.64 -0.719879 -3.80653 0
M  V30 15898 H 1489.05 -2.85202 -4.40182 0
M  V30 15899 H 1490.53 -1.4186 -5.3346 0
M  V30 15900 H 1491 -0.00838732 -4.39199 0
M  V30 15901 H 1491.61 -1.61659 -3.93378 0
M  V30 15902 N 1489.92 1.30607 -0.882012 0
M  V30 15903 C 1491.34 1.48859 -0.575599 0
M  V30 15904 C 1491.54 1.80908 0.887388 0
M  V30 15905 O 1490.6 1.89492 1.6688 0
M  V30 15906 C 1491.91 2.61405 -1.48619 0
M  V30 15907 C 1493.46 2.75286 -1.48951 0
M  V30 15908 C 1493.93 3.90942 -2.38596 0
M  V30 15909 N 1495.42 3.98248 -2.36543 0
M  V30 15910 C 1496.16 4.87041 -3.0262 0
M  V30 15911 N 1495.65 5.80651 -3.77911 0
M  V30 15912 N 1497.45 4.80385 -2.91867 0
M  V30 15913 H 1489.6 1.08076 -1.82848 0
M  V30 15914 H 1491.86 0.535148 -0.782509 0
M  V30 15915 H 1491.57 2.44535 -2.52775 0
M  V30 15916 H 1491.44 3.57818 -1.19358 0
M  V30 15917 H 1493.83 2.91564 -0.455477 0
M  V30 15918 H 1493.91 1.79504 -1.82242 0
M  V30 15919 H 1493.55 3.75422 -3.42083 0
M  V30 15920 H 1493.48 4.86057 -2.02623 0
M  V30 15921 H 1495.97 3.31282 -1.81827 0
M  V30 15922 H 1496.29 6.45159 -4.25428 0
M  V30 15923 H 1494.63 5.80592 -3.82019 0
M  V30 15924 H 1497.82 4.06234 -2.32576 0
M  V30 15925 H 1498 5.49377 -3.43641 0
M  V30 15926 N 1491.4 0.642663 1.43901 0
M  V30 15927 C 1492.31 -0.0562462 2.34533 0
M  V30 15928 C 1493.33 -0.823457 1.53281 0
M  V30 15929 O 1494.5 -0.773103 1.85971 0
M  V30 15930 C 1491.57 -1.01787 3.31422 0
M  V30 15931 C 1490.63 -0.248759 4.28579 0
M  V30 15932 C 1489.86 -1.16458 5.20839 0
M  V30 15933 O 1490.09 -2.40361 5.17284 0
M  V30 15934 O 1489.02 -0.642671 5.98459 0
M  V30 15935 H 1492.85 0.689476 2.9577 0
M  V30 15936 H 1490.43 0.402847 1.43866 0
M  V30 15937 H 1492.31 -1.5708 3.91029 0
M  V30 15938 H 1490.99 -1.744 2.72702 0
M  V30 15939 H 1489.9 0.347495 3.72483 0
M  V30 15940 H 1491.23 0.437589 4.90251 0
M  V30 15941 N 1492.88 -1.52852 0.383918 0
M  V30 15942 C 1494.11 -2.06406 -0.202764 0
M  V30 15943 C 1494.53 -1.25421 -1.40183 0
M  V30 15944 O 1493.89 -0.277876 -1.79158 0
M  V30 15945 C 1493.94 -3.56281 -0.556414 0
M  V30 15946 O 1493.04 -3.77904 -1.65113 0
M  V30 15947 H 1492.38 -0.663523 -0.0251737 0
M  V30 15948 H 1494.91 -1.97074 0.54983 0
M  V30 15949 H 1494.92 -3.99629 -0.822249 0
M  V30 15950 H 1493.6 -4.14665 0.320253 0
M  V30 15951 H 1492.17 -3.46448 -1.37943 0
M  V30 15952 N 1494.36 -0.113586 -1.5719 0
M  V30 15953 C 1495.58 0.556928 -1.99783 0
M  V30 15954 C 1496.01 1.59774 -0.992669 0
M  V30 15955 O 1495.37 1.81263 0.0363821 0
M  V30 15956 C 1495.42 1.16463 -3.41275 0
M  V30 15957 O 1494.52 2.28024 -3.43626 0
M  V30 15958 H 1493.86 0.139628 -0.649153 0
M  V30 15959 H 1496.39 -0.200462 -2.03616 0
M  V30 15960 H 1496.4 1.50147 -3.79368 0
M  V30 15961 H 1495.08 0.402232 -4.1395 0
M  V30 15962 H 1493.65 1.9582 -3.17347 0
M  V30 15963 N 1495.84 1.56784 0.160173 0
M  V30 15964 C 1497.08 1.84422 0.881348 0
M  V30 15965 C 1497.44 0.696069 1.78938 0
M  V30 15966 O 1498.64 0.853174 2.54901 0
M  V30 15967 C 1496.91 3.17208 1.64662 0
M  V30 15968 S 1498.47 3.66363 2.41503 0
M  V30 15969 H 1495.29 0.646923 0.294978 0
M  V30 15970 H 1497.89 1.94982 0.142215 0
M  V30 15971 H 1496.6 3.98753 0.970782 0
M  V30 15972 H 1496.13 3.0962 2.42692 0
M  V30 15973 H 1498.14 3.34577 3.66432 0
M  V30 15974 N 1497.32 -0.429099 1.51646 0
M  V30 15975 C 1498.56 -1.17958 1.64966 0
M  V30 15976 C 1498.89 -1.90667 0.368755 0
M  V30 15977 O 1498.17 -1.83945 -0.632023 0
M  V30 15978 C 1498.45 -2.19002 2.8585 0
M  V30 15979 C 1498.31 -1.50321 4.23938 0
M  V30 15980 C 1499.62 -3.19895 3.0225 0
M  V30 15981 H 1496.74 -0.427474 0.600362 0
M  V30 15982 H 1499.39 -0.46777 1.84152 0
M  V30 15983 H 1497.54 -2.79707 2.69623 0
M  V30 15984 H 1499.21 -0.928902 4.51851 0
M  V30 15985 H 1497.45 -0.805431 4.26257 0
M  V30 15986 H 1498.12 -2.2395 5.0453 0
M  V30 15987 H 1500.6 -2.69251 3.17243 0
M  V30 15988 H 1499.47 -3.8788 3.88381 0
M  V30 15989 H 1499.73 -3.86477 2.14682 0
M  V30 15990 N 1498.79 -1.41931 -0.685074 0
M  V30 15991 C 1499.73 -1.39028 -1.8096 0
M  V30 15992 C 1500.7 -0.256001 -1.60572 0
M  V30 15993 O 1501.89 -0.44459 -1.83182 0
M  V30 15994 C 1499.02 -1.17125 -3.17804 0
M  V30 15995 C 1498.06 -2.33411 -3.56961 0
M  V30 15996 S 1498.89 -3.9592 -3.60565 0
M  V30 15997 C 1500.05 -3.7634 -5.00119 0
M  V30 15998 H 1500.28 -2.34189 -1.83146 0
M  V30 15999 H 1497.82 -1.2858 -0.854778 0
M  V30 16000 H 1499.77 -1.05175 -3.96798 0
M  V30 16001 H 1498.44 -0.235668 -3.13215 0
M  V30 16002 H 1497.63 -2.13807 -4.56402 0
M  V30 16003 H 1497.23 -2.41823 -2.85303 0
M  V30 16004 H 1499.52 -3.36695 -5.87914 0
M  V30 16005 H 1500.47 -4.7542 -5.24768 0
M  V30 16006 H 1500.87 -3.09407 -4.72152 0
M  V30 16007 N 1500.27 0.920374 -1.27933 0
M  V30 16008 C 1501.22 2.02196 -1.1129 0
M  V30 16009 C 1502.19 1.66096 -0.0118871 0
M  V30 16010 O 1503.37 1.8999 -0.175586 0
M  V30 16011 C 1500.51 3.36312 -0.77383 0
M  V30 16012 C 1499.63 3.85322 -1.95322 0
M  V30 16013 C 1498.76 5.07919 -1.55537 0
M  V30 16014 C 1497.8 5.49244 -2.7018 0
M  V30 16015 N 1496.94 6.63034 -2.30933 0
M  V30 16016 H 1501.78 2.15764 -2.05548 0
M  V30 16017 H 1499.31 1.05691 -1.02312 0
M  V30 16018 H 1501.27 4.13451 -0.558024 0
M  V30 16019 H 1499.9 3.22531 0.131806 0
M  V30 16020 H 1498.95 3.04399 -2.28135 0
M  V30 16021 H 1500.27 4.11915 -2.81296 0
M  V30 16022 H 1499.42 5.92581 -1.30123 0
M  V30 16023 H 1498.16 4.8312 -0.666818 0
M  V30 16024 H 1497.16 4.63127 -2.96299 0
M  V30 16025 H 1498.39 5.76035 -3.59667 0
M  V30 16026 H 1496.34 6.39878 -1.44539 0
M  V30 16027 H 1496.25 6.89319 -3.10444 0
M  V30 16028 H 1497.52 7.51018 -2.08786 0
M  V30 16029 N 1501.75 1.10074 1.1279 0
M  V30 16030 C 1502.68 0.704023 2.1812 0
M  V30 16031 C 1503.69 -0.25742 1.60752 0
M  V30 16032 O 1504.88 -0.0424559 1.7845 0
M  V30 16033 C 1501.98 0.0176666 3.38895 0
M  V30 16034 C 1501.16 1.00234 4.2576 0
M  V30 16035 C 1500.22 0.348158 5.25047 0
M  V30 16036 O 1499.24 0.997821 5.60386 0
M  V30 16037 N 1500.44 -0.894955 5.7356 0
M  V30 16038 H 1503.21 1.61024 2.52767 0
M  V30 16039 H 1500.77 0.989068 1.28176 0
M  V30 16040 H 1502.76 -0.431346 4.02395 0
M  V30 16041 H 1501.33 -0.7909 3.02429 0
M  V30 16042 H 1500.55 1.62972 3.58934 0
M  V30 16043 H 1501.84 1.669 4.80647 0
M  V30 16044 H 1501.24 -1.4422 5.47007 0
M  V30 16045 H 1499.79 -1.28718 6.38964 0
M  V30 16046 N 1503.23 -1.30138 0.888926 0
M  V30 16047 C 1504.46 -2.00143 0.524437 0
M  V30 16048 C 1504.87 -1.66608 -0.888093 0
M  V30 16049 O 1504.23 -0.905326 -1.58462 0
M  V30 16050 C 1504.28 -3.54769 0.694327 0
M  V30 16051 O 1504 -3.87112 2.05125 0
M  V30 16052 C 1505.5 -4.42045 0.333354 0
M  V30 16053 H 1502.72 -0.639775 0.202309 0
M  V30 16054 H 1505.26 -1.65929 1.19531 0
M  V30 16055 H 1503.42 -3.87335 0.0707712 0
M  V30 16056 H 1503.83 -4.81807 2.07275 0
M  V30 16057 H 1505.31 -5.49702 0.503107 0
M  V30 16058 H 1505.78 -4.33109 -0.728893 0
M  V30 16059 H 1506.39 -4.14931 0.933398 0
M  V30 16060 N 1504.71 -0.650285 -1.43559 0
M  V30 16061 C 1505.64 0.0817484 -2.29054 0
M  V30 16062 C 1506.65 0.790023 -1.42346 0
M  V30 16063 O 1507.84 0.648269 -1.66312 0
M  V30 16064 C 1504.94 1.13873 -3.19196 0
M  V30 16065 C 1504.11 0.509177 -4.34426 0
M  V30 16066 C 1503.17 1.46265 -5.05463 0
M  V30 16067 O 1502.2 0.972378 -5.60833 0
M  V30 16068 N 1503.4 2.79668 -5.08691 0
M  V30 16069 H 1506.16 -0.652062 -2.92521 0
M  V30 16070 H 1503.73 -0.49285 -1.54216 0
M  V30 16071 H 1505.72 1.77732 -3.63584 0
M  V30 16072 H 1504.29 1.77454 -2.5735 0
M  V30 16073 H 1503.51 -0.308444 -3.92991 0
M  V30 16074 H 1504.8 0.0695732 -5.08752 0
M  V30 16075 H 1504.19 3.22062 -4.65072 0
M  V30 16076 H 1502.75 3.38838 -5.56805 0
M  V30 16077 N 1506.18 1.52647 -0.392018 0
M  V30 16078 C 1507.41 2.05734 0.189018 0
M  V30 16079 C 1507.82 1.26338 1.40838 0
M  V30 16080 O 1507.16 0.303866 1.81169 0
M  V30 16081 C 1507.23 3.54095 0.621026 0
M  V30 16082 C 1506.89 4.54416 -0.485249 0
M  V30 16083 C 1507.89 5.02241 -1.3435 0
M  V30 16084 C 1505.57 4.98037 -0.653055 0
M  V30 16085 C 1507.57 5.92313 -2.35467 0
M  V30 16086 C 1505.25 5.87908 -1.66755 0
M  V30 16087 C 1506.25 6.34939 -2.51677 0
M  V30 16088 O 1505.94 7.23034 -3.51392 0
M  V30 16089 H 1505.67 0.675266 0.0315024 0
M  V30 16090 H 1508.23 1.97717 -0.556535 0
M  V30 16091 H 1506.46 3.5974 1.4186 0
M  V30 16092 H 1508.14 3.8991 1.12804 0
M  V30 16093 H 1508.91 4.6927 -1.22518 0
M  V30 16094 H 1504.79 4.61 -0.00176071 0
M  V30 16095 H 1508.33 6.28944 -3.01786 0
M  V30 16096 H 1504.23 6.20293 -1.78624 0
M  V30 16097 H 1505 7.41102 -3.47433 0
M  V30 16098 N 1507.66 0.121921 1.57128 0
M  V30 16099 C 1508.89 -0.542225 1.99358 0
M  V30 16100 C 1509.3 -1.60578 1.00057 0
M  V30 16101 O 1508.64 -1.83694 -0.0142649 0
M  V30 16102 C 1508.71 -1.22448 3.38004 0
M  V30 16103 C 1508.37 -0.308522 4.55957 0
M  V30 16104 C 1509.37 0.454012 5.17914 0
M  V30 16105 C 1507.05 -0.218741 5.01823 0
M  V30 16106 C 1509.05 1.29403 6.24126 0
M  V30 16107 C 1506.73 0.624906 6.07896 0
M  V30 16108 C 1507.73 1.37992 6.68915 0
M  V30 16109 O 1507.42 2.20955 7.72938 0
M  V30 16110 H 1507.15 -0.147894 0.659624 0
M  V30 16111 H 1509.7 0.205954 2.04365 0
M  V30 16112 H 1507.93 -2.01979 3.2976 0
M  V30 16113 H 1509.62 -1.78583 3.64504 0
M  V30 16114 H 1510.39 0.394539 4.83393 0
M  V30 16115 H 1506.27 -0.796109 4.54074 0
M  V30 16116 H 1509.81 1.88382 6.71683 0
M  V30 16117 H 1505.71 0.685762 6.41847 0
M  V30 16118 H 1506.48 2.13929 7.90049 0
M  V30 16119 N 1509.14 -1.56867 -0.151857 0
M  V30 16120 C 1510.39 -1.83082 -0.865285 0
M  V30 16121 C 1510.72 -0.702056 -1.81387 0
M  V30 16122 O 1509.97 0.309291 -1.9324 0
M  V30 16123 C 1510.27 -3.15597 -1.6773 0
M  V30 16124 C 1509.94 -4.4231 -0.875929 0
M  V30 16125 C 1508.6 -4.76724 -0.654826 0
M  V30 16126 C 1510.95 -5.20246 -0.315162 0
M  V30 16127 C 1508.28 -5.86538 0.13783 0
M  V30 16128 C 1510.63 -6.30892 0.464508 0
M  V30 16129 C 1509.29 -6.63859 0.696233 0
M  V30 16130 H 1508.56 -0.669945 -0.31663 0
M  V30 16131 H 1511.21 -1.91064 -0.129175 0
M  V30 16132 H 1509.52 -3.03044 -2.48338 0
M  V30 16133 H 1511.21 -3.33094 -2.23269 0
M  V30 16134 H 1507.8 -4.15328 -1.05832 0
M  V30 16135 H 1511.99 -4.94038 -0.473273 0
M  V30 16136 H 1507.24 -6.10525 0.32691 0
M  V30 16137 H 1511.42 -6.90479 0.906187 0
M  V30 16138 H 1509.04 -7.48788 1.3123 0
M  V30 16139 N 1510.62 0.421051 -1.51871 0
M  V30 16140 C 1511.87 1.16677 -1.65018 0
M  V30 16141 C 1512.19 1.91329 -0.376596 0
M  V30 16142 O 1511.46 1.86221 0.608146 0
M  V30 16143 H 1510.04 0.433698 -0.608206 0
M  V30 16144 H 1512.7 0.48115 -1.88868 0
M  V30 16145 H 1511.8 1.88742 -2.48562 0
M  V30 16146 N 1512.1 1.42293 0.677538 0
M  V30 16147 C 1513.32 1.46214 1.47092 0
M  V30 16148 C 1513.75 0.0740989 1.87954 0
M  V30 16149 O 1513.1 -0.926831 1.55819 0
M  V30 16150 C 1513.15 2.39236 2.69812 0
M  V30 16151 O 1512.26 1.86183 3.6798 0
M  V30 16152 H 1511.6 0.495507 0.442006 0
M  V30 16153 H 1514.13 1.86952 0.831274 0
M  V30 16154 H 1514.14 2.55723 3.17915 0
M  V30 16155 H 1512.81 3.40081 2.39411 0
M  V30 16156 H 1511.39 1.79237 3.26999 0
M  V30 16157 N 1513.57 -0.913576 1.28419 0
M  V30 16158 C 1514.82 -1.66519 1.15755 0
M  V30 16159 C 1515.15 -1.91974 -0.293166 0
M  V30 16160 O 1514.43 -1.52025 -1.21321 0
M  V30 16161 C 1514.71 -3.02299 1.95672 0
M  V30 16162 C 1514.56 -2.83996 3.48807 0
M  V30 16163 C 1515.88 -4.02838 1.77226 0
M  V30 16164 H 1513 -0.604309 0.421877 0
M  V30 16165 H 1515.64 -1.05919 1.57737 0
M  V30 16166 H 1513.79 -3.54025 1.59995 0
M  V30 16167 H 1515.47 -2.39279 3.9439 0
M  V30 16168 H 1513.71 -2.19052 3.74431 0
M  V30 16169 H 1514.38 -3.80419 3.99982 0
M  V30 16170 H 1516.86 -3.60174 2.0836 0
M  V30 16171 H 1515.73 -4.95806 2.35515 0
M  V30 16172 H 1515.99 -4.36135 0.723804 0
M  V30 16173 N 1515.05 -1.1067 -1.12204 0
M  V30 16174 C 1516 -0.752659 -2.20086 0
M  V30 16175 C 1516.99 0.252284 -1.67511 0
M  V30 16176 O 1518.2 0.112398 -1.79649 0
M  V30 16177 H 1514.58 -0.225473 -0.717402 0
M  V30 16178 H 1516.55 -1.67136 -2.472 0
M  V30 16179 C 1515.3 -0.203345 -3.47105 0
M  V30 16180 H 1514.62 -0.967864 -3.87908 0
M  V30 16181 H 1516.06 0.00629123 -4.24 0
M  V30 16182 C 1514.52 1.06452 -3.1964 0
M  V30 16183 O 1515.05 2.14562 -3.39597 0
M  V30 16184 N 1513.25 0.984122 -2.73429 0
M  V30 16185 H 1512.8 0.104258 -2.57389 0
M  V30 16186 H 1512.76 1.83312 -2.55429 0
M  V30 16187 N 1516.53 1.29665 -0.895815 0
M  V30 16188 C 1517.49 2.26103 -0.3755 0
M  V30 16189 C 1518.49 1.53212 0.488126 0
M  V30 16190 O 1519.68 1.71706 0.293733 0
M  V30 16191 C 1516.82 3.37732 0.46364 0
M  V30 16192 H 1518.01 2.73643 -1.22718 0
M  V30 16193 H 1515.56 1.4104 -0.673613 0
M  V30 16194 H 1516.3 2.95526 1.33546 0
M  V30 16195 H 1516.08 3.91793 -0.155123 0
M  V30 16196 H 1517.57 4.09488 0.819112 0
M  V30 16197 N 1518.01 0.657889 1.43212 0
M  V30 16198 C 1519.23 0.179444 2.06622 0
M  V30 16199 C 1519.66 -1.14787 1.49015 0
M  V30 16200 O 1519.02 -1.71016 0.60192 0
M  V30 16201 C 1519.06 0.106826 3.60442 0
M  V30 16202 O 1518.17 -0.92962 4.01786 0
M  V30 16203 H 1517.51 0.0970131 0.656875 0
M  V30 16204 H 1520.04 0.902132 1.83638 0
M  V30 16205 H 1520.05 -0.07495 4.07931 0
M  V30 16206 H 1518.72 1.07574 4.01747 0
M  V30 16207 H 1517.3 -0.720255 3.65878 0
M  V30 16208 N 1519.49 -1.52437 0.400108 0
M  V30 16209 C 1520.72 -2.05831 -0.178105 0
M  V30 16210 C 1521.12 -1.27083 -1.40166 0
M  V30 16211 O 1520.47 -0.31347 -1.81006 0
M  V30 16212 C 1520.53 -3.5442 -0.602239 0
M  V30 16213 C 1520.19 -4.54153 0.509341 0
M  V30 16214 C 1521.19 -5.01521 1.37012 0
M  V30 16215 C 1518.88 -4.97683 0.679457 0
M  V30 16216 C 1520.87 -5.91056 2.38604 0
M  V30 16217 C 1518.56 -5.87016 1.6987 0
M  V30 16218 C 1519.55 -6.33595 2.55041 0
M  V30 16219 O 1519.24 -7.21161 3.55221 0
M  V30 16220 H 1518.97 -0.675423 -0.0279209 0
M  V30 16221 H 1521.53 -1.97419 0.567013 0
M  V30 16222 H 1519.76 -3.60487 -1.3995 0
M  V30 16223 H 1521.45 -3.90503 -1.10734 0
M  V30 16224 H 1522.21 -4.68614 1.25005 0
M  V30 16225 H 1518.09 -4.60993 0.0262086 0
M  V30 16226 H 1521.64 -6.27335 3.05118 0
M  V30 16227 H 1517.53 -6.19337 1.81912 0
M  V30 16228 H 1518.3 -7.39249 3.51358 0
M  V30 16229 N 1520.96 -0.130252 -1.57061 0
M  V30 16230 C 1521.91 0.832998 -2.17173 0
M  V30 16231 C 1522.91 1.26735 -1.12403 0
M  V30 16232 O 1524.11 1.23778 -1.30686 0
M  V30 16233 H 1520.49 0.286777 -0.695171 0
M  V30 16234 H 1522.46 0.301639 -2.96872 0
M  V30 16235 C 1521.21 2.06879 -2.79457 0
M  V30 16236 H 1520.53 1.74352 -3.5978 0
M  V30 16237 H 1521.97 2.72258 -3.25041 0
M  V30 16238 C 1520.43 2.86591 -1.77108 0
M  V30 16239 O 1520.96 3.82363 -1.2313 0
M  V30 16240 N 1519.17 2.508 -1.46792 0
M  V30 16241 H 1518.71 1.72984 -1.90878 0
M  V30 16242 H 1518.67 3.04428 -0.785566 0
M  V30 16243 N 1522.44 1.56945 0.143535 0
M  V30 16244 C 1523.41 1.97616 1.16106 0
M  V30 16245 C 1524.41 0.863113 1.35672 0
M  V30 16246 O 1525.6 1.12966 1.32606 0
M  V30 16247 C 1522.73 2.29511 2.52067 0
M  V30 16248 H 1523.92 2.88696 0.812066 0
M  V30 16249 H 1521.47 1.51433 0.386999 0
M  V30 16250 H 1522.21 1.41233 2.91931 0
M  V30 16251 H 1521.99 3.10667 2.39225 0
M  V30 16252 H 1523.48 2.61802 3.25345 0
M  V30 16253 N 1523.92 -0.412991 1.52093 0
M  V30 16254 C 1525.17 -1.15737 1.65191 0
M  V30 16255 C 1525.48 -1.91753 0.38601 0
M  V30 16256 O 1526.69 -2.68586 0.396731 0
M  V30 16257 C 1525.15 -2.10619 2.91835 0
M  V30 16258 C 1524.75 -1.40137 4.25518 0
M  V30 16259 C 1526.5 -2.85339 3.14296 0
M  V30 16260 C 1524.4 -2.33645 5.4329 0
M  V30 16261 H 1523.33 -0.435732 0.615348 0
M  V30 16262 H 1525.99 -0.422172 1.78578 0
M  V30 16263 H 1524.37 -2.87675 2.72138 0
M  V30 16264 H 1525.54 -0.684719 4.55684 0
M  V30 16265 H 1523.86 -0.774734 4.09129 0
M  V30 16266 H 1526.45 -3.55437 3.99461 0
M  V30 16267 H 1526.8 -3.48071 2.28369 0
M  V30 16268 H 1527.33 -2.15384 3.34447 0
M  V30 16269 H 1524.07 -1.75566 6.31551 0
M  V30 16270 H 1523.59 -3.03294 5.17467 0
M  V30 16271 H 1525.27 -2.94255 5.76215 0
M  V30 16272 N 1525.4 -1.4265 -0.669982 0
M  V30 16273 C 1526.65 -1.42667 -1.42579 0
M  V30 16274 C 1526.96 -0.0483217 -1.9554 0
M  V30 16275 O 1528.17 0.0740917 -2.71399 0
M  V30 16276 C 1526.62 -2.5098 -2.57948 0
M  V30 16277 C 1526.23 -3.94844 -2.11666 0
M  V30 16278 C 1527.98 -2.6017 -3.35428 0
M  V30 16279 C 1525.88 -4.94655 -3.24146 0
M  V30 16280 H 1524.81 -0.530651 -0.535654 0
M  V30 16281 H 1527.46 -1.68576 -0.724861 0
M  V30 16282 H 1525.85 -2.18244 -3.30432 0
M  V30 16283 H 1527.02 -4.36958 -1.46303 0
M  V30 16284 H 1525.33 -3.89547 -1.47111 0
M  V30 16285 H 1527.93 -3.31918 -4.19207 0
M  V30 16286 H 1528.27 -1.64683 -3.82342 0
M  V30 16287 H 1528.81 -2.92124 -2.70016 0
M  V30 16288 H 1525.55 -5.91636 -2.82218 0
M  V30 16289 H 1525.07 -4.57168 -3.88275 0
M  V30 16290 H 1526.75 -5.16593 -3.89538 0
M  V30 16291 N 1526.88 0.906753 -1.28902 0
M  V30 16292 C 1528.15 1.63637 -1.07155 0
M  V30 16293 C 1528.53 2.07527 0.386727 0
M  V30 16294 O 1527.88 1.82562 1.37417 0
M  V30 16295 C 1528.09 2.82256 -2.05263 0
M  V30 16296 C 1529.44 3.53109 -2.35794 0
M  V30 16297 O 1530.46 2.92414 -2.03402 0
M  V30 16298 O 1529.32 4.62512 -2.91109 0
M  V30 16299 H 1526.42 0.718194 -0.410032 0
M  V30 16300 H 1528.96 0.955442 -1.40248 0
M  V30 16301 H 1527.74 2.46968 -3.03517 0
M  V30 16302 H 1527.36 3.58059 -1.72857 0
M  V30 16303 N 1528.36 1.11264 1.11616 0
M  V30 16304 C 1529.6 0.870286 1.84947 0
M  V30 16305 C 1529.96 -0.593351 1.82602 0
M  V30 16306 O 1531.16 -0.952396 2.51362 0
M  V30 16307 C 1529.43 1.4142 3.2823 0
M  V30 16308 S 1530.99 1.30856 4.18834 0
M  V30 16309 H 1527.81 0.314257 0.63778 0
M  V30 16310 H 1530.41 1.41978 1.34397 0
M  V30 16311 H 1529.11 2.47328 3.27501 0
M  V30 16312 H 1528.65 0.861661 3.83848 0
M  V30 16313 H 1530.66 0.271878 4.95455 0
M  V30 16314 N 1529.83 -1.29188 0.902679 0
M  V30 16315 C 1531.08 -1.95052 0.529076 0
M  V30 16316 C 1531.4 -1.7149 -0.92824 0
M  V30 16317 O 1530.67 -1.04834 -1.65489 0
M  V30 16318 H 1529.25 -0.721725 0.192671 0
M  V30 16319 H 1531.91 -1.57384 1.14962 0
M  V30 16320 H 1531.01 -3.03819 0.714179 0
M  V30 16321 N 1531.31 -0.665475 -1.42861 0
M  V30 16322 C 1532.26 0.030395 -2.3258 0
M  V30 16323 C 1533.25 0.800329 -1.49302 0
M  V30 16324 O 1534.46 0.709346 -1.65434 0
M  V30 16325 H 1530.83 0.0286201 -0.751455 0
M  V30 16326 H 1532.81 -0.743838 -2.8898 0
M  V30 16327 C 1531.55 0.974474 -3.33765 0
M  V30 16328 H 1530.88 0.391447 -3.97879 0
M  V30 16329 H 1532.32 1.43023 -3.99149 0
M  V30 16330 C 1530.78 2.0764 -2.65306 0
M  V30 16331 O 1531.31 3.16172 -2.47787 0
M  V30 16332 N 1529.51 1.84544 -2.24481 0
M  V30 16333 H 1529.06 0.962826 -2.3893 0
M  V30 16334 H 1529.02 2.58464 -1.79007 0
M  V30 16335 N 1532.79 1.52222 -0.408187 0
M  V30 16336 C 1534.03 2.03713 0.167444 0
M  V30 16337 C 1534.39 1.28722 1.42459 0
M  V30 16338 O 1535.59 1.70434 2.0786 0
M  V30 16339 C 1533.87 3.55039 0.410146 0
M  V30 16340 S 1535.42 4.28318 0.953358 0
M  V30 16341 H 1532.24 0.709544 0.0454811 0
M  V30 16342 H 1534.84 1.87281 -0.560888 0
M  V30 16343 H 1533.55 4.07199 -0.511618 0
M  V30 16344 H 1533.08 3.75712 1.16638 0
M  V30 16345 H 1535.09 4.43066 2.23399 0
M  V30 16346 N 1534.27 0.138579 1.5699 0
M  V30 16347 C 1535.49 -0.525074 2.00643 0
M  V30 16348 C 1535.92 -1.58174 1.01796 0
M  V30 16349 O 1535.28 -1.81298 -0.00754003 0
M  V30 16350 C 1535.32 -1.11019 3.43085 0
M  V30 16351 O 1534.43 -2.22529 3.4721 0
M  V30 16352 H 1533.77 -0.129283 0.651292 0
M  V30 16353 H 1536.3 0.23283 2.03271 0
M  V30 16354 H 1536.31 -1.44093 3.81708 0
M  V30 16355 H 1534.98 -0.336325 4.14538 0
M  V30 16356 H 1533.56 -1.90747 3.20422 0
M  V30 16357 N 1535.75 -1.57019 -0.13521 0
M  V30 16358 C 1537.16 -1.51949 -0.48824 0
M  V30 16359 C 1537.36 -0.848955 -1.82743 0
M  V30 16360 O 1536.42 -0.424441 -2.48907 0
M  V30 16361 C 1537.73 -2.96719 -0.487673 0
M  V30 16362 C 1539.28 -3.07722 -0.572365 0
M  V30 16363 C 1539.75 -4.54022 -0.602347 0
M  V30 16364 N 1541.24 -4.58413 -0.664242 0
M  V30 16365 C 1541.98 -5.69005 -0.70862 0
M  V30 16366 N 1541.48 -6.89135 -0.711626 0
M  V30 16367 N 1543.27 -5.57069 -0.750399 0
M  V30 16368 H 1535.42 -1.99001 0.742465 0
M  V30 16369 H 1537.68 -0.908116 0.272083 0
M  V30 16370 H 1537.39 -3.49082 0.428363 0
M  V30 16371 H 1537.26 -3.53299 -1.32136 0
M  V30 16372 H 1539.65 -2.55372 -1.47882 0
M  V30 16373 H 1539.73 -2.54166 0.288696 0
M  V30 16374 H 1539.37 -5.07013 0.3 0
M  V30 16375 H 1539.3 -5.05373 -1.48006 0
M  V30 16376 H 1541.8 -3.71936 -0.668739 0
M  V30 16377 H 1542.11 -7.69175 -0.747663 0
M  V30 16378 H 1540.45 -6.91672 -0.679311 0
M  V30 16379 H 1543.64 -4.62129 -0.745301 0
M  V30 16380 H 1543.82 -6.4327 -0.781518 0
M  V30 16381 N 1537.22 0.404919 -1.52309 0
M  V30 16382 C 1538.15 1.50039 -1.78915 0
M  V30 16383 C 1539.14 1.57587 -0.640329 0
M  V30 16384 O 1540.32 1.72793 -0.886344 0
M  V30 16385 C 1537.45 2.87819 -1.94364 0
M  V30 16386 C 1536.4 2.9512 -3.09981 0
M  V30 16387 C 1535.73 4.35195 -3.10659 0
M  V30 16388 C 1537.03 2.66219 -4.4936 0
M  V30 16389 H 1538.72 1.28025 -2.70647 0
M  V30 16390 H 1536.27 0.61445 -1.30233 0
M  V30 16391 H 1538.22 3.64446 -2.11559 0
M  V30 16392 H 1536.95 3.11136 -0.993067 0
M  V30 16393 H 1535.61 2.20939 -2.92543 0
M  V30 16394 H 1535.25 4.55528 -2.13316 0
M  V30 16395 H 1534.95 4.41003 -3.88317 0
M  V30 16396 H 1536.48 5.1375 -3.29989 0
M  V30 16397 H 1537.89 3.32567 -4.66982 0
M  V30 16398 H 1536.29 2.83398 -5.28967 0
M  V30 16399 H 1537.36 1.61636 -4.57167 0
M  V30 16400 N 1538.7 1.43003 0.662408 0
M  V30 16401 C 1539.95 1.44133 1.42239 0
M  V30 16402 C 1540.28 0.062249 1.944 0
M  V30 16403 O 1539.53 -0.931341 1.72118 0
M  V30 16404 C 1539.83 2.4231 2.62718 0
M  V30 16405 C 1539.5 3.88403 2.29028 0
M  V30 16406 C 1538.16 4.28194 2.19552 0
M  V30 16407 C 1540.51 4.80505 2.01902 0
M  V30 16408 C 1537.84 5.58052 1.81092 0
M  V30 16409 C 1540.19 6.10718 1.64943 0
M  V30 16410 C 1538.86 6.49496 1.53985 0
M  V30 16411 H 1538.13 0.527419 0.52049 0
M  V30 16412 H 1540.77 1.76024 0.75417 0
M  V30 16413 H 1539.08 2.03789 3.3463 0
M  V30 16414 H 1540.77 2.40442 3.20918 0
M  V30 16415 H 1537.36 3.56906 2.37311 0
M  V30 16416 H 1541.55 4.50542 2.08149 0
M  V30 16417 H 1536.8 5.86945 1.71187 0
M  V30 16418 H 1540.98 6.81564 1.42982 0
M  V30 16419 H 1538.61 7.50026 1.23954 0
M  V30 16420 N 1540.18 -0.899904 1.29381 0
M  V30 16421 C 1541.13 -1.9909 1.11119 0
M  V30 16422 C 1542.11 -1.60871 0.030676 0
M  V30 16423 O 1543.31 -1.75192 0.252365 0
M  V30 16424 C 1540.44 -3.34097 0.789552 0
M  V30 16425 C 1539.52 -3.78676 1.90959 0
M  V30 16426 N 1539.91 -3.95492 3.15309 0
M  V30 16427 C 1538.21 -4.0795 1.80258 0
M  V30 16428 C 1538.91 -4.33054 3.8838 0
M  V30 16429 N 1537.89 -4.42087 3.16322 0
M  V30 16430 H 1541.69 -2.1016 2.0545 0
M  V30 16431 H 1539.2 -1.08871 1.20503 0
M  V30 16432 H 1541.2 -4.11962 0.639765 0
M  V30 16433 H 1539.86 -3.24372 -0.14585 0
M  V30 16434 H 1540.87 -3.8103 3.50766 0
M  V30 16435 H 1537.55 -4.06783 0.939877 0
M  V30 16436 H 1538.94 -4.53912 4.95393 0
M  V30 16437 N 1541.66 -1.11854 -1.11024 0
M  V30 16438 C 1542.62 -0.784033 -2.15373 0
M  V30 16439 C 1543.62 0.198686 -1.59568 0
M  V30 16440 O 1544.81 -0.0263428 -1.7418 0
M  V30 16441 C 1541.94 -0.163987 -3.40505 0
M  V30 16442 H 1543.14 -1.70849 -2.46477 0
M  V30 16443 H 1540.69 -0.920988 -1.26283 0
M  V30 16444 H 1541.42 0.770483 -3.15014 0
M  V30 16445 H 1541.21 -0.871447 -3.82293 0
M  V30 16446 H 1542.7 0.0537739 -4.17565 0
M  V30 16447 N 1543.14 1.28707 -0.909517 0
M  V30 16448 C 1544.07 2.26481 -0.35198 0
M  V30 16449 C 1545.08 1.54698 0.507199 0
M  V30 16450 O 1546.27 1.75558 0.322765 0
M  V30 16451 C 1543.37 3.3495 0.515897 0
M  V30 16452 C 1542.54 4.36229 -0.3198 0
M  V30 16453 C 1541.6 5.23983 0.482483 0
M  V30 16454 O 1540.63 5.69106 -0.10347 0
M  V30 16455 N 1541.83 5.52328 1.78645 0
M  V30 16456 H 1544.6 2.74959 -1.19238 0
M  V30 16457 H 1542.16 1.42144 -0.775023 0
M  V30 16458 H 1544.15 3.90592 1.05925 0
M  V30 16459 H 1542.72 2.86214 1.257 0
M  V30 16460 H 1541.94 3.80109 -1.04454 0
M  V30 16461 H 1543.23 5.00924 -0.891769 0
M  V30 16462 H 1542.62 5.17494 2.28509 0
M  V30 16463 H 1541.18 6.10744 2.27672 0
M  V30 16464 N 1544.61 0.673042 1.42506 0
M  V30 16465 C 1546.03 0.342429 1.55883 0
M  V30 16466 C 1546.23 -1.15229 1.65302 0
M  V30 16467 O 1545.29 -1.93767 1.61897 0
M  V30 16468 C 1546.6 1.0712 2.80973 0
M  V30 16469 C 1548.15 1.05336 2.94743 0
M  V30 16470 C 1548.62 1.76342 4.22691 0
M  V30 16471 N 1550.11 1.73201 4.29599 0
M  V30 16472 C 1550.85 2.25 5.27411 0
M  V30 16473 N 1550.34 2.85173 6.31386 0
M  V30 16474 N 1552.14 2.15385 5.19197 0
M  V30 16475 H 1544.29 1.64277 1.34636 0
M  V30 16476 H 1546.55 0.691984 0.647968 0
M  V30 16477 H 1546.26 2.1263 2.80145 0
M  V30 16478 H 1546.13 0.635313 3.71811 0
M  V30 16479 H 1548.52 0.00659669 2.95099 0
M  V30 16480 H 1548.6 1.52811 2.0514 0
M  V30 16481 H 1548.24 2.80985 4.23096 0
M  V30 16482 H 1548.17 1.26317 5.11225 0
M  V30 16483 H 1550.66 1.2931 3.55088 0
M  V30 16484 H 1550.98 3.22323 7.02373 0
M  V30 16485 H 1549.32 2.89242 6.31953 0
M  V30 16486 H 1552.51 1.68065 4.36889 0
M  V30 16487 H 1552.69 2.5606 5.95262 0
M  V30 16488 N 1546.09 -1.52004 0.416254 0
M  V30 16489 C 1547.02 -2.30106 -0.396671 0
M  V30 16490 C 1548 -1.34616 -1.03983 0
M  V30 16491 O 1549.19 -1.63528 -1.04749 0
M  V30 16492 C 1546.32 -3.12769 -1.50972 0
M  V30 16493 C 1545.27 -4.16365 -0.99119 0
M  V30 16494 C 1544.6 -4.87417 -2.19838 0
M  V30 16495 C 1545.9 -5.22284 -0.0402599 0
M  V30 16496 H 1547.59 -2.98312 0.255054 0
M  V30 16497 H 1545.14 -1.43464 0.124106 0
M  V30 16498 H 1547.09 -3.66178 -2.08547 0
M  V30 16499 H 1545.82 -2.42346 -2.18943 0
M  V30 16500 H 1544.47 -3.63976 -0.437803 0
M  V30 16501 H 1544.12 -4.13516 -2.8638 0
M  V30 16502 H 1543.82 -5.57454 -1.85792 0
M  V30 16503 H 1545.35 -5.43641 -2.78006 0
M  V30 16504 H 1546.76 -5.70891 -0.525027 0
M  V30 16505 H 1545.16 -5.99726 0.211742 0
M  V30 16506 H 1546.23 -4.7642 0.902877 0
M  V30 16507 N 1547.57 -0.146903 -1.56914 0
M  V30 16508 C 1548.8 0.511181 -2.00486 0
M  V30 16509 C 1549.21 1.58425 -1.02699 0
M  V30 16510 O 1548.57 1.82484 -0.0239878 0
M  V30 16511 C 1548.62 1.11191 -3.43975 0
M  V30 16512 O 1548.34 0.0817094 -4.38024 0
M  V30 16513 C 1549.84 1.85061 -4.02824 0
M  V30 16514 H 1547.06 0.133078 -0.657671 0
M  V30 16515 H 1549.61 -0.241457 -2.0307 0
M  V30 16516 H 1547.76 1.81517 -3.42243 0
M  V30 16517 H 1548.18 0.52181 -5.21898 0
M  V30 16518 H 1549.65 2.22385 -5.05222 0
M  V30 16519 H 1550.13 2.73649 -3.4353 0
M  V30 16520 H 1550.73 1.19434 -4.08186 0
M  V30 16521 N 1549.05 1.57088 0.126881 0
M  V30 16522 C 1550 2.00736 1.17506 0
M  V30 16523 C 1550.99 0.902986 1.43327 0
M  V30 16524 O 1552.2 1.08819 1.43382 0
M  V30 16525 H 1548.57 0.639285 0.396003 0
M  V30 16526 H 1550.54 2.88015 0.780373 0
M  V30 16527 C 1549.29 2.42096 2.49569 0
M  V30 16528 H 1548.61 3.26639 2.30536 0
M  V30 16529 H 1550.05 2.76442 3.2149 0
M  V30 16530 C 1548.51 1.28148 3.11576 0
M  V30 16531 O 1549.04 0.593145 3.97297 0
M  V30 16532 N 1547.25 1.04055 2.71332 0
M  V30 16533 H 1546.8 1.60208 2.0172 0
M  V30 16534 H 1546.75 0.280075 3.1315 0
M  V30 16535 N 1550.53 -0.396836 1.52522 0
M  V30 16536 C 1551.75 -1.16404 1.71049 0
M  V30 16537 C 1552.17 -1.83946 0.425378 0
M  V30 16538 O 1551.53 -1.7237 -0.599561 0
M  V30 16539 C 1551.58 -2.21796 2.85463 0
M  V30 16540 O 1551.3 -1.57009 4.08998 0
M  V30 16541 C 1552.8 -3.11303 3.15603 0
M  V30 16542 H 1550.02 -0.349314 0.572905 0
M  V30 16543 H 1552.56 -0.465297 1.99136 0
M  V30 16544 H 1550.72 -2.87318 2.59859 0
M  V30 16545 H 1551.13 -2.26977 4.72844 0
M  V30 16546 H 1552.61 -3.81299 3.99143 0
M  V30 16547 H 1553.08 -3.7437 2.2966 0
M  V30 16548 H 1553.69 -2.51435 3.43017 0
M  V30 16549 N 1552.01 -1.43353 -0.654814 0
M  V30 16550 C 1552.95 -1.48652 -1.789 0
M  V30 16551 C 1553.95 -0.360274 -1.65525 0
M  V30 16552 O 1555.15 -0.534194 -1.71891 0
M  V30 16553 H 1551.53 -0.465987 -0.590221 0
M  V30 16554 H 1553.5 -2.44158 -1.7155 0
M  V30 16555 C 1552.25 -1.42512 -3.17152 0
M  V30 16556 H 1551.57 -2.28479 -3.28081 0
M  V30 16557 H 1553.01 -1.50282 -3.96474 0
M  V30 16558 C 1551.47 -0.142511 -3.36598 0
M  V30 16559 O 1552 0.796821 -3.93718 0
M  V30 16560 N 1550.21 -0.0532157 -2.90551 0
M  V30 16561 H 1549.75 -0.818421 -2.44253 0
M  V30 16562 H 1549.71 0.80427 -3.03939 0
M  V30 16563 N 1553.48 0.89303 -1.29857 0
M  V30 16564 C 1554.41 2.01422 -1.18117 0
M  V30 16565 C 1555.39 1.6994 -0.0737487 0
M  V30 16566 O 1556.58 1.92527 -0.254387 0
M  V30 16567 C 1553.71 3.36385 -0.863842 0
M  V30 16568 C 1552.66 3.821 -1.92831 0
M  V30 16569 C 1551.99 5.14263 -1.46415 0
M  V30 16570 C 1553.29 4.01699 -3.33819 0
M  V30 16571 H 1554.98 2.11502 -2.11913 0
M  V30 16572 H 1552.53 1.01622 -1.02024 0
M  V30 16573 H 1554.48 4.14335 -0.768397 0
M  V30 16574 H 1553.21 3.26415 0.109816 0
M  V30 16575 H 1551.87 3.06372 -2.01325 0
M  V30 16576 H 1551.51 5.00714 -0.478983 0
M  V30 16577 H 1551.21 5.45821 -2.17609 0
M  V30 16578 H 1552.74 5.94747 -1.38234 0
M  V30 16579 H 1554.15 4.70111 -3.28129 0
M  V30 16580 H 1552.55 4.44621 -4.03029 0
M  V30 16581 H 1553.62 3.05816 -3.76304 0
M  V30 16582 N 1554.96 1.12442 1.10429 0
M  V30 16583 C 1555.89 0.814745 2.18824 0
M  V30 16584 C 1556.87 -0.221476 1.68652 0
M  V30 16585 O 1558.06 -0.0826537 1.94024 0
M  V30 16586 C 1555.19 0.268632 3.4626 0
M  V30 16587 C 1554.14 1.23792 4.09707 0
M  V30 16588 C 1553.47 0.552034 5.31843 0
M  V30 16589 C 1554.77 2.5926 4.53411 0
M  V30 16590 H 1556.46 1.72111 2.44986 0
M  V30 16591 H 1554.01 0.828968 1.17746 0
M  V30 16592 H 1555.96 0.0397207 4.21381 0
M  V30 16593 H 1554.68 -0.673079 3.19589 0
M  V30 16594 H 1553.34 1.45264 3.36592 0
M  V30 16595 H 1552.99 -0.394821 5.01448 0
M  V30 16596 H 1552.69 1.19861 5.75245 0
M  V30 16597 H 1554.22 0.332161 6.09696 0
M  V30 16598 H 1555.63 2.41816 5.19806 0
M  V30 16599 H 1554.03 3.19997 5.07663 0
M  V30 16600 H 1555.1 3.17699 3.66327 0
M  V30 16601 N 1556.44 -1.28223 0.91633 0
M  V30 16602 C 1557.69 -1.94865 0.550823 0
M  V30 16603 C 1558.01 -1.72113 -0.905945 0
M  V30 16604 O 1557.27 -1.03668 -1.65987 0
M  V30 16605 C 1557.57 -3.48112 0.809509 0
M  V30 16606 C 1557.23 -3.90967 2.24623 0
M  V30 16607 C 1555.9 -4.02379 2.63903 0
M  V30 16608 C 1558.25 -4.12865 3.18106 0
M  V30 16609 C 1555.58 -4.33069 3.95814 0
M  V30 16610 C 1557.93 -4.45036 4.49584 0
M  V30 16611 C 1556.59 -4.54659 4.88714 0
M  V30 16612 H 1555.86 -0.71306 0.20156 0
M  V30 16613 H 1558.51 -1.5251 1.15814 0
M  V30 16614 H 1556.81 -3.91618 0.119411 0
M  V30 16615 H 1558.51 -3.97797 0.505843 0
M  V30 16616 H 1555.1 -3.82614 1.93144 0
M  V30 16617 H 1559.29 -4.035 2.88966 0
M  V30 16618 H 1554.54 -4.38725 4.25829 0
M  V30 16619 H 1558.72 -4.60928 5.22033 0
M  V30 16620 H 1556.34 -4.78194 5.90961 0
M  V30 16621 N 1557.92 -0.68059 -1.42147 0
M  V30 16622 C 1559.16 -0.205567 -2.01755 0
M  V30 16623 C 1559.5 1.18677 -1.53718 0
M  V30 16624 O 1558.77 1.79796 -0.741867 0
M  V30 16625 C 1559.05 -0.246615 -3.59255 0
M  V30 16626 C 1558.91 -1.67483 -4.17456 0
M  V30 16627 C 1560.23 0.40196 -4.38261 0
M  V30 16628 H 1557.35 -0.0761717 -0.733053 0
M  V30 16629 H 1559.99 -0.866473 -1.69092 0
M  V30 16630 H 1558.14 0.316127 -3.87212 0
M  V30 16631 H 1559.81 -2.29026 -4.00431 0
M  V30 16632 H 1558.05 -2.2137 -3.73065 0
M  V30 16633 H 1558.72 -1.65519 -5.266 0
M  V30 16634 H 1561.2 -0.077135 -4.16028 0
M  V30 16635 H 1560.08 0.342627 -5.4783 0
M  V30 16636 H 1560.34 1.48044 -4.16576 0
M  V30 16637 N 1559.4 1.51781 -0.424309 0
M  V30 16638 C 1560.64 2.02269 0.146709 0
M  V30 16639 C 1560.97 1.30859 1.4349 0
M  V30 16640 O 1560.25 0.419504 1.89922 0
M  V30 16641 C 1560.53 3.58101 0.378861 0
M  V30 16642 C 1560.39 4.40143 -0.92707 0
M  V30 16643 C 1561.7 4.2469 1.15438 0
M  V30 16644 H 1558.82 0.735174 0.0518456 0
M  V30 16645 H 1561.47 1.81537 -0.560753 0
M  V30 16646 H 1559.62 3.75897 0.981496 0
M  V30 16647 H 1561.29 4.34025 -1.56268 0
M  V30 16648 H 1559.53 4.05748 -1.53464 0
M  V30 16649 H 1560.2 5.47299 -0.718837 0
M  V30 16650 H 1562.68 4.11086 0.644041 0
M  V30 16651 H 1561.55 5.33633 1.28557 0
M  V30 16652 H 1561.81 3.84668 2.17905 0
M  V30 16653 N 1560.87 0.155222 1.56834 0
M  V30 16654 C 1561.84 -0.767266 2.15976 0
M  V30 16655 C 1562.84 -1.16946 1.10364 0
M  V30 16656 O 1564.03 -1.08905 1.35961 0
M  V30 16657 C 1561.16 -2.04226 2.72956 0
M  V30 16658 H 1562.35 -0.252662 2.98834 0
M  V30 16659 H 1559.9 -0.0942677 1.56015 0
M  V30 16660 H 1560.64 -2.60033 1.93787 0
M  V30 16661 H 1560.42 -1.76299 3.5023 0
M  V30 16662 H 1561.91 -2.70093 3.18495 0
M  V30 16663 N 1562.35 -1.57153 -0.118549 0
M  V30 16664 C 1563.26 -2.03673 -1.16424 0
M  V30 16665 C 1564.28 -0.957203 -1.45305 0
M  V30 16666 O 1565.45 -1.26874 -1.56413 0
M  V30 16667 C 1562.52 -2.43211 -2.47082 0
M  V30 16668 C 1561.58 -3.65248 -2.25593 0
M  V30 16669 C 1560.81 -4.02891 -3.50021 0
M  V30 16670 O 1561.04 -3.40871 -4.57344 0
M  V30 16671 O 1559.97 -4.95989 -3.40996 0
M  V30 16672 H 1563.8 -2.92996 -0.799206 0
M  V30 16673 H 1561.38 -1.45724 -0.329376 0
M  V30 16674 H 1563.26 -2.69374 -3.24061 0
M  V30 16675 H 1561.94 -1.57034 -2.83058 0
M  V30 16676 H 1560.84 -3.44234 -1.46471 0
M  V30 16677 H 1562.18 -4.52131 -1.94521 0
M  V30 16678 N 1563.83 0.388742 -1.5273 0
M  V30 16679 C 1564.78 1.47488 -1.77527 0
M  V30 16680 C 1565.75 1.54155 -0.618505 0
M  V30 16681 O 1566.93 1.70407 -0.858251 0
M  V30 16682 C 1564.07 2.84714 -1.95018 0
M  V30 16683 C 1563.18 2.87197 -3.2271 0
M  V30 16684 C 1562.32 4.15851 -3.30517 0
M  V30 16685 C 1561.36 4.12386 -4.52332 0
M  V30 16686 N 1560.5 5.32647 -4.57418 0
M  V30 16687 H 1565.34 1.25644 -2.70218 0
M  V30 16688 H 1562.87 0.609519 -1.33878 0
M  V30 16689 H 1564.83 3.64402 -2.03143 0
M  V30 16690 H 1563.46 3.05008 -1.05688 0
M  V30 16691 H 1562.51 1.99879 -3.23655 0
M  V30 16692 H 1563.82 2.80505 -4.12454 0
M  V30 16693 H 1562.98 5.03943 -3.37827 0
M  V30 16694 H 1561.72 4.25265 -2.38748 0
M  V30 16695 H 1560.72 3.22683 -4.45147 0
M  V30 16696 H 1561.95 4.04594 -5.45418 0
M  V30 16697 H 1559.89 5.42691 -3.68541 0
M  V30 16698 H 1559.81 5.28032 -5.41035 0
M  V30 16699 H 1561.08 6.22636 -4.68983 0
M  V30 16700 N 1565.31 1.43698 0.647203 0
M  V30 16701 C 1566.72 1.40586 1.22851 0
M  V30 16702 C 1567.07 0.112981 1.95874 0
M  V30 16703 O 1566.19 -0.787342 2.01569 0
M  V30 16704 C 1566.79 2.54672 2.23445 0
M  V30 16705 C 1565.35 2.54806 2.7704 0
M  V30 16706 C 1564.5 2.32076 1.51777 0
M  V30 16707 H 1567.45 1.52512 0.43885 0
M  V30 16708 H 1567.47 2.26505 3.05738 0
M  V30 16709 H 1566.98 3.48755 1.70269 0
M  V30 16710 H 1565.08 1.64619 3.34262 0
M  V30 16711 H 1565.19 3.52771 3.24175 0
M  V30 16712 H 1563.56 1.80858 1.79339 0
M  V30 16713 H 1564.34 3.28252 1.00527 0
M  V30 16714 N 1566.79 -0.886131 1.30328 0
M  V30 16715 C 1567.72 -2.00793 1.19183 0
M  V30 16716 C 1568.7 -1.69899 0.08276 0
M  V30 16717 O 1569.88 -1.92389 0.264593 0
M  V30 16718 C 1567.01 -3.35922 0.881669 0
M  V30 16719 C 1565.97 -3.81072 1.94855 0
M  V30 16720 C 1565.29 -5.1348 1.4914 0
M  V30 16721 C 1566.59 -3.99923 3.35944 0
M  V30 16722 H 1568.29 -2.10375 2.13032 0
M  V30 16723 H 1565.83 -1.0108 1.02561 0
M  V30 16724 H 1567.79 -4.13922 0.790359 0
M  V30 16725 H 1566.51 -3.26469 -0.0925037 0
M  V30 16726 H 1565.17 -3.053 2.02947 0
M  V30 16727 H 1564.82 -5.00453 0.50553 0
M  V30 16728 H 1564.52 -5.44659 2.205 0
M  V30 16729 H 1566.04 -5.94005 1.41386 0
M  V30 16730 H 1567.45 -4.68364 3.30617 0
M  V30 16731 H 1565.85 -4.42477 4.05381 0
M  V30 16732 H 1566.92 -3.03816 3.77921 0
M  V30 16733 N 1568.26 -1.13026 -1.09832 0
M  V30 16734 C 1569.5 -0.8996 -1.83539 0
M  V30 16735 C 1569.87 0.564226 -1.83522 0
M  V30 16736 O 1571.07 0.912286 -2.52845 0
M  V30 16737 C 1569.34 -1.46624 -3.25939 0
M  V30 16738 S 1570.9 -1.37502 -4.167 0
M  V30 16739 H 1567.72 -0.324364 -0.6327 0
M  V30 16740 H 1570.32 -1.44098 -1.32121 0
M  V30 16741 H 1569.02 -2.52507 -3.23525 0
M  V30 16742 H 1568.55 -0.922619 -3.82428 0
M  V30 16743 H 1570.57 -0.350666 -4.94959 0
M  V30 16744 N 1569.74 1.27735 -0.923117 0
M  V30 16745 C 1570.97 1.9922 -0.57672 0
M  V30 16746 C 1571.39 1.68446 0.837113 0
M  V30 16747 O 1570.75 0.922129 1.56098 0
M  V30 16748 C 1570.8 3.51528 -0.803768 0
M  V30 16749 O 1569.9 4.12186 0.132829 0
M  V30 16750 H 1569.24 0.625593 -0.222553 0
M  V30 16751 H 1571.77 1.62657 -1.24112 0
M  V30 16752 H 1571.78 4.01641 -0.717534 0
M  V30 16753 H 1570.46 3.7326 -1.83439 0
M  V30 16754 H 1569.04 3.729 -0.00292957 0
M  V30 16755 N 1571.22 0.688118 1.41784 0
M  V30 16756 C 1572.15 -0.02099 2.2919 0
M  V30 16757 C 1573.17 -0.752005 1.44391 0
M  V30 16758 O 1574.35 -0.603947 1.67972 0
M  V30 16759 C 1571.45 -1.0537 3.22103 0
M  V30 16760 C 1570.63 -0.393817 4.35624 0
M  V30 16761 C 1569.69 -1.32812 5.09163 0
M  V30 16762 O 1568.71 -0.823341 5.63214 0
M  V30 16763 N 1569.91 -2.66083 5.15927 0
M  V30 16764 H 1572.68 0.729389 2.90689 0
M  V30 16765 H 1570.24 0.533564 1.52855 0
M  V30 16766 H 1572.23 -1.6803 3.68169 0
M  V30 16767 H 1570.8 -1.70568 2.61964 0
M  V30 16768 H 1570.02 0.41253 3.92035 0
M  V30 16769 H 1571.31 0.065338 5.08758 0
M  V30 16770 H 1570.71 -3.09619 4.73448 0
M  V30 16771 H 1569.27 -3.23956 5.65593 0
M  V30 16772 N 1572.7 -1.51554 0.432352 0
M  V30 16773 C 1573.94 -2.03954 -0.135014 0
M  V30 16774 C 1574.3 -1.30972 -1.40393 0
M  V30 16775 O 1575.5 -1.73719 -2.05122 0
M  V30 16776 C 1573.77 -3.55646 -0.35361 0
M  V30 16777 S 1575.33 -4.29781 -0.885096 0
M  V30 16778 H 1572.15 -0.710178 -0.0341871 0
M  V30 16779 H 1574.75 -1.86365 0.590612 0
M  V30 16780 H 1573.46 -4.06333 0.576335 0
M  V30 16781 H 1572.99 -3.7752 -1.10646 0
M  V30 16782 H 1575 -4.46564 -2.16322 0
M  V30 16783 N 1574.18 -0.163538 -1.56749 0
M  V30 16784 C 1575.09 0.782461 -2.21167 0
M  V30 16785 C 1576.1 1.25911 -1.20093 0
M  V30 16786 O 1577.28 1.31286 -1.52728 0
M  V30 16787 C 1574.34 1.99761 -2.83366 0
M  V30 16788 C 1573.4 1.56859 -3.99617 0
M  V30 16789 C 1572.64 2.72582 -4.58841 0
M  V30 16790 O 1572.86 3.89243 -4.16949 0
M  V30 16791 O 1571.79 2.47104 -5.48838 0
M  V30 16792 H 1575.62 0.264023 -3.0255 0
M  V30 16793 H 1573.21 0.06429 -1.49262 0
M  V30 16794 H 1575.09 2.70843 -3.22835 0
M  V30 16795 H 1573.76 2.50526 -2.04984 0
M  V30 16796 H 1572.67 0.827511 -3.64833 0
M  V30 16797 H 1574 1.10794 -4.79568 0
M  V30 16798 N 1575.65 1.57214 0.110213 0
M  V30 16799 C 1576.62 2.00034 1.11888 0
M  V30 16800 C 1577.62 0.891697 1.33811 0
M  V30 16801 O 1578.81 1.15754 1.3018 0
M  V30 16802 C 1575.94 2.34806 2.47142 0
M  V30 16803 H 1577.13 2.90354 0.750647 0
M  V30 16804 H 1574.69 1.5222 0.35479 0
M  V30 16805 H 1575.42 1.47393 2.8887 0
M  V30 16806 H 1575.21 3.15671 2.32581 0
M  V30 16807 H 1576.7 2.68644 3.19719 0
M  V30 16808 N 1577.13 -0.380637 1.52934 0
M  V30 16809 C 1578.38 -1.12261 1.68053 0
M  V30 16810 C 1578.7 -1.90263 0.427191 0
M  V30 16811 O 1577.97 -1.87768 -0.558559 0
M  V30 16812 H 1576.55 -0.41742 0.619491 0
M  V30 16813 H 1579.21 -0.430906 1.90077 0
M  V30 16814 H 1578.31 -1.82085 2.53479 0
M  V30 16815 N 1578.61 -1.44039 -0.639573 0
M  V30 16816 C 1580.03 -1.2774 -0.956802 0
M  V30 16817 C 1580.23 -0.207018 -2.00434 0
M  V30 16818 O 1579.28 0.409954 -2.4915 0
M  V30 16819 C 1580.6 -2.64624 -1.42809 0
M  V30 16820 C 1582.14 -2.72266 -1.54402 0
M  V30 16821 C 1582.62 -4.09601 -2.04918 0
M  V30 16822 N 1584.11 -4.11735 -2.122 0
M  V30 16823 C 1584.84 -5.14842 -2.52439 0
M  V30 16824 N 1584.34 -6.28316 -2.91875 0
M  V30 16825 N 1586.13 -5.02196 -2.52499 0
M  V30 16826 H 1578.28 -2.12333 0.0533569 0
M  V30 16827 H 1580.55 -0.947208 -0.0387401 0
M  V30 16828 H 1580.25 -3.43983 -0.732728 0
M  V30 16829 H 1580.13 -2.90944 -2.40066 0
M  V30 16830 H 1582.51 -1.93232 -2.23037 0
M  V30 16831 H 1582.6 -2.49697 -0.555426 0
M  V30 16832 H 1582.24 -4.89108 -1.3688 0
M  V30 16833 H 1582.17 -4.29542 -3.04633 0
M  V30 16834 H 1584.66 -3.29833 -1.84441 0
M  V30 16835 H 1584.97 -7.0281 -3.21368 0
M  V30 16836 H 1583.32 -6.31767 -2.89647 0
M  V30 16837 H 1586.51 -4.12606 -2.21075 0
M  V30 16838 H 1586.68 -5.82677 -2.83535 0
M  V30 16839 N 1580.09 0.879207 -1.30796 0
M  V30 16840 C 1581.02 2.00158 -1.20246 0
M  V30 16841 C 1582 1.69852 -0.091769 0
M  V30 16842 O 1583.18 1.92246 -0.274792 0
M  V30 16843 C 1580.31 3.3545 -0.899472 0
M  V30 16844 C 1579.27 3.80033 -1.96873 0
M  V30 16845 C 1578.59 5.12681 -1.51861 0
M  V30 16846 C 1579.89 3.98136 -3.38061 0
M  V30 16847 H 1581.59 2.09242 -2.14145 0
M  V30 16848 H 1579.13 1.00535 -1.03096 0
M  V30 16849 H 1581.09 4.13497 -0.812299 0
M  V30 16850 H 1579.81 3.26513 0.075189 0
M  V30 16851 H 1578.47 3.04219 -2.04564 0
M  V30 16852 H 1578.12 5.00178 -0.532063 0
M  V30 16853 H 1577.82 5.43482 -2.23386 0
M  V30 16854 H 1579.34 5.93247 -1.44534 0
M  V30 16855 H 1580.76 4.66604 -3.33096 0
M  V30 16856 H 1579.15 4.40321 -4.07722 0
M  V30 16857 H 1580.22 3.01807 -3.79526 0
M  V30 16858 N 1581.57 1.13606 1.09231 0
M  V30 16859 C 1582.5 0.837908 2.17948 0
M  V30 16860 C 1583.48 -0.203575 1.68877 0
M  V30 16861 O 1584.66 -0.0620702 1.94101 0
M  V30 16862 C 1581.79 0.305342 3.45955 0
M  V30 16863 C 1580.75 1.2813 4.08371 0
M  V30 16864 C 1580.07 0.608412 5.31227 0
M  V30 16865 C 1581.37 2.64055 4.50636 0
M  V30 16866 H 1583.07 1.747 2.43147 0
M  V30 16867 H 1580.61 0.84141 1.1686 0
M  V30 16868 H 1582.57 0.0844116 4.21315 0
M  V30 16869 H 1581.29 -0.639144 3.20285 0
M  V30 16870 H 1579.95 1.48826 3.35032 0
M  V30 16871 H 1579.6 -0.341613 5.01839 0
M  V30 16872 H 1579.3 1.25956 5.73942 0
M  V30 16873 H 1580.82 0.396809 6.09309 0
M  V30 16874 H 1582.24 2.47316 5.17212 0
M  V30 16875 H 1580.63 3.25364 5.0424 0
M  V30 16876 H 1581.7 3.21566 3.62937 0
M  V30 16877 N 1583.05 -1.27244 0.929878 0
M  V30 16878 C 1583.98 -2.25893 0.387967 0
M  V30 16879 C 1584.99 -1.55485 -0.482524 0
M  V30 16880 O 1586.18 -1.76049 -0.294795 0
M  V30 16881 C 1583.28 -3.35729 -0.462544 0
M  V30 16882 C 1582.45 -4.35665 0.38916 0
M  V30 16883 C 1581.51 -5.24685 -0.399061 0
M  V30 16884 O 1580.54 -5.68869 0.193996 0
M  V30 16885 N 1581.74 -5.551 -1.69836 0
M  V30 16886 H 1584.5 -2.73027 1.23597 0
M  V30 16887 H 1582.07 -1.40893 0.797539 0
M  V30 16888 H 1584.06 -3.92228 -0.996974 0
M  V30 16889 H 1582.63 -2.88177 -1.2113 0
M  V30 16890 H 1581.85 -3.78399 1.10488 0
M  V30 16891 H 1583.14 -4.99442 0.971349 0
M  V30 16892 H 1582.53 -5.21064 -2.20248 0
M  V30 16893 H 1581.09 -6.14289 -2.17927 0
M  V30 16894 N 1584.52 -0.695628 -1.41417 0
M  V30 16895 C 1585.47 -0.0303383 -2.3078 0
M  V30 16896 C 1586.44 0.771218 -1.4711 0
M  V30 16897 O 1587.63 0.739239 -1.75897 0
M  V30 16898 C 1584.77 0.900034 -3.33157 0
M  V30 16899 C 1583.88 0.0900862 -4.31906 0
M  V30 16900 C 1583.01 1.01811 -5.21352 0
M  V30 16901 C 1582.05 0.201068 -6.1177 0
M  V30 16902 N 1581.19 1.0829 -6.93699 0
M  V30 16903 H 1586.03 -0.798148 -2.87113 0
M  V30 16904 H 1583.57 -0.405311 -1.41406 0
M  V30 16905 H 1585.52 1.45349 -3.91062 0
M  V30 16906 H 1584.15 1.63424 -2.78375 0
M  V30 16907 H 1583.21 -0.58029 -3.75948 0
M  V30 16908 H 1584.52 -0.543336 -4.95832 0
M  V30 16909 H 1583.67 1.64079 -5.84092 0
M  V30 16910 H 1582.41 1.68538 -4.57653 0
M  V30 16911 H 1581.42 -0.434686 -5.48079 0
M  V30 16912 H 1582.64 -0.462416 -6.77524 0
M  V30 16913 H 1580.59 1.73619 -6.32608 0
M  V30 16914 H 1580.5 0.505046 -7.54311 0
M  V30 16915 H 1581.77 1.69239 -7.60906 0
M  V30 16916 N 1586 1.51322 -0.440383 0
M  V30 16917 C 1586.91 2.31574 0.37561 0
M  V30 16918 C 1587.93 1.40617 1.02483 0
M  V30 16919 O 1589.1 1.73688 1.01953 0
M  V30 16920 C 1586.17 3.14441 1.4604 0
M  V30 16921 C 1585.23 4.21181 0.830991 0
M  V30 16922 C 1584.46 5.00087 1.86409 0
M  V30 16923 O 1584.69 4.79666 3.08669 0
M  V30 16924 O 1583.62 5.84101 1.45293 0
M  V30 16925 H 1587.45 3.0241 -0.27962 0
M  V30 16926 H 1585.03 1.48016 -0.202857 0
M  V30 16927 H 1586.91 3.6595 2.08946 0
M  V30 16928 H 1585.59 2.46366 2.09965 0
M  V30 16929 H 1584.49 3.73741 0.163798 0
M  V30 16930 H 1585.83 4.91638 0.235174 0
M  V30 16931 N 1587.48 0.171848 1.5666 0
M  V30 16932 C 1588.71 -0.479221 2.01274 0
M  V30 16933 C 1589.12 -1.56771 1.05206 0
M  V30 16934 O 1588.48 -1.82423 0.0530164 0
M  V30 16935 C 1588.53 -1.05705 3.457 0
M  V30 16936 O 1588.25 -0.0120133 4.38098 0
M  V30 16937 C 1589.75 -1.78629 4.05717 0
M  V30 16938 H 1586.97 -0.122598 0.659705 0
M  V30 16939 H 1589.52 0.273733 2.0266 0
M  V30 16940 H 1587.67 -1.7605 3.45087 0
M  V30 16941 H 1588.09 -0.438714 5.22662 0
M  V30 16942 H 1589.56 -2.14319 5.08696 0
M  V30 16943 H 1590.04 -2.68149 3.4784 0
M  V30 16944 H 1590.64 -1.12925 4.10034 0
M  V30 16945 N 1588.96 -1.5727 -0.101874 0
M  V30 16946 C 1589.91 -1.98011 -1.13029 0
M  V30 16947 C 1590.89 -0.857554 -1.36143 0
M  V30 16948 O 1592.08 -1.12135 -1.36948 0
M  V30 16949 C 1589.21 -2.4024 -2.45234 0
M  V30 16950 C 1588.3 -3.59166 -2.25522 0
M  V30 16951 N 1588.69 -4.74317 -1.75662 0
M  V30 16952 C 1586.99 -3.65132 -2.56115 0
M  V30 16953 C 1587.69 -5.56286 -1.70061 0
M  V30 16954 N 1586.66 -4.99262 -2.15031 0
M  V30 16955 H 1590.47 -2.84493 -0.737611 0
M  V30 16956 H 1587.98 -1.59426 -0.309395 0
M  V30 16957 H 1589.98 -2.67652 -3.19637 0
M  V30 16958 H 1588.64 -1.55131 -2.85245 0
M  V30 16959 H 1589.65 -4.972 -1.44958 0
M  V30 16960 H 1586.33 -2.9067 -2.99696 0
M  V30 16961 H 1587.72 -6.58682 -1.3262 0
M  V30 16962 N 1590.44 0.372521 -1.53134 0
M  V30 16963 C 1591.66 1.14116 -1.73183 0
M  V30 16964 C 1592.09 1.82475 -0.456553 0
M  V30 16965 O 1591.44 1.71468 0.588919 0
M  V30 16966 C 1591.49 2.15241 -2.89316 0
M  V30 16967 O 1590.6 3.22178 -2.57439 0
M  V30 16968 H 1589.94 0.331442 -0.575362 0
M  V30 16969 H 1592.47 0.431769 -1.99992 0
M  V30 16970 H 1592.48 2.58961 -3.15283 0
M  V30 16971 H 1591.15 1.64877 -3.81822 0
M  V30 16972 H 1589.73 2.83481 -2.42267 0
M  V30 16973 N 1591.91 1.44376 0.631925 0
M  V30 16974 C 1593.19 1.37592 1.39024 0
M  V30 16975 C 1593.57 0.0342456 2.11072 0
M  V30 16976 O 1592.92 -0.983136 2.06268 0
M  V30 16977 C 1593.13 2.57355 2.35732 0
M  V30 16978 C 1594.48 3.01384 2.99087 0
M  V30 16979 O 1595.5 2.57554 2.46057 0
M  V30 16980 O 1594.36 3.77375 3.95285 0
M  V30 16981 H 1591.45 0.544828 0.622167 0
M  V30 16982 H 1594 1.56464 0.657048 0
M  V30 16983 H 1592.77 3.46615 1.81587 0
M  V30 16984 H 1592.39 2.40693 3.16469 0
M  V30 16985 N 1593.39 -0.872258 1.31261 0
M  V30 16986 C 1594.64 -1.6219 1.20576 0
M  V30 16987 C 1594.96 -1.93557 -0.236769 0
M  V30 16988 O 1594.23 -1.58094 -1.15686 0
M  V30 16989 H 1592.81 -0.601265 0.443272 0
M  V30 16990 H 1595.47 -1.04438 1.64556 0
M  V30 16991 H 1594.57 -2.56653 1.77582 0
M  V30 16992 N 1594.87 -1.14184 -1.08627 0
M  V30 16993 C 1596.28 -0.920108 -1.62453 0
M  V30 16994 C 1596.63 0.541577 -1.88577 0
M  V30 16995 O 1595.76 1.41002 -1.64157 0
M  V30 16996 C 1596.35 -1.6638 -2.95132 0
M  V30 16997 C 1594.91 -1.48771 -3.45752 0
M  V30 16998 C 1594.06 -1.68774 -2.20024 0
M  V30 16999 H 1597.01 -1.29396 -0.91882 0
M  V30 17000 H 1597.03 -1.12568 -3.63468 0
M  V30 17001 H 1596.54 -2.72759 -2.76087 0
M  V30 17002 H 1594.64 -0.44729 -3.69905 0
M  V30 17003 H 1594.76 -2.25619 -4.2265 0
M  V30 17004 H 1593.12 -1.11321 -2.29084 0
M  V30 17005 H 1593.9 -2.76491 -2.03489 0
M  V30 17006 N 1596.35 1.26749 -0.936613 0
M  V30 17007 C 1597.26 2.30272 -0.448573 0
M  V30 17008 C 1598.27 1.67386 0.475184 0
M  V30 17009 O 1599.45 1.98232 0.355825 0
M  V30 17010 C 1596.52 3.45546 0.28262 0
M  V30 17011 C 1595.58 4.23926 -0.677138 0
M  V30 17012 C 1594.81 5.33697 0.019255 0
M  V30 17013 O 1595.03 5.56825 1.23703 0
M  V30 17014 O 1593.97 5.98302 -0.657119 0
M  V30 17015 H 1597.79 2.74072 -1.30838 0
M  V30 17016 H 1595.38 1.31863 -0.702314 0
M  V30 17017 H 1597.26 4.15635 0.694686 0
M  V30 17018 H 1595.93 3.03784 1.11789 0
M  V30 17019 H 1594.84 3.56337 -1.13906 0
M  V30 17020 H 1596.17 4.69425 -1.47988 0
M  V30 17021 N 1597.83 0.703118 1.41046 0
M  V30 17022 C 1598.76 0.00331992 2.292 0
M  V30 17023 C 1599.77 -0.736648 1.4518 0
M  V30 17024 O 1600.96 -0.586097 1.68604 0
M  V30 17025 C 1598.06 -1.01948 3.23203 0
M  V30 17026 C 1597.23 -0.347591 4.36017 0
M  V30 17027 C 1596.29 -1.27404 5.10543 0
M  V30 17028 O 1595.32 -0.763558 5.64055 0
M  V30 17029 N 1596.52 -2.60596 5.1872 0
M  V30 17030 H 1599.29 0.760179 2.89899 0
M  V30 17031 H 1596.85 0.549747 1.52281 0
M  V30 17032 H 1598.84 -1.64115 3.6993 0
M  V30 17033 H 1597.41 -1.6778 2.63758 0
M  V30 17034 H 1596.63 0.454088 3.91576 0
M  V30 17035 H 1597.92 0.119295 5.0866 0
M  V30 17036 H 1597.31 -3.0458 4.76705 0
M  V30 17037 H 1595.87 -3.17939 5.68998 0
M  V30 17038 N 1599.3 -1.51086 0.448402 0
M  V30 17039 C 1600.54 -2.04085 -0.113374 0
M  V30 17040 C 1600.91 -1.32454 -1.38996 0
M  V30 17041 O 1602.11 -1.75885 -2.03268 0
M  V30 17042 C 1600.38 -3.56001 -0.315869 0
M  V30 17043 S 1601.94 -4.30695 -0.839462 0
M  V30 17044 H 1598.76 -0.7105 -0.0266528 0
M  V30 17045 H 1601.36 -1.85728 0.610345 0
M  V30 17046 H 1600.06 -4.05699 0.6194 0
M  V30 17047 H 1599.59 -3.78672 -1.06635 0
M  V30 17048 H 1601.61 -4.48833 -2.11573 0
M  V30 17049 N 1600.78 -0.180154 -1.56567 0
M  V30 17050 C 1601.69 0.758959 -2.21984 0
M  V30 17051 C 1602.71 1.24631 -1.21422 0
M  V30 17052 O 1603.88 1.29659 -1.54112 0
M  V30 17053 C 1600.95 1.96744 -2.85469 0
M  V30 17054 C 1600.01 1.52612 -4.01258 0
M  V30 17055 C 1599.24 2.677 -4.61706 0
M  V30 17056 O 1599.47 3.84799 -4.21054 0
M  V30 17057 O 1598.4 2.41269 -5.51428 0
M  V30 17058 H 1602.23 0.231919 -3.02813 0
M  V30 17059 H 1599.81 0.0484552 -1.49321 0
M  V30 17060 H 1601.69 2.67404 -3.25689 0
M  V30 17061 H 1600.37 2.48337 -2.0763 0
M  V30 17062 H 1599.28 0.78877 -3.6569 0
M  V30 17063 H 1600.61 1.05701 -4.80716 0
M  V30 17064 N 1602.26 1.57322 0.0935319 0
M  V30 17065 C 1603.19 2.05208 1.11409 0
M  V30 17066 C 1604.17 0.941295 1.41681 0
M  V30 17067 O 1605.36 1.21266 1.51684 0
M  V30 17068 C 1602.49 2.47782 2.43354 0
M  V30 17069 C 1601.44 3.62538 2.27486 0
M  V30 17070 C 1600.77 3.91095 3.64622 0
M  V30 17071 C 1602.07 4.93371 1.71412 0
M  V30 17072 H 1603.76 2.9072 0.715702 0
M  V30 17073 H 1601.31 1.3986 0.342827 0
M  V30 17074 H 1603.26 2.79891 3.15022 0
M  V30 17075 H 1601.98 1.59272 2.85132 0
M  V30 17076 H 1600.64 3.30679 1.58263 0
M  V30 17077 H 1600.29 2.99749 4.0393 0
M  V30 17078 H 1599.99 4.68353 3.5485 0
M  V30 17079 H 1601.51 4.25679 4.37755 0
M  V30 17080 H 1602.93 5.23851 2.32922 0
M  V30 17081 H 1601.33 5.74804 1.72395 0
M  V30 17082 H 1602.4 4.80197 0.67368 0
M  V30 17083 N 1603.74 -0.364395 1.53329 0
M  V30 17084 C 1604.98 -1.10855 1.6982 0
M  V30 17085 C 1605.32 -1.88931 0.449291 0
M  V30 17086 O 1604.59 -1.8646 -0.553437 0
M  V30 17087 C 1604.88 -2.06681 2.94881 0
M  V30 17088 C 1604.73 -1.32206 4.29932 0
M  V30 17089 C 1606.05 -3.06788 3.15546 0
M  V30 17090 H 1603.17 -0.401626 0.617953 0
M  V30 17091 H 1605.81 -0.389244 1.8597 0
M  V30 17092 H 1603.96 -2.68019 2.81244 0
M  V30 17093 H 1605.63 -0.73642 4.55384 0
M  V30 17094 H 1603.87 -0.623916 4.2929 0
M  V30 17095 H 1604.54 -2.0235 5.13574 0
M  V30 17096 H 1607.02 -2.55554 3.28377 0
M  V30 17097 H 1605.9 -3.71059 4.04483 0
M  V30 17098 H 1606.16 -3.77023 2.3088 0
M  V30 17099 N 1605.22 -1.44709 -0.62426 0
M  V30 17100 C 1606.15 -1.48097 -1.74928 0
M  V30 17101 C 1607.16 -0.373567 -1.58456 0
M  V30 17102 O 1608.35 -0.639699 -1.66644 0
M  V30 17103 C 1605.45 -1.30576 -3.12735 0
M  V30 17104 C 1604.62 -2.54688 -3.55602 0
M  V30 17105 C 1603.68 -2.31966 -4.72311 0
M  V30 17106 O 1602.71 -3.05492 -4.80274 0
M  V30 17107 N 1603.91 -1.35463 -5.64473 0
M  V30 17108 H 1606.68 -2.45086 -1.72491 0
M  V30 17109 H 1604.24 -1.40236 -0.809039 0
M  V30 17110 H 1606.23 -1.13212 -3.88542 0
M  V30 17111 H 1604.8 -0.419262 -3.09776 0
M  V30 17112 H 1604.02 -2.87282 -2.69931 0
M  V30 17113 H 1605.31 -3.37223 -3.80996 0
M  V30 17114 H 1604.7 -0.747509 -5.60739 0
M  V30 17115 H 1603.26 -1.24075 -6.39882 0
M  V30 17116 N 1606.69 0.865285 -1.31722 0
M  V30 17117 C 1608.11 1.15179 -1.10481 0
M  V30 17118 C 1608.31 2.01132 0.121667 0
M  V30 17119 O 1607.37 2.39167 0.809645 0
M  V30 17120 C 1608.68 1.8394 -2.3788 0
M  V30 17121 C 1610.23 1.96621 -2.43535 0
M  V30 17122 C 1610.7 2.68796 -3.70827 0
M  V30 17123 N 1612.19 2.76329 -3.71748 0
M  V30 17124 C 1612.93 3.32798 -4.6694 0
M  V30 17125 N 1612.42 3.90162 -5.7249 0
M  V30 17126 N 1614.22 3.30801 -4.54453 0
M  V30 17127 H 1606.37 0.292632 -2.10374 0
M  V30 17128 H 1608.63 0.192252 -0.928301 0
M  V30 17129 H 1608.34 1.28233 -3.27489 0
M  V30 17130 H 1608.21 2.84182 -2.48034 0
M  V30 17131 H 1610.6 2.5149 -1.54392 0
M  V30 17132 H 1610.68 0.954071 -2.37342 0
M  V30 17133 H 1610.32 2.14593 -4.60339 0
M  V30 17134 H 1610.25 3.70427 -3.74288 0
M  V30 17135 H 1612.74 2.35621 -2.95451 0
M  V30 17136 H 1613.06 4.31376 -6.41198 0
M  V30 17137 H 1611.4 3.88525 -5.76258 0
M  V30 17138 H 1614.59 2.85227 -3.71165 0
M  V30 17139 H 1614.77 3.74511 -5.28815 0
M  V30 17140 N 1608.17 1.14759 1.0802 0
M  V30 17141 C 1609.58 0.928711 1.61963 0
M  V30 17142 C 1609.93 -0.531568 1.88862 0
M  V30 17143 O 1609.06 -1.40129 1.64902 0
M  V30 17144 C 1609.65 1.67943 2.94246 0
M  V30 17145 C 1608.21 1.50602 3.44958 0
M  V30 17146 C 1607.36 1.69938 2.19126 0
M  V30 17147 H 1610.31 1.29882 0.911945 0
M  V30 17148 H 1610.33 1.14493 3.62866 0
M  V30 17149 H 1609.84 2.7422 2.74636 0
M  V30 17150 H 1607.95 0.466901 3.69663 0
M  V30 17151 H 1608.06 2.27857 4.21447 0
M  V30 17152 H 1606.42 1.12534 2.28491 0
M  V30 17153 H 1607.21 2.77566 2.0202 0
M  V30 17154 N 1609.65 -1.26251 0.943322 0
M  V30 17155 C 1611.07 -1.45943 0.645966 0
M  V30 17156 C 1611.27 -1.84936 -0.800064 0
M  V30 17157 O 1610.32 -1.97238 -1.57649 0
M  V30 17158 C 1611.64 -2.54017 1.60922 0
M  V30 17159 C 1613.18 -2.67866 1.61916 0
M  V30 17160 C 1613.66 -3.79113 2.56977 0
M  V30 17161 N 1615.15 -3.86509 2.55275 0
M  V30 17162 C 1615.88 -4.72048 3.25513 0
M  V30 17163 N 1615.38 -5.61959 4.05184 0
M  V30 17164 N 1617.17 -4.65913 3.14454 0
M  V30 17165 H 1609.32 -0.992295 1.87796 0
M  V30 17166 H 1611.59 -0.497204 0.80715 0
M  V30 17167 H 1611.29 -2.32197 2.64155 0
M  V30 17168 H 1611.17 -3.51715 1.36294 0
M  V30 17169 H 1613.55 -2.89059 0.594067 0
M  V30 17170 H 1613.64 -1.70604 1.90598 0
M  V30 17171 H 1613.28 -3.58673 3.59605 0
M  V30 17172 H 1613.21 -4.75836 2.25583 0
M  V30 17173 H 1615.7 -3.22229 1.97425 0
M  V30 17174 H 1616.01 -6.24127 4.55725 0
M  V30 17175 H 1614.36 -5.61704 4.09285 0
M  V30 17176 H 1617.55 -3.94675 2.51693 0
M  V30 17177 H 1617.72 -5.32356 3.69461 0
M  V30 17178 N 1611.13 -0.710588 -1.40671 0
M  V30 17179 C 1612.36 -0.257069 -2.04994 0
M  V30 17180 C 1612.77 1.10431 -1.53628 0
M  V30 17181 O 1612.11 1.70422 -0.685726 0
M  V30 17182 C 1612.17 -0.153646 -3.59172 0
M  V30 17183 C 1611.84 -1.4495 -4.33403 0
M  V30 17184 C 1612.83 -2.39042 -4.61687 0
M  V30 17185 C 1610.52 -1.70704 -4.72404 0
M  V30 17186 C 1612.51 -3.57137 -5.27951 0
M  V30 17187 C 1610.2 -2.89082 -5.384 0
M  V30 17188 C 1611.2 -3.82121 -5.66103 0
M  V30 17189 O 1610.89 -4.98424 -6.30737 0
M  V30 17190 H 1610.62 -0.114202 -0.666284 0
M  V30 17191 H 1613.17 -0.968028 -1.81158 0
M  V30 17192 H 1611.4 0.613213 -3.81807 0
M  V30 17193 H 1613.09 0.264655 -4.05036 0
M  V30 17194 H 1613.86 -2.20407 -4.32025 0
M  V30 17195 H 1609.74 -0.99142 -4.50213 0
M  V30 17196 H 1613.28 -4.29775 -5.4949 0
M  V30 17197 H 1609.18 -3.07627 -5.67482 0
M  V30 17198 H 1609.94 -4.98436 -6.49233 0
M  V30 17199 N 1612.61 1.50847 -0.456408 0
M  V30 17200 C 1614.02 1.59222 -0.109731 0
M  V30 17201 C 1614.22 1.46582 1.3826 0
M  V30 17202 O 1613.28 1.31678 2.15446 0
M  V30 17203 C 1614.59 2.9366 -0.646846 0
M  V30 17204 C 1616.14 3.07019 -0.60897 0
M  V30 17205 C 1616.62 4.44009 -1.12338 0
M  V30 17206 N 1618.11 4.50381 -1.08217 0
M  V30 17207 C 1618.84 5.54741 -1.45086 0
M  V30 17208 N 1618.34 6.66427 -1.89333 0
M  V30 17209 N 1620.13 5.45204 -1.36782 0
M  V30 17210 H 1612.28 1.57307 -1.42717 0
M  V30 17211 H 1614.54 0.742587 -0.589295 0
M  V30 17212 H 1614.25 3.0834 -1.69172 0
M  V30 17213 H 1614.12 3.7711 -0.0822535 0
M  V30 17214 H 1616.51 2.91995 0.426958 0
M  V30 17215 H 1616.59 2.25362 -1.21019 0
M  V30 17216 H 1616.24 4.59781 -2.15787 0
M  V30 17217 H 1616.17 5.24235 -0.498512 0
M  V30 17218 H 1618.66 3.70231 -0.757467 0
M  V30 17219 H 1618.97 7.42101 -2.15652 0
M  V30 17220 H 1617.32 6.67585 -1.93275 0
M  V30 17221 H 1620.51 4.56837 -1.02066 0
M  V30 17222 H 1620.68 6.26419 -1.65842 0
M  V30 17223 N 1614.09 0.188454 1.56469 0
M  V30 17224 C 1615.5 -0.167487 1.58719 0
M  V30 17225 C 1615.7 -1.61543 1.20442 0
M  V30 17226 O 1614.76 -2.34985 0.924041 0
M  V30 17227 C 1616.07 0.128854 3.00424 0
M  V30 17228 C 1617.62 0.0684301 3.12925 0
M  V30 17229 C 1618.09 0.337991 4.56751 0
M  V30 17230 N 1619.58 0.286373 4.62314 0
M  V30 17231 C 1620.32 0.468886 5.7148 0
M  V30 17232 N 1619.82 0.711388 6.89138 0
M  V30 17233 N 1621.61 0.403602 5.60649 0
M  V30 17234 H 1613.76 1.13339 1.79633 0
M  V30 17235 H 1616.02 0.451885 0.833369 0
M  V30 17236 H 1615.73 1.13255 3.32966 0
M  V30 17237 H 1615.6 -0.571644 3.72843 0
M  V30 17238 H 1617.99 -0.925864 2.802 0
M  V30 17239 H 1618.07 0.801903 2.42906 0
M  V30 17240 H 1617.71 1.32957 4.90189 0
M  V30 17241 H 1617.64 -0.416293 5.24952 0
M  V30 17242 H 1620.14 0.105286 3.77753 0
M  V30 17243 H 1620.45 0.839643 7.68225 0
M  V30 17244 H 1618.79 0.748205 6.90961 0
M  V30 17245 H 1621.98 0.214616 4.67608 0
M  V30 17246 H 1622.16 0.549261 6.45668 0
M  V30 17247 N 1615.56 -1.5737 -0.0851874 0
M  V30 17248 C 1616.81 -1.86219 -0.7853 0
M  V30 17249 C 1617.13 -0.77857 -1.78783 0
M  V30 17250 O 1616.4 0.194176 -1.94935 0
M  V30 17251 H 1614.98 -0.687134 -0.293013 0
M  V30 17252 H 1617.64 -1.94793 -0.0644597 0
M  V30 17253 H 1616.74 -2.83286 -1.30978 0
M  V30 17254 N 1617.04 0.356258 -1.53521 0
M  V30 17255 C 1618.45 0.932569 -1.61741 0
M  V30 17256 C 1618.8 1.89965 -0.490677 0
M  V30 17257 O 1617.93 2.1301 0.381514 0
M  V30 17258 C 1618.52 1.69818 -2.93168 0
M  V30 17259 C 1617.08 2.22369 -3.03692 0
M  V30 17260 C 1616.23 1.03891 -2.57103 0
M  V30 17261 H 1619.18 0.134769 -1.58127 0
M  V30 17262 H 1619.2 2.56011 -2.81494 0
M  V30 17263 H 1618.71 0.994065 -3.75153 0
M  V30 17264 H 1616.81 2.95994 -2.26314 0
M  V30 17265 H 1616.93 2.49611 -4.08939 0
M  V30 17266 H 1615.29 1.40862 -2.12202 0
M  V30 17267 H 1616.07 0.349637 -3.41515 0
M  V30 17268 N 1618.52 1.45038 0.616577 0
M  V30 17269 C 1619.47 1.49451 1.72187 0
M  V30 17270 C 1620.45 0.358711 1.5685 0
M  V30 17271 O 1621.65 0.604983 1.6634 0
M  V30 17272 C 1618.77 1.45551 3.10918 0
M  V30 17273 C 1617.86 2.643 3.31672 0
M  V30 17274 N 1618.25 3.89462 3.22727 0
M  V30 17275 C 1616.55 2.59805 3.62515 0
M  V30 17276 C 1617.25 4.68667 3.44567 0
M  V30 17277 N 1616.23 3.99974 3.68132 0
M  V30 17278 H 1620.03 2.44055 1.6375 0
M  V30 17279 H 1617.54 1.40205 0.819538 0
M  V30 17280 H 1619.54 1.46797 3.902 0
M  V30 17281 H 1618.2 0.519966 3.2051 0
M  V30 17282 H 1619.21 4.21217 3.01325 0
M  V30 17283 H 1615.89 1.75117 3.78999 0
M  V30 17284 H 1617.28 5.77683 3.43121 0
M  V30 17285 N 1620 -0.858287 1.32179 0
M  V30 17286 C 1621.25 -1.60706 1.21887 0
M  V30 17287 C 1621.56 -1.94372 -0.218836 0
M  V30 17288 O 1622.77 -2.67852 -0.443572 0
M  V30 17289 C 1621.22 -2.8977 2.13452 0
M  V30 17290 C 1620.83 -2.63542 3.62284 0
M  V30 17291 C 1622.57 -3.67779 2.11988 0
M  V30 17292 C 1620.48 -3.88584 4.45821 0
M  V30 17293 H 1619.41 -0.603026 0.452632 0
M  V30 17294 H 1622.06 -0.948016 1.57114 0
M  V30 17295 H 1620.44 -3.57112 1.71135 0
M  V30 17296 H 1621.62 -2.04534 4.12919 0
M  V30 17297 H 1619.93 -1.98869 3.65842 0
M  V30 17298 H 1622.53 -4.60561 2.71639 0
M  V30 17299 H 1622.87 -4.0123 1.10995 0
M  V30 17300 H 1623.41 -3.07336 2.52565 0
M  V30 17301 H 1620.14 -3.60276 5.47614 0
M  V30 17302 H 1619.66 -4.47001 3.99937 0
M  V30 17303 H 1621.34 -4.56358 4.58635 0
M  V30 17304 N 1621.48 -1.1533 -1.07409 0
M  V30 17305 C 1622.72 -0.938329 -1.8159 0
M  V30 17306 C 1623.08 0.525171 -1.84678 0
M  V30 17307 O 1624.28 0.858449 -2.54724 0
M  V30 17308 C 1622.55 -1.53504 -3.22756 0
M  V30 17309 S 1624.11 -1.4631 -4.13689 0
M  V30 17310 H 1620.93 -0.337711 -0.625677 0
M  V30 17311 H 1623.53 -1.46868 -1.29035 0
M  V30 17312 H 1622.23 -2.59313 -3.18096 0
M  V30 17313 H 1621.77 -1.00353 -3.80385 0
M  V30 17314 H 1623.78 -0.455576 -4.94104 0
M  V30 17315 N 1622.95 1.25748 -0.950004 0
M  V30 17316 C 1624.2 1.93336 -0.602294 0
M  V30 17317 C 1624.53 1.74454 0.859994 0
M  V30 17318 O 1623.78 1.08032 1.6318 0
M  V30 17319 C 1624.08 3.45843 -0.901521 0
M  V30 17320 C 1623.75 3.84874 -2.3491 0
M  V30 17321 C 1622.41 3.9524 -2.74479 0
M  V30 17322 C 1624.76 4.04286 -3.28941 0
M  V30 17323 C 1622.09 4.22422 -4.07157 0
M  V30 17324 C 1624.44 4.32959 -4.61225 0
M  V30 17325 C 1623.11 4.41541 -5.00597 0
M  V30 17326 H 1622.38 0.707465 -0.220395 0
M  V30 17327 H 1625.02 1.49386 -1.19817 0
M  V30 17328 H 1623.33 3.91164 -0.2232 0
M  V30 17329 H 1625.03 3.96316 -0.611134 0
M  V30 17330 H 1621.62 3.77358 -2.03221 0
M  V30 17331 H 1625.8 3.95697 -2.99563 0
M  V30 17332 H 1621.06 4.27281 -4.37311 0
M  V30 17333 H 1625.23 4.46925 -5.3407 0
M  V30 17334 H 1622.86 4.62358 -6.03431 0
M  V30 17335 N 1624.43 0.718038 1.40292 0
M  V30 17336 C 1625.71 0.185648 1.94717 0
M  V30 17337 C 1626.09 -1.30916 1.65603 0
M  V30 17338 O 1625.44 -2.06653 0.975031 0
M  V30 17339 C 1625.65 0.501015 3.45385 0
M  V30 17340 C 1626.99 0.441021 4.22303 0
M  V30 17341 O 1628.02 0.437217 3.53507 0
M  V30 17342 O 1626.88 0.420689 5.44878 0
M  V30 17343 H 1623.97 0.0281581 0.82652 0
M  V30 17344 H 1626.52 0.795738 1.49887 0
M  V30 17345 H 1625.29 1.5348 3.59944 0
M  V30 17346 H 1624.91 -0.138913 3.97357 0
M  V30 17347 N 1625.91 -1.50602 0.464402 0
M  V30 17348 C 1627.14 -2.06401 -0.0906449 0
M  V30 17349 C 1627.55 -1.32913 -1.3465 0
M  V30 17350 O 1626.89 -0.389959 -1.79513 0
M  V30 17351 C 1626.95 -3.56655 -0.451375 0
M  V30 17352 C 1626.62 -4.51584 0.701504 0
M  V30 17353 C 1627.61 -4.95259 1.5816 0
M  V30 17354 C 1625.3 -4.94354 0.88993 0
M  V30 17355 C 1627.29 -5.80404 2.63458 0
M  V30 17356 C 1624.98 -5.79283 1.94615 0
M  V30 17357 C 1625.98 -6.22208 2.81684 0
M  V30 17358 O 1625.67 -7.05446 3.85489 0
M  V30 17359 H 1625.4 -0.676 0.000751268 0
M  V30 17360 H 1627.95 -1.94836 0.650235 0
M  V30 17361 H 1626.18 -3.66098 -1.24535 0
M  V30 17362 H 1627.87 -3.94848 -0.940722 0
M  V30 17363 H 1628.64 -4.6289 1.44768 0
M  V30 17364 H 1624.52 -4.60467 0.221708 0
M  V30 17365 H 1628.06 -6.13829 3.3145 0
M  V30 17366 H 1623.96 -6.11064 2.08016 0
M  V30 17367 H 1624.73 -7.23682 3.82396 0
M  V30 17368 N 1627.39 -0.19675 -1.56367 0
M  V30 17369 C 1628.34 0.740138 -2.2051 0
M  V30 17370 C 1629.33 1.21854 -1.17677 0
M  V30 17371 O 1630.54 1.18124 -1.35819 0
M  V30 17372 H 1626.91 0.257034 -0.706709 0
M  V30 17373 H 1628.88 0.175454 -2.97884 0
M  V30 17374 C 1627.63 1.94841 -2.8798 0
M  V30 17375 H 1626.95 1.58936 -3.66851 0
M  V30 17376 H 1628.39 2.58227 -3.36296 0
M  V30 17377 C 1626.85 2.78821 -1.89104 0
M  V30 17378 O 1627.38 3.76797 -1.39237 0
M  V30 17379 N 1625.59 2.44348 -1.57297 0
M  V30 17380 H 1625.14 1.64732 -1.98043 0
M  V30 17381 H 1625.09 3.00822 -0.913978 0
M  V30 17382 N 1628.87 1.57413 0.0768405 0
M  V30 17383 C 1629.83 2.02363 1.0762 0
M  V30 17384 C 1630.83 0.919879 1.3189 0
M  V30 17385 O 1632.02 1.18489 1.27695 0
M  V30 17386 C 1629.15 2.39995 2.42106 0
M  V30 17387 H 1630.34 2.91881 0.688889 0
M  V30 17388 H 1627.9 1.52938 0.322422 0
M  V30 17389 H 1628.63 1.53488 2.85678 0
M  V30 17390 H 1628.42 3.20534 2.25833 0
M  V30 17391 H 1629.91 2.75365 3.13948 0
M  V30 17392 N 1630.34 -0.348112 1.53707 0
M  V30 17393 C 1631.57 -1.10903 1.74666 0
M  V30 17394 C 1631.99 -1.82499 0.483683 0
M  V30 17395 O 1631.34 -1.74191 -0.544419 0
M  V30 17396 C 1631.4 -2.12602 2.92374 0
M  V30 17397 O 1631.12 -1.43918 4.13787 0
M  V30 17398 C 1632.62 -3.01105 3.25347 0
M  V30 17399 H 1629.84 -0.330911 0.583728 0
M  V30 17400 H 1632.38 -0.401707 2.00516 0
M  V30 17401 H 1630.54 -2.78906 2.68869 0
M  V30 17402 H 1630.95 -2.11818 4.79826 0
M  V30 17403 H 1632.42 -3.68408 4.11071 0
M  V30 17404 H 1632.9 -3.66874 2.41455 0
M  V30 17405 H 1633.51 -2.40395 3.50842 0
M  V30 17406 N 1631.82 -1.45363 -0.608876 0
M  V30 17407 C 1632.73 -1.56471 -1.74797 0
M  V30 17408 C 1633.75 -0.449225 -1.68101 0
M  V30 17409 O 1634.92 -0.709731 -1.8848 0
M  V30 17410 C 1631.99 -1.52714 -3.11254 0
M  V30 17411 C 1631.05 -2.75291 -3.29414 0
M  V30 17412 C 1630.28 -2.71704 -4.59361 0
M  V30 17413 O 1630.51 -1.78959 -5.41599 0
M  V30 17414 O 1629.44 -3.62886 -4.80205 0
M  V30 17415 H 1633.27 -2.52751 -1.68377 0
M  V30 17416 H 1630.85 -1.27859 -0.772808 0
M  V30 17417 H 1632.73 -1.53222 -3.92557 0
M  V30 17418 H 1631.41 -0.595858 -3.18169 0
M  V30 17419 H 1630.32 -2.80345 -2.47704 0
M  V30 17420 H 1631.65 -3.67541 -3.27375 0
M  V30 17421 N 1633.3 0.851265 -1.32632 0
M  V30 17422 C 1634.58 1.58945 -1.13999 0
M  V30 17423 C 1634.96 2.08981 0.29836 0
M  V30 17424 O 1634.31 1.88226 1.2955 0
M  V30 17425 C 1634.52 2.73296 -2.17049 0
M  V30 17426 C 1635.86 3.42791 -2.50559 0
M  V30 17427 O 1636.89 2.83524 -2.15621 0
M  V30 17428 O 1635.75 4.49749 -3.10464 0
M  V30 17429 H 1632.84 0.700157 -0.440124 0
M  V30 17430 H 1635.39 0.895098 -1.44174 0
M  V30 17431 H 1634.16 2.33873 -3.13718 0
M  V30 17432 H 1633.78 3.50405 -1.87888 0
M  V30 17433 N 1634.78 1.15898 1.06796 0
M  V30 17434 C 1636.01 0.961372 1.83208 0
M  V30 17435 C 1636.42 -0.490392 1.8232 0
M  V30 17436 O 1635.78 -1.34025 1.2387 0
M  V30 17437 C 1635.83 1.47486 3.30045 0
M  V30 17438 O 1635.55 2.86976 3.31023 0
M  V30 17439 C 1637.05 1.31955 4.23205 0
M  V30 17440 H 1634.27 0.34109 0.57784 0
M  V30 17441 H 1636.82 1.53805 1.34775 0
M  V30 17442 H 1634.97 0.940586 3.75808 0
M  V30 17443 H 1635.38 3.1038 4.22805 0
M  V30 17444 H 1636.86 1.72721 5.24282 0
M  V30 17445 H 1637.34 0.264439 4.38403 0
M  V30 17446 H 1637.94 1.84319 3.83284 0
M  V30 17447 N 1636.26 -1.25243 0.956659 0
M  V30 17448 C 1637.48 -1.97621 0.629337 0
M  V30 17449 C 1637.91 -1.70606 -0.792158 0
M  V30 17450 O 1637.26 -0.963192 -1.53598 0
M  V30 17451 C 1637.31 -3.49273 0.896687 0
M  V30 17452 O 1636.42 -4.12393 -0.0234986 0
M  V30 17453 H 1635.76 -0.619472 0.239061 0
M  V30 17454 H 1638.29 -1.5931 1.28381 0
M  V30 17455 H 1638.3 -3.99597 0.82377 0
M  V30 17456 H 1636.97 -3.68265 1.93271 0
M  V30 17457 H 1635.55 -3.72761 0.101796 0
M  V30 17458 N 1637.73 -0.725468 -1.3991 0
M  V30 17459 C 1639.01 -0.195971 -1.94616 0
M  V30 17460 C 1639.39 1.30035 -1.66295 0
M  V30 17461 O 1638.74 2.06133 -0.985977 0
M  V30 17462 C 1638.95 -0.519325 -3.45115 0
M  V30 17463 C 1640.3 -0.46341 -4.22064 0
M  V30 17464 O 1641.32 -0.455958 -3.5327 0
M  V30 17465 O 1640.18 -0.449579 -5.44648 0
M  V30 17466 H 1637.27 -0.0325409 -0.82636 0
M  V30 17467 H 1639.82 -0.803676 -1.49463 0
M  V30 17468 H 1638.59 -1.55386 -3.59125 0
M  V30 17469 H 1638.22 0.117838 -3.97425 0
M  V30 17470 N 1639.21 1.50354 -0.472382 0
M  V30 17471 C 1640.45 2.0424 0.0808914 0
M  V30 17472 C 1640.82 1.34648 1.36871 0
M  V30 17473 O 1642.02 1.79096 2.00444 0
M  V30 17474 C 1640.29 3.56459 0.259192 0
M  V30 17475 S 1641.85 4.31976 0.770836 0
M  V30 17476 H 1638.67 0.710834 0.015346 0
M  V30 17477 H 1641.27 1.84734 -0.639816 0
M  V30 17478 H 1639.97 4.04662 -0.683865 0
M  V30 17479 H 1639.5 3.80321 1.00598 0
M  V30 17480 H 1641.52 4.52142 2.04406 0
M  V30 17481 N 1640.69 0.205039 1.56261 0
M  V30 17482 C 1641.94 -0.430245 1.97467 0
M  V30 17483 C 1642.26 -1.6146 1.09342 0
M  V30 17484 O 1641.53 -1.95188 0.166836 0
M  V30 17485 H 1640.11 -0.161945 0.729234 0
M  V30 17486 H 1642.77 0.294089 1.92668 0
M  V30 17487 H 1641.87 -0.767699 3.02511 0
M  V30 17488 N 1642.17 -1.57451 -0.0684915 0
M  V30 17489 C 1643.59 -1.53883 -0.423354 0
M  V30 17490 C 1643.79 -0.925698 -1.78978 0
M  V30 17491 O 1642.84 -0.529629 -2.46883 0
M  V30 17492 C 1644.15 -2.98521 -0.361386 0
M  V30 17493 C 1645.7 -3.09873 -0.441334 0
M  V30 17494 C 1646.18 -4.56168 -0.409239 0
M  V30 17495 N 1647.67 -4.60817 -0.469216 0
M  V30 17496 C 1648.4 -5.71498 -0.466648 0
M  V30 17497 N 1647.9 -6.91534 -0.4187 0
M  V30 17498 N 1649.69 -5.5975 -0.513452 0
M  V30 17499 H 1641.84 -1.95672 0.8262 0
M  V30 17500 H 1644.11 -0.895759 0.310354 0
M  V30 17501 H 1643.81 -3.46951 0.576035 0
M  V30 17502 H 1643.69 -3.58585 -1.17032 0
M  V30 17503 H 1646.07 -2.61414 -1.36918 0
M  V30 17504 H 1646.15 -2.52712 0.396237 0
M  V30 17505 H 1645.8 -5.05285 0.514772 0
M  V30 17506 H 1645.73 -5.11195 -1.26439 0
M  V30 17507 H 1648.22 -3.74438 -0.510387 0
M  V30 17508 H 1648.53 -7.71654 -0.420757 0
M  V30 17509 H 1646.88 -6.93931 -0.385338 0
M  V30 17510 H 1650.07 -4.64874 -0.548626 0
M  V30 17511 H 1650.24 -6.46006 -0.507982 0
M  V30 17512 N 1643.65 0.339955 -1.5389 0
M  V30 17513 C 1644.9 1.07766 -1.7097 0
M  V30 17514 C 1645.22 1.89064 -0.477486 0
M  V30 17515 O 1644.49 1.89183 0.508579 0
M  V30 17516 H 1643.07 0.400849 -0.630341 0
M  V30 17517 H 1645.73 0.380359 -1.91153 0
M  V30 17518 H 1644.82 1.75301 -2.58217 0
M  V30 17519 N 1645.13 1.45684 0.601159 0
M  V30 17520 C 1646.09 1.54451 1.69344 0
M  V30 17521 C 1647.09 0.423379 1.55126 0
M  V30 17522 O 1648.28 0.687079 1.60078 0
M  V30 17523 C 1645.41 1.4472 3.08657 0
M  V30 17524 H 1646.6 2.51778 1.62935 0
M  V30 17525 H 1644.16 1.3322 0.81744 0
M  V30 17526 H 1644.89 0.486027 3.20637 0
M  V30 17527 H 1644.68 2.26045 3.20384 0
M  V30 17528 H 1646.17 1.53902 3.88206 0
M  V30 17529 N 1646.6 -0.84422 1.33082 0
M  V30 17530 C 1647.83 -1.63654 1.27405 0
M  V30 17531 C 1648.25 -1.87476 -0.153146 0
M  V30 17532 O 1647.61 -1.43502 -1.10801 0
M  V30 17533 C 1647.66 -2.96698 2.04945 0
M  V30 17534 O 1646.76 -3.87751 1.40439 0
M  V30 17535 H 1646.1 -0.498545 0.438576 0
M  V30 17536 H 1648.63 -1.0507 1.7556 0
M  V30 17537 H 1648.64 -3.46438 2.1551 0
M  V30 17538 H 1647.32 -2.78682 3.08722 0
M  V30 17539 H 1645.9 -3.46231 1.38487 0
M  V30 17540 N 1648.08 -1.16463 -1.0618 0
M  V30 17541 C 1649.33 -0.946846 -1.79 0
M  V30 17542 C 1649.66 0.525259 -1.87273 0
M  V30 17543 O 1648.91 1.40584 -1.36142 0
M  V30 17544 C 1649.21 -1.52085 -3.23427 0
M  V30 17545 C 1648.88 -3.01547 -3.35232 0
M  V30 17546 C 1647.54 -3.42346 -3.38161 0
M  V30 17547 C 1649.89 -3.97543 -3.37059 0
M  V30 17548 C 1647.22 -4.77759 -3.40534 0
M  V30 17549 C 1649.57 -5.32843 -3.4097 0
M  V30 17550 C 1648.23 -5.73121 -3.42182 0
M  V30 17551 H 1647.5 -0.346475 -0.655008 0
M  V30 17552 H 1650.15 -1.45195 -1.24862 0
M  V30 17553 H 1648.46 -0.937212 -3.80426 0
M  V30 17554 H 1650.15 -1.32801 -3.78371 0
M  V30 17555 H 1646.74 -2.69017 -3.33658 0
M  V30 17556 H 1650.93 -3.67088 -3.34006 0
M  V30 17557 H 1646.18 -5.08293 -3.39777 0
M  V30 17558 H 1650.36 -6.07014 -3.41332 0
M  V30 17559 H 1647.98 -6.78029 -3.43774 0
M  V30 17560 N 1649.56 1.24734 -0.963288 0
M  V30 17561 C 1650.97 1.7456 -0.662246 0
M  V30 17562 C 1651.32 1.78143 0.822169 0
M  V30 17563 O 1650.45 1.40794 1.64335 0
M  V30 17564 C 1651.04 3.1701 -1.19542 0
M  V30 17565 C 1649.6 3.64361 -0.944371 0
M  V30 17566 C 1648.75 2.4314 -1.33335 0
M  V30 17567 H 1651.7 1.10498 -1.13911 0
M  V30 17568 H 1651.72 3.76362 -0.559601 0
M  V30 17569 H 1651.23 3.1437 -2.27581 0
M  V30 17570 H 1649.33 3.72405 0.120682 0
M  V30 17571 H 1649.45 4.52055 -1.58692 0
M  V30 17572 H 1647.81 2.43354 -0.751729 0
M  V30 17573 H 1648.59 2.43185 -2.42314 0
M  V30 17574 N 1651.04 0.732878 1.39523 0
M  V30 17575 C 1652.45 0.350145 1.83387 0
M  V30 17576 C 1652.8 -1.11807 1.61225 0
M  V30 17577 O 1651.92 -1.86222 1.10229 0
M  V30 17578 C 1652.52 0.628743 3.32915 0
M  V30 17579 C 1651.08 0.299529 3.75206 0
M  V30 17580 C 1650.23 0.892434 2.62547 0
M  V30 17581 H 1653.18 0.930687 1.28545 0
M  V30 17582 H 1653.2 -0.100206 3.80368 0
M  V30 17583 H 1652.71 1.6974 3.49013 0
M  V30 17584 H 1650.81 -0.763373 3.64696 0
M  V30 17585 H 1650.92 0.780607 4.72698 0
M  V30 17586 H 1649.29 0.319218 2.52692 0
M  V30 17587 H 1650.07 1.9657 2.81452 0
M  V30 17588 N 1652.52 -1.50101 0.480349 0
M  V30 17589 C 1653.74 -2.07278 -0.0710872 0
M  V30 17590 C 1654.17 -1.34082 -1.31923 0
M  V30 17591 O 1653.52 -0.391251 -1.77028 0
M  V30 17592 C 1653.57 -3.59099 -0.328706 0
M  V30 17593 O 1652.68 -3.8764 -1.40745 0
M  V30 17594 H 1652.02 -0.66378 0.0170748 0
M  V30 17595 H 1654.55 -1.93178 0.674049 0
M  V30 17596 H 1654.56 -4.04049 -0.566435 0
M  V30 17597 H 1653.23 -4.11789 0.583316 0
M  V30 17598 H 1651.81 -3.54519 -1.15631 0
M  V30 17599 N 1653.99 -0.213323 -1.5615 0
M  V30 17600 C 1654.92 0.695003 -2.22917 0
M  V30 17601 C 1655.9 1.20738 -1.19818 0
M  V30 17602 O 1657.09 1.25289 -1.48379 0
M  V30 17603 C 1654.22 1.90685 -2.9027 0
M  V30 17604 C 1653.17 1.52865 -3.9977 0
M  V30 17605 C 1652.5 2.81859 -4.54378 0
M  V30 17606 C 1653.8 0.724829 -5.17246 0
M  V30 17607 H 1655.49 0.138351 -2.9908 0
M  V30 17608 H 1653.04 0.0651029 -1.43853 0
M  V30 17609 H 1654.99 2.54766 -3.35667 0
M  V30 17610 H 1653.72 2.48833 -2.11541 0
M  V30 17611 H 1652.38 0.911336 -3.55092 0
M  V30 17612 H 1652.02 3.38135 -3.72389 0
M  V30 17613 H 1651.72 2.57291 -5.28275 0
M  V30 17614 H 1653.25 3.46897 -5.02489 0
M  V30 17615 H 1654.66 1.26915 -5.59076 0
M  V30 17616 H 1653.06 0.57656 -5.97324 0
M  V30 17617 H 1654.13 -0.270309 -4.84146 0
M  V30 17618 N 1655.47 1.57485 0.0601405 0
M  V30 17619 C 1656.72 1.87445 0.755575 0
M  V30 17620 C 1657.04 0.806915 1.77522 0
M  V30 17621 O 1656.31 -0.163139 1.9522 0
M  V30 17622 H 1654.89 0.691708 0.282044 0
M  V30 17623 H 1657.55 1.94871 0.0334616 0
M  V30 17624 H 1656.65 2.85334 1.26455 0
M  V30 17625 N 1656.95 -0.331789 1.54068 0
M  V30 17626 C 1658.2 -1.07228 1.72134 0
M  V30 17627 C 1658.53 -1.87936 0.489265 0
M  V30 17628 O 1657.8 -1.87592 -0.513761 0
M  V30 17629 C 1658.09 -2.00379 2.99199 0
M  V30 17630 C 1657.94 -1.23056 4.3264 0
M  V30 17631 C 1659.26 -3.00026 3.21982 0
M  V30 17632 H 1656.38 -0.388428 0.626333 0
M  V30 17633 H 1659.02 -0.34971 1.86754 0
M  V30 17634 H 1657.17 -2.61993 2.86865 0
M  V30 17635 H 1658.84 -0.639661 4.56844 0
M  V30 17636 H 1657.09 -0.532717 4.30517 0
M  V30 17637 H 1657.76 -1.91411 5.17751 0
M  V30 17638 H 1660.23 -2.48531 3.33724 0
M  V30 17639 H 1659.11 -3.62395 4.12263 0
M  V30 17640 H 1659.37 -3.72041 2.38826 0
M  V30 17641 N 1658.43 -1.46001 -0.593424 0
M  V30 17642 C 1659.36 -1.58605 -1.71367 0
M  V30 17643 C 1660.34 -0.436866 -1.64394 0
M  V30 17644 O 1661.52 -0.661782 -1.82576 0
M  V30 17645 C 1658.65 -1.56587 -3.09996 0
M  V30 17646 C 1657.61 -2.70366 -3.31792 0
M  V30 17647 C 1656.93 -2.53406 -4.70839 0
M  V30 17648 C 1658.23 -4.12274 -3.20667 0
M  V30 17649 H 1659.93 -2.52379 -1.61076 0
M  V30 17650 H 1657.47 -1.21462 -0.773499 0
M  V30 17651 H 1659.43 -1.64 -3.88178 0
M  V30 17652 H 1658.15 -0.593511 -3.21162 0
M  V30 17653 H 1656.81 -2.62405 -2.56006 0
M  V30 17654 H 1656.46 -1.54278 -4.78756 0
M  V30 17655 H 1656.16 -3.29715 -4.86376 0
M  V30 17656 H 1657.68 -2.62694 -5.51203 0
M  V30 17657 H 1659.1 -4.21404 -3.88705 0
M  V30 17658 H 1657.49 -4.89085 -3.47729 0
M  V30 17659 H 1658.56 -4.33184 -2.17898 0
M  V30 17660 N 1659.91 0.83715 -1.33527 0
M  V30 17661 C 1661.15 1.59487 -1.25267 0
M  V30 17662 C 1661.49 1.93357 0.180741 0
M  V30 17663 O 1660.76 1.5884 1.12251 0
M  V30 17664 C 1661.04 2.90376 -2.12964 0
M  V30 17665 C 1660.9 2.63177 -3.64771 0
M  V30 17666 C 1662.22 3.9182 -2.00412 0
M  V30 17667 H 1659.33 0.578684 -0.456392 0
M  V30 17668 H 1661.98 0.965428 -1.63644 0
M  V30 17669 H 1660.13 3.44095 -1.80364 0
M  V30 17670 H 1661.8 2.15878 -4.0767 0
M  V30 17671 H 1660.04 1.96849 -3.86566 0
M  V30 17672 H 1660.71 3.56452 -4.21481 0
M  V30 17673 H 1663.19 3.47413 -2.29005 0
M  V30 17674 H 1662.06 4.81232 -2.64021 0
M  V30 17675 H 1662.33 4.31173 -0.976852 0
M  V30 17676 N 1661.38 1.17024 1.05561 0
M  V30 17677 C 1662.61 0.981293 1.82717 0
M  V30 17678 C 1663.03 -0.465636 1.82246 0
M  V30 17679 O 1662.39 -1.33315 1.22869 0
M  V30 17680 C 1662.44 1.52239 3.26888 0
M  V30 17681 O 1661.54 0.73366 4.05822 0
M  V30 17682 H 1660.89 0.348677 0.565084 0
M  V30 17683 H 1663.42 1.55435 1.33046 0
M  V30 17684 H 1663.43 1.54306 3.77695 0
M  V30 17685 H 1662.1 2.57567 3.26545 0
M  V30 17686 H 1660.68 0.784101 3.64563 0
M  V30 17687 N 1662.86 -1.24221 0.969889 0
M  V30 17688 C 1663.79 -2.27619 0.520745 0
M  V30 17689 C 1664.77 -1.64291 -0.440731 0
M  V30 17690 O 1665.96 -1.91265 -0.336381 0
M  V30 17691 C 1663.09 -3.46792 -0.187768 0
M  V30 17692 C 1662.04 -4.22402 0.689945 0
M  V30 17693 C 1661.37 -5.34489 -0.150186 0
M  V30 17694 C 1662.67 -4.83494 1.97562 0
M  V30 17695 H 1664.36 -2.65441 1.38498 0
M  V30 17696 H 1661.91 -1.276 0.667398 0
M  V30 17697 H 1663.86 -4.18263 -0.513216 0
M  V30 17698 H 1662.59 -3.08002 -1.08637 0
M  V30 17699 H 1661.24 -3.52734 0.998696 0
M  V30 17700 H 1660.89 -4.9194 -1.049 0
M  V30 17701 H 1660.59 -5.85996 0.433891 0
M  V30 17702 H 1662.12 -6.08786 -0.470255 0
M  V30 17703 H 1663.53 -5.47028 1.71561 0
M  V30 17704 H 1661.93 -5.45243 2.5066 0
M  V30 17705 H 1663 -4.04826 2.66915 0
M  V30 17706 N 1664.34 -0.740267 -1.39132 0
M  V30 17707 C 1665.27 -0.064087 -2.2911 0
M  V30 17708 C 1666.29 0.697897 -1.47082 0
M  V30 17709 O 1667.47 0.541189 -1.70098 0
M  V30 17710 C 1664.57 0.933426 -3.25792 0
M  V30 17711 C 1663.75 0.231867 -4.36785 0
M  V30 17712 C 1662.81 1.13823 -5.13742 0
M  V30 17713 O 1661.83 0.613741 -5.65881 0
M  V30 17714 N 1663.03 2.46751 -5.25447 0
M  V30 17715 H 1665.8 -0.836774 -2.87781 0
M  V30 17716 H 1663.36 -0.589928 -1.5077 0
M  V30 17717 H 1665.35 1.5425 -3.74151 0
M  V30 17718 H 1663.92 1.60728 -2.68114 0
M  V30 17719 H 1663.14 -0.557747 -3.90234 0
M  V30 17720 H 1664.43 -0.254115 -5.08165 0
M  V30 17721 H 1663.83 2.91834 -4.84613 0
M  V30 17722 H 1662.39 3.02741 -5.77227 0
M  V30 17723 N 1665.82 1.49844 -0.488302 0
M  V30 17724 C 1666.75 2.31737 0.286432 0
M  V30 17725 C 1667.73 1.39424 0.974418 0
M  V30 17726 O 1668.91 1.68339 0.968274 0
M  V30 17727 C 1666.04 3.19616 1.35878 0
M  V30 17728 C 1665 4.20619 0.791409 0
M  V30 17729 C 1664.32 4.9735 1.96333 0
M  V30 17730 C 1665.62 5.21882 -0.208975 0
M  V30 17731 H 1667.32 2.96755 -0.397092 0
M  V30 17732 H 1664.86 1.42709 -0.192413 0
M  V30 17733 H 1666.82 3.75711 1.90838 0
M  V30 17734 H 1665.54 2.52516 2.07131 0
M  V30 17735 H 1664.2 3.65651 0.263647 0
M  V30 17736 H 1663.85 4.26708 2.66325 0
M  V30 17737 H 1663.55 5.65684 1.58983 0
M  V30 17738 H 1665.07 5.56286 2.51751 0
M  V30 17739 H 1666.49 5.72746 0.252049 0
M  V30 17740 H 1664.88 5.98033 -0.497638 0
M  V30 17741 H 1665.95 4.7157 -1.12916 0
M  V30 17742 N 1667.3 0.221601 1.56034 0
M  V30 17743 C 1668.23 -0.683171 2.23282 0
M  V30 17744 C 1669.21 -1.20101 1.20456 0
M  V30 17745 O 1670.39 -1.245 1.49041 0
M  V30 17746 C 1667.52 -1.89143 2.91277 0
M  V30 17747 C 1666.48 -1.50742 4.00576 0
M  V30 17748 C 1665.8 -2.79446 4.55867 0
M  V30 17749 C 1667.1 -0.697388 5.17623 0
M  V30 17750 H 1668.8 -0.122488 2.99149 0
M  V30 17751 H 1666.34 -0.0574732 1.43885 0
M  V30 17752 H 1668.3 -2.52982 3.37013 0
M  V30 17753 H 1667.02 -2.47708 2.12858 0
M  V30 17754 H 1665.68 -0.892492 3.5557 0
M  V30 17755 H 1665.33 -3.36155 3.74177 0
M  V30 17756 H 1665.03 -2.54486 5.29633 0
M  V30 17757 H 1666.55 -3.44228 5.04321 0
M  V30 17758 H 1667.96 -1.23948 5.59741 0
M  V30 17759 H 1666.36 -0.544875 5.97621 0
M  V30 17760 H 1667.43 0.295981 4.83996 0
M  V30 17761 N 1668.77 -1.57515 -0.0517878 0
M  V30 17762 C 1669.7 -2.0809 -1.05929 0
M  V30 17763 C 1670.69 -0.978529 -1.39136 0
M  V30 17764 O 1671.87 -1.25245 -1.48416 0
M  V30 17765 C 1669 -2.54147 -2.36699 0
M  V30 17766 C 1667.95 -3.68442 -2.17794 0
M  V30 17767 C 1667.28 -4.00624 -3.54125 0
M  V30 17768 C 1668.58 -4.97743 -1.5827 0
M  V30 17769 H 1670.27 -2.92515 -0.638371 0
M  V30 17770 H 1667.82 -1.40719 -0.305625 0
M  V30 17771 H 1669.77 -2.88145 -3.07491 0
M  V30 17772 H 1668.5 -1.66775 -2.80809 0
M  V30 17773 H 1667.16 -3.34758 -1.4944 0
M  V30 17774 H 1666.8 -3.10353 -3.95841 0
M  V30 17775 H 1666.5 -4.77597 -3.42308 0
M  V30 17776 H 1668.03 -4.37136 -4.26315 0
M  V30 17777 H 1669.44 -5.29843 -2.18951 0
M  V30 17778 H 1667.84 -5.79173 -1.57094 0
M  V30 17779 H 1668.91 -4.81815 -0.546127 0
M  V30 17780 N 1670.25 0.323614 -1.54242 0
M  V30 17781 C 1671.18 1.40344 -1.86616 0
M  V30 17782 C 1672.16 1.53972 -0.722963 0
M  V30 17783 O 1673.35 1.67852 -0.976692 0
M  V30 17784 C 1670.48 2.77112 -2.09347 0
M  V30 17785 C 1669.43 2.78273 -3.25189 0
M  V30 17786 C 1668.76 4.18116 -3.33291 0
M  V30 17787 C 1670.06 2.42025 -4.6284 0
M  V30 17788 H 1671.75 1.13499 -2.77053 0
M  V30 17789 H 1669.3 0.544553 -1.33306 0
M  V30 17790 H 1671.25 3.52719 -2.3058 0
M  V30 17791 H 1669.98 3.05435 -1.1566 0
M  V30 17792 H 1668.64 2.05121 -3.03844 0
M  V30 17793 H 1668.28 4.4358 -2.37163 0
M  V30 17794 H 1667.98 4.19799 -4.11147 0
M  V30 17795 H 1669.51 4.95536 -3.56758 0
M  V30 17796 H 1670.92 3.07346 -4.83954 0
M  V30 17797 H 1669.32 2.5496 -5.43245 0
M  V30 17798 H 1670.39 1.37175 -4.65092 0
M  V30 17799 N 1671.73 1.46313 0.585673 0
M  V30 17800 C 1672.66 1.59511 1.70524 0
M  V30 17801 C 1673.64 0.445578 1.6416 0
M  V30 17802 O 1674.83 0.671455 1.82223 0
M  V30 17803 C 1671.96 1.58229 3.09162 0
M  V30 17804 C 1670.91 2.72122 3.30354 0
M  V30 17805 C 1670.24 2.559 4.69489 0
M  V30 17806 C 1671.54 4.13969 3.18476 0
M  V30 17807 H 1673.23 2.53229 1.59735 0
M  V30 17808 H 1670.78 1.2187 0.767046 0
M  V30 17809 H 1672.73 1.66056 3.87303 0
M  V30 17810 H 1671.45 0.610535 3.20843 0
M  V30 17811 H 1670.11 2.63759 2.54611 0
M  V30 17812 H 1669.76 1.56814 4.77931 0
M  V30 17813 H 1669.46 3.32289 4.84621 0
M  V30 17814 H 1670.99 2.65613 5.49802 0
M  V30 17815 H 1672.4 4.23459 3.86465 0
M  V30 17816 H 1670.8 4.90922 3.45131 0
M  V30 17817 H 1671.87 4.34334 2.15598 0
M  V30 17818 N 1673.21 -0.830057 1.33969 0
M  V30 17819 C 1674.46 -1.58272 1.25675 0
M  V30 17820 C 1674.78 -1.94213 -0.175071 0
M  V30 17821 O 1674.05 -1.61694 -1.10597 0
M  V30 17822 H 1672.63 -0.586858 0.462176 0
M  V30 17823 H 1675.29 -0.991495 1.67796 0
M  V30 17824 H 1674.39 -2.50874 1.85658 0
M  V30 17825 N 1674.69 -1.17582 -1.04939 0
M  V30 17826 C 1675.62 -0.918221 -2.14688 0
M  V30 17827 C 1676.6 0.140757 -1.69517 0
M  V30 17828 O 1677.78 -0.0100118 -1.94197 0
M  V30 17829 C 1674.91 -0.433531 -3.44584 0
M  V30 17830 C 1673.87 -1.43199 -4.03334 0
M  V30 17831 C 1673.19 -0.805154 -5.28603 0
M  V30 17832 C 1674.49 -2.80598 -4.40525 0
M  V30 17833 H 1676.19 -1.83604 -2.36495 0
M  V30 17834 H 1673.73 -0.884202 -1.13657 0
M  V30 17835 H 1675.69 -0.240722 -4.20712 0
M  V30 17836 H 1674.41 0.519832 -3.22437 0
M  V30 17837 H 1673.07 -1.61158 -3.29277 0
M  V30 17838 H 1672.72 0.155124 -5.02761 0
M  V30 17839 H 1672.42 -1.4717 -5.68871 0
M  V30 17840 H 1673.94 -0.622677 -6.07417 0
M  V30 17841 H 1675.36 -2.66341 -5.07676 0
M  V30 17842 H 1673.75 -3.43854 -4.91817 0
M  V30 17843 H 1674.82 -3.34815 -3.50752 0
M  V30 17844 N 1676.17 1.23705 -0.976463 0
M  V30 17845 C 1677.58 1.73848 -0.680723 0
M  V30 17846 C 1677.93 1.79005 0.803228 0
M  V30 17847 O 1677.05 1.42529 1.62832 0
M  V30 17848 C 1677.65 3.15724 -1.22898 0
M  V30 17849 C 1676.21 3.63338 -0.982963 0
M  V30 17850 C 1675.35 2.41712 -1.35906 0
M  V30 17851 H 1678.3 1.09284 -1.15077 0
M  V30 17852 H 1678.33 3.75748 -0.599487 0
M  V30 17853 H 1677.84 3.11938 -2.30903 0
M  V30 17854 H 1675.94 3.72512 0.0811766 0
M  V30 17855 H 1676.05 4.50347 -1.63477 0
M  V30 17856 H 1674.42 2.42543 -0.777498 0
M  V30 17857 H 1675.2 2.40601 -2.4488 0
M  V30 17858 N 1677.64 0.747635 1.38738 0
M  V30 17859 C 1679.05 0.369576 1.83006 0
M  V30 17860 C 1679.41 -1.10091 1.62402 0
M  V30 17861 O 1678.53 -1.85042 1.12198 0
M  V30 17862 C 1679.13 0.664018 3.32229 0
M  V30 17863 C 1677.68 0.339308 3.74868 0
M  V30 17864 C 1676.83 0.920231 2.61586 0
M  V30 17865 H 1679.78 0.944268 1.27551 0
M  V30 17866 H 1679.8 -0.0598575 3.80453 0
M  V30 17867 H 1679.32 1.73432 3.47193 0
M  V30 17868 H 1677.42 -0.724649 3.65485 0
M  V30 17869 H 1677.53 0.830699 4.71843 0
M  V30 17870 H 1675.89 0.346002 2.52339 0
M  V30 17871 H 1676.68 1.99544 2.79351 0
M  V30 17872 N 1679.12 -1.49583 0.496242 0
M  V30 17873 C 1680.54 -1.58875 0.151907 0
M  V30 17874 C 1680.74 -1.50196 -1.34326 0
M  V30 17875 O 1679.79 -1.37344 -2.11879 0
M  V30 17876 C 1681.11 -2.91842 0.724478 0
M  V30 17877 C 1682.65 -3.05296 0.690157 0
M  V30 17878 C 1683.13 -4.40875 1.24071 0
M  V30 17879 N 1684.62 -4.47354 1.2012 0
M  V30 17880 C 1685.36 -5.50699 1.59743 0
M  V30 17881 N 1684.85 -6.61173 2.06936 0
M  V30 17882 N 1686.64 -5.41386 1.51189 0
M  V30 17883 H 1678.8 -1.53468 1.46838 0
M  V30 17884 H 1681.06 -0.726702 0.608776 0
M  V30 17885 H 1680.76 -3.03747 1.77287 0
M  V30 17886 H 1680.64 -3.7676 0.182209 0
M  V30 17887 H 1683.03 -2.93024 -0.34939 0
M  V30 17888 H 1683.11 -2.22074 1.26952 0
M  V30 17889 H 1682.75 -4.53898 2.27901 0
M  V30 17890 H 1682.68 -5.22729 0.637328 0
M  V30 17891 H 1685.17 -3.68092 0.855361 0
M  V30 17892 H 1685.48 -7.36122 2.35252 0
M  V30 17893 H 1683.83 -6.62226 2.10906 0
M  V30 17894 H 1687.02 -4.53971 1.14142 0
M  V30 17895 H 1687.19 -6.21802 1.82392 0
M  V30 17896 N 1680.6 -0.229873 -1.55915 0
M  V30 17897 C 1682.01 0.276452 -1.84642 0
M  V30 17898 C 1682.36 1.58861 -1.15142 0
M  V30 17899 O 1681.49 2.12207 -0.423932 0
M  V30 17900 C 1682.08 0.508371 -3.34964 0
M  V30 17901 C 1680.64 0.958989 -3.63979 0
M  V30 17902 C 1679.79 0.0266738 -2.77287 0
M  V30 17903 H 1682.74 -0.452864 -1.52101 0
M  V30 17904 H 1682.76 1.35328 -3.55621 0
M  V30 17905 H 1682.27 -0.4468 -3.8552 0
M  V30 17906 H 1680.37 1.92722 -3.18887 0
M  V30 17907 H 1680.49 0.827637 -4.71897 0
M  V30 17908 H 1678.85 0.53498 -2.49018 0
M  V30 17909 H 1679.63 -0.923563 -3.30644 0
M  V30 17910 N 1682.08 1.5754 0.0434337 0
M  V30 17911 C 1683.01 2.02385 1.07577 0
M  V30 17912 C 1684.02 0.934273 1.33324 0
M  V30 17913 O 1685.21 1.2118 1.31064 0
M  V30 17914 C 1682.31 2.3719 2.42062 0
M  V30 17915 C 1681.48 3.68351 2.35874 0
M  V30 17916 C 1680.54 3.90506 3.52692 0
M  V30 17917 O 1679.57 4.61746 3.32836 0
M  V30 17918 N 1680.77 3.35035 4.74059 0
M  V30 17919 H 1683.54 2.91563 0.693641 0
M  V30 17920 H 1681.1 1.60234 0.231631 0
M  V30 17921 H 1683.09 2.49161 3.18906 0
M  V30 17922 H 1681.66 1.53758 2.72171 0
M  V30 17923 H 1680.88 3.66869 1.44224 0
M  V30 17924 H 1682.17 4.54419 2.28868 0
M  V30 17925 H 1681.57 2.77264 4.93094 0
M  V30 17926 H 1680.12 3.52409 5.48317 0
M  V30 17927 N 1683.56 -0.31543 1.54411 0
M  V30 17928 C 1684.97 -0.889358 1.64156 0
M  V30 17929 C 1685.32 -1.88598 0.54087 0
M  V30 17930 O 1684.44 -2.13947 -0.324904 0
M  V30 17931 C 1685.04 -1.61985 2.97567 0
M  V30 17932 C 1683.6 -2.14239 3.09481 0
M  V30 17933 C 1682.74 -0.970382 2.59767 0
M  V30 17934 H 1685.69 -0.092797 1.58428 0
M  V30 17935 H 1685.72 -2.48457 2.88183 0
M  V30 17936 H 1685.23 -0.89425 3.77657 0
M  V30 17937 H 1683.33 -2.8989 2.34082 0
M  V30 17938 H 1683.44 -2.38681 4.15413 0
M  V30 17939 H 1681.81 -1.35187 2.15863 0
M  V30 17940 H 1682.59 -0.258968 3.42322 0
M  V30 17941 N 1685.03 -1.46622 -0.577906 0
M  V30 17942 C 1685.97 -1.53587 -1.70128 0
M  V30 17943 C 1686.98 -0.423789 -1.57187 0
M  V30 17944 O 1688.17 -0.692392 -1.64524 0
M  V30 17945 C 1685.27 -1.40459 -3.08422 0
M  V30 17946 C 1684.44 -2.65872 -3.47319 0
M  V30 17947 C 1683.5 -2.46875 -4.64693 0
M  V30 17948 O 1682.53 -3.20617 -4.70312 0
M  V30 17949 N 1683.73 -1.53352 -5.59878 0
M  V30 17950 H 1686.49 -2.50449 -1.64606 0
M  V30 17951 H 1684.05 -1.42739 -0.764014 0
M  V30 17952 H 1686.05 -1.25516 -3.84744 0
M  V30 17953 H 1684.62 -0.517603 -3.08285 0
M  V30 17954 H 1683.84 -2.95724 -2.60655 0
M  V30 17955 H 1685.12 -3.49173 -3.70075 0
M  V30 17956 H 1684.52 -0.925526 -5.58078 0
M  V30 17957 H 1683.08 -1.4437 -6.3561 0
M  V30 17958 N 1686.51 0.822941 -1.34408 0
M  V30 17959 C 1687.76 1.58149 -1.26951 0
M  V30 17960 C 1688.09 1.93538 0.160222 0
M  V30 17961 O 1687.37 1.60021 1.1056 0
M  V30 17962 C 1687.65 2.88101 -2.16032 0
M  V30 17963 C 1687.5 2.59293 -3.67542 0
M  V30 17964 C 1688.82 3.89673 -2.04556 0
M  V30 17965 H 1685.94 0.573811 -0.462504 0
M  V30 17966 H 1688.58 0.948017 -1.64659 0
M  V30 17967 H 1686.73 3.42162 -1.84003 0
M  V30 17968 H 1688.4 2.11542 -4.09936 0
M  V30 17969 H 1686.65 1.92738 -3.88632 0
M  V30 17970 H 1687.32 3.51962 -4.25238 0
M  V30 17971 H 1689.79 3.44965 -2.32677 0
M  V30 17972 H 1688.67 4.78404 -2.69111 0
M  V30 17973 H 1688.93 4.30113 -1.02253 0
M  V30 17974 N 1687.99 1.18137 1.04314 0
M  V30 17975 C 1688.92 0.929593 2.14198 0
M  V30 17976 C 1689.9 -0.131766 1.69589 0
M  V30 17977 O 1691.09 0.0203104 1.94189 0
M  V30 17978 C 1688.22 0.451799 3.44349 0
M  V30 17979 C 1687.17 1.45336 4.02569 0
M  V30 17980 C 1686.5 0.833176 5.28169 0
M  V30 17981 C 1687.8 2.8293 4.39031 0
M  V30 17982 H 1689.49 1.84856 2.35518 0
M  V30 17983 H 1687.04 0.890217 1.13186 0
M  V30 17984 H 1688.99 0.26303 4.20578 0
M  V30 17985 H 1687.71 -0.502725 3.22708 0
M  V30 17986 H 1686.37 1.62902 3.28418 0
M  V30 17987 H 1686.02 -0.128459 5.02836 0
M  V30 17988 H 1685.72 1.50185 5.68083 0
M  V30 17989 H 1687.24 0.654881 6.07078 0
M  V30 17990 H 1688.66 2.6903 5.06257 0
M  V30 17991 H 1687.06 3.46458 4.89987 0
M  V30 17992 H 1688.13 3.3667 3.48972 0
M  V30 17993 N 1689.47 -1.23186 0.98301 0
M  V30 17994 C 1690.71 -1.91955 0.65431 0
M  V30 17995 C 1691.05 -1.76482 -0.810419 0
M  V30 17996 O 1690.32 -1.12744 -1.5849 0
M  V30 17997 C 1690.61 -3.4449 1.04873 0
M  V30 17998 C 1690.46 -3.6906 2.57128 0
M  V30 17999 C 1691.78 -4.36065 0.594578 0
M  V30 18000 H 1688.9 -0.69711 0.239179 0
M  V30 18001 H 1691.54 -1.45257 1.22476 0
M  V30 18002 H 1689.69 -3.84394 0.563333 0
M  V30 18003 H 1691.36 -3.38622 3.13262 0
M  V30 18004 H 1689.6 -3.13681 2.99644 0
M  V30 18005 H 1690.27 -4.75846 2.79776 0
M  V30 18006 H 1692.75 -4.03622 1.01136 0
M  V30 18007 H 1691.63 -5.41489 0.898955 0
M  V30 18008 H 1691.89 -4.39206 -0.505033 0
M  V30 18009 N 1690.95 -0.754982 -1.38339 0
M  V30 18010 C 1691.9 -0.103867 -2.27763 0
M  V30 18011 C 1692.88 0.691777 -1.4527 0
M  V30 18012 O 1694.07 0.557503 -1.67991 0
M  V30 18013 C 1691.2 0.787421 -3.34148 0
M  V30 18014 C 1690.29 -0.0151461 -4.24097 0
M  V30 18015 N 1690.68 -1.05227 -4.94733 0
M  V30 18016 C 1688.98 0.211452 -4.45498 0
M  V30 18017 C 1689.68 -1.53796 -5.61001 0
M  V30 18018 N 1688.65 -0.853018 -5.36866 0
M  V30 18019 H 1692.46 -0.898166 -2.7984 0
M  V30 18020 H 1689.97 -0.591155 -1.51258 0
M  V30 18021 H 1691.97 1.26952 -3.971 0
M  V30 18022 H 1690.63 1.58066 -2.83629 0
M  V30 18023 H 1691.64 -1.43409 -4.97649 0
M  V30 18024 H 1688.31 0.977919 -4.05885 0
M  V30 18025 H 1689.7 -2.40193 -6.27501 0
M  V30 18026 N 1692.42 1.49318 -0.504168 0
M  V30 18027 C 1693.39 2.27703 0.26157 0
M  V30 18028 C 1694.39 1.3385 0.891114 0
M  V30 18029 O 1695.58 1.56981 0.755156 0
M  V30 18030 C 1692.71 3.11912 1.37564 0
M  V30 18031 H 1693.9 2.96855 -0.426292 0
M  V30 18032 H 1691.46 1.54135 -0.259236 0
M  V30 18033 H 1692.19 2.47332 2.09755 0
M  V30 18034 H 1691.98 3.8092 0.929641 0
M  V30 18035 H 1693.47 3.71106 1.91494 0
M  V30 18036 N 1693.9 0.238138 1.5579 0
M  V30 18037 C 1695.13 -0.396409 2.03576 0
M  V30 18038 C 1695.55 -1.5138 1.11649 0
M  V30 18039 O 1694.91 -1.80979 0.107774 0
M  V30 18040 C 1694.96 -0.889749 3.49451 0
M  V30 18041 O 1694.06 -1.99997 3.60659 0
M  V30 18042 H 1693.4 -0.0876017 0.658196 0
M  V30 18043 H 1695.93 0.361632 2.01379 0
M  V30 18044 H 1695.94 -1.19526 3.901 0
M  V30 18045 H 1694.62 -0.0720136 4.15838 0
M  V30 18046 H 1693.2 -1.69983 3.31904 0
M  V30 18047 N 1695.38 -1.57561 -0.0350783 0
M  V30 18048 C 1696.8 -1.54746 -0.390618 0
M  V30 18049 C 1697 -0.963454 -1.76974 0
M  V30 18050 O 1696.05 -0.581878 -2.45704 0
M  V30 18051 C 1697.37 -2.9922 -0.297984 0
M  V30 18052 C 1698.91 -3.10739 -0.375506 0
M  V30 18053 C 1699.39 -4.56933 -0.312387 0
M  V30 18054 N 1700.88 -4.61709 -0.371364 0
M  V30 18055 C 1701.61 -5.72359 -0.34532 0
M  V30 18056 N 1701.11 -6.92266 -0.271921 0
M  V30 18057 N 1702.9 -5.60713 -0.394605 0
M  V30 18058 H 1695.05 -1.93876 0.867519 0
M  V30 18059 H 1697.32 -0.888974 0.329285 0
M  V30 18060 H 1697.02 -3.45651 0.649499 0
M  V30 18061 H 1696.9 -3.60987 -1.094 0
M  V30 18062 H 1699.28 -2.6426 -1.31342 0
M  V30 18063 H 1699.37 -2.51815 0.449752 0
M  V30 18064 H 1699.01 -5.04079 0.621834 0
M  V30 18065 H 1698.94 -5.13762 -1.15567 0
M  V30 18066 H 1701.43 -3.75436 -0.430848 0
M  V30 18067 H 1701.74 -7.72373 -0.256983 0
M  V30 18068 H 1700.09 -6.94592 -0.238058 0
M  V30 18069 H 1703.28 -4.65933 -0.449896 0
M  V30 18070 H 1703.45 -6.46938 -0.37084 0
M  V30 18071 N 1696.86 0.307236 -1.54576 0
M  V30 18072 C 1698.27 0.652539 -1.45651 0
M  V30 18073 C 1698.47 1.90978 -0.64263 0
M  V30 18074 O 1697.53 2.52067 -0.147863 0
M  V30 18075 C 1698.84 0.811341 -2.89547 0
M  V30 18076 C 1700.39 0.90763 -2.99551 0
M  V30 18077 C 1700.87 1.09848 -4.44632 0
M  V30 18078 N 1702.36 1.16483 -4.48315 0
M  V30 18079 C 1703.09 1.33068 -5.57746 0
M  V30 18080 N 1702.59 1.46591 -6.77114 0
M  V30 18081 N 1704.38 1.35906 -5.45423 0
M  V30 18082 H 1696.53 -0.518891 -2.05964 0
M  V30 18083 H 1698.8 -0.170463 -0.932548 0
M  V30 18084 H 1698.5 -0.0414879 -3.51676 0
M  V30 18085 H 1698.38 1.70224 -3.36606 0
M  V30 18086 H 1700.76 1.75095 -2.37541 0
M  V30 18087 H 1700.84 -0.00715386 -2.55799 0
M  V30 18088 H 1700.49 0.259948 -5.07234 0
M  V30 18089 H 1700.42 2.02739 -4.86009 0
M  V30 18090 H 1702.91 1.07411 -3.62314 0
M  V30 18091 H 1703.22 1.58983 -7.5627 0
M  V30 18092 H 1701.57 1.43658 -6.79991 0
M  V30 18093 H 1704.76 1.24949 -4.51116 0
M  V30 18094 H 1704.93 1.48489 -6.30758 0
M  V30 18095 N 1698.34 1.46926 0.570122 0
M  V30 18096 C 1699.27 1.61311 1.68822 0
M  V30 18097 C 1700.25 0.462964 1.63678 0
M  V30 18098 O 1701.43 0.690745 1.815 0
M  V30 18099 C 1698.56 1.61499 3.07466 0
M  V30 18100 C 1697.52 2.7561 3.27449 0
M  V30 18101 C 1696.84 2.60865 4.66748 0
M  V30 18102 C 1698.14 4.17324 3.14067 0
M  V30 18103 H 1699.84 2.54909 1.5704 0
M  V30 18104 H 1697.38 1.22677 0.754077 0
M  V30 18105 H 1699.34 1.70155 3.8552 0
M  V30 18106 H 1698.06 0.64453 3.20177 0
M  V30 18107 H 1696.72 2.66444 2.51799 0
M  V30 18108 H 1696.37 1.61875 4.76241 0
M  V30 18109 H 1696.07 3.37411 4.81069 0
M  V30 18110 H 1697.59 2.7143 5.46954 0
M  V30 18111 H 1699 4.27534 3.81952 0
M  V30 18112 H 1697.4 4.94555 3.39905 0
M  V30 18113 H 1698.47 4.36596 2.10979 0
M  V30 18114 O 1699.85 -0.714588 1.44831 0
M  V30 18115 H 1700.54 -1.36549 1.37383 0
M  V30 END ATOM
M  V30 BEGIN BOND
M  V30 END BOND
M  V30 END CTAB
M  END
$$$$
