drugbank_target|P0AFL3 Peptidyl-prolyl cis-trans isomerase A (DB08168)
 OpenBabel12092120483D

  0  0  0     0  0            999 V3000
M  V30 BEGIN CTAB
M  V30 COUNTS 2872 2903 0 0 0
M  V30 BEGIN ATOM
M  V30 1 H -0.908 1.98254 -0.117106 0
M  V30 2 N 0 1.576 0 0
M  V30 3 C 0.933 2.03868 1.02534 0
M  V30 4 C 1.911 0.928543 1.3348 0
M  V30 5 O 3.095 1.19667 1.45644 0
M  V30 6 C 0.222 2.43627 2.35294 0
M  V30 7 C -0.732 3.65373 2.2001 0
M  V30 8 S 0.101 5.13292 1.52614 0
M  V30 9 C 1.257 5.56322 2.86805 0
M  V30 10 H 1.49 2.90518 0.631377 0
M  V30 11 H -0.977 1.52953 0.210867 0
M  V30 12 H 0.981 2.67203 3.11629 0
M  V30 13 H -0.358 1.57376 2.7183 0
M  V30 14 H -1.165 3.90944 3.18086 0
M  V30 15 H -1.563 3.418 1.51819 0
M  V30 16 H 0.729 5.58782 3.83104 0
M  V30 17 H 1.672 6.56266 2.65933 0
M  V30 18 H 2.08 4.83886 2.90714 0
M  V30 19 N 1.4781 -0.272755 1.55222 0
M  V30 20 C 2.7251 -1.00433 1.7584 0
M  V30 21 C 3.0531 -1.86275 0.559629 0
M  V30 22 O 2.3081 -1.90269 -0.457857 0
M  V30 23 C 2.6071 -1.91642 3.01675 0
M  V30 24 C 2.2731 -1.21548 4.34208 0
M  V30 25 C 0.9351 -1.02166 4.70229 0
M  V30 26 C 3.2871 -0.716684 5.16249 0
M  V30 27 C 0.6151 -0.316334 5.85847 0
M  V30 28 C 2.9671 -0.0249476 6.32595 0
M  V30 29 C 1.6311 0.180579 6.67256 0
M  V30 30 H 0.9011 -0.367509 0.643443 0
M  V30 31 H 3.5481 -0.276596 1.89492 0
M  V30 32 H 1.8531 -2.71037 2.82924 0
M  V30 33 H 3.5501 -2.48369 3.14824 0
M  V30 34 H 0.1401 -1.37645 4.05896 0
M  V30 35 H 4.3241 -0.854047 4.88896 0
M  V30 36 H -0.4199 -0.146378 6.11225 0
M  V30 37 H 3.7541 0.369311 6.9542 0
M  V30 38 H 1.3811 0.729098 7.56696 0
M  V30 39 N 2.9562 -1.48159 -0.537278 0
M  V30 40 C 3.9032 -1.62138 -1.64256 0
M  V30 41 C 4.8732 -0.463668 -1.59497 0
M  V30 42 O 6.0582 -0.686241 -1.78032 0
M  V30 43 C 3.1982 -1.66028 -3.02537 0
M  V30 44 C 2.3112 -2.92855 -3.17585 0
M  V30 45 C 1.4462 -2.87952 -4.46382 0
M  V30 46 C 0.4852 -4.09516 -4.54932 0
M  V30 47 N -0.3778 -4.02733 -5.75109 0
M  V30 48 H 4.4622 -2.56529 -1.51647 0
M  V30 49 H 1.9992 -1.27224 -0.738414 0
M  V30 50 H 3.9572 -1.66265 -3.82638 0
M  V30 51 H 2.5872 -0.751331 -3.13934 0
M  V30 52 H 1.6392 -3.02395 -2.30784 0
M  V30 53 H 2.9512 -3.82822 -3.19764 0
M  V30 54 H 2.1052 -2.8655 -5.34765 0
M  V30 55 H 0.8442 -1.95702 -4.46712 0
M  V30 56 H -0.1508 -4.11201 -3.64957 0
M  V30 57 H 1.0742 -5.02917 -4.56346 0
M  V30 58 H -0.9798 -3.13299 -5.76351 0
M  V30 59 H -1.0628 -4.86397 -5.78752 0
M  V30 60 H 0.2052 -4.05379 -6.65799 0
M  V30 61 N 4.4343 0.785586 -1.36625 0
M  V30 62 C 5.6593 1.57963 -1.34397 0
M  V30 63 C 6.0843 1.87964 0.071526 0
M  V30 64 O 5.4423 1.48182 1.0446 0
M  V30 65 C 5.4903 2.87511 -2.17646 0
M  V30 66 O 4.5943 3.81281 -1.57158 0
M  V30 67 H 3.9353 0.479014 -0.459828 0
M  V30 68 H 6.4653 0.973411 -1.79961 0
M  V30 69 H 6.4753 3.36745 -2.30362 0
M  V30 70 H 5.1503 2.65002 -3.20541 0
M  V30 71 H 3.7273 3.39885 -1.53403 0
M  V30 72 N 5.9124 1.20967 1.01018 0
M  V30 73 C 7.1404 1.04956 1.78303 0
M  V30 74 C 7.5554 -0.400915 1.84494 0
M  V30 75 O 6.9124 -1.27826 1.30257 0
M  V30 76 C 6.9634 1.63403 3.22462 0
M  V30 77 O 6.6844 3.02775 3.16637 0
M  V30 78 C 8.1854 1.52432 4.16268 0
M  V30 79 H 5.4054 0.368858 0.560522 0
M  V30 80 H 7.9494 1.60193 1.27116 0
M  V30 81 H 6.1044 1.1227 3.70775 0
M  V30 82 H 6.5184 3.30626 4.07169 0
M  V30 83 H 7.9924 1.98078 5.15237 0
M  V30 84 H 8.4694 0.477875 4.36592 0
M  V30 85 H 9.0754 2.02787 3.73841 0
M  V30 86 N 7.3905 -1.2043 1.01659 0
M  V30 87 C 8.3205 -2.25466 0.607226 0
M  V30 88 C 9.3015 -1.65853 -0.377716 0
M  V30 89 O 10.4865 -1.92409 -0.263149 0
M  V30 90 C 7.6165 -3.47256 -0.0552949 0
M  V30 91 C 6.5705 -4.19462 0.850632 0
M  V30 92 C 5.8965 -5.34673 0.0538859 0
M  V30 93 C 7.1965 -4.75603 2.15868 0
M  V30 94 H 8.8905 -2.59962 1.48526 0
M  V30 95 H 6.4365 -1.2496 0.715605 0
M  V30 96 H 8.3895 -4.19917 -0.353233 0
M  V30 97 H 7.1135 -3.11924 -0.968045 0
M  V30 98 H 5.7725 -3.48667 1.13257 0
M  V30 99 H 5.4205 -4.95585 -0.860514 0
M  V30 100 H 5.1205 -5.83913 0.657192 0
M  V30 101 H 6.6445 -6.10138 -0.237598 0
M  V30 102 H 8.0585 -5.40083 1.92311 0
M  V30 103 H 6.4555 -5.3528 2.71284 0
M  V30 104 H 7.5255 -3.94346 2.82169 0
M  V30 105 N 8.8686 -0.792821 -1.36206 0
M  V30 106 C 9.8316 -0.199459 -2.2833 0
M  V30 107 C 10.8316 0.605189 -1.48977 0
M  V30 108 O 12.0216 0.425685 -1.68919 0
M  V30 109 C 9.1536 0.723523 -3.33134 0
M  V30 110 H 10.3466 -1.01181 -2.82316 0
M  V30 111 H 7.8996 -0.562485 -1.45828 0
M  V30 112 H 8.6346 1.56008 -2.84309 0
M  V30 113 H 8.4196 0.148436 -3.91819 0
M  V30 114 H 9.9096 1.13344 -4.01924 0
M  V30 115 N 10.3467 1.47872 -0.545128 0
M  V30 116 C 11.3097 2.28337 0.198717 0
M  V30 117 C 12.3097 1.36255 0.853888 0
M  V30 118 O 13.4997 1.59003 0.711606 0
M  V30 119 C 10.6317 3.15585 1.28915 0
M  V30 120 H 11.8247 2.95567 -0.507941 0
M  V30 121 H 9.3777 1.53362 -0.301616 0
M  V30 122 H 10.1127 2.53019 2.02859 0
M  V30 123 H 9.8977 3.83337 0.824309 0
M  V30 124 H 11.3877 3.76243 1.81194 0
M  V30 125 N 11.8248 0.280983 1.55075 0
M  V30 126 C 12.7578 -0.645439 2.18882 0
M  V30 127 C 13.7358 -1.14786 1.15165 0
M  V30 128 O 14.9198 -1.21975 1.43716 0
M  V30 129 C 12.0468 -1.88088 2.81674 0
M  V30 130 C 11.0928 -1.51343 3.98745 0
M  V30 131 S 11.9258 -0.586548 5.32278 0
M  V30 132 C 13.0818 -1.83024 5.98543 0
M  V30 133 H 13.3148 -0.1033 2.9712 0
M  V30 134 H 10.8478 0.0652099 1.54262 0
M  V30 135 H 12.8058 -2.58997 3.18482 0
M  V30 136 H 11.4668 -2.39417 2.03318 0
M  V30 137 H 10.6598 -2.43289 4.41392 0
M  V30 138 H 10.2618 -0.884477 3.63391 0
M  V30 139 H 12.5538 -2.77342 6.18133 0
M  V30 140 H 13.4968 -1.44668 6.93164 0
M  V30 141 H 13.9048 -1.99785 5.27964 0
M  V30 142 N 13.3029 -1.57598 0.00835791 0
M  V30 143 C 14.2659 -2.07884 -0.965242 0
M  V30 144 C 15.2659 -0.989825 -1.26725 0
M  V30 145 O 16.4559 -1.25218 -1.21104 0
M  V30 146 C 13.5879 -2.52731 -2.28779 0
M  V30 147 H 14.7809 -2.95178 -0.530112 0
M  V30 148 H 12.3339 -1.54458 -0.239283 0
M  V30 149 H 13.0689 -1.68705 -2.76964 0
M  V30 150 H 12.8539 -3.32272 -2.08177 0
M  V30 151 H 14.3439 -2.91933 -2.98605 0
M  V30 152 N 14.781 0.264519 -1.55364 0
M  V30 153 C 15.744 1.31046 -1.88042 0
M  V30 154 C 16.744 1.41943 -0.755569 0
M  V30 155 O 17.934 1.40947 -1.02369 0
M  V30 156 C 15.066 2.69067 -2.09323 0
M  V30 157 H 16.259 1.03297 -2.81549 0
M  V30 158 H 13.812 0.502989 -1.47986 0
M  V30 159 H 14.547 3.01982 -1.18226 0
M  V30 160 H 14.332 2.62542 -2.91229 0
M  V30 161 H 15.822 3.44623 -2.35848 0
M  V30 162 N 16.2591 1.48442 0.529413 0
M  V30 163 C 17.5051 1.5672 1.28711 0
M  V30 164 C 17.8381 0.2406 1.92704 0
M  V30 165 O 17.1131 -0.753454 1.79313 0
M  V30 166 C 17.3961 2.70587 2.37603 0
M  V30 167 C 17.2491 4.12953 1.78297 0
M  V30 168 C 18.5681 2.80212 3.39366 0
M  V30 169 H 15.6871 0.570474 0.466613 0
M  V30 170 H 18.3291 1.80617 0.589706 0
M  V30 171 H 16.4791 2.50342 2.97088 0
M  V30 172 H 18.1511 4.44639 1.22858 0
M  V30 173 H 16.3941 4.19927 1.0883 0
M  V30 174 H 17.0651 4.88448 2.57144 0
M  V30 175 H 19.5411 2.98553 2.89836 0
M  V30 176 H 18.4171 3.61611 4.12951 0
M  V30 177 H 18.6781 1.88393 3.99951 0
M  V30 178 N 17.7372 -0.778329 1.37039 0
M  V30 179 C 18.9842 -1.53665 1.31884 0
M  V30 180 C 19.3122 -1.9425 -0.0986303 0
M  V30 181 O 18.5672 -1.63832 -1.07041 0
M  V30 182 C 18.8662 -2.81845 2.19768 0
M  V30 183 C 18.5322 -2.60345 3.68146 0
M  V30 184 C 17.1942 -2.5419 4.08584 0
M  V30 185 C 19.5462 -2.40923 4.62175 0
M  V30 186 C 16.8742 -2.26594 5.41177 0
M  V30 187 C 19.2262 -2.14852 5.94997 0
M  V30 188 C 17.8902 -2.07137 6.34547 0
M  V30 189 H 17.1602 -0.562299 0.482598 0
M  V30 190 H 19.8072 -0.897069 1.69189 0
M  V30 191 H 18.1122 -3.50328 1.75436 0
M  V30 192 H 19.8092 -3.39692 2.13097 0
M  V30 193 H 16.3992 -2.65996 3.36072 0
M  V30 194 H 20.5832 -2.44673 4.31797 0
M  V30 195 H 15.8392 -2.19111 5.70789 0
M  V30 196 H 20.0132 -1.98822 6.67415 0
M  V30 197 H 17.6402 -1.85518 7.37216 0
M  V30 198 N 19.2153 -1.21501 -1.00376 0
M  V30 199 C 20.1783 -0.976927 -2.07337 0
M  V30 200 C 21.1783 0.0525322 -1.60714 0
M  V30 201 O 22.3683 -0.184869 -1.73216 0
M  V30 202 C 19.5003 -0.473423 -3.37597 0
M  V30 203 H 20.6933 -1.92587 -2.29892 0
M  V30 204 H 18.2463 -1.03217 -1.17371 0
M  V30 205 H 18.9813 0.480379 -3.20722 0
M  V30 206 H 18.7663 -1.216 -3.72768 0
M  V30 207 H 20.2563 -0.32675 -4.1632 0
M  V30 208 N 20.6934 1.19889 -1.02296 0
M  V30 209 C 21.6234 2.25141 -0.619174 0
M  V30 210 C 22.6044 1.66051 0.368915 0
M  V30 211 O 23.7894 1.92546 0.252941 0
M  V30 212 C 20.9194 3.4728 0.0368783 0
M  V30 213 C 19.8734 4.19005 -0.872865 0
M  V30 214 C 19.1994 5.34637 -0.0822402 0
M  V30 215 C 20.4994 4.74452 -2.18387 0
M  V30 216 H 22.1934 2.59171 -1.49903 0
M  V30 217 H 19.7394 1.24579 -0.722222 0
M  V30 218 H 21.6924 4.20098 0.330958 0
M  V30 219 H 20.4164 3.12433 0.95149 0
M  V30 220 H 19.0754 3.48061 -1.15105 0
M  V30 221 H 18.7234 4.96034 0.83422 0
M  V30 222 H 18.4234 5.83557 -0.688149 0
M  V30 223 H 19.9474 6.10255 0.205238 0
M  V30 224 H 21.3614 5.39055 -1.95172 0
M  V30 225 H 19.7584 5.33834 -2.74119 0
M  V30 226 H 20.8284 3.92844 -2.84257 0
M  V30 227 N 22.1715 0.800033 1.35784 0
M  V30 228 C 23.3965 0.388511 2.03729 0
M  V30 229 C 23.8215 -0.990481 1.5991 0
M  V30 230 O 23.1795 -1.64013 0.772612 0
M  V30 231 C 23.2275 0.4726 3.5749 0
M  V30 232 O 22.3315 -0.51646 4.09153 0
M  V30 233 H 21.6725 0.163271 0.643614 0
M  V30 234 H 24.2025 1.0841 1.73518 0
M  V30 235 H 24.2125 0.34003 4.06581 0
M  V30 236 H 22.8875 1.47848 3.88734 0
M  V30 237 H 21.4645 -0.344673 3.71304 0
M  V30 238 N 23.6496 -1.47581 0.552962 0
M  V30 239 C 24.6126 -2.28439 -0.186605 0
M  V30 240 C 25.6126 -1.36706 -0.84665 0
M  V30 241 O 26.8026 -1.59378 -0.703164 0
M  V30 242 C 23.9346 -3.16264 -1.2724 0
M  V30 243 H 25.1276 -2.95294 0.523609 0
M  V30 244 H 22.6806 -1.532 0.309745 0
M  V30 245 H 23.4156 -2.54091 -2.01514 0
M  V30 246 H 23.2006 -3.83769 -0.803968 0
M  V30 247 H 24.6906 -3.77198 -1.79196 0
M  V30 248 N 25.1277 -0.289203 -1.54924 0
M  V30 249 C 26.0577 0.58549 -2.2604 0
M  V30 250 C 27.0387 1.14753 -1.25562 0
M  V30 251 O 28.2237 1.17906 -1.54311 0
M  V30 252 C 25.3537 1.76305 -2.99222 0
M  V30 253 C 24.3077 1.33191 -4.06748 0
M  V30 254 C 23.6337 2.5937 -4.6758 0
M  V30 255 C 24.9337 0.471775 -5.20165 0
M  V30 256 H 26.6277 -0.00763532 -2.99399 0
M  V30 257 H 24.1737 -0.00511229 -1.43999 0
M  V30 258 H 26.1267 2.38097 -3.47689 0
M  V30 259 H 24.8507 2.38223 -2.23422 0
M  V30 260 H 23.5097 0.737121 -3.59113 0
M  V30 261 H 23.1577 3.19576 -3.88433 0
M  V30 262 H 22.8577 2.31228 -5.40192 0
M  V30 263 H 24.3817 3.21985 -5.18804 0
M  V30 264 H 25.7957 0.995056 -5.64599 0
M  V30 265 H 24.1927 0.284639 -5.99425 0
M  V30 266 H 25.2627 -0.506041 -4.82252 0
M  V30 267 N 26.6058 1.57591 -0.0167156 0
M  V30 268 C 27.8308 1.9598 0.67872 0
M  V30 269 C 28.2558 0.892546 1.65575 0
M  V30 270 O 27.6138 -0.147772 1.80697 0
M  V30 271 C 27.6618 3.33468 1.37227 0
M  V30 272 O 26.7658 3.28954 2.48722 0
M  V30 273 H 26.1068 0.639339 0.17928 0
M  V30 274 H 28.6368 2.04463 -0.0748802 0
M  V30 275 H 28.6468 3.69417 1.7319 0
M  V30 276 H 27.3218 4.10694 0.656007 0
M  V30 277 H 25.8988 3.04705 2.14963 0
M  V30 278 N 28.0839 -0.256276 1.55502 0
M  V30 279 C 29.4949 -0.826068 1.67431 0
M  V30 280 C 29.8459 -1.86396 0.612446 0
M  V30 281 O 28.9709 -2.15031 -0.243025 0
M  V30 282 C 29.5659 -1.50512 3.03532 0
M  V30 283 C 28.1249 -2.02273 3.17431 0
M  V30 284 C 27.2719 -0.870548 2.63281 0
M  V30 285 H 30.2229 -0.0322728 1.58667 0
M  V30 286 H 30.2439 -2.37279 2.97454 0
M  V30 287 H 29.7559 -0.749484 3.80794 0
M  V30 288 H 27.8569 -2.80746 2.44974 0
M  V30 289 H 27.9699 -2.22655 4.24219 0
M  V30 290 H 26.3339 -1.26851 2.20864 0
M  V30 291 H 27.1169 -0.128149 3.43061 0
M  V30 292 N 29.562 -1.4872 -0.521534 0
M  V30 293 C 30.525 -1.63379 -1.60748 0
M  V30 294 C 31.525 -0.50661 -1.52611 0
M  V30 295 O 32.715 -0.772601 -1.5613 0
M  V30 296 C 29.847 -1.61192 -3.00383 0
M  V30 297 H 31.04 -2.60217 -1.49087 0
M  V30 298 H 28.593 -1.37444 -0.744235 0
M  V30 299 H 29.328 -0.65863 -3.17541 0
M  V30 300 H 29.113 -2.43032 -3.07698 0
M  V30 301 H 30.603 -1.7466 -3.7932 0
M  V30 302 N 31.0401 0.771051 -1.3745 0
M  V30 303 C 32.0031 1.86598 -1.33093 0
M  V30 304 C 33.0031 1.59076 -0.234845 0
M  V30 305 O 34.1931 1.67145 -0.490732 0
M  V30 306 C 31.3251 3.23747 -1.06773 0
M  V30 307 H 32.5181 1.91873 -2.30488 0
M  V30 308 H 30.0711 0.970876 -1.2249 0
M  V30 309 H 30.8061 3.24148 -0.099129 0
M  V30 310 H 30.5911 3.45115 -1.86112 0
M  V30 311 H 32.0811 4.03824 -1.06377 0
M  V30 312 N 32.5182 1.22032 0.997298 0
M  V30 313 C 33.4512 0.929735 2.08401 0
M  V30 314 C 34.4292 -0.125681 1.62114 0
M  V30 315 O 35.6132 0.00495409 1.88499 0
M  V30 316 C 32.7402 0.397488 3.3636 0
M  V30 317 C 31.7862 1.4369 4.01566 0
M  V30 318 S 32.6192 3.00874 4.42984 0
M  V30 319 C 33.7752 2.49276 5.74119 0
M  V30 320 H 34.0082 1.84998 2.32729 0
M  V30 321 H 31.5412 1.0509 1.13117 0
M  V30 322 H 33.4992 0.0969846 4.10385 0
M  V30 323 H 32.1602 -0.501571 3.10069 0
M  V30 324 H 31.3532 1.01427 4.93689 0
M  V30 325 H 30.9552 1.68588 3.33847 0
M  V30 326 H 33.2472 1.90242 6.50242 0
M  V30 327 H 34.1902 3.39872 6.21203 0
M  V30 328 H 34.5982 1.90714 5.31308 0
M  V30 329 N 33.9963 -1.19345 1.0293 0
M  V30 330 C 34.9593 -2.20793 0.615069 0
M  V30 331 C 35.9593 -1.57553 -0.321533 0
M  V30 332 O 37.1493 -1.73862 -0.108483 0
M  V30 333 C 34.2813 -3.40754 -0.0999222 0
M  V30 334 H 35.4743 -2.58955 1.51269 0
M  V30 335 H 33.0273 -1.3303 0.820534 0
M  V30 336 H 33.7623 -3.0811 -1.01187 0
M  V30 337 H 33.5473 -3.87889 0.57309 0
M  V30 338 H 35.0373 -4.15898 -0.376645 0
M  V30 339 N 35.4744 -0.807222 -1.35358 0
M  V30 340 C 36.4374 -0.223665 -2.28106 0
M  V30 341 C 37.4374 0.589354 -1.4961 0
M  V30 342 O 38.6274 0.407745 -1.69361 0
M  V30 343 C 35.7594 0.688149 -3.33882 0
M  V30 344 H 36.9524 -1.04169 -2.81227 0
M  V30 345 H 34.5054 -0.577921 -1.45223 0
M  V30 346 H 35.2404 1.52984 -2.85948 0
M  V30 347 H 35.0254 0.10687 -3.91954 0
M  V30 348 H 36.5154 1.09075 -4.03104 0
M  V30 349 N 36.9525 1.47285 -0.560781 0
M  V30 350 C 37.8995 2.30058 0.18491 0
M  V30 351 C 38.8695 1.39281 0.904986 0
M  V30 352 O 40.0545 1.68241 0.899979 0
M  V30 353 C 37.1945 3.23317 1.20666 0
M  V30 354 C 36.3075 4.29186 0.492285 0
M  V30 355 C 35.4425 5.09592 1.49964 0
M  V30 356 C 34.4815 6.07232 0.770439 0
M  V30 357 N 33.6185 6.80584 1.72479 0
M  V30 358 H 38.4585 2.93302 -0.527048 0
M  V30 359 H 35.9955 1.44568 -0.271738 0
M  V30 360 H 37.9535 3.75811 1.81168 0
M  V30 361 H 36.5835 2.61929 1.88661 0
M  V30 362 H 35.6355 3.7972 -0.227333 0
M  V30 363 H 36.9475 4.98738 -0.0787929 0
M  V30 364 H 36.1015 5.66254 2.17809 0
M  V30 365 H 34.8405 4.3995 2.10464 0
M  V30 366 H 33.8455 5.49745 0.0780846 0
M  V30 367 H 35.0705 6.78884 0.171134 0
M  V30 368 H 33.0165 6.1367 2.3183 0
M  V30 369 H 32.9335 7.46319 1.20596 0
M  V30 370 H 34.2015 7.41818 2.39428 0
M  V30 371 N 38.4306 0.297415 1.54768 0
M  V30 372 C 39.6786 -0.312295 1.99673 0
M  V30 373 C 39.9996 -1.54686 1.18732 0
M  V30 374 O 39.2696 -1.93854 0.282382 0
M  V30 375 H 37.8496 -0.118381 0.73756 0
M  V30 376 H 40.5116 0.407915 1.90583 0
M  V30 377 H 39.6076 -0.586813 3.06534 0
M  V30 378 N 39.9087 -1.5758 0.0250728 0
M  V30 379 C 41.1857 -1.82917 -0.692873 0
M  V30 380 C 41.5657 -0.908137 -1.90568 0
M  V30 381 O 40.9137 0.0372298 -2.2847 0
M  V30 382 C 41.1237 -3.32034 -1.07492 0
M  V30 383 C 42.4717 -3.98406 -1.46826 0
M  V30 384 O 43.4957 -3.36505 -1.16801 0
M  V30 385 O 42.3547 -5.07497 -2.02754 0
M  V30 386 H 39.4487 -0.754079 -0.33955 0
M  V30 387 H 41.9947 -1.69619 0.0524456 0
M  V30 388 H 40.7667 -3.90728 -0.211552 0
M  V30 389 H 40.3897 -3.50424 -1.87854 0
M  V30 390 N 41.3868 0.248026 -1.55636 0
M  V30 391 C 42.7978 0.817177 -1.67866 0
M  V30 392 C 43.1488 1.86069 -0.622322 0
M  V30 393 O 42.2738 2.15157 0.231618 0
M  V30 394 C 42.8688 1.489 -3.04326 0
M  V30 395 C 41.4278 2.00587 -3.185 0
M  V30 396 C 40.5748 0.856573 -2.63739 0
M  V30 397 H 43.5258 0.0238579 -1.58682 0
M  V30 398 H 43.5468 2.35698 -2.98708 0
M  V30 399 H 43.0588 0.729279 -3.81186 0
M  V30 400 H 41.1598 2.79443 -2.4646 0
M  V30 401 H 41.2728 2.20402 -4.25393 0
M  V30 402 H 39.6368 1.25678 -2.21534 0
M  V30 403 H 40.4198 0.109953 -3.43124 0
M  V30 404 N 42.8649 1.48995 0.513639 0
M  V30 405 C 43.8149 1.61127 1.61314 0
M  V30 406 C 44.7989 0.467521 1.53958 0
M  V30 407 O 45.9909 0.719826 1.61702 0
M  V30 408 C 43.1199 1.66937 2.99978 0
M  V30 409 C 42.2059 2.86847 3.12377 0
M  V30 410 N 42.5969 4.11078 2.94701 0
M  V30 411 C 40.8949 2.84521 3.43459 0
M  V30 412 C 41.5959 4.91615 3.10949 0
M  V30 413 N 40.5719 4.24739 3.3926 0
M  V30 414 H 44.3739 2.54909 1.46282 0
M  V30 415 H 41.8879 1.45593 0.719483 0
M  V30 416 H 43.8849 1.73725 3.78979 0
M  V30 417 H 42.5449 0.742831 3.16089 0
M  V30 418 H 43.5559 4.41258 2.71131 0
M  V30 419 H 40.2329 2.01192 3.65825 0
M  V30 420 H 41.6229 6.00264 3.01882 0
M  V30 421 N 44.343 -0.763751 1.37857 0
M  V30 422 C 45.589 -1.52483 1.33704 0
M  V30 423 C 45.922 -1.94051 -0.0759612 0
M  V30 424 O 45.197 -1.64675 -1.03501 0
M  V30 425 C 45.48 -2.78441 2.28348 0
M  V30 426 C 45.333 -2.43075 3.78463 0
M  V30 427 C 46.652 -3.80415 2.21298 0
M  V30 428 H 43.771 -0.553169 0.487005 0
M  V30 429 H 46.413 -0.875562 1.68624 0
M  V30 430 H 44.563 -3.33842 1.987 0
M  V30 431 H 46.235 -1.93527 4.18742 0
M  V30 432 H 44.478 -1.75666 3.96641 0
M  V30 433 H 45.149 -3.33149 4.40132 0
M  V30 434 H 47.625 -3.34527 2.47449 0
M  V30 435 H 46.501 -4.66257 2.89647 0
M  V30 436 H 46.762 -4.25262 1.20849 0
M  V30 437 N 45.8211 -1.22559 -0.990812 0
M  V30 438 C 46.7511 -1.0218 -2.09956 0
M  V30 439 C 47.7321 0.0579394 -1.70001 0
M  V30 440 O 48.9171 -0.104684 -1.93918 0
M  V30 441 C 46.0471 -0.601023 -3.4206 0
M  V30 442 C 45.0011 -1.62694 -3.95872 0
M  V30 443 C 44.3271 -1.06193 -5.24049 0
M  V30 444 C 45.6271 -3.01743 -4.2632 0
M  V30 445 H 47.3211 -1.94916 -2.27262 0
M  V30 446 H 44.8671 -0.938566 -1.09211 0
M  V30 447 H 46.8201 -0.445561 -4.19038 0
M  V30 448 H 45.5441 0.362005 -3.24588 0
M  V30 449 H 44.2031 -1.77021 -3.21028 0
M  V30 450 H 43.8511 -0.0901903 -5.02919 0
M  V30 451 H 43.5511 -1.74732 -5.61019 0
M  V30 452 H 45.0751 -0.918092 -6.03658 0
M  V30 453 H 46.4891 -2.90777 -4.94087 0
M  V30 454 H 44.8861 -3.67425 -4.74467 0
M  V30 455 H 45.9561 -3.51518 -3.34011 0
M  V30 456 N 47.2992 1.18797 -1.03562 0
M  V30 457 C 48.2292 2.24472 -0.643019 0
M  V30 458 C 49.2102 1.66433 0.351283 0
M  V30 459 O 50.3952 1.92803 0.232505 0
M  V30 460 C 47.5252 3.473 4.24935e-05 0
M  V30 461 C 46.4792 4.18055 -0.917257 0
M  V30 462 C 45.8052 5.34519 -0.138941 0
M  V30 463 C 47.1052 4.72109 -2.23407 0
M  V30 464 H 48.7992 2.57566 -1.52643 0
M  V30 465 H 46.3452 1.23806 -0.735394 0
M  V30 466 H 48.2982 4.20426 0.286383 0
M  V30 467 H 47.0222 3.13424 0.918299 0
M  V30 468 H 45.6812 3.46821 -1.1879 0
M  V30 469 H 45.3292 4.96891 0.781562 0
M  V30 470 H 45.0292 5.82794 -0.750005 0
M  V30 471 H 46.5532 6.10438 0.1405 0
M  V30 472 H 47.9672 5.36955 -2.00879 0
M  V30 473 H 46.3642 5.30897 -2.79765 0
M  V30 474 H 47.4342 3.89807 -2.88407 0
M  V30 475 N 48.7773 0.814389 1.34928 0
M  V30 476 C 50.0053 0.411136 2.02774 0
M  V30 477 C 50.4203 -0.980316 1.61354 0
M  V30 478 O 49.7773 -1.63299 0.814847 0
M  V30 479 C 49.8283 0.493865 3.58111 0
M  V30 480 O 49.5493 1.83047 3.98027 0
M  V30 481 C 51.0503 0.0844174 4.4322 0
M  V30 482 H 48.2703 0.166037 0.650133 0
M  V30 483 H 50.8143 1.10018 1.72384 0
M  V30 484 H 48.9693 -0.147006 3.87121 0
M  V30 485 H 49.3833 1.79872 4.92693 0
M  V30 486 H 50.8573 0.193404 5.51661 0
M  V30 487 H 51.3343 -0.97113 4.28329 0
M  V30 488 H 51.9403 0.69875 4.19521 0
M  V30 489 N 50.2554 -1.46986 0.568584 0
M  V30 490 C 51.4834 -2.0683 0.0539956 0
M  V30 491 C 51.8984 -1.41953 -1.24478 0
M  V30 492 O 51.2554 -0.519933 -1.74937 0
M  V30 493 C 51.3064 -3.61254 -0.133362 0
M  V30 494 O 51.0274 -4.237 1.11399 0
M  V30 495 C 52.5284 -4.37992 -0.683927 0
M  V30 496 H 49.7484 -0.669058 0.0510141 0
M  V30 497 H 52.2924 -1.88824 0.785234 0
M  V30 498 H 50.4474 -3.78735 -0.81477 0
M  V30 499 H 50.8614 -5.16388 0.91888 0
M  V30 500 H 52.3354 -5.46684 -0.764263 0
M  V30 501 H 52.8124 -4.05058 -1.69778 0
M  V30 502 H 53.4184 -4.25283 -0.0378494 0
M  V30 503 N 51.7335 -0.305618 -1.54608 0
M  V30 504 C 52.9585 0.307562 -2.05107 0
M  V30 505 C 53.3835 1.46385 -1.18123 0
M  V30 506 O 52.7415 1.8034 -0.186324 0
M  V30 507 C 52.7895 0.73704 -3.52987 0
M  V30 508 O 51.8935 1.84134 -3.6901 0
M  V30 509 H 51.2345 0.0589143 -0.661381 0
M  V30 510 H 53.7645 -0.448807 -1.99617 0
M  V30 511 H 53.7745 1.02459 -3.94925 0
M  V30 512 H 52.4495 -0.108773 -4.15758 0
M  V30 513 H 51.0265 1.55398 -3.38978 0
M  V30 514 N 53.2116 1.57565 -0.0334293 0
M  V30 515 C 54.1746 2.09393 0.932048 0
M  V30 516 C 55.1746 1.00986 1.25134 0
M  V30 517 O 56.3646 1.27129 1.19096 0
M  V30 518 C 53.4966 2.56338 2.2473 0
M  V30 519 H 54.6896 2.95984 0.483085 0
M  V30 520 H 52.2426 1.54819 0.21468 0
M  V30 521 H 52.9776 1.7309 2.74245 0
M  V30 522 H 52.7626 3.35542 2.02865 0
M  V30 523 H 54.2526 2.96646 2.93923 0
M  V30 524 N 54.6897 -0.239769 1.55765 0
M  V30 525 C 55.9377 -0.964892 1.77579 0
M  V30 526 C 56.2587 -1.85582 0.598699 0
M  V30 527 O 55.5287 -1.92075 -0.385226 0
M  V30 528 H 54.1087 -0.359265 0.654933 0
M  V30 529 H 56.7707 -0.256001 1.93211 0
M  V30 530 H 55.8667 -1.58243 2.69009 0
M  V30 531 N 56.1678 -1.49265 -0.50573 0
M  V30 532 C 57.1158 -1.66065 -1.62866 0
M  V30 533 C 58.1098 -0.526636 -1.61006 0
M  V30 534 O 59.3158 -0.706126 -1.65571 0
M  V30 535 H 55.6908 -0.52356 -0.539805 0
M  V30 536 H 57.6618 -2.60329 -1.45848 0
M  V30 537 C 56.4108 -1.74008 -3.01026 0
M  V30 538 H 55.7338 -2.6064 -3.03161 0
M  V30 539 H 57.1738 -1.89798 -3.79147 0
M  V30 540 C 55.6328 -0.483868 -3.33407 0
M  V30 541 O 56.1628 0.392548 -3.99777 0
M  V30 542 N 54.3688 -0.348236 -2.88506 0
M  V30 543 H 53.9158 -1.06242 -2.34671 0
M  V30 544 H 53.8738 0.491204 -3.10539 0
M  V30 545 N 57.6459 0.756429 -1.3826 0
M  V30 546 C 58.8949 1.51082 -1.3363 0
M  V30 547 C 59.2079 1.95467 0.0720068 0
M  V30 548 O 60.4139 2.7043 0.240834 0
M  V30 549 C 58.8699 2.72893 -2.34644 0
M  V30 550 C 58.4779 2.35544 -3.81081 0
M  V30 551 C 60.2219 3.50791 -2.39052 0
M  V30 552 C 58.1289 3.53948 -4.73787 0
M  V30 553 H 57.0589 0.56727 -0.49671 0
M  V30 554 H 59.7099 0.827147 -1.638 0
M  V30 555 H 58.0919 3.43227 -1.97513 0
M  V30 556 H 59.2659 1.72894 -4.27135 0
M  V30 557 H 57.5809 1.70786 -3.79764 0
M  V30 558 H 60.1779 4.38823 -3.05513 0
M  V30 559 H 60.5209 3.91745 -1.40861 0
M  V30 560 H 61.0539 2.87467 -2.74968 0
M  V30 561 H 57.7929 3.18064 -5.73163 0
M  V30 562 H 57.3129 4.15651 -4.32428 0
M  V30 563 H 58.9919 4.20566 -4.91663 0
M  V30 564 N 59.124 1.23083 0.984299 0
M  V30 565 C 60.034 1.02515 2.11016 0
M  V30 566 C 61.05 -0.0291702 1.73976 0
M  V30 567 O 62.226 0.165434 2.00719 0
M  V30 568 C 59.291 0.614673 3.41208 0
M  V30 569 C 58.352 1.74359 3.92297 0
M  V30 570 C 57.585 1.35261 5.16275 0
M  V30 571 O 57.808 0.235136 5.69915 0
M  V30 572 O 56.742 2.17227 5.61334 0
M  V30 573 H 60.568 1.96862 2.31255 0
M  V30 574 H 58.153 1.01753 1.09392 0
M  V30 575 H 60.035 0.396518 4.1953 0
M  V30 576 H 58.71 -0.299851 3.22308 0
M  V30 577 H 57.617 2.01635 3.1511 0
M  V30 578 H 58.95 2.63629 4.15645 0
M  V30 579 N 60.6021 -1.18246 1.0419 0
M  V30 580 C 61.5321 -2.24127 0.654914 0
M  V30 581 C 62.5131 -1.66617 -0.342451 0
M  V30 582 O 63.6981 -1.92924 -0.222277 0
M  V30 583 C 60.8281 -3.47295 0.0183757 0
M  V30 584 C 59.7821 -4.17563 0.939414 0
M  V30 585 C 59.1081 -5.34438 0.167286 0
M  V30 586 C 60.4081 -4.70917 2.25908 0
M  V30 587 H 62.1021 -2.56753 1.54007 0
M  V30 588 H 59.6481 -1.23414 0.74195 0
M  V30 589 H 61.6011 -4.20572 -0.264082 0
M  V30 590 H 60.3251 -3.13907 -0.901664 0
M  V30 591 H 58.9841 -3.46186 1.20628 0
M  V30 592 H 58.6321 -4.97298 -0.7552 0
M  V30 593 H 58.3321 -5.82388 0.780901 0
M  V30 594 H 59.8561 -6.10504 -0.108125 0
M  V30 595 H 61.2701 -5.35882 2.03724 0
M  V30 596 H 59.6671 -5.29406 2.82577 0
M  V30 597 H 60.7371 -3.88272 2.9047 0
M  V30 598 N 62.0802 -0.821533 -1.34494 0
M  V30 599 C 62.9902 -0.244355 -2.33324 0
M  V30 600 C 64.0062 0.620527 -1.62559 0
M  V30 601 O 65.1822 0.528754 -1.94335 0
M  V30 602 C 62.2472 0.585368 -3.41723 0
M  V30 603 C 61.3082 -0.301752 -4.28238 0
M  V30 604 C 60.5412 0.488466 -5.3146 0
M  V30 605 O 60.7642 1.72186 -5.4379 0
M  V30 606 O 59.6982 -0.12848 -6.01763 0
M  V30 607 H 63.5242 -1.06231 -2.84515 0
M  V30 608 H 61.1092 -0.583645 -1.37528 0
M  V30 609 H 62.9912 1.05747 -4.07916 0
M  V30 610 H 61.6662 1.38068 -2.92778 0
M  V30 611 H 60.5732 -0.821315 -3.64973 0
M  V30 612 H 61.9062 -1.06138 -4.8062 0
M  V30 613 N 63.5583 1.46682 -0.576371 0
M  V30 614 C 64.4883 2.33028 0.148397 0
M  V30 615 C 65.4693 1.44961 0.889956 0
M  V30 616 O 66.6543 1.73789 0.866662 0
M  V30 617 C 63.7843 3.27117 1.1667 0
M  V30 618 C 62.7383 4.24575 0.540386 0
M  V30 619 C 62.0643 5.08126 1.6647 0
M  V30 620 C 63.3643 5.19722 -0.518331 0
M  V30 621 H 65.0583 2.93875 -0.572509 0
M  V30 622 H 62.6043 1.41315 -0.276768 0
M  V30 623 H 64.5573 3.86374 1.68204 0
M  V30 624 H 63.2813 2.64364 1.9178 0
M  V30 625 H 61.9403 3.66571 0.0461769 0
M  V30 626 H 61.5883 4.41762 2.40531 0
M  V30 627 H 61.2883 5.74122 1.25131 0
M  V30 628 H 62.8123 5.70246 2.18293 0
M  V30 629 H 64.2263 5.73232 -0.0883058 0
M  V30 630 H 62.6233 5.94026 -0.851679 0
M  V30 631 H 63.6933 4.64037 -1.40703 0
M  V30 632 N 65.0364 0.313813 1.54444 0
M  V30 633 C 66.3134 -0.345447 1.92525 0
M  V30 634 C 66.6934 -1.70667 1.24242 0
M  V30 635 O 66.0414 -2.25273 0.382654 0
M  V30 636 C 66.2514 -0.44737 3.46121 0
M  V30 637 C 67.5994 -0.712238 4.18584 0
M  V30 638 O 68.6234 -0.530678 3.52225 0
M  V30 639 O 67.4824 -1.06183 5.36085 0
M  V30 640 H 64.5764 -0.195407 0.803583 0
M  V30 641 H 67.1224 0.362813 1.65776 0
M  V30 642 H 65.8944 0.509043 3.87975 0
M  V30 643 H 65.5174 -1.20359 3.78945 0
M  V30 644 N 66.5145 -1.57545 0.0417849 0
M  V30 645 C 67.4615 -2.10977 -0.935805 0
M  V30 646 C 68.4315 -1.01486 -1.31491 0
M  V30 647 O 69.6165 -1.2898 -1.40602 0
M  V30 648 C 66.7565 -2.65169 -2.2086 0
M  V30 649 C 65.8695 -3.88714 -1.88482 0
M  V30 650 C 65.0045 -4.31254 -3.1015 0
M  V30 651 C 64.0435 -5.47524 -2.7365 0
M  V30 652 N 63.1805 -5.85162 -3.87982 0
M  V30 653 H 68.0205 -2.94218 -0.473249 0
M  V30 654 H 65.5575 -1.45415 -0.221981 0
M  V30 655 H 67.5155 -2.94685 -2.95325 0
M  V30 656 H 66.1455 -1.8474 -2.64709 0
M  V30 657 H 65.1975 -3.65849 -1.04205 0
M  V30 658 H 66.5095 -4.73245 -1.57608 0
M  V30 659 H 65.6635 -4.62273 -3.92923 0
M  V30 660 H 64.4025 -3.45516 -3.44195 0
M  V30 661 H 63.4075 -5.16187 -1.89291 0
M  V30 662 H 64.6325 -6.34971 -2.40807 0
M  V30 663 H 62.5785 -5.02377 -4.21846 0
M  V30 664 H 62.4955 -6.64362 -3.60775 0
M  V30 665 H 63.7635 -6.20791 -4.71422 0
M  V30 666 N 67.9926 0.231505 -1.5589 0
M  V30 667 C 68.9246 1.31006 -1.8807 0
M  V30 668 C 69.9376 1.43539 -0.768145 0
M  V30 669 O 71.1266 1.44614 -1.04638 0
M  V30 670 C 68.2266 2.68688 -2.06543 0
M  V30 671 C 67.3996 2.78228 -3.37502 0
M  V30 672 C 66.4586 3.96857 -3.4553 0
M  V30 673 O 65.4846 3.85662 -4.18633 0
M  V30 674 N 66.6866 5.1072 -2.75944 0
M  V30 675 H 69.4516 1.03731 -2.81176 0
M  V30 676 H 67.0126 0.421573 -1.56315 0
M  V30 677 H 69.0046 3.46412 -2.09239 0
M  V30 678 H 67.5746 2.88605 -1.20109 0
M  V30 679 H 66.7946 1.87059 -3.46991 0
M  V30 680 H 68.0826 2.81564 -4.23791 0
M  V30 681 H 67.4806 5.2271 -2.16311 0
M  V30 682 H 66.0376 5.86523 -2.84314 0
M  V30 683 N 69.4707 1.49531 0.497807 0
M  V30 684 C 70.4177 1.66436 1.59899 0
M  V30 685 C 71.3877 0.505793 1.58212 0
M  V30 686 O 72.5727 0.733202 1.7615 0
M  V30 687 C 69.7127 1.7399 2.98029 0
M  V30 688 C 68.8257 3.01172 3.09708 0
M  V30 689 C 67.9607 2.99686 4.38591 0
M  V30 690 C 66.9997 4.21434 4.43914 0
M  V30 691 N 66.1367 4.1784 5.64229 0
M  V30 692 H 70.9767 2.60459 1.44793 0
M  V30 693 H 68.5137 1.29137 0.704423 0
M  V30 694 H 70.4717 1.76352 3.78095 0
M  V30 695 H 69.1017 0.834301 3.11832 0
M  V30 696 H 68.1537 3.08408 2.22685 0
M  V30 697 H 69.4657 3.91165 3.09502 0
M  V30 698 H 68.6197 3.00628 5.2698 0
M  V30 699 H 67.3587 2.07477 4.41367 0
M  V30 700 H 66.3637 4.20733 3.53926 0
M  V30 701 H 67.5887 5.14839 4.42851 0
M  V30 702 H 65.5347 3.28469 5.67841 0
M  V30 703 H 65.4517 5.01571 5.65652 0
M  V30 704 H 66.7197 4.22889 6.54817 0
M  V30 705 N 70.9488 -0.749086 1.3866 0
M  V30 706 C 71.9118 -1.84457 1.36045 0
M  V30 707 C 72.9118 -1.58682 0.260122 0
M  V30 708 O 74.1018 -1.66343 0.517261 0
M  V30 709 C 71.2338 -3.22008 1.11911 0
M  V30 710 H 72.4268 -1.88182 2.33512 0
M  V30 711 H 69.9798 -0.951266 1.24019 0
M  V30 712 H 70.7148 -3.2395 0.150686 0
M  V30 713 H 70.4998 -3.42111 1.91579 0
M  V30 714 H 71.9898 -4.0208 1.12788 0
M  V30 715 N 72.4269 -1.23603 -0.977757 0
M  V30 716 C 73.8379 -1.06424 -1.53398 0
M  V30 717 C 74.1889 0.367578 -1.92726 0
M  V30 718 O 73.3139 1.25465 -1.76316 0
M  V30 719 C 73.9089 -1.92568 -2.78753 0
M  V30 720 C 72.4679 -1.79642 -3.30765 0
M  V30 721 C 71.6149 -1.88111 -2.03739 0
M  V30 722 H 74.5659 -1.37227 -0.797152 0
M  V30 723 H 74.5869 -1.45203 -3.51705 0
M  V30 724 H 74.0989 -2.96771 -2.50098 0
M  V30 725 H 72.1999 -0.782325 -3.64294 0
M  V30 726 H 72.3129 -2.63174 -4.00345 0
M  V30 727 H 70.6769 -1.31723 -2.17994 0
M  V30 728 H 71.4599 -2.93875 -1.77461 0
M  V30 729 N 73.905 1.17692 -1.04816 0
M  V30 730 C 75.151 1.88137 -0.75711 0
M  V30 731 C 75.484 1.80604 0.713841 0
M  V30 732 O 74.759 1.21146 1.52164 0
M  V30 733 C 75.042 3.38318 -1.2334 0
M  V30 734 C 74.895 3.54622 -2.76701 0
M  V30 735 C 76.214 4.32214 -0.829415 0
M  V30 736 H 73.333 0.683163 -0.27651 0
M  V30 737 H 75.975 1.38424 -1.30149 0
M  V30 738 H 74.125 3.80787 -0.770286 0
M  V30 739 H 75.797 3.21194 -3.31107 0
M  V30 740 H 74.04 2.97026 -3.16161 0
M  V30 741 H 74.711 4.60028 -3.05088 0
M  V30 742 H 77.187 3.97565 -1.22805 0
M  V30 743 H 76.063 5.35838 -1.19033 0
M  V30 744 H 76.324 4.41294 0.266891 0
M  V30 745 N 75.3831 0.828654 1.34056 0
M  V30 746 C 76.6081 0.431637 2.02859 0
M  V30 747 C 77.0331 -0.956339 1.61975 0
M  V30 748 O 76.3911 -1.62338 0.807228 0
M  V30 749 C 76.4391 0.548323 3.56407 0
M  V30 750 O 75.5431 -0.429556 4.10157 0
M  V30 751 H 74.8841 0.176886 0.640006 0
M  V30 752 H 77.4141 1.12066 1.71179 0
M  V30 753 H 77.4241 0.426196 4.05768 0
M  V30 754 H 76.0991 1.5606 3.8551 0
M  V30 755 H 74.6761 -0.265836 3.71951 0
M  V30 756 N 76.8612 -1.46375 0.584142 0
M  V30 757 C 78.1072 -2.02678 0.0703716 0
M  V30 758 C 78.4402 -1.4545 -1.28678 0
M  V30 759 O 77.7152 -0.62014 -1.84349 0
M  V30 760 C 77.9982 -3.60099 0.00614674 0
M  V30 761 C 77.8512 -4.27709 1.3923 0
M  V30 762 C 79.1702 -4.34598 -0.693742 0
M  V30 763 H 76.2892 -0.736504 0.027047 0
M  V30 764 H 78.9312 -1.74501 0.751615 0
M  V30 765 H 77.0812 -3.84236 -0.574009 0
M  V30 766 H 78.7532 -4.14832 2.01773 0
M  V30 767 H 76.9962 -3.87016 1.95962 0
M  V30 768 H 77.6672 -5.36478 1.29982 0
M  V30 769 H 80.1432 -4.15615 -0.200869 0
M  V30 770 H 79.0192 -5.44318 -0.707714 0
M  V30 771 H 79.2802 -4.05759 -1.75533 0
M  V30 772 N 78.3393 -0.321999 -1.54275 0
M  V30 773 C 79.2713 0.578671 -2.21775 0
M  V30 774 C 80.2843 1.08109 -1.21722 0
M  V30 775 O 81.4733 0.994938 -1.482 0
M  V30 776 C 78.5733 1.80661 -2.86731 0
M  V30 777 C 77.7463 1.44314 -4.12907 0
M  V30 778 C 76.8053 2.52845 -4.61472 0
M  V30 779 O 75.8313 2.17054 -5.2619 0
M  V30 780 N 77.0333 3.83748 -4.35566 0
M  V30 781 H 79.7983 0.000709447 -2.997 0
M  V30 782 H 77.3593 -0.145132 -1.61248 0
M  V30 783 H 79.3513 2.52655 -3.16145 0
M  V30 784 H 77.9213 2.29245 -2.12521 0
M  V30 785 H 77.1413 0.554906 -3.90275 0
M  V30 786 H 78.4293 1.17598 -4.95023 0
M  V30 787 H 77.8273 4.15625 -3.83761 0
M  V30 788 H 76.3843 4.51977 -4.69638 0
M  V30 789 N 79.8174 1.5752 -0.0501392 0
M  V30 790 C 80.7654 2.12651 0.942459 0
M  V30 791 C 81.7594 1.05807 1.32292 0
M  V30 792 O 82.9654 1.24217 1.3027 0
M  V30 793 H 79.3404 0.679673 0.321789 0
M  V30 794 H 81.3114 2.94951 0.452356 0
M  V30 795 C 80.0604 2.68565 2.20836 0
M  V30 796 H 79.3834 3.50439 1.92439 0
M  V30 797 H 80.8234 3.10761 2.8845 0
M  V30 798 C 79.2824 1.62291 2.95234 0
M  V30 799 O 79.8124 1.03508 3.88135 0
M  V30 800 N 78.0184 1.33836 2.57946 0
M  V30 801 H 77.5654 1.81826 1.82475 0
M  V30 802 H 77.5234 0.629595 3.08032 0
M  V30 803 N 81.2955 -0.223234 1.56011 0
M  V30 804 C 82.5425 -0.947875 1.78946 0
M  V30 805 C 82.8705 -1.844 0.618608 0
M  V30 806 O 82.1255 -1.91629 -0.397093 0
M  V30 807 C 82.4245 -1.81948 3.0762 0
M  V30 808 C 82.0905 -1.07672 4.37856 0
M  V30 809 C 80.7525 -0.871544 4.73242 0
M  V30 810 C 83.1045 -0.552081 5.18268 0
M  V30 811 C 80.4325 -0.129791 5.86556 0
M  V30 812 C 82.7845 0.17632 6.32354 0
M  V30 813 C 81.4485 0.39277 6.66343 0
M  V30 814 H 80.7185 -0.346852 0.654809 0
M  V30 815 H 83.3655 -0.216171 1.90276 0
M  V30 816 H 81.6705 -2.61899 2.91404 0
M  V30 817 H 83.3675 -2.38227 3.22566 0
M  V30 818 H 79.9575 -1.24662 4.1007 0
M  V30 819 H 84.1415 -0.698076 4.91366 0
M  V30 820 H 79.3975 0.048153 6.11381 0
M  V30 821 H 83.5715 0.590367 6.93893 0
M  V30 822 H 81.1985 0.969466 7.53993 0
M  V30 823 N 82.7736 -1.49793 -0.48987 0
M  V30 824 C 84.0196 -1.60078 -1.24511 0
M  V30 825 C 84.3526 -0.291608 -1.91998 0
M  V30 826 O 83.6276 0.705647 -1.81248 0
M  V30 827 C 83.9106 -2.76791 -2.30345 0
M  V30 828 C 83.7636 -4.17535 -1.67286 0
M  V30 829 C 85.0826 -2.89111 -3.31817 0
M  V30 830 H 82.2016 -0.582645 -0.451324 0
M  V30 831 H 84.8436 -1.82117 -0.541612 0
M  V30 832 H 82.9936 -2.5813 -2.90346 0
M  V30 833 H 84.6656 -4.4774 -1.11026 0
M  V30 834 H 82.9086 -4.22665 -0.976577 0
M  V30 835 H 83.5796 -4.95094 -2.44103 0
M  V30 836 H 86.0556 -3.06133 -2.81819 0
M  V30 837 H 84.9316 -3.72433 -4.03219 0
M  V30 838 H 85.1926 -1.9893 -3.94815 0
M  V30 839 N 84.2517 0.741722 -1.39055 0
M  V30 840 C 85.5287 1.49252 -1.26425 0
M  V30 841 C 85.9087 2.10705 0.129144 0
M  V30 842 O 85.2567 1.98045 1.13976 0
M  V30 843 C 85.4667 2.54934 -2.38347 0
M  V30 844 C 86.8147 3.21506 -2.77343 0
M  V30 845 O 87.8387 2.65245 -2.37747 0
M  V30 846 O 86.6977 4.23294 -3.45665 0
M  V30 847 H 83.7917 0.662451 -0.495064 0
M  V30 848 H 86.3377 0.776121 -1.50912 0
M  V30 849 H 85.1097 2.07857 -3.31529 0
M  V30 850 H 84.7327 3.34141 -2.15489 0
M  V30 851 N 85.7298 1.2412 0.971189 0
M  V30 852 C 86.9598 1.10415 1.7462 0
M  V30 853 C 87.3678 -0.346462 1.86001 0
M  V30 854 O 86.7108 -1.25104 1.34517 0
M  V30 855 C 86.7728 1.66596 3.18568 0
M  V30 856 C 86.4368 3.15446 3.3067 0
M  V30 857 C 87.4338 4.12636 3.16271 0
M  V30 858 C 85.1188 3.55337 3.55022 0
M  V30 859 C 87.1128 5.47699 3.26044 0
M  V30 860 C 84.7998 4.90542 3.64434 0
M  V30 861 C 85.7978 5.86532 3.49956 0
M  V30 862 O 85.4858 7.19279 3.59017 0
M  V30 863 H 85.2178 0.386616 0.55453 0
M  V30 864 H 87.7718 1.64633 1.22821 0
M  V30 865 H 86.0018 1.06808 3.71657 0
M  V30 866 H 87.6908 1.48232 3.77865 0
M  V30 867 H 88.4568 3.8316 2.97344 0
M  V30 868 H 84.3358 2.8113 3.65359 0
M  V30 869 H 87.8798 6.22603 3.14661 0
M  V30 870 H 83.7768 5.19691 3.82873 0
M  V30 871 H 84.5448 7.27153 3.75754 0
M  V30 872 N 87.2079 -1.17134 1.05439 0
M  V30 873 C 88.4539 -1.87733 0.767077 0
M  V30 874 C 88.7869 -1.8098 -0.704253 0
M  V30 875 O 88.0619 -1.21951 -1.5152 0
M  V30 876 C 88.3449 -3.37659 1.25133 0
M  V30 877 C 88.1979 -3.53149 2.78578 0
M  V30 878 C 89.5169 -4.31768 0.852324 0
M  V30 879 H 86.6359 -0.681687 0.280129 0
M  V30 880 H 89.2779 -1.37732 1.30881 0
M  V30 881 H 87.4279 -3.80373 0.790469 0
M  V30 882 H 89.0999 -3.19434 3.32806 0
M  V30 883 H 87.3429 -2.95345 3.17732 0
M  V30 884 H 88.0139 -4.58403 3.07523 0
M  V30 885 H 90.4899 -3.96909 1.24911 0
M  V30 886 H 89.3659 -5.35199 1.21873 0
M  V30 887 H 89.6269 -4.41429 -0.243485 0
M  V30 888 N 88.686 -0.835752 -1.33615 0
M  V30 889 C 89.634 -0.255238 -2.31195 0
M  V30 890 C 90.628 0.61107 -1.57995 0
M  V30 891 O 91.834 0.500979 -1.72888 0
M  V30 892 H 88.209 -0.0638085 -0.749288 0
M  V30 893 H 90.18 -1.09283 -2.77669 0
M  V30 894 C 88.929 0.55754 -3.43201 0
M  V30 895 H 88.252 -0.0997553 -3.99676 0
M  V30 896 H 89.692 0.929622 -4.13683 0
M  V30 897 C 88.151 1.73515 -2.88781 0
M  V30 898 O 88.681 2.83376 -2.84712 0
M  V30 899 N 86.887 1.55603 -2.4543 0
M  V30 900 H 86.434 0.662354 -2.48939 0
M  V30 901 H 86.392 2.34545 -2.09371 0
M  V30 902 N 90.1641 1.46063 -0.591896 0
M  V30 903 C 91.3891 2.07226 -0.0850314 0
M  V30 904 C 91.8141 1.43625 1.21463 0
M  V30 905 O 91.1721 0.523305 1.73583 0
M  V30 906 C 91.2201 3.60554 0.0576567 0
M  V30 907 O 90.3241 3.97128 1.11188 0
M  V30 908 H 89.6651 0.660615 -0.0669568 0
M  V30 909 H 92.1951 1.8756 -0.81745 0
M  V30 910 H 92.2051 4.07165 0.2609 0
M  V30 911 H 90.8801 4.06235 -0.891416 0
M  V30 912 H 89.4571 3.62213 0.886356 0
M  V30 913 N 91.6422 0.330177 1.54103 0
M  V30 914 C 92.8902 -0.269871 2.0029 0
M  V30 915 C 93.2112 -1.52133 1.21986 0
M  V30 916 O 92.4812 -1.93212 0.323438 0
M  V30 917 H 91.0612 -0.10271 0.739905 0
M  V30 918 H 93.7232 0.448249 1.89675 0
M  V30 919 H 92.8192 -0.52166 3.07709 0
M  V30 920 N 93.1203 -1.57491 0.0584922 0
M  V30 921 C 94.3673 -1.92978 -0.613648 0
M  V30 922 C 94.6953 -0.937461 -1.70417 0
M  V30 923 O 93.9503 0.049078 -1.95638 0
M  V30 924 C 94.2493 -3.3513 -1.24188 0
M  V30 925 C 93.9153 -4.50037 -0.278826 0
M  V30 926 C 92.5773 -4.81198 -0.0138447 0
M  V30 927 C 94.9293 -5.19807 0.380777 0
M  V30 928 C 92.2573 -5.79473 0.918052 0
M  V30 929 C 94.6093 -6.19079 1.30091 0
M  V30 930 C 93.2733 -6.48665 1.57449 0
M  V30 931 H 92.5433 -0.706157 -0.22455 0
M  V30 932 H 95.1903 -1.91082 0.126533 0
M  V30 933 H 93.4953 -3.33429 -2.05749 0
M  V30 934 H 95.1923 -3.59871 -1.769 0
M  V30 935 H 91.7823 -4.25726 -0.495539 0
M  V30 936 H 95.9663 -4.95939 0.189158 0
M  V30 937 H 91.2223 -6.00727 1.1374 0
M  V30 938 H 95.3963 -6.7225 1.81804 0
M  V30 939 H 93.0233 -7.24628 2.29822 0
M  V30 940 N 94.5984 0.214957 -1.56127 0
M  V30 941 C 95.8284 0.953707 -1.8327 0
M  V30 942 C 96.2364 1.78181 -0.636262 0
M  V30 943 O 95.5794 1.79191 0.404516 0
M  V30 944 C 95.6414 1.91516 -3.0424 0
M  V30 945 C 95.3054 1.27094 -4.38972 0
M  V30 946 C 96.3024 0.657575 -5.15725 0
M  V30 947 C 93.9874 1.28073 -4.85698 0
M  V30 948 C 95.9814 0.0625968 -6.37369 0
M  V30 949 C 93.6684 0.681914 -6.07283 0
M  V30 950 C 94.6664 0.0739046 -6.8296 0
M  V30 951 O 94.3544 -0.515582 -8.02245 0
M  V30 952 H 94.0864 0.284764 -0.613095 0
M  V30 953 H 96.6404 0.233283 -2.04071 0
M  V30 954 H 94.8704 2.67475 -2.79274 0
M  V30 955 H 96.5594 2.52001 -3.18198 0
M  V30 956 H 97.3254 0.642288 -4.80728 0
M  V30 957 H 93.2044 1.74337 -4.26764 0
M  V30 958 H 96.7484 -0.412593 -6.96379 0
M  V30 959 H 92.6454 0.694636 -6.41752 0
M  V30 960 H 93.4134 -0.410544 -8.1747 0
M  V30 961 N 96.0765 1.50051 0.48192 0
M  V30 962 C 97.0245 1.68635 1.60203 0
M  V30 963 C 98.0185 0.552184 1.60148 0
M  V30 964 O 99.2245 0.732377 1.64427 0
M  V30 965 H 95.5995 0.532081 0.531407 0
M  V30 966 H 97.5705 2.62616 1.41688 0
M  V30 967 C 96.3195 1.78775 2.9822 0
M  V30 968 H 95.6425 2.6543 2.98976 0
M  V30 969 H 97.0825 1.95806 3.7608 0
M  V30 970 C 95.5415 0.536849 3.32595 0
M  V30 971 O 96.0715 -0.328897 4.00351 0
M  V30 972 N 94.2775 0.394091 2.87915 0
M  V30 973 H 93.8245 1.09962 2.32951 0
M  V30 974 H 93.7825 -0.441737 3.11281 0
M  V30 975 N 97.5546 -0.734337 1.39446 0
M  V30 976 C 98.5026 -1.86971 1.38364 0
M  V30 977 C 99.4966 -1.67288 0.266687 0
M  V30 978 O 100.703 -1.74621 0.436755 0
M  V30 979 H 97.0776 -0.615474 0.432082 0
M  V30 980 H 99.0486 -1.85 2.34132 0
M  V30 981 C 97.7976 -3.2466 1.24465 0
M  V30 982 H 97.1206 -3.40402 2.09682 0
M  V30 983 H 98.5606 -4.04292 1.27764 0
M  V30 984 C 97.0196 -3.36867 -0.0468674 0
M  V30 985 O 97.5496 -3.88618 -1.01681 0
M  V30 986 N 95.7556 -2.90391 -0.110145 0
M  V30 987 H 95.3026 -2.48466 0.679868 0
M  V30 988 H 95.2606 -2.98939 -0.973799 0
M  V30 989 N 99.0327 -1.24633 -0.964593 0
M  V30 990 C 100.261 -1.11501 -1.74285 0
M  V30 991 C 100.676 0.332165 -1.85855 0
M  V30 992 O 100.033 1.22903 -1.34911 0
M  V30 993 C 100.084 -1.75258 -3.16175 0
M  V30 994 O 99.8047 -3.14318 -3.05182 0
M  V30 995 C 101.306 -1.67776 -4.10324 0
M  V30 996 H 98.5257 -0.389407 -0.546446 0
M  V30 997 H 101.07 -1.64801 -1.21083 0
M  V30 998 H 99.2247 -1.25954 -3.66353 0
M  V30 999 H 99.6387 -3.4551 -3.94618 0
M  V30 1000 H 101.113 -2.17064 -5.0753 0
M  V30 1001 H 101.59 -0.639584 -4.34518 0
M  V30 1002 H 102.196 -2.16522 -3.66058 0
M  V30 1003 N 100.511 1.16574 -1.06058 0
M  V30 1004 C 101.739 1.90952 -0.796552 0
M  V30 1005 C 102.154 1.77302 0.648808 0
M  V30 1006 O 101.511 1.11605 1.44397 0
M  V30 1007 C 101.562 3.41736 -1.17894 0
M  V30 1008 O 101.283 3.54975 -2.56758 0
M  V30 1009 C 102.784 4.33169 -0.942308 0
M  V30 1010 H 100.004 0.605594 -0.288959 0
M  V30 1011 H 102.548 1.47777 -1.41358 0
M  V30 1012 H 100.703 3.82623 -0.606491 0
M  V30 1013 H 101.117 4.4846 -2.72 0
M  V30 1014 H 102.591 5.37439 -1.25952 0
M  V30 1015 H 103.068 4.3903 0.122078 0
M  V30 1016 H 103.674 3.98007 -1.49902 0
M  V30 1017 N 101.989 0.842826 1.3317 0
M  V30 1018 C 103.236 0.440447 1.97652 0
M  V30 1019 C 103.564 -1.00123 1.6675 0
M  V30 1020 O 102.819 -1.7155 0.941761 0
M  V30 1021 C 103.118 0.612607 3.52111 0
M  V30 1022 C 102.784 2.02297 4.02972 0
M  V30 1023 C 101.446 2.40874 4.16573 0
M  V30 1024 C 103.798 2.94402 4.30089 0
M  V30 1025 C 101.126 3.70852 4.54627 0
M  V30 1026 C 103.478 4.23865 4.69597 0
M  V30 1027 C 102.142 4.62392 4.81404 0
M  V30 1028 H 101.412 0.161171 0.72326 0
M  V30 1029 H 104.059 1.07061 1.58777 0
M  V30 1030 H 102.364 -0.100849 3.9167 0
M  V30 1031 H 104.061 0.2815 4.00011 0
M  V30 1032 H 100.651 1.71338 3.92863 0
M  V30 1033 H 104.835 2.65835 4.19101 0
M  V30 1034 H 100.091 4.00501 4.61962 0
M  V30 1035 H 104.265 4.95306 4.89536 0
M  V30 1036 H 101.892 5.63154 5.10648 0
M  V30 1037 N 103.467 -1.45747 0.599634 0
M  V30 1038 C 104.417 -2.27538 -0.145107 0
M  V30 1039 C 105.401 -1.3686 -0.846055 0
M  V30 1040 O 106.593 -1.6091 -0.737357 0
M  V30 1041 C 103.722 -3.23569 -1.14708 0
M  V30 1042 C 102.808 -4.21734 -0.447383 0
M  V30 1043 N 103.199 -5.03257 0.506535 0
M  V30 1044 C 101.497 -4.40536 -0.695966 0
M  V30 1045 C 102.198 -5.74426 0.917068 0
M  V30 1046 N 101.174 -5.42966 0.26253 0
M  V30 1047 H 104.976 -2.87965 0.587672 0
M  V30 1048 H 102.49 -1.56803 0.422697 0
M  V30 1049 H 104.487 -3.8089 -1.69495 0
M  V30 1050 H 103.147 -2.64702 -1.8805 0
M  V30 1051 H 104.158 -5.10319 0.882899 0
M  V30 1052 H 100.835 -3.92802 -1.41467 0
M  V30 1053 H 102.225 -6.4995 1.70338 0
M  V30 1054 N 104.945 -0.338344 -1.53925 0
M  V30 1055 C 106.361 0.0137736 -1.59594 0
M  V30 1056 C 106.561 1.49186 -1.35447 0
M  V30 1057 O 105.617 2.24987 -1.14616 0
M  V30 1058 C 106.93 -0.41773 -2.97784 0
M  V30 1059 C 108.478 -0.369633 -3.1081 0
M  V30 1060 C 108.953 -0.776524 -4.51369 0
M  V30 1061 N 110.444 -0.730506 -4.57403 0
M  V30 1062 C 111.179 -1.01736 -5.64303 0
M  V30 1063 N 110.675 -1.3721 -6.79077 0
M  V30 1064 N 112.468 -0.941942 -5.54151 0
M  V30 1065 H 104.619 -1.3012 -1.67876 0
M  V30 1066 H 106.882 -0.530082 -0.78595 0
M  V30 1067 H 106.588 -1.44811 -3.20504 0
M  V30 1068 H 106.462 0.209729 -3.76616 0
M  V30 1069 H 108.849 0.651568 -2.87817 0
M  V30 1070 H 108.93 -1.03223 -2.34049 0
M  V30 1071 H 108.574 -1.79571 -4.75096 0
M  V30 1072 H 108.504 -0.0914649 -5.26521 0
M  V30 1073 H 110.995 -0.468783 -3.74981 0
M  V30 1074 H 111.308 -1.57597 -7.5656 0
M  V30 1075 H 109.653 -1.4105 -6.80536 0
M  V30 1076 H 112.844 -0.664184 -4.63364 0
M  V30 1077 H 113.017 -1.16884 -6.37371 0
M  V30 1078 N 106.423 1.57458 -0.0668435 0
M  V30 1079 C 107.669 1.93587 0.6043 0
M  V30 1080 C 108.002 0.946722 1.69561 0
M  V30 1081 O 107.277 -0.0248516 1.94484 0
M  V30 1082 C 107.56 3.40014 1.18585 0
M  V30 1083 C 107.413 4.49685 0.101529 0
M  V30 1084 C 108.732 3.87154 2.09284 0
M  V30 1085 H 105.851 0.703958 0.218202 0
M  V30 1086 H 108.493 1.89542 -0.131804 0
M  V30 1087 H 106.643 3.43592 1.81319 0
M  V30 1088 H 108.315 4.5823 -0.531279 0
M  V30 1089 H 106.558 4.30059 -0.568487 0
M  V30 1090 H 107.229 5.49266 0.54874 0
M  V30 1091 H 109.705 3.85551 1.56491 0
M  V30 1092 H 108.581 4.90231 2.46911 0
M  V30 1093 H 108.842 3.2481 2.99918 0
M  V30 1094 N 107.901 -0.206675 1.56239 0
M  V30 1095 C 109.15 -0.926964 1.79138 0
M  V30 1096 C 109.463 -1.84901 0.638043 0
M  V30 1097 O 110.669 -2.60906 0.751033 0
M  V30 1098 C 109.125 -1.6986 3.17294 0
M  V30 1099 C 108.733 -0.821956 4.40395 0
M  V30 1100 C 110.477 -2.40922 3.4951 0
M  V30 1101 C 108.384 -1.59179 5.69575 0
M  V30 1102 H 107.314 -0.349864 0.667915 0
M  V30 1103 H 109.965 -0.180487 1.8261 0
M  V30 1104 H 108.347 -2.48853 3.08039 0
M  V30 1105 H 109.521 -0.0715019 4.60745 0
M  V30 1106 H 107.836 -0.222741 4.15804 0
M  V30 1107 H 110.433 -2.99047 4.43255 0
M  V30 1108 H 110.776 -3.14542 2.72707 0
M  V30 1109 H 111.309 -1.68905 3.60161 0
M  V30 1110 H 108.048 -0.898589 6.49312 0
M  V30 1111 H 107.568 -2.31648 5.53262 0
M  V30 1112 H 109.247 -2.14862 6.10281 0
M  V30 1113 N 109.379 -1.50304 -0.473955 0
M  V30 1114 C 110.79 -1.54042 -1.0549 0
M  V30 1115 C 111.141 -0.342248 -1.93192 0
M  V30 1116 O 110.266 0.545157 -2.09421 0
M  V30 1117 C 110.861 -2.79152 -1.91989 0
M  V30 1118 C 109.42 -2.8558 -2.45196 0
M  V30 1119 C 108.567 -2.48295 -1.2347 0
M  V30 1120 H 111.518 -1.5661 -0.256693 0
M  V30 1121 H 111.539 -2.60845 -2.7702 0
M  V30 1122 H 111.051 -3.66339 -1.28131 0
M  V30 1123 H 109.152 -2.02738 -3.12615 0
M  V30 1124 H 109.265 -3.88403 -2.80499 0
M  V30 1125 H 107.629 -2.00669 -1.56856 0
M  V30 1126 H 108.412 -3.37787 -0.612789 0
M  V30 1127 N 110.857 0.726932 -1.39834 0
M  V30 1128 C 112.105 1.4837 -1.37225 0
M  V30 1129 C 112.426 1.94979 0.0284857 0
M  V30 1130 O 111.696 1.69555 0.981213 0
M  V30 1131 H 110.276 0.55043 -0.505011 0
M  V30 1132 H 112.938 0.862468 -1.74778 0
M  V30 1133 H 112.034 2.36198 -2.04003 0
M  V30 1134 N 112.336 1.25143 0.95797 0
M  V30 1135 C 113.583 1.09692 1.70217 0
M  V30 1136 C 113.911 -0.362654 1.91089 0
M  V30 1137 O 113.166 -1.28386 1.47701 0
M  V30 1138 C 113.465 1.79272 3.09187 0
M  V30 1139 C 113.131 3.29196 3.08125 0
M  V30 1140 C 111.793 3.70096 3.07543 0
M  V30 1141 C 114.145 4.24995 3.0171 0
M  V30 1142 C 111.473 5.05213 2.9829 0
M  V30 1143 C 113.825 5.60132 2.93999 0
M  V30 1144 C 112.489 6.00365 2.9175 0
M  V30 1145 H 111.759 0.401393 0.622868 0
M  V30 1146 H 114.406 1.55372 1.11945 0
M  V30 1147 H 112.711 1.26014 3.70982 0
M  V30 1148 H 114.408 1.64773 3.65583 0
M  V30 1149 H 110.998 2.96651 3.09348 0
M  V30 1150 H 115.182 3.9439 3.01281 0
M  V30 1151 H 110.438 5.35569 2.94916 0
M  V30 1152 H 114.612 6.3406 2.87996 0
M  V30 1153 H 112.239 7.05023 2.84336 0
M  V30 1154 N 113.814 -1.1601 1.06675 0
M  V30 1155 C 114.747 -2.1947 0.625168 0
M  V30 1156 C 115.725 -1.58699 -0.354041 0
M  V30 1157 O 116.909 -1.86669 -0.262098 0
M  V30 1158 C 114.036 -3.38598 -0.0829593 0
M  V30 1159 C 113.082 -4.1787 0.853611 0
M  V30 1160 S 113.915 -4.81135 2.35094 0
M  V30 1161 C 115.071 -6.03639 1.65441 0
M  V30 1162 H 115.304 -2.56587 1.50168 0
M  V30 1163 H 112.837 -1.26862 0.880078 0
M  V30 1164 H 114.795 -4.07621 -0.485288 0
M  V30 1165 H 113.456 -2.99839 -0.935716 0
M  V30 1166 H 112.649 -5.03078 0.304755 0
M  V30 1167 H 112.251 -3.54361 1.196 0
M  V30 1168 H 114.543 -6.70632 0.962201 0
M  V30 1169 H 115.486 -6.63081 2.48454 0
M  V30 1170 H 115.894 -5.52965 1.13534 0
M  V30 1171 N 115.292 -0.849877 -1.32721 0
M  V30 1172 C 116.541 -0.447175 -1.96681 0
M  V30 1173 C 116.854 1.00135 -1.68025 0
M  V30 1174 O 118.06 1.50926 -2.25685 0
M  V30 1175 C 116.516 -0.7487 -3.52026 0
M  V30 1176 C 116.124 -2.21264 -3.89546 0
M  V30 1177 C 117.868 -0.413487 -4.22481 0
M  V30 1178 C 115.775 -2.45763 -5.37917 0
M  V30 1179 H 114.705 -0.163486 -0.736063 0
M  V30 1180 H 117.356 -1.03999 -1.51183 0
M  V30 1181 H 115.738 -0.0853727 -3.95908 0
M  V30 1182 H 116.912 -2.91736 -3.56689 0
M  V30 1183 H 115.227 -2.5119 -3.32103 0
M  V30 1184 H 117.824 -0.574017 -5.3161 0
M  V30 1185 H 118.167 0.644492 -4.11281 0
M  V30 1186 H 118.7 -1.03251 -3.84167 0
M  V30 1187 H 115.439 -3.50168 -5.54132 0
M  V30 1188 H 114.959 -1.79864 -5.72197 0
M  V30 1189 H 116.638 -2.29471 -6.0494 0
M  V30 1190 N 116.77 1.45427 -0.607355 0
M  V30 1191 C 117.702 2.2871 0.149752 0
M  V30 1192 C 118.715 1.39937 0.831958 0
M  V30 1193 O 119.904 1.64313 0.697385 0
M  V30 1194 C 117.004 3.15673 1.23304 0
M  V30 1195 C 116.177 4.32722 0.637996 0
M  V30 1196 C 115.236 5.00895 1.61215 0
M  V30 1197 O 114.262 5.57697 1.13854 0
M  V30 1198 N 115.464 5.00159 2.94655 0
M  V30 1199 H 118.229 2.94328 -0.564882 0
M  V30 1200 H 115.79 1.55612 -0.446823 0
M  V30 1201 H 117.782 3.58144 1.88454 0
M  V30 1202 H 116.352 2.51965 1.8502 0
M  V30 1203 H 115.572 3.93734 -0.191572 0
M  V30 1204 H 116.86 5.08321 0.220665 0
M  V30 1205 H 116.258 4.553 3.35735 0
M  V30 1206 H 114.815 5.46495 3.55228 0
M  V30 1207 N 118.248 0.346503 1.53744 0
M  V30 1208 C 119.496 -0.248612 2.00565 0
M  V30 1209 C 119.817 -1.5083 1.23593 0
M  V30 1210 O 119.087 -1.92858 0.343912 0
M  V30 1211 H 117.667 -0.0948564 0.740953 0
M  V30 1212 H 120.329 0.468341 1.89189 0
M  V30 1213 H 119.425 -0.488994 3.08245 0
M  V30 1214 N 119.726 -1.57421 0.075193 0
M  V30 1215 C 120.974 -1.93236 -0.591974 0
M  V30 1216 C 121.295 -0.956241 -1.69944 0
M  V30 1217 O 120.565 -0.00494792 -1.95899 0
M  V30 1218 H 119.145 -0.713355 -0.22166 0
M  V30 1219 H 121.807 -1.9444 0.133848 0
M  V30 1220 H 120.903 -2.95131 -1.01509 0
M  V30 1221 N 121.204 0.198386 -1.56346 0
M  V30 1222 C 122.452 0.91747 -1.80075 0
M  V30 1223 C 122.773 1.83929 -0.647692 0
M  V30 1224 O 122.043 1.93029 0.334166 0
M  V30 1225 H 120.623 0.341774 -0.664228 0
M  V30 1226 H 123.285 0.204684 -1.93822 0
M  V30 1227 H 122.381 1.51055 -2.7311 0
M  V30 1228 N 122.682 1.50554 0.465978 0
M  V30 1229 C 123.929 1.61798 1.21768 0
M  V30 1230 C 124.257 0.320696 1.91838 0
M  V30 1231 O 123.512 -0.693724 1.82992 0
M  V30 1232 C 123.811 2.75152 2.28093 0
M  V30 1233 C 123.477 4.15454 1.75239 0
M  V30 1234 C 122.139 4.53628 1.60546 0
M  V30 1235 C 124.491 5.03121 1.36083 0
M  V30 1236 C 121.819 5.77204 1.05128 0
M  V30 1237 C 124.171 6.27249 0.821056 0
M  V30 1238 C 122.835 6.64221 0.660795 0
M  V30 1239 H 122.105 0.592063 0.445582 0
M  V30 1240 H 124.752 1.84503 0.512927 0
M  V30 1241 H 123.057 2.46556 3.04496 0
M  V30 1242 H 124.754 2.81055 2.86023 0
M  V30 1243 H 121.344 3.85341 1.87644 0
M  V30 1244 H 125.528 4.74257 1.46267 0
M  V30 1245 H 120.784 6.0452 0.91462 0
M  V30 1246 H 124.958 6.94537 0.509018 0
M  V30 1247 H 122.585 7.59854 0.229226 0
M  V30 1248 N 124.16 -0.719506 1.40217 0
M  V30 1249 C 125.388 -1.50864 1.41589 0
M  V30 1250 C 125.803 -1.88794 0.0145275 0
M  V30 1251 O 125.16 -1.55174 -0.960594 0
M  V30 1252 C 125.211 -2.78646 2.30302 0
M  V30 1253 O 124.932 -2.42321 3.64983 0
M  V30 1254 C 126.433 -3.72569 2.40224 0
M  V30 1255 H 123.653 -0.465709 0.48307 0
M  V30 1256 H 126.197 -0.88785 1.84221 0
M  V30 1257 H 124.352 -3.37019 1.91042 0
M  V30 1258 H 124.766 -3.24514 4.12057 0
M  V30 1259 H 126.24 -4.5908 3.06512 0
M  V30 1260 H 126.717 -4.15403 1.42608 0
M  V30 1261 H 127.323 -3.20109 2.80019 0
M  V30 1262 N 125.638 -1.25649 -0.95132 0
M  V30 1263 C 126.548 -1.08073 -2.08224 0
M  V30 1264 C 127.564 -0.0169666 -1.73992 0
M  V30 1265 O 128.74 -0.218593 -2.0021 0
M  V30 1266 C 125.805 -0.704922 -3.39458 0
M  V30 1267 C 124.866 -1.84699 -3.87537 0
M  V30 1268 C 124.099 -1.48902 -5.12508 0
M  V30 1269 O 124.322 -0.386156 -5.69091 0
M  V30 1270 O 123.256 -2.32033 -5.55378 0
M  V30 1271 H 127.082 -2.02924 -2.25954 0
M  V30 1272 H 124.667 -1.04618 -1.06656 0
M  V30 1273 H 126.549 -0.507609 -4.18332 0
M  V30 1274 H 125.224 0.214291 -3.2299 0
M  V30 1275 H 124.131 -2.09919 -3.09653 0
M  V30 1276 H 125.464 -2.74557 -4.08509 0
M  V30 1277 N 127.117 1.15442 -1.07289 0
M  V30 1278 C 128.049 2.19773 -0.650585 0
M  V30 1279 C 129.062 1.60076 0.296572 0
M  V30 1280 O 130.251 1.78293 0.0859905 0
M  V30 1281 C 127.351 3.38838 0.0650398 0
M  V30 1282 C 126.524 4.2808 -0.898141 0
M  V30 1283 C 125.583 5.2574 -0.219926 0
M  V30 1284 O 124.609 5.62654 -0.860773 0
M  V30 1285 N 125.811 5.71205 1.03466 0
M  V30 1286 H 128.576 2.56622 -1.54808 0
M  V30 1287 H 126.137 1.30551 -0.957494 0
M  V30 1288 H 128.129 4.01222 0.529415 0
M  V30 1289 H 126.699 3.00409 0.864466 0
M  V30 1290 H 125.919 3.62804 -1.54165 0
M  V30 1291 H 127.207 4.84577 -1.5512 0
M  V30 1292 H 126.605 5.43325 1.57526 0
M  V30 1293 H 125.162 6.35633 1.44272 0
M  V30 1294 N 128.595 0.856903 1.32268 0
M  V30 1295 C 129.528 0.247937 2.26849 0
M  V30 1296 C 130.506 -0.615382 1.50505 0
M  V30 1297 O 131.69 -0.571689 1.79622 0
M  V30 1298 C 128.817 -0.650093 3.32403 0
M  V30 1299 C 127.863 0.140138 4.2627 0
M  V30 1300 S 128.696 1.51004 5.13769 0
M  V30 1301 C 129.852 0.61778 6.22844 0
M  V30 1302 H 130.085 1.04971 2.78152 0
M  V30 1303 H 127.618 0.654665 1.39834 0
M  V30 1304 H 129.576 -1.16256 3.93694 0
M  V30 1305 H 128.237 -1.4257 2.7988 0
M  V30 1306 H 127.43 -0.543945 5.01056 0
M  V30 1307 H 127.032 0.584267 3.69408 0
M  V30 1308 H 129.324 -0.177053 6.77269 0
M  V30 1309 H 130.267 1.33636 6.95375 0
M  V30 1310 H 130.675 0.191124 5.64176 0
M  V30 1311 N 130.073 -1.45103 0.615059 0
M  V30 1312 C 131.005 -2.28786 -0.13762 0
M  V30 1313 C 132.018 -1.40376 -0.824525 0
M  V30 1314 O 133.207 -1.64681 -0.688662 0
M  V30 1315 C 130.307 -3.16322 -1.21628 0
M  V30 1316 C 129.48 -4.33054 -0.615039 0
M  V30 1317 C 128.539 -5.01743 -1.58556 0
M  V30 1318 O 127.565 -5.58293 -1.10895 0
M  V30 1319 N 128.767 -5.01714 -2.91998 0
M  V30 1320 H 131.532 -2.94025 0.580483 0
M  V30 1321 H 129.093 -1.55373 0.45507 0
M  V30 1322 H 131.085 -3.59139 -1.86552 0
M  V30 1323 H 129.655 -2.52943 -1.83681 0
M  V30 1324 H 128.875 -3.93627 0.21245 0
M  V30 1325 H 130.163 -5.08431 -0.193704 0
M  V30 1326 H 129.561 -4.57075 -3.33316 0
M  V30 1327 H 128.118 -5.48371 -3.52325 0
M  V30 1328 N 131.551 -0.354651 -1.53558 0
M  V30 1329 C 132.483 0.5315 -2.22952 0
M  V30 1330 C 133.496 1.05503 -1.23988 0
M  V30 1331 O 134.685 0.963279 -1.50277 0
M  V30 1332 C 131.785 1.74538 -2.90499 0
M  V30 1333 C 130.958 1.35524 -4.15875 0
M  V30 1334 C 130.017 2.42999 -4.66731 0
M  V30 1335 O 129.043 2.05844 -5.30676 0
M  V30 1336 N 130.245 3.74423 -4.43608 0
M  V30 1337 H 133.01 -0.0628615 -2.99634 0
M  V30 1338 H 130.571 -0.179302 -1.60904 0
M  V30 1339 H 132.563 2.45892 -3.21433 0
M  V30 1340 H 131.133 2.24686 -2.17336 0
M  V30 1341 H 130.353 0.471998 -3.91364 0
M  V30 1342 H 131.641 1.07071 -4.97406 0
M  V30 1343 H 131.039 4.07391 -3.92491 0
M  V30 1344 H 129.596 4.41913 -4.7912 0
M  V30 1345 N 133.029 1.57378 -0.0835403 0
M  V30 1346 C 133.976 2.13384 0.879539 0
M  V30 1347 C 134.946 1.04936 1.28754 0
M  V30 1348 O 136.131 1.32662 1.37133 0
M  V30 1349 C 133.271 2.70932 2.13752 0
M  V30 1350 C 132.384 3.93575 1.7811 0
M  V30 1351 C 131.519 4.39326 2.98607 0
M  V30 1352 C 130.558 5.54587 2.59037 0
M  V30 1353 N 129.695 5.95243 3.72331 0
M  V30 1354 H 134.535 2.9537 0.395076 0
M  V30 1355 H 132.072 1.45953 0.183349 0
M  V30 1356 H 134.03 3.02411 2.87408 0
M  V30 1357 H 132.66 1.91693 2.59718 0
M  V30 1358 H 131.712 3.68483 0.94469 0
M  V30 1359 H 133.024 4.77258 1.45005 0
M  V30 1360 H 132.178 4.72528 3.80529 0
M  V30 1361 H 130.917 3.5452 3.34913 0
M  V30 1362 H 129.922 5.21024 1.75539 0
M  V30 1363 H 131.147 6.41133 2.23887 0
M  V30 1364 H 129.093 5.13385 4.08378 0
M  V30 1365 H 129.01 6.73694 3.43034 0
M  V30 1366 H 130.278 6.33072 4.54797 0
M  V30 1367 N 134.507 -0.190092 1.56449 0
M  V30 1368 C 135.454 -1.23557 1.94942 0
M  V30 1369 C 136.424 -1.44972 0.810696 0
M  V30 1370 O 137.609 -1.58023 1.06927 0
M  V30 1371 C 134.749 -2.57416 2.2985 0
M  V30 1372 C 133.862 -2.43537 3.5681 0
M  V30 1373 C 132.997 -3.70134 3.81017 0
M  V30 1374 C 132.036 -3.51109 5.01387 0
M  V30 1375 N 131.173 -4.6973 5.21822 0
M  V30 1376 H 136.013 -0.900304 2.84075 0
M  V30 1377 H 133.55 -0.43318 1.40577 0
M  V30 1378 H 135.508 -3.35409 2.48106 0
M  V30 1379 H 134.138 -2.88975 1.43852 0
M  V30 1380 H 133.19 -1.56816 3.46573 0
M  V30 1381 H 134.502 -2.25415 4.4496 0
M  V30 1382 H 133.656 -4.56566 3.9954 0
M  V30 1383 H 132.395 -3.91215 2.91207 0
M  V30 1384 H 131.4 -2.63063 4.82782 0
M  V30 1385 H 132.625 -3.31468 5.9271 0
M  V30 1386 H 130.571 -4.91065 4.34961 0
M  V30 1387 H 130.488 -4.54452 6.0416 0
M  V30 1388 H 131.756 -5.57499 5.44808 0
M  V30 1389 N 135.985 -1.50799 -0.457987 0
M  V30 1390 C 137.396 -1.55152 -1.0385 0
M  V30 1391 C 137.747 -0.362719 -1.92818 0
M  V30 1392 O 136.872 0.522915 -2.09987 0
M  V30 1393 C 137.467 -2.81173 -1.89017 0
M  V30 1394 C 136.026 -2.88164 -2.42154 0
M  V30 1395 C 135.173 -2.49591 -1.20829 0
M  V30 1396 H 138.124 -1.56874 -0.240068 0
M  V30 1397 H 138.145 -2.63769 -2.74238 0
M  V30 1398 H 137.657 -3.67677 -1.24238 0
M  V30 1399 H 135.758 -2.06042 -3.10447 0
M  V30 1400 H 135.871 -3.91356 -2.76364 0
M  V30 1401 H 134.235 -2.02322 -1.54719 0
M  V30 1402 H 135.018 -3.38418 -0.576927 0
M  V30 1403 N 137.463 0.71206 -1.40597 0
M  V30 1404 C 138.411 1.84746 -1.41321 0
M  V30 1405 C 139.405 1.66842 -0.293268 0
M  V30 1406 O 140.611 1.73904 -0.464481 0
M  V30 1407 H 136.986 0.608522 -0.441819 0
M  V30 1408 H 138.957 1.81252 -2.37045 0
M  V30 1409 C 137.706 3.22638 -1.29614 0
M  V30 1410 H 137.029 3.37023 -2.15071 0
M  V30 1411 H 138.469 4.02209 -1.3418 0
M  V30 1412 C 136.928 3.36899 -0.00673121 0
M  V30 1413 O 137.458 3.90186 0.954859 0
M  V30 1414 N 135.664 2.9053 0.0639327 0
M  V30 1415 H 135.211 2.47353 -0.719311 0
M  V30 1416 H 135.169 3.0045 0.926118 0
M  V30 1417 N 138.941 1.26152 0.944643 0
M  V30 1418 C 140.352 1.10454 1.50522 0
M  V30 1419 C 140.703 -0.31635 1.93633 0
M  V30 1420 O 139.828 -1.20746 1.79581 0
M  V30 1421 C 140.423 1.99891 2.73549 0
M  V30 1422 C 138.982 1.88348 3.25886 0
M  V30 1423 C 138.129 1.93447 1.9868 0
M  V30 1424 H 141.08 1.39292 0.760489 0
M  V30 1425 H 141.101 1.54477 3.47732 0
M  V30 1426 H 140.613 3.03297 2.42141 0
M  V30 1427 H 138.714 0.878636 3.62092 0
M  V30 1428 H 138.827 2.73696 3.93227 0
M  V30 1429 H 137.191 1.37456 2.14425 0
M  V30 1430 H 137.974 2.98476 1.69607 0
M  V30 1431 N 140.419 -1.14872 1.07899 0
M  V30 1432 C 141.83 -1.67367 0.827363 0
M  V30 1433 C 142.181 -1.85236 -0.646693 0
M  V30 1434 O 141.306 -1.55974 -1.50004 0
M  V30 1435 C 141.901 -3.04016 1.49532 0
M  V30 1436 C 140.46 -3.53566 1.29106 0
M  V30 1437 C 139.607 -2.29161 1.56143 0
M  V30 1438 H 142.558 -0.990083 1.24028 0
M  V30 1439 H 142.579 -3.69219 0.919643 0
M  V30 1440 H 142.091 -2.90978 2.56814 0
M  V30 1441 H 140.192 -3.71835 0.238713 0
M  V30 1442 H 140.305 -4.34661 2.01511 0
M  V30 1443 H 138.669 -2.34978 0.982717 0
M  V30 1444 H 139.452 -2.18705 2.64619 0
M  V30 1445 N 141.898 -0.863906 -1.31812 0
M  V30 1446 C 143.147 -0.46801 -1.96195 0
M  V30 1447 C 143.46 0.983474 -1.69077 0
M  V30 1448 O 144.666 1.48523 -2.27273 0
M  V30 1449 C 143.122 -0.785995 -3.51212 0
M  V30 1450 C 142.73 -2.25383 -3.87178 0
M  V30 1451 C 144.474 -0.458274 -4.22019 0
M  V30 1452 C 142.381 -2.51455 -5.3528 0
M  V30 1453 H 141.311 -0.171283 -0.734287 0
M  V30 1454 H 143.962 -1.05597 -1.50072 0
M  V30 1455 H 142.344 -0.127359 -3.95795 0
M  V30 1456 H 143.518 -2.95502 -3.53575 0
M  V30 1457 H 141.833 -2.54698 -3.2942 0
M  V30 1458 H 144.43 -0.630369 -5.30971 0
M  V30 1459 H 144.773 0.600834 -4.11941 0
M  V30 1460 H 145.306 -1.07319 -3.8305 0
M  V30 1461 H 142.045 -3.56025 -5.50387 0
M  V30 1462 H 141.565 -1.85923 -5.70257 0
M  V30 1463 H 143.244 -2.35874 -6.02472 0
M  V30 1464 N 143.376 1.44774 -0.622745 0
M  V30 1465 C 144.323 2.30635 0.0871679 0
M  V30 1466 C 145.293 1.42994 0.845097 0
M  V30 1467 O 146.478 1.71907 0.827812 0
M  V30 1468 C 143.618 3.28144 1.06844 0
M  V30 1469 C 142.731 4.30888 0.309809 0
M  V30 1470 C 141.866 5.15494 1.28215 0
M  V30 1471 C 140.905 6.09953 0.512198 0
M  V30 1472 N 140.042 6.87287 1.43458 0
M  V30 1473 H 144.882 2.90803 -0.650974 0
M  V30 1474 H 142.419 1.43286 -0.33281 0
M  V30 1475 H 144.377 3.83157 1.65066 0
M  V30 1476 H 143.007 2.69695 1.77382 0
M  V30 1477 H 142.059 3.78414 -0.388181 0
M  V30 1478 H 143.371 4.97955 -0.290254 0
M  V30 1479 H 142.525 5.74983 1.93596 0
M  V30 1480 H 141.264 4.48481 1.91614 0
M  V30 1481 H 140.269 5.49581 -0.155151 0
M  V30 1482 H 141.494 6.78999 -0.116958 0
M  V30 1483 H 139.44 6.2295 2.05594 0
M  V30 1484 H 139.357 7.50763 0.888335 0
M  V30 1485 H 140.625 7.51306 2.07749 0
M  V30 1486 N 144.854 0.36279 1.53368 0
M  V30 1487 C 145.802 -0.500155 2.27159 0
M  V30 1488 C 146.796 -1.08575 1.3003 0
M  V30 1489 O 148.002 -1.02927 1.47668 0
M  V30 1490 H 144.377 -0.180009 0.730138 0
M  V30 1491 H 146.348 0.14401 2.98052 0
M  V30 1492 C 145.097 -1.62937 3.07159 0
M  V30 1493 H 144.42 -1.18806 3.8174 0
M  V30 1494 H 145.86 -2.20795 3.61975 0
M  V30 1495 C 144.319 -2.57007 2.17829 0
M  V30 1496 O 144.849 -3.59752 1.78721 0
M  V30 1497 N 143.055 -2.26131 1.82518 0
M  V30 1498 H 142.602 -1.42616 2.14519 0
M  V30 1499 H 142.56 -2.89327 1.23034 0
M  V30 1500 N 146.332 -1.57332 0.0918853 0
M  V30 1501 C 147.242 -2.17368 -0.882505 0
M  V30 1502 C 148.258 -1.14226 -1.31257 0
M  V30 1503 O 149.434 -1.46582 -1.38115 0
M  V30 1504 C 146.499 -2.73962 -2.12476 0
M  V30 1505 C 145.56 -3.92048 -1.7492 0
M  V30 1506 C 144.793 -4.45933 -2.93223 0
M  V30 1507 O 145.016 -3.98764 -4.07852 0
M  V30 1508 O 143.95 -5.36999 -2.71875 0
M  V30 1509 H 147.776 -3.01031 -0.40172 0
M  V30 1510 H 145.361 -1.48813 -0.132291 0
M  V30 1511 H 147.243 -3.10147 -2.85283 0
M  V30 1512 H 145.918 -1.93347 -2.59613 0
M  V30 1513 H 144.825 -3.6068 -0.993025 0
M  V30 1514 H 146.158 -4.74017 -1.32548 0
M  V30 1515 N 147.81 0.181792 -1.56548 0
M  V30 1516 C 148.773 1.20894 -1.94724 0
M  V30 1517 C 149.773 1.37738 -0.829747 0
M  V30 1518 O 150.963 1.35323 -1.09697 0
M  V30 1519 C 148.095 2.57593 -2.23291 0
M  V30 1520 H 149.288 0.882275 -2.86629 0
M  V30 1521 H 146.841 0.423838 -1.50444 0
M  V30 1522 H 147.576 2.95291 -1.34067 0
M  V30 1523 H 147.361 2.46735 -3.04736 0
M  V30 1524 H 148.851 3.31637 -2.53785 0
M  V30 1525 N 149.288 1.51039 0.449983 0
M  V30 1526 C 150.565 1.53612 1.21089 0
M  V30 1527 C 150.945 0.292997 2.09057 0
M  V30 1528 O 150.293 -0.72259 2.16774 0
M  V30 1529 C 150.503 2.84337 2.0237 0
M  V30 1530 C 151.851 3.35807 2.59843 0
M  V30 1531 O 152.875 2.85802 2.12593 0
M  V30 1532 O 151.734 4.23029 3.45989 0
M  V30 1533 H 148.828 0.617057 0.550608 0
M  V30 1534 H 151.374 1.63344 0.460082 0
M  V30 1535 H 150.146 3.66278 1.37681 0
M  V30 1536 H 149.769 2.77708 2.84542 0
M  V30 1537 N 150.766 -0.704594 1.40972 0
M  V30 1538 C 151.714 -1.83994 1.42299 0
M  V30 1539 C 152.708 -1.66684 0.302111 0
M  V30 1540 O 153.914 -1.73655 0.473697 0
M  V30 1541 H 150.289 -0.606171 0.44504 0
M  V30 1542 H 152.26 -1.79992 2.38003 0
M  V30 1543 C 151.009 -3.21946 1.31323 0
M  V30 1544 H 150.332 -3.35878 2.16855 0
M  V30 1545 H 151.772 -4.01491 1.36311 0
M  V30 1546 C 150.231 -3.36891 0.0245977 0
M  V30 1547 O 150.761 -3.90687 -0.934153 0
M  V30 1548 N 148.967 -2.90559 -0.0485243 0
M  V30 1549 H 148.514 -2.46968 0.732419 0
M  V30 1550 H 148.472 -3.00937 -0.910171 0
M  V30 1551 N 152.244 -1.26651 -0.937939 0
M  V30 1552 C 153.492 -1.12165 -1.68118 0
M  V30 1553 C 153.813 0.334983 -1.92101 0
M  V30 1554 O 153.083 1.23583 -1.52 0
M  V30 1555 H 151.663 -0.412093 -0.623048 0
M  V30 1556 H 154.325 -1.59027 -1.12678 0
M  V30 1557 H 153.421 -1.64289 -2.6536 0
M  V30 1558 N 153.722 1.14298 -1.08507 0
M  V30 1559 C 154.652 2.21542 -0.737646 0
M  V30 1560 C 155.633 1.67773 0.280377 0
M  V30 1561 O 156.818 1.93616 0.150521 0
M  V30 1562 C 153.948 3.46988 -0.147259 0
M  V30 1563 C 152.902 4.13789 -1.09374 0
M  V30 1564 C 152.228 5.33449 -0.365524 0
M  V30 1565 C 153.528 4.62208 -2.4323 0
M  V30 1566 H 155.222 2.5086 -1.6343 0
M  V30 1567 H 152.768 1.20576 -0.787243 0
M  V30 1568 H 154.721 4.21262 0.107808 0
M  V30 1569 H 153.445 3.17037 0.784538 0
M  V30 1570 H 152.104 3.4147 -1.33393 0
M  V30 1571 H 151.752 4.99759 0.57011 0
M  V30 1572 H 151.452 5.79088 -0.996512 0
M  V30 1573 H 152.976 6.10485 -0.118534 0
M  V30 1574 H 154.39 5.27952 -2.23472 0
M  V30 1575 H 152.787 5.18553 -3.02031 0
M  V30 1576 H 153.857 3.77224 -3.04681 0
M  V30 1577 N 155.201 0.870884 1.31352 0
M  V30 1578 C 156.617 0.562932 1.49343 0
M  V30 1579 C 156.817 -0.902725 1.80148 0
M  V30 1580 O 155.873 -1.68484 1.88067 0
M  V30 1581 C 157.186 1.46393 2.62659 0
M  V30 1582 C 158.734 1.46607 2.76542 0
M  V30 1583 C 159.209 2.35266 3.92955 0
M  V30 1584 N 160.7 2.33151 4.00243 0
M  V30 1585 C 161.435 2.98471 4.89594 0
M  V30 1586 N 160.931 3.72964 5.8384 0
M  V30 1587 N 162.724 2.87775 4.82848 0
M  V30 1588 H 154.875 1.81923 1.09626 0
M  V30 1589 H 157.138 0.777934 0.541777 0
M  V30 1590 H 156.844 2.50689 2.46674 0
M  V30 1591 H 156.718 1.16314 3.58819 0
M  V30 1592 H 159.105 0.43069 2.9194 0
M  V30 1593 H 159.186 1.8071 1.81046 0
M  V30 1594 H 158.83 3.38881 3.78315 0
M  V30 1595 H 158.76 1.98487 4.87761 0
M  V30 1596 H 161.251 1.79006 3.32814 0
M  V30 1597 H 161.564 4.19932 6.4875 0
M  V30 1598 H 159.909 3.77073 5.83816 0
M  V30 1599 H 163.1 2.29116 4.08195 0
M  V30 1600 H 163.273 3.38961 5.52277 0
M  V30 1601 N 156.679 -1.44442 0.630414 0
M  V30 1602 C 157.627 -2.32437 -0.0871428 0
M  V30 1603 C 158.621 -1.47304 -0.836525 0
M  V30 1604 O 159.827 -1.63653 -0.749506 0
M  V30 1605 H 156.202 -0.750533 -0.0469495 0
M  V30 1606 H 158.173 -2.90709 0.673096 0
M  V30 1607 C 156.922 -3.31288 -1.05563 0
M  V30 1608 H 156.245 -3.96805 -0.488426 0
M  V30 1609 H 157.685 -3.9554 -1.52721 0
M  V30 1610 C 156.144 -2.6016 -2.14052 0
M  V30 1611 O 156.674 -2.39997 -3.22124 0
M  V30 1612 N 154.88 -2.19911 -1.89967 0
M  V30 1613 H 154.427 -2.36509 -1.02085 0
M  V30 1614 H 154.385 -1.72646 -2.62756 0
M  V30 1615 N 158.157 -0.370918 -1.53173 0
M  V30 1616 C 159.385 0.217704 -2.05751 0
M  V30 1617 C 159.8 1.42018 -1.24404 0
M  V30 1618 O 159.157 1.80245 -0.286033 0
M  V30 1619 C 159.208 0.605954 -3.56385 0
M  V30 1620 O 158.929 -0.548734 -4.3465 0
M  V30 1621 C 160.43 1.2524 -4.25241 0
M  V30 1622 H 157.65 0.0371659 -0.66997 0
M  V30 1623 H 160.194 -0.530832 -1.9749 0
M  V30 1624 H 158.349 1.3044 -3.6478 0
M  V30 1625 H 158.763 -0.23376 -5.23979 0
M  V30 1626 H 160.237 1.47458 -5.3194 0
M  V30 1627 H 160.714 2.2143 -3.79296 0
M  V30 1628 H 161.32 0.595233 -4.21114 0
M  V30 1629 N 159.635 1.57281 -0.100228 0
M  V30 1630 C 161.051 1.57527 0.256416 0
M  V30 1631 C 161.251 1.11173 1.68056 0
M  V30 1632 O 160.307 0.79053 2.39806 0
M  V30 1633 C 161.62 3.00673 0.0401747 0
M  V30 1634 C 163.168 3.12815 0.107528 0
M  V30 1635 C 163.643 4.57929 -0.0807834 0
M  V30 1636 N 165.134 4.63193 -0.0261207 0
M  V30 1637 C 165.869 5.73212 -0.146999 0
M  V30 1638 N 165.365 6.92047 -0.322999 0
M  V30 1639 N 167.158 5.62031 -0.0879044 0
M  V30 1640 H 159.309 1.85718 -1.03065 0
M  V30 1641 H 161.572 0.857446 -0.404339 0
M  V30 1642 H 161.278 3.38804 -0.943649 0
M  V30 1643 H 161.152 3.69042 0.780262 0
M  V30 1644 H 163.539 2.74554 1.08186 0
M  V30 1645 H 163.62 2.47028 -0.664134 0
M  V30 1646 H 163.264 4.96886 -1.05201 0
M  V30 1647 H 163.194 5.21783 0.710635 0
M  V30 1648 H 165.685 3.77748 0.107161 0
M  V30 1649 H 165.998 7.7173 -0.406608 0
M  V30 1650 H 164.343 6.94074 -0.358733 0
M  V30 1651 H 167.534 4.68075 0.048498 0
M  V30 1652 H 167.707 6.47734 -0.185557 0
M  V30 1653 N 161.113 -0.173488 1.56642 0
M  V30 1654 C 162.361 -0.888706 1.81512 0
M  V30 1655 C 162.682 -1.82875 0.676872 0
M  V30 1656 O 161.952 -1.93536 -0.303414 0
M  V30 1657 H 160.532 -0.331164 0.669582 0
M  V30 1658 H 163.194 -0.173823 1.94123 0
M  V30 1659 H 162.29 -1.46691 2.75478 0
M  V30 1660 N 162.591 -1.51276 -0.441967 0
M  V30 1661 C 163.819 -1.67516 -1.21434 0
M  V30 1662 C 164.234 -0.37055 -1.85128 0
M  V30 1663 O 163.591 0.650498 -1.70513 0
M  V30 1664 C 163.642 -2.78748 -2.30177 0
M  V30 1665 O 163.363 -4.04154 -1.69089 0
M  V30 1666 C 164.864 -3.06217 -3.20541 0
M  V30 1667 H 162.084 -0.562276 -0.366178 0
M  V30 1668 H 164.628 -1.97666 -0.524244 0
M  V30 1669 H 162.783 -2.5121 -2.94911 0
M  V30 1670 H 163.197 -4.65894 -2.40922 0
M  V30 1671 H 164.671 -3.8764 -3.92987 0
M  V30 1672 H 165.148 -2.18439 -3.81026 0
M  V30 1673 H 165.754 -3.35397 -2.61513 0
M  V30 1674 N 164.069 0.697108 -1.41344 0
M  V30 1675 C 165.318 1.45279 -1.39918 0
M  V30 1676 C 165.631 1.95597 -0.0109624 0
M  V30 1677 O 166.837 2.71208 0.125919 0
M  V30 1678 C 165.293 2.62695 -2.46007 0
M  V30 1679 C 164.901 2.19169 -3.90729 0
M  V30 1680 C 166.645 3.40336 -2.53715 0
M  V30 1681 C 164.552 3.33535 -4.88373 0
M  V30 1682 H 163.482 0.545692 -0.520323 0
M  V30 1683 H 166.133 0.756929 -1.67161 0
M  V30 1684 H 164.515 3.34541 -2.11892 0
M  V30 1685 H 165.689 1.54623 -4.34083 0
M  V30 1686 H 164.004 1.54525 -3.86666 0
M  V30 1687 H 166.601 4.2547 -3.2385 0
M  V30 1688 H 166.944 3.85418 -1.5735 0
M  V30 1689 H 167.477 2.75546 -2.86913 0
M  V30 1690 H 164.216 2.93468 -5.86137 0
M  V30 1691 H 163.736 3.96936 -4.49668 0
M  V30 1692 H 165.415 3.99335 -5.09059 0
M  V30 1693 N 165.547 1.27147 0.931209 0
M  V30 1694 C 166.51 1.09615 2.01289 0
M  V30 1695 C 167.51 0.0412581 1.60747 0
M  V30 1696 O 168.7 0.285545 1.71844 0
M  V30 1697 C 165.832 0.669447 3.34262 0
M  V30 1698 H 167.025 2.05662 2.18273 0
M  V30 1699 H 164.578 1.09885 1.11153 0
M  V30 1700 H 165.313 -0.292572 3.22978 0
M  V30 1701 H 165.098 1.43127 3.65044 0
M  V30 1702 H 166.588 0.568921 4.13706 0
M  V30 1703 N 167.025 -1.13721 1.09112 0
M  V30 1704 C 167.958 -2.18094 0.67158 0
M  V30 1705 C 168.936 -1.59414 -0.320299 0
M  V30 1706 O 170.12 -1.87183 -0.222444 0
M  V30 1707 C 167.247 -3.38698 -0.0111189 0
M  V30 1708 C 166.293 -4.15966 0.942055 0
M  V30 1709 S 167.126 -4.7604 2.45246 0
M  V30 1710 C 168.282 -5.99994 1.78208 0
M  V30 1711 H 168.515 -2.53344 1.55577 0
M  V30 1712 H 166.048 -1.24967 0.906789 0
M  V30 1713 H 168.006 -4.08559 -0.398716 0
M  V30 1714 H 166.667 -3.01756 -0.871905 0
M  V30 1715 H 165.86 -5.02318 0.411396 0
M  V30 1716 H 165.462 -3.51745 1.2709 0
M  V30 1717 H 167.754 -6.68441 1.10424 0
M  V30 1718 H 168.697 -6.57662 2.62463 0
M  V30 1719 H 169.105 -5.50432 1.25238 0
M  V30 1720 N 168.503 -0.877838 -1.30888 0
M  V30 1721 C 169.466 -0.344265 -2.266 0
M  V30 1722 C 170.466 0.50922 -1.52524 0
M  V30 1723 O 171.656 0.317398 -1.71284 0
M  V30 1724 C 168.788 0.510198 -3.37061 0
M  V30 1725 H 169.981 -1.1893 -2.7531 0
M  V30 1726 H 167.534 -0.654088 -1.41956 0
M  V30 1727 H 168.269 1.37612 -2.93655 0
M  V30 1728 H 168.054 -0.101047 -3.9197 0
M  V30 1729 H 169.544 0.875537 -4.08319 0
M  V30 1730 N 169.982 1.44106 -0.638065 0
M  V30 1731 C 171.398 1.56672 -0.304286 0
M  V30 1732 C 171.598 1.6244 1.19228 0
M  V30 1733 O 170.654 1.57121 1.9766 0
M  V30 1734 C 171.967 2.83503 -1.00231 0
M  V30 1735 C 173.515 2.97226 -0.981116 0
M  V30 1736 C 173.99 4.26868 -1.65974 0
M  V30 1737 N 175.481 4.33698 -1.62666 0
M  V30 1738 C 176.216 5.32745 -2.12063 0
M  V30 1739 N 175.712 6.38157 -2.6968 0
M  V30 1740 N 177.505 5.24299 -2.02651 0
M  V30 1741 H 169.656 1.38605 -1.60942 0
M  V30 1742 H 171.919 0.664661 -0.675965 0
M  V30 1743 H 171.625 2.85251 -2.0573 0
M  V30 1744 H 171.499 3.73251 -0.54439 0
M  V30 1745 H 173.886 2.95027 0.0654188 0
M  V30 1746 H 173.967 2.08808 -1.47759 0
M  V30 1747 H 173.611 4.29826 -2.70576 0
M  V30 1748 H 173.541 5.14156 -1.13804 0
M  V30 1749 H 176.032 3.58138 -1.20606 0
M  V30 1750 H 176.345 7.10029 -3.05087 0
M  V30 1751 H 174.69 6.38823 -2.73734 0
M  V30 1752 H 177.881 4.4086 -1.57353 0
M  V30 1753 H 178.054 6.01334 -2.41457 0
M  V30 1754 N 171.46 0.379036 1.52974 0
M  V30 1755 C 172.688 -0.20679 2.05864 0
M  V30 1756 C 173.103 -1.41356 1.25155 0
M  V30 1757 O 172.46 -1.8009 0.295588 0
M  V30 1758 C 172.511 -0.587045 3.56702 0
M  V30 1759 O 172.232 0.571776 4.34353 0
M  V30 1760 C 173.733 -1.22983 4.25899 0
M  V30 1761 H 170.953 -0.0336123 0.670158 0
M  V30 1762 H 173.497 0.541298 1.97206 0
M  V30 1763 H 171.652 -1.28504 3.65466 0
M  V30 1764 H 172.066 0.261544 5.23847 0
M  V30 1765 H 173.54 -1.44635 5.32715 0
M  V30 1766 H 174.017 -2.19416 3.80465 0
M  V30 1767 H 174.623 -0.572892 4.21424 0
M  V30 1768 N 172.938 -1.57226 0.108567 0
M  V30 1769 C 173.901 -2.13602 -0.831082 0
M  V30 1770 C 174.901 -1.06841 -1.20173 0
M  V30 1771 O 176.091 -1.32666 -1.12895 0
M  V30 1772 C 173.223 -2.66769 -2.12243 0
M  V30 1773 H 174.416 -2.97951 -0.341317 0
M  V30 1774 H 171.969 -1.55667 -0.14057 0
M  V30 1775 H 172.704 -1.85977 -2.65675 0
M  V30 1776 H 172.489 -3.44839 -1.86625 0
M  V30 1777 H 173.979 -3.10332 -2.79435 0
M  V30 1778 N 174.416 0.165178 -1.56732 0
M  V30 1779 C 175.693 0.908443 -1.73224 0
M  V30 1780 C 176.073 2.0013 -0.67165 0
M  V30 1781 O 175.421 2.26353 0.31253 0
M  V30 1782 C 175.631 1.46756 -3.16644 0
M  V30 1783 C 176.979 1.93809 -3.77787 0
M  V30 1784 O 178.003 1.56537 -3.1996 0
M  V30 1785 O 176.862 2.62486 -4.79336 0
M  V30 1786 H 173.956 0.428025 -0.707618 0
M  V30 1787 H 176.502 0.152526 -1.69013 0
M  V30 1788 H 175.274 0.68129 -3.85323 0
M  V30 1789 H 174.897 2.28749 -3.25207 0
M  V30 1790 N 175.894 1.51508 0.433938 0
M  V30 1791 C 176.841 1.73068 1.52696 0
M  V30 1792 C 177.811 0.572441 1.55924 0
M  V30 1793 O 178.996 0.807253 1.72882 0
M  V30 1794 C 176.136 1.86474 2.90381 0
M  V30 1795 C 175.249 3.14037 2.96656 0
M  V30 1796 C 174.384 3.18019 4.25485 0
M  V30 1797 C 173.423 4.39882 4.2564 0
M  V30 1798 N 172.56 4.41394 5.45999 0
M  V30 1799 H 177.4 2.66366 1.33615 0
M  V30 1800 H 174.937 1.32008 0.649018 0
M  V30 1801 H 176.895 1.92229 3.70275 0
M  V30 1802 H 175.525 0.965809 3.08013 0
M  V30 1803 H 174.577 3.17575 2.09404 0
M  V30 1804 H 175.889 4.0394 2.92633 0
M  V30 1805 H 175.043 3.22708 5.13755 0
M  V30 1806 H 173.782 2.2601 4.3217 0
M  V30 1807 H 172.787 4.35366 3.35763 0
M  V30 1808 H 174.012 5.33159 4.20617 0
M  V30 1809 H 171.958 3.52258 5.53399 0
M  V30 1810 H 171.875 5.25111 5.4387 0
M  V30 1811 H 173.143 4.50281 6.36292 0
M  V30 1812 N 177.372 -0.689602 1.41712 0
M  V30 1813 C 178.649 -1.44457 1.31877 0
M  V30 1814 C 179.029 -2.11039 -0.0508537 0
M  V30 1815 O 178.377 -2.02138 -1.06547 0
M  V30 1816 C 178.587 -2.45913 2.47645 0
M  V30 1817 C 179.935 -3.10991 2.89084 0
M  V30 1818 O 180.959 -2.56238 2.47428 0
M  V30 1819 O 179.818 -4.10174 3.61137 0
M  V30 1820 H 176.912 -0.64362 0.519309 0
M  V30 1821 H 179.458 -0.719576 1.53689 0
M  V30 1822 H 178.23 -1.95409 3.39015 0
M  V30 1823 H 177.853 -3.25913 2.27742 0
M  V30 1824 N 178.85 -1.27639 -0.924453 0
M  V30 1825 C 180.075 -1.17101 -1.71179 0
M  V30 1826 C 180.5 0.268134 -1.86179 0
M  V30 1827 O 179.858 1.19415 -1.36418 0
M  V30 1828 C 179.906 -1.86313 -3.08739 0
M  V30 1829 O 179.01 -1.16331 -3.95652 0
M  V30 1830 H 178.351 -0.407091 -0.524569 0
M  V30 1831 H 180.881 -1.68767 -1.15666 0
M  V30 1832 H 180.891 -1.938 -3.59034 0
M  V30 1833 H 179.566 -2.91001 -2.97138 0
M  V30 1834 H 178.143 -1.16935 -3.54091 0
M  V30 1835 N 180.328 1.1314 -1.09713 0
M  V30 1836 C 181.291 2.16831 -0.742751 0
M  V30 1837 C 182.291 1.59159 0.229129 0
M  V30 1838 O 183.481 1.74199 0.00693237 0
M  V30 1839 C 180.613 3.40756 -0.0989168 0
M  V30 1840 H 181.806 2.49695 -1.66109 0
M  V30 1841 H 179.359 1.2802 -0.896699 0
M  V30 1842 H 180.094 3.13485 0.830514 0
M  V30 1843 H 179.879 3.83888 -0.798265 0
M  V30 1844 H 181.369 4.17386 0.133524 0
M  V30 1845 N 181.806 0.884767 1.30421 0
M  V30 1846 C 183.034 0.518044 2.0031 0
M  V30 1847 C 183.449 -0.893408 1.66324 0
M  V30 1848 O 182.806 -1.5875 0.900262 0
M  V30 1849 C 182.857 0.682997 3.54989 0
M  V30 1850 O 182.578 2.03888 3.87764 0
M  V30 1851 C 184.079 0.31924 4.42149 0
M  V30 1852 H 181.299 0.200265 0.640418 0
M  V30 1853 H 183.843 1.19001 1.6631 0
M  V30 1854 H 181.998 0.0584052 3.87356 0
M  V30 1855 H 182.412 2.05735 4.82466 0
M  V30 1856 H 183.886 0.485555 5.4986 0
M  V30 1857 H 184.363 -0.742717 4.32875 0
M  V30 1858 H 184.969 0.920147 4.15227 0
M  V30 1859 N 183.284 -1.43765 0.645699 0
M  V30 1860 C 184.509 -2.06767 0.161883 0
M  V30 1861 C 184.934 -1.48034 -1.16049 0
M  V30 1862 O 184.292 -0.587369 -1.71522 0
M  V30 1863 C 184.34 -3.60519 0.0762003 0
M  V30 1864 O 183.444 -4.00982 -0.963721 0
M  V30 1865 H 182.785 -0.657675 0.091429 0
M  V30 1866 H 185.315 -1.84397 0.886499 0
M  V30 1867 H 185.325 -4.07853 -0.109604 0
M  V30 1868 H 184 -4.02646 1.04157 0
M  V30 1869 H 182.577 -3.65253 -0.751312 0
M  V30 1870 N 184.763 -0.387143 -1.52771 0
M  V30 1871 C 185.695 0.484089 -2.2403 0
M  V30 1872 C 186.708 1.02849 -1.26198 0
M  V30 1873 O 187.897 0.931186 -1.52286 0
M  V30 1874 C 184.997 1.68337 -2.94136 0
M  V30 1875 C 184.17 1.26672 -4.18656 0
M  V30 1876 C 183.229 2.33045 -4.7178 0
M  V30 1877 O 182.255 1.94541 -5.34923 0
M  V30 1878 N 183.457 3.64929 -4.5145 0
M  V30 1879 H 186.222 -0.126404 -2.99433 0
M  V30 1880 H 183.783 -0.213392 -1.60488 0
M  V30 1881 H 185.775 2.39019 -3.26577 0
M  V30 1882 H 184.345 2.20025 -2.22053 0
M  V30 1883 H 183.565 0.388878 -3.92277 0
M  V30 1884 H 184.853 0.964964 -4.99566 0
M  V30 1885 H 184.251 3.98974 -4.01044 0
M  V30 1886 H 182.808 4.31651 -4.88386 0
M  V30 1887 N 186.241 1.57166 -0.116904 0
M  V30 1888 C 187.488 1.95123 0.541603 0
M  V30 1889 C 187.816 1.00006 1.6682 0
M  V30 1890 O 187.071 0.0235658 1.95686 0
M  V30 1891 C 187.37 3.39508 1.11664 0
M  V30 1892 C 187.036 4.50762 0.111606 0
M  V30 1893 C 185.698 4.80918 -0.164758 0
M  V30 1894 C 188.05 5.18036 -0.573438 0
M  V30 1895 C 185.378 5.75666 -1.13249 0
M  V30 1896 C 187.73 6.13824 -1.52978 0
M  V30 1897 C 186.394 6.42374 -1.81415 0
M  V30 1898 H 185.664 0.714005 0.198187 0
M  V30 1899 H 188.311 1.9048 -0.197365 0
M  V30 1900 H 186.616 3.40835 1.93232 0
M  V30 1901 H 188.313 3.66189 1.63422 0
M  V30 1902 H 184.903 4.27272 0.337192 0
M  V30 1903 H 189.087 4.94896 -0.373092 0
M  V30 1904 H 184.343 5.96092 -1.35958 0
M  V30 1905 H 188.517 6.65039 -2.06629 0
M  V30 1906 H 186.144 7.15599 -2.56557 0
M  V30 1907 N 187.719 -0.156864 1.56817 0
M  V30 1908 C 188.966 -0.871125 1.82805 0
M  V30 1909 C 189.294 -1.81611 0.696262 0
M  V30 1910 O 188.549 -1.93141 -0.315459 0
M  V30 1911 C 188.848 -1.68737 3.1506 0
M  V30 1912 C 188.514 -0.890045 4.42028 0
M  V30 1913 C 187.176 -0.670042 4.76512 0
M  V30 1914 C 189.528 -0.331769 5.20143 0
M  V30 1915 C 186.856 0.119104 5.86579 0
M  V30 1916 C 189.208 0.444365 6.31037 0
M  V30 1917 C 187.872 0.675035 6.64078 0
M  V30 1918 H 187.142 -0.318767 0.668931 0
M  V30 1919 H 189.789 -0.135274 1.91022 0
M  V30 1920 H 188.094 -2.49304 3.0225 0
M  V30 1921 H 189.791 -2.24331 3.3238 0
M  V30 1922 H 186.381 -1.07157 4.14988 0
M  V30 1923 H 190.565 -0.489043 4.93885 0
M  V30 1924 H 185.821 0.307417 6.10627 0
M  V30 1925 H 189.995 0.884139 6.90765 0
M  V30 1926 H 187.622 1.28839 7.49203 0
M  V30 1927 N 189.197 -1.51736 -0.425897 0
M  V30 1928 C 190.446 -1.64201 -1.17136 0
M  V30 1929 C 190.759 -0.369705 -1.92074 0
M  V30 1930 O 191.965 -0.373898 -2.68913 0
M  V30 1931 C 190.421 -2.90035 -2.13091 0
M  V30 1932 C 190.029 -4.24312 -1.43747 0
M  V30 1933 C 191.773 -3.1186 -2.87999 0
M  V30 1934 C 189.68 -5.41285 -2.38253 0
M  V30 1935 H 188.61 -0.611624 -0.440944 0
M  V30 1936 H 191.261 -1.78212 -0.437328 0
M  V30 1937 H 189.643 -2.69684 -2.89977 0
M  V30 1938 H 190.817 -4.55086 -0.723408 0
M  V30 1939 H 189.132 -4.08456 -0.809465 0
M  V30 1940 H 191.729 -3.96427 -3.58817 0
M  V30 1941 H 192.072 -2.25403 -3.49999 0
M  V30 1942 H 192.605 -3.32605 -2.18217 0
M  V30 1943 H 189.344 -6.30037 -1.80925 0
M  V30 1944 H 188.864 -5.14872 -3.0768 0
M  V30 1945 H 190.543 -5.73694 -2.99139 0
M  V30 1946 N 190.675 0.682077 -1.42076 0
M  V30 1947 C 191.623 1.81707 -1.45208 0
M  V30 1948 C 192.617 1.66183 -0.328591 0
M  V30 1949 O 193.823 1.7288 -0.501264 0
M  V30 1950 H 190.198 0.599014 -0.454628 0
M  V30 1951 H 192.169 1.76183 -2.40836 0
M  V30 1952 C 190.918 3.19816 -1.36428 0
M  V30 1953 H 190.241 3.32385 -2.22171 0
M  V30 1954 H 191.681 3.99272 -1.42681 0
M  V30 1955 C 190.14 3.36809 -0.078191 0
M  V30 1956 O 190.67 3.92124 0.87188 0
M  V30 1957 N 188.876 2.906 0.00229266 0
M  V30 1958 H 188.423 2.45772 -0.771616 0
M  V30 1959 H 188.381 3.02347 0.862179 0
M  V30 1960 N 192.153 1.28127 0.917671 0
M  V30 1961 C 193.399 1.15223 1.66888 0
M  V30 1962 C 193.732 -0.299293 1.9188 0
M  V30 1963 O 193.007 -1.21805 1.51637 0
M  V30 1964 C 193.29 1.94706 3.02922 0
M  V30 1965 C 193.143 3.47898 2.85109 0
M  V30 1966 C 194.462 1.75939 4.03402 0
M  V30 1967 H 191.581 0.419946 0.605652 0
M  V30 1968 H 194.223 1.57398 1.06423 0
M  V30 1969 H 192.373 1.58864 3.54534 0
M  V30 1970 H 194.045 3.93624 2.40537 0
M  V30 1971 H 192.288 3.7373 2.20246 0
M  V30 1972 H 192.959 3.98765 3.81694 0
M  V30 1973 H 195.435 2.07209 3.60837 0
M  V30 1974 H 194.311 2.33931 4.96556 0
M  V30 1975 H 194.572 0.709877 4.36364 0
M  V30 1976 N 193.631 -1.12557 1.10312 0
M  V30 1977 C 194.594 -2.16434 0.75424 0
M  V30 1978 C 195.594 -1.59278 -0.220685 0
M  V30 1979 O 196.784 -1.742 0.00230591 0
M  V30 1980 C 193.916 -3.40699 0.116987 0
M  V30 1981 H 195.109 -2.48811 1.67431 0
M  V30 1982 H 192.662 -1.27542 0.903475 0
M  V30 1983 H 193.397 -3.13921 -0.813877 0
M  V30 1984 H 193.182 -3.83459 0.818613 0
M  V30 1985 H 194.672 -4.17451 -0.111387 0
M  V30 1986 N 195.109 -0.891671 -1.2995 0
M  V30 1987 C 196.386 -0.433307 -1.9074 0
M  V30 1988 C 196.766 1.08646 -1.80995 0
M  V30 1989 O 196.114 1.92476 -1.23147 0
M  V30 1990 C 196.324 -0.938895 -3.36134 0
M  V30 1991 C 197.672 -0.977829 -4.13187 0
M  V30 1992 O 198.696 -0.886015 -3.45005 0
M  V30 1993 O 197.555 -1.11453 -5.35015 0
M  V30 1994 H 194.649 -0.133699 -0.816121 0
M  V30 1995 H 197.195 -0.981011 -1.38471 0
M  V30 1996 H 195.967 -1.98281 -3.37343 0
M  V30 1997 H 195.59 -0.37074 -3.95868 0
M  V30 1998 N 196.587 1.43421 -0.653314 0
M  V30 1999 C 197.535 2.32546 0.0501531 0
M  V30 2000 C 198.529 1.48617 0.812985 0
M  V30 2001 O 199.735 1.64825 0.723375 0
M  V30 2002 H 196.11 0.751185 0.0350032 0
M  V30 2003 H 198.081 2.89602 -0.719261 0
M  V30 2004 C 196.83 3.32925 1.00279 0
M  V30 2005 H 196.153 3.97532 0.425236 0
M  V30 2006 H 197.593 3.9792 1.46409 0
M  V30 2007 C 196.052 2.63532 2.09886 0
M  V30 2008 O 196.582 2.45092 3.18265 0
M  V30 2009 N 194.788 2.22905 1.86445 0
M  V30 2010 H 194.335 2.38103 0.98309 0
M  V30 2011 H 194.293 1.76805 2.59976 0
M  V30 2012 N 198.065 0.39524 1.52563 0
M  V30 2013 C 199.028 -0.425001 2.25225 0
M  V30 2014 C 200.028 -0.985266 1.27079 0
M  V30 2015 O 201.218 -0.866332 1.5113 0
M  V30 2016 C 198.35 -1.59686 3.01186 0
M  V30 2017 H 199.543 0.211233 2.99155 0
M  V30 2018 H 197.096 0.147472 1.55603 0
M  V30 2019 H 197.831 -2.27035 2.31572 0
M  V30 2020 H 197.616 -1.20176 3.73229 0
M  V30 2021 H 199.106 -2.17743 3.5634 0
M  V30 2022 N 199.544 -1.57102 0.125237 0
M  V30 2023 C 200.791 -1.95407 -0.531248 0
M  V30 2024 C 201.119 -1.0089 -1.66287 0
M  V30 2025 O 200.374 -0.0339431 -1.95671 0
M  V30 2026 C 200.673 -3.40096 -1.09862 0
M  V30 2027 C 200.339 -4.50815 -0.0876989 0
M  V30 2028 C 199.001 -4.80824 0.19026 0
M  V30 2029 C 201.353 -5.17724 0.600902 0
M  V30 2030 C 198.681 -5.75058 1.163 0
M  V30 2031 C 201.033 -6.13005 1.56231 0
M  V30 2032 C 199.697 -6.41403 1.8482 0
M  V30 2033 H 198.967 -0.715046 -0.194397 0
M  V30 2034 H 201.614 -1.90373 0.207463 0
M  V30 2035 H 199.919 -3.41855 -1.91422 0
M  V30 2036 H 201.616 -3.6705 -1.61478 0
M  V30 2037 H 198.206 -4.27444 -0.314528 0
M  V30 2038 H 202.39 -4.94691 0.399333 0
M  V30 2039 H 197.646 -5.95362 1.39117 0
M  V30 2040 H 201.82 -6.63934 2.10153 0
M  V30 2041 H 199.447 -7.14229 2.60349 0
M  V30 2042 N 201.022 0.148545 -1.56898 0
M  V30 2043 C 201.952 1.18524 -2.01182 0
M  V30 2044 C 202.933 1.4489 -0.891123 0
M  V30 2045 O 204.118 1.55836 -1.15882 0
M  V30 2046 C 201.248 2.51879 -2.39112 0
M  V30 2047 C 200.202 2.40038 -3.54353 0
M  V30 2048 C 199.528 3.78089 -3.78091 0
M  V30 2049 C 200.828 1.88577 -4.87069 0
M  V30 2050 H 202.522 0.817029 -2.88036 0
M  V30 2051 H 200.068 0.391575 -1.38574 0
M  V30 2052 H 202.021 3.24627 -2.68692 0
M  V30 2053 H 200.745 2.90532 -1.49193 0
M  V30 2054 H 199.404 1.69742 -3.24936 0
M  V30 2055 H 199.052 4.14175 -2.85426 0
M  V30 2056 H 198.752 3.71028 -4.55645 0
M  V30 2057 H 200.276 4.52387 -4.10095 0
M  V30 2058 H 201.69 2.51117 -5.15377 0
M  V30 2059 H 200.087 1.9241 -5.68417 0
M  V30 2060 H 201.157 0.84136 -4.77545 0
M  V30 2061 N 202.5 1.5196 0.417844 0
M  V30 2062 C 203.777 1.56146 1.17803 0
M  V30 2063 C 204.157 0.337275 2.08388 0
M  V30 2064 O 203.505 -0.676447 2.18258 0
M  V30 2065 C 203.715 2.88566 1.96293 0
M  V30 2066 C 205.063 3.41244 2.52662 0
M  V30 2067 O 206.087 2.90247 2.06483 0
M  V30 2068 O 204.946 4.30273 3.36938 0
M  V30 2069 H 202.04 0.628598 0.537395 0
M  V30 2070 H 204.586 1.64283 0.425331 0
M  V30 2071 H 203.358 3.69116 1.2988 0
M  V30 2072 H 202.981 2.83681 2.78587 0
M  V30 2073 N 203.978 -0.674533 1.42435 0
M  V30 2074 C 204.928 -1.7807 1.4239 0
M  V30 2075 C 205.912 -1.58169 0.295202 0
M  V30 2076 O 207.104 -1.68643 0.537449 0
M  V30 2077 C 204.233 -3.16532 1.32901 0
M  V30 2078 C 203.319 -3.42055 2.50717 0
M  V30 2079 N 203.71 -3.38162 3.76139 0
M  V30 2080 C 202.008 -3.72692 2.44983 0
M  V30 2081 C 202.709 -3.63177 4.54398 0
M  V30 2082 N 201.685 -3.83954 3.84812 0
M  V30 2083 H 205.487 -1.73454 2.37257 0
M  V30 2084 H 203.001 -0.875381 1.36788 0
M  V30 2085 H 204.998 -3.958 1.30951 0
M  V30 2086 H 203.658 -3.22345 0.390363 0
M  V30 2087 H 204.669 -3.18057 4.0873 0
M  V30 2088 H 201.346 -3.85749 1.59699 0
M  V30 2089 H 202.736 -3.66125 5.63384 0
M  V30 2090 N 205.456 -1.28612 -0.910864 0
M  V30 2091 C 206.704 -1.15705 -1.65701 0
M  V30 2092 C 207.025 0.29416 -1.92769 0
M  V30 2093 O 206.295 1.20331 -1.54588 0
M  V30 2094 H 204.875 -0.425216 -0.614167 0
M  V30 2095 H 207.537 -1.61381 -1.0928 0
M  V30 2096 H 206.633 -1.6988 -2.61815 0
M  V30 2097 N 206.934 1.1197 -1.10907 0
M  V30 2098 C 207.866 2.17592 -0.720175 0
M  V30 2099 C 208.879 1.60938 0.245495 0
M  V30 2100 O 210.068 1.78476 0.0292245 0
M  V30 2101 C 207.168 3.38873 -0.0427917 0
M  V30 2102 C 206.341 4.25006 -1.03388 0
M  V30 2103 C 205.4 5.24774 -0.387075 0
M  V30 2104 O 204.426 5.59631 -1.03934 0
M  V30 2105 N 205.628 5.74208 0.852407 0
M  V30 2106 H 208.393 2.51567 -1.62893 0
M  V30 2107 H 205.954 1.27439 -0.998543 0
M  V30 2108 H 207.946 4.02703 0.401501 0
M  V30 2109 H 206.516 3.03007 0.768456 0
M  V30 2110 H 205.736 3.57716 -1.65629 0
M  V30 2111 H 207.024 4.79397 -1.70458 0
M  V30 2112 H 206.422 5.48062 1.40161 0
M  V30 2113 H 204.979 6.39901 1.23977 0
M  V30 2114 N 208.412 0.89855 1.29475 0
M  V30 2115 C 209.828 0.594483 1.48115 0
M  V30 2116 C 210.028 -0.86431 1.82022 0
M  V30 2117 O 209.084 -1.64457 1.91599 0
M  V30 2118 C 210.397 1.51932 2.59494 0
M  V30 2119 C 211.945 1.5244 2.7337 0
M  V30 2120 C 212.42 2.43548 3.87877 0
M  V30 2121 N 213.911 2.41589 3.95208 0
M  V30 2122 C 214.646 3.08789 4.83153 0
M  V30 2123 N 214.142 3.85265 5.75798 0
M  V30 2124 N 215.935 2.97952 4.76635 0
M  V30 2125 H 208.086 1.84207 1.05742 0
M  V30 2126 H 210.349 0.789251 0.525154 0
M  V30 2127 H 210.055 2.55865 2.41301 0
M  V30 2128 H 209.929 1.23899 3.56271 0
M  V30 2129 H 212.316 0.492518 2.90961 0
M  V30 2130 H 212.397 1.8451 1.77172 0
M  V30 2131 H 212.041 3.46829 3.71041 0
M  V30 2132 H 211.971 2.08788 4.83441 0
M  V30 2133 H 214.462 1.86025 3.28943 0
M  V30 2134 H 214.775 4.33598 6.39697 0
M  V30 2135 H 213.12 3.89371 5.75687 0
M  V30 2136 H 216.311 2.37723 4.03244 0
M  V30 2137 H 216.484 3.50599 5.44962 0
M  V30 2138 N 209.89 -1.43072 0.660911 0
M  V30 2139 C 211.167 -1.95307 0.107017 0
M  V30 2140 C 211.547 -1.60192 -1.37484 0
M  V30 2141 O 210.895 -0.890949 -2.10415 0
M  V30 2142 C 211.105 -3.47124 0.361402 0
M  V30 2143 C 212.453 -4.23738 0.270455 0
M  V30 2144 O 213.477 -3.54981 0.294382 0
M  V30 2145 O 212.336 -5.46131 0.200737 0
M  V30 2146 H 209.43 -0.826984 -0.00517729 0
M  V30 2147 H 211.976 -1.52972 0.734681 0
M  V30 2148 H 210.748 -3.65837 1.38848 0
M  V30 2149 H 210.371 -3.96475 -0.298953 0
M  V30 2150 N 211.368 -0.403325 -1.52352 0
M  V30 2151 C 212.615 0.174347 -2.01748 0
M  V30 2152 C 212.943 1.45636 -1.2892 0
M  V30 2153 O 212.198 1.9193 -0.382258 0
M  V30 2154 C 212.497 0.474665 -3.54234 0
M  V30 2155 C 212.163 -0.717458 -4.45155 0
M  V30 2156 C 210.825 -1.04447 -4.69728 0
M  V30 2157 C 213.177 -1.51432 -4.98716 0
M  V30 2158 C 210.505 -2.16963 -5.45109 0
M  V30 2159 C 212.857 -2.6302 -5.75329 0
M  V30 2160 C 211.521 -2.96213 -5.98175 0
M  V30 2161 H 210.791 0.0637981 -0.738248 0
M  V30 2162 H 213.438 -0.543553 -1.83624 0
M  V30 2163 H 211.743 1.27406 -3.70506 0
M  V30 2164 H 213.44 0.934496 -3.89959 0
M  V30 2165 H 210.03 -0.452596 -4.26204 0
M  V30 2166 H 214.214 -1.27491 -4.79645 0
M  V30 2167 H 209.47 -2.43034 -5.61021 0
M  V30 2168 H 213.644 -3.25158 -6.15829 0
M  V30 2169 H 211.271 -3.83516 -6.56368 0
M  V30 2170 N 212.846 1.57033 -0.133567 0
M  V30 2171 C 214.094 1.953 0.519848 0
M  V30 2172 C 214.415 1.01866 1.66278 0
M  V30 2173 O 213.685 0.0776513 1.95746 0
M  V30 2174 H 212.265 0.721091 0.195032 0
M  V30 2175 H 214.927 1.93809 -0.205921 0
M  V30 2176 H 214.023 2.98695 0.904854 0
M  V30 2177 N 214.325 -0.140222 1.56975 0
M  V30 2178 C 215.555 -0.865181 1.87612 0
M  V30 2179 C 215.963 -1.74942 0.72055 0
M  V30 2180 O 215.306 -1.80917 -0.318561 0
M  V30 2181 C 215.368 -1.76782 3.13031 0
M  V30 2182 C 215.032 -1.06005 4.44536 0
M  V30 2183 C 216.029 -0.410768 5.18275 0
M  V30 2184 C 213.714 -1.04754 4.91255 0
M  V30 2185 C 215.708 0.241572 6.36942 0
M  V30 2186 C 213.395 -0.391394 6.09845 0
M  V30 2187 C 214.393 0.252029 6.82535 0
M  V30 2188 O 214.081 0.897757 7.98871 0
M  V30 2189 H 213.813 -0.255188 0.625983 0
M  V30 2190 H 216.367 -0.135653 2.04952 0
M  V30 2191 H 214.597 -2.53846 2.91718 0
M  V30 2192 H 216.286 -2.36533 3.29859 0
M  V30 2193 H 217.052 -0.412195 4.83245 0
M  V30 2194 H 212.931 -1.53777 4.34596 0
M  V30 2195 H 216.475 0.744375 6.93617 0
M  V30 2196 H 212.372 -0.387656 6.44335 0
M  V30 2197 H 213.14 0.800102 8.1458 0
M  V30 2198 N 215.803 -1.52179 -0.40978 0
M  V30 2199 C 216.766 -1.74853 -1.48186 0
M  V30 2200 C 217.766 -0.618417 -1.48433 0
M  V30 2201 O 218.956 -0.886286 -1.49969 0
M  V30 2202 C 216.088 -1.8303 -2.87598 0
M  V30 2203 H 217.281 -2.70559 -1.29374 0
M  V30 2204 H 214.834 -1.42586 -0.640233 0
M  V30 2205 H 215.569 -0.89236 -3.11781 0
M  V30 2206 H 215.354 -2.65187 -2.88822 0
M  V30 2207 H 216.844 -2.02316 -3.65319 0
M  V30 2208 N 217.281 0.66697 -1.42791 0
M  V30 2209 C 218.527 1.4291 -1.43891 0
M  V30 2210 C 218.86 1.94114 -0.0578972 0
M  V30 2211 O 218.135 1.71414 0.91911 0
M  V30 2212 C 218.418 2.62049 -2.46987 0
M  V30 2213 C 218.271 2.16426 -3.94309 0
M  V30 2214 C 219.59 3.64266 -2.46978 0
M  V30 2215 H 216.709 0.518306 -0.523954 0
M  V30 2216 H 219.351 0.757321 -1.74255 0
M  V30 2217 H 217.501 3.19361 -2.21225 0
M  V30 2218 H 219.173 1.64221 -4.31079 0
M  V30 2219 H 217.416 1.47925 -4.078 0
M  V30 2220 H 218.087 3.02038 -4.62036 0
M  V30 2221 H 220.563 3.16686 -2.69906 0
M  V30 2222 H 219.439 4.45196 -3.21079 0
M  V30 2223 H 219.7 4.15927 -1.49857 0
M  V30 2224 N 218.759 1.29093 0.90403 0
M  V30 2225 C 220.006 1.16813 1.65411 0
M  V30 2226 C 220.334 -0.28128 1.92455 0
M  V30 2227 O 219.589 -1.22006 1.53013 0
M  V30 2228 C 219.888 1.92224 3.01305 0
M  V30 2229 C 219.554 3.41968 2.93885 0
M  V30 2230 C 218.216 3.82807 2.91569 0
M  V30 2231 C 220.568 4.37409 2.83413 0
M  V30 2232 C 217.896 5.1741 2.76594 0
M  V30 2233 C 220.248 5.72097 2.69977 0
M  V30 2234 C 218.912 6.12199 2.66024 0
M  V30 2235 H 218.182 0.42745 0.605283 0
M  V30 2236 H 220.829 1.59981 1.05254 0
M  V30 2237 H 219.134 1.41635 3.65304 0
M  V30 2238 H 220.831 1.80131 3.58265 0
M  V30 2239 H 217.421 3.09504 2.96488 0
M  V30 2240 H 221.605 4.06813 2.84283 0
M  V30 2241 H 216.861 5.47596 2.71935 0
M  V30 2242 H 221.035 6.45704 2.60844 0
M  V30 2243 H 218.662 7.16448 2.54178 0
M  V30 2244 N 220.237 -1.11381 1.11499 0
M  V30 2245 C 221.485 -1.8277 0.862524 0
M  V30 2246 C 221.806 -1.85097 -0.613534 0
M  V30 2247 O 221.076 -1.32198 -1.4457 0
M  V30 2248 H 219.656 -0.676823 0.316101 0
M  V30 2249 H 222.318 -1.34816 1.4075 0
M  V30 2250 H 221.414 -2.86614 1.23527 0
M  V30 2251 N 221.715 -0.905404 -1.28997 0
M  V30 2252 C 222.662 -0.385892 -2.27551 0
M  V30 2253 C 223.632 0.535113 -1.57244 0
M  V30 2254 O 224.817 0.459119 -1.85194 0
M  V30 2255 C 221.957 0.375461 -3.43051 0
M  V30 2256 C 221.07 -0.577092 -4.28128 0
M  V30 2257 C 220.205 0.201879 -5.30816 0
M  V30 2258 C 219.244 -0.744829 -6.07551 0
M  V30 2259 N 218.381 9.42587e-05 -7.021 0
M  V30 2260 H 223.221 -1.23139 -2.71368 0
M  V30 2261 H 220.758 -0.618542 -1.33463 0
M  V30 2262 H 222.716 0.832992 -4.088 0
M  V30 2263 H 221.346 1.18537 -3.00248 0
M  V30 2264 H 220.398 -1.15315 -3.62501 0
M  V30 2265 H 221.71 -1.30152 -4.8152 0
M  V30 2266 H 220.864 0.720351 -6.02408 0
M  V30 2267 H 219.603 0.959413 -4.7817 0
M  V30 2268 H 218.608 -1.27475 -5.34818 0
M  V30 2269 H 219.833 -1.50178 -6.62286 0
M  V30 2270 H 217.779 0.739791 -6.51815 0
M  V30 2271 H 217.696 -0.664321 -7.53076 0
M  V30 2272 H 218.964 0.498644 -7.77903 0
M  V30 2273 N 223.193 1.4272 -0.668489 0
M  V30 2274 C 224.439 2.01923 -0.188419 0
M  V30 2275 C 224.772 1.52704 1.19979 0
M  V30 2276 O 224.047 0.726566 1.8042 0
M  V30 2277 C 224.33 3.59451 -0.216085 0
M  V30 2278 C 224.183 4.18864 -1.6393 0
M  V30 2279 C 225.502 4.37903 0.439179 0
M  V30 2280 H 222.621 0.733674 -0.0699412 0
M  V30 2281 H 225.263 1.69822 -0.852076 0
M  V30 2282 H 223.413 3.86929 0.349012 0
M  V30 2283 H 225.085 4.02362 -2.25616 0
M  V30 2284 H 223.328 3.74933 -2.18193 0
M  V30 2285 H 223.999 5.27987 -1.61039 0
M  V30 2286 H 226.475 4.16079 -0.0417878 0
M  V30 2287 H 225.351 5.47519 0.389157 0
M  V30 2288 H 225.612 4.15303 1.51577 0
M  V30 2289 N 224.671 0.411399 1.52136 0
M  V30 2290 C 225.917 -0.163888 2.02137 0
M  V30 2291 C 226.25 -1.44597 1.29636 0
M  V30 2292 O 225.525 -1.90272 0.403353 0
M  V30 2293 C 225.808 -0.40927 3.57767 0
M  V30 2294 C 225.661 0.889643 4.40914 0
M  V30 2295 C 226.98 -1.19042 4.23694 0
M  V30 2296 H 224.099 -0.0580896 0.734707 0
M  V30 2297 H 226.741 0.54531 1.82007 0
M  V30 2298 H 224.891 -1.0134 3.7505 0
M  V30 2299 H 226.563 1.52575 4.35337 0
M  V30 2300 H 224.806 1.50011 4.07037 0
M  V30 2301 H 225.477 0.672314 5.4789 0
M  V30 2302 H 227.953 -0.678942 4.10524 0
M  V30 2303 H 226.829 -1.33086 5.32522 0
M  V30 2304 H 227.09 -2.21166 3.82803 0
M  V30 2305 N 226.149 -1.5696 0.141893 0
M  V30 2306 C 227.096 -2.16501 -0.799737 0
M  V30 2307 C 228.066 -1.09643 -1.24771 0
M  V30 2308 O 229.251 -1.3766 -1.32115 0
M  V30 2309 C 226.391 -2.78679 -2.03549 0
M  V30 2310 C 225.504 -3.99914 -1.6338 0
M  V30 2311 C 224.639 -4.50106 -2.82096 0
M  V30 2312 C 223.678 -5.63819 -2.38275 0
M  V30 2313 N 222.815 -6.08651 -3.49983 0
M  V30 2314 H 227.655 -2.96632 -0.285179 0
M  V30 2315 H 225.192 -1.46533 -0.129053 0
M  V30 2316 H 227.15 -3.1287 -2.75986 0
M  V30 2317 H 225.78 -2.012 -2.52425 0
M  V30 2318 H 224.832 -3.71735 -0.807279 0
M  V30 2319 H 226.144 -4.82311 -1.27192 0
M  V30 2320 H 225.298 -4.86325 -3.62729 0
M  V30 2321 H 224.037 -3.66706 -3.21525 0
M  V30 2322 H 223.042 -5.2718 -1.56081 0
M  V30 2323 H 224.267 -6.49 -1.99938 0
M  V30 2324 H 222.213 -5.28188 -3.89042 0
M  V30 2325 H 222.13 -6.85961 -3.17794 0
M  V30 2326 H 223.398 -6.49515 -4.30988 0
M  V30 2327 N 227.627 0.131896 -1.57047 0
M  V30 2328 C 228.875 0.840269 -1.83804 0
M  V30 2329 C 229.196 1.81017 -0.72512 0
M  V30 2330 O 228.466 1.94272 0.251995 0
M  V30 2331 H 227.046 0.313294 -0.678127 0
M  V30 2332 H 229.708 0.122294 -1.94516 0
M  V30 2333 H 228.804 1.39335 -2.79271 0
M  V30 2334 N 229.106 1.52395 0.401703 0
M  V30 2335 C 230.039 1.70999 1.51111 0
M  V30 2336 C 231.017 0.55765 1.52738 0
M  V30 2337 O 232.201 0.785912 1.71335 0
M  V30 2338 C 229.328 1.75607 2.8962 0
M  V30 2339 C 228.374 2.97227 3.05873 0
M  V30 2340 S 229.207 4.57439 2.78405 0
M  V30 2341 C 230.363 4.64844 4.19131 0
M  V30 2342 H 230.596 2.6483 1.35102 0
M  V30 2343 H 228.129 1.42527 0.593762 0
M  V30 2344 H 230.087 1.78947 3.69443 0
M  V30 2345 H 228.748 0.828914 3.02965 0
M  V30 2346 H 227.941 2.96955 4.07227 0
M  V30 2347 H 227.543 2.91813 2.33925 0
M  V30 2348 H 229.835 4.42677 5.12877 0
M  V30 2349 H 230.778 5.66807 4.24424 0
M  V30 2350 H 231.186 3.93804 4.04448 0
M  V30 2351 N 230.584 -0.659388 1.43143 0
M  V30 2352 C 231.861 -1.41627 1.34912 0
M  V30 2353 C 232.241 -2.11099 -0.00607785 0
M  V30 2354 O 231.589 -2.04353 -1.02236 0
M  V30 2355 C 231.799 -2.40604 2.52805 0
M  V30 2356 C 233.147 -3.04789 2.95616 0
M  V30 2357 O 234.171 -2.50932 2.52807 0
M  V30 2358 O 233.03 -4.02421 3.69756 0
M  V30 2359 H 230.124 -0.63246 0.532844 0
M  V30 2360 H 232.67 -0.686814 1.5518 0
M  V30 2361 H 231.442 -1.88174 3.43083 0
M  V30 2362 H 231.065 -3.21009 2.34604 0
M  V30 2363 N 232.062 -1.29571 -0.897171 0
M  V30 2364 C 233.308 -1.17863 -1.65034 0
M  V30 2365 C 233.641 0.268729 -1.92332 0
M  V30 2366 O 232.916 1.19378 -1.53555 0
M  V30 2367 C 233.199 -1.995 -2.99786 0
M  V30 2368 C 233.052 -3.5239 -2.79538 0
M  V30 2369 C 234.371 -1.82335 -4.00552 0
M  V30 2370 H 231.49 -0.429528 -0.598895 0
M  V30 2371 H 234.132 -1.59072 -1.03905 0
M  V30 2372 H 232.282 -1.64485 -3.51962 0
M  V30 2373 H 233.954 -3.97401 -2.34244 0
M  V30 2374 H 232.197 -3.77187 -2.14273 0
M  V30 2375 H 232.868 -4.04787 -3.75302 0
M  V30 2376 H 235.344 -2.12924 -3.57495 0
M  V30 2377 H 234.22 -2.41801 -4.92771 0
M  V30 2378 H 234.481 -0.779209 -4.35179 0
M  V30 2379 N 233.54 1.10788 -1.12088 0
M  V30 2380 C 234.503 2.15207 -0.788577 0
M  V30 2381 C 235.503 1.59609 0.195317 0
M  V30 2382 O 236.693 1.74174 -0.0300193 0
M  V30 2383 C 233.825 3.4047 -0.171174 0
M  V30 2384 H 235.018 2.46116 -1.71368 0
M  V30 2385 H 232.571 1.26089 -0.923652 0
M  V30 2386 H 233.306 3.15176 0.763832 0
M  V30 2387 H 233.091 3.82109 -0.879514 0
M  V30 2388 H 234.581 4.17576 0.04496 0
M  V30 2389 N 235.018 0.912232 1.28515 0
M  V30 2390 C 236.295 0.463597 1.90027 0
M  V30 2391 C 236.675 -1.05753 1.82701 0
M  V30 2392 O 236.023 -1.90492 1.26194 0
M  V30 2393 C 236.233 0.992253 3.34597 0
M  V30 2394 C 237.581 1.04344 4.11579 0
M  V30 2395 O 238.605 0.94079 3.43551 0
M  V30 2396 O 237.464 1.1995 5.33174 0
M  V30 2397 H 234.558 0.146666 0.813891 0
M  V30 2398 H 237.104 1.00292 1.36893 0
M  V30 2399 H 235.876 2.03623 3.34146 0
M  V30 2400 H 235.499 0.433672 3.95228 0
M  V30 2401 N 236.496 -1.42363 0.676048 0
M  V30 2402 C 237.443 -2.308 -0.00150904 0
M  V30 2403 C 238.413 -1.46032 -0.791444 0
M  V30 2404 O 239.598 -1.74861 -0.76344 0
M  V30 2405 C 236.738 -3.31883 -0.945919 0
M  V30 2406 C 235.851 -4.31741 -0.149675 0
M  V30 2407 C 234.986 -5.19898 -1.08995 0
M  V30 2408 C 234.025 -6.11434 -0.285465 0
M  V30 2409 N 233.162 -6.92138 -1.17851 0
M  V30 2410 H 238.002 -2.88187 0.758455 0
M  V30 2411 H 235.539 -1.41952 0.38576 0
M  V30 2412 H 237.497 -3.89019 -1.50731 0
M  V30 2413 H 236.127 -2.76093 -1.6725 0
M  V30 2414 H 235.179 -3.76713 0.528359 0
M  V30 2415 H 236.491 -4.96534 0.474866 0
M  V30 2416 H 235.645 -5.81772 -1.72123 0
M  V30 2417 H 234.384 -4.55284 -1.74837 0
M  V30 2418 H 233.389 -5.48627 0.359018 0
M  V30 2419 H 234.614 -6.78097 0.368883 0
M  V30 2420 H 232.56 -6.30152 -1.82332 0
M  V30 2421 H 232.477 -7.53542 -0.609082 0
M  V30 2422 H 233.745 -7.58499 -1.79722 0
M  V30 2423 N 237.974 -0.419461 -1.51915 0
M  V30 2424 C 239.223 0.154346 -2.01109 0
M  V30 2425 C 239.536 1.45338 -1.30905 0
M  V30 2426 O 240.742 2.10906 -1.7097 0
M  V30 2427 C 239.198 0.325615 -3.58424 0
M  V30 2428 C 238.806 -0.961934 -4.37551 0
M  V30 2429 C 240.55 0.854155 -4.15818 0
M  V30 2430 C 238.457 -0.757287 -5.86531 0
M  V30 2431 H 237.387 0.0614563 -0.751491 0
M  V30 2432 H 240.038 -0.54649 -1.75173 0
M  V30 2433 H 238.42 1.08903 -3.80731 0
M  V30 2434 H 239.594 -1.7323 -4.26999 0
M  V30 2435 H 237.909 -1.41766 -3.91524 0
M  V30 2436 H 240.506 1.02346 -5.24814 0
M  V30 2437 H 240.849 1.83172 -3.73837 0
M  V30 2438 H 241.382 0.149528 -3.97519 0
M  V30 2439 H 238.121 -1.70671 -6.32892 0
M  V30 2440 H 237.641 -0.0264061 -5.99794 0
M  V30 2441 H 239.32 -0.403482 -6.45741 0
M  V30 2442 N 239.452 1.56882 -0.150215 0
M  V30 2443 C 240.677 2.01027 0.510184 0
M  V30 2444 C 241.102 1.02966 1.57415 0
M  V30 2445 O 240.46 0.00590158 1.81299 0
M  V30 2446 C 240.508 3.43899 1.08472 0
M  V30 2447 O 239.612 3.4885 2.19948 0
M  V30 2448 H 238.953 0.652233 0.124451 0
M  V30 2449 H 241.483 2.03093 -0.247894 0
M  V30 2450 H 241.493 3.82766 1.41259 0
M  V30 2451 H 240.168 4.14776 0.305582 0
M  V30 2452 H 238.745 3.21827 1.88366 0
M  V30 2453 N 240.93 -0.123565 1.57115 0
M  V30 2454 C 241.862 -1.17739 1.96648 0
M  V30 2455 C 242.875 -1.37906 0.865201 0
M  V30 2456 O 244.064 -1.37062 1.14351 0
M  V30 2457 C 241.164 -2.53821 2.24562 0
M  V30 2458 C 240.337 -2.54317 3.55867 0
M  V30 2459 C 239.396 -3.72112 3.72047 0
M  V30 2460 O 238.422 -3.55907 4.44206 0
M  V30 2461 N 239.624 -4.90498 3.10471 0
M  V30 2462 H 242.389 -0.841147 2.87654 0
M  V30 2463 H 239.95 -0.31289 1.58848 0
M  V30 2464 H 241.942 -3.31175 2.32606 0
M  V30 2465 H 240.512 -2.79645 1.39705 0
M  V30 2466 H 239.732 -1.62711 3.59053 0
M  V30 2467 H 241.02 -2.51701 4.42181 0
M  V30 2468 H 240.418 -5.06567 2.51806 0
M  V30 2469 H 238.975 -5.65544 3.24043 0
M  V30 2470 N 242.408 -1.52605 -0.393616 0
M  V30 2471 C 243.654 -1.67672 -1.14079 0
M  V30 2472 C 243.987 -0.413121 -1.89755 0
M  V30 2473 O 243.262 0.588952 -1.85369 0
M  V30 2474 C 243.545 -2.9088 -2.12276 0
M  V30 2475 C 243.398 -4.27329 -1.40394 0
M  V30 2476 C 244.717 -3.09628 -3.12759 0
M  V30 2477 H 241.836 -0.610168 -0.413356 0
M  V30 2478 H 244.478 -1.85193 -0.424696 0
M  V30 2479 H 242.628 -2.76073 -2.73342 0
M  V30 2480 H 244.3 -4.53894 -0.82327 0
M  V30 2481 H 242.543 -4.2802 -0.705801 0
M  V30 2482 H 243.214 -5.09615 -2.12123 0
M  V30 2483 H 245.69 -3.23436 -2.61779 0
M  V30 2484 H 244.566 -3.97322 -3.78717 0
M  V30 2485 H 244.827 -2.23637 -3.81365 0
M  V30 2486 N 243.887 0.651787 -1.4349 0
M  V30 2487 C 245.298 1.233 -1.40193 0
M  V30 2488 C 245.649 1.9591 -0.106727 0
M  V30 2489 O 244.774 2.01316 0.793773 0
M  V30 2490 C 245.369 2.24257 -2.53957 0
M  V30 2491 C 243.928 2.77852 -2.5392 0
M  V30 2492 C 243.075 1.52517 -2.3159 0
M  V30 2493 H 246.026 0.443717 -1.52371 0
M  V30 2494 H 246.047 3.0646 -2.25528 0
M  V30 2495 H 245.559 1.71382 -3.4821 0
M  V30 2496 H 243.66 3.34786 -1.63551 0
M  V30 2497 H 243.773 3.25299 -3.51735 0
M  V30 2498 H 242.137 1.79915 -1.80285 0
M  V30 2499 H 242.92 1.01574 -3.27929 0
M  V30 2500 N 245.365 1.30045 0.890287 0
M  V30 2501 C 246.593 1.21472 1.67487 0
M  V30 2502 C 247.008 -0.223241 1.87476 0
M  V30 2503 O 246.365 -1.14828 1.41847 0
M  V30 2504 C 246.416 1.93394 3.05419 0
M  V30 2505 O 246.137 3.31576 2.86337 0
M  V30 2506 C 247.638 1.91414 3.99844 0
M  V30 2507 H 244.858 0.420604 0.522813 0
M  V30 2508 H 247.402 1.7158 1.11268 0
M  V30 2509 H 245.557 1.47099 3.58386 0
M  V30 2510 H 245.971 3.67929 3.73802 0
M  V30 2511 H 247.445 2.46285 4.94012 0
M  V30 2512 H 247.922 0.891833 4.3005 0
M  V30 2513 H 248.528 2.37496 3.52811 0
M  V30 2514 N 246.843 -1.10192 1.12674 0
M  V30 2515 C 247.793 -2.14754 0.765801 0
M  V30 2516 C 248.777 -1.59154 -0.236409 0
M  V30 2517 O 249.969 -1.76951 -0.0415261 0
M  V30 2518 C 247.098 -3.42563 0.224827 0
M  V30 2519 C 246.184 -4.05091 1.25548 0
M  V30 2520 N 246.575 -4.42287 2.4539 0
M  V30 2521 C 244.873 -4.32186 1.10142 0
M  V30 2522 C 245.574 -4.91441 3.11224 0
M  V30 2523 N 244.55 -4.88405 2.38666 0
M  V30 2524 H 248.352 -2.41309 1.67772 0
M  V30 2525 H 245.866 -1.27339 1.00789 0
M  V30 2526 H 247.863 -4.16868 -0.0519578 0
M  V30 2527 H 246.523 -3.17467 -0.681515 0
M  V30 2528 H 247.534 -4.33902 2.82754 0
M  V30 2529 H 244.211 -4.16735 0.252587 0
M  V30 2530 H 245.601 -5.29749 4.13298 0
M  V30 2531 N 248.321 -0.919034 -1.28029 0
M  V30 2532 C 249.598 -0.473668 -1.89778 0
M  V30 2533 C 249.978 1.04783 -1.83259 0
M  V30 2534 O 249.326 1.8982 -1.27202 0
M  V30 2535 C 249.536 -1.00998 -3.34066 0
M  V30 2536 C 250.884 -1.06525 -4.1102 0
M  V30 2537 O 251.908 -0.958996 -3.43048 0
M  V30 2538 O 250.767 -1.22776 -5.3253 0
M  V30 2539 H 247.861 -0.15098 -0.813101 0
M  V30 2540 H 250.407 -1.01016 -1.36359 0
M  V30 2541 H 249.179 -2.05392 -3.33061 0
M  V30 2542 H 248.802 -0.454626 -3.94992 0
M  V30 2543 N 249.799 1.42003 -0.683588 0
M  V30 2544 C 251.045 2.01712 -0.209825 0
M  V30 2545 C 251.378 1.53968 1.18353 0
M  V30 2546 O 250.653 0.745661 1.79639 0
M  V30 2547 C 250.936 3.59202 -0.254197 0
M  V30 2548 C 250.789 4.17102 -1.68363 0
M  V30 2549 C 252.108 4.38344 0.392709 0
M  V30 2550 H 249.227 0.732891 -0.0777189 0
M  V30 2551 H 251.869 1.68909 -0.87004 0
M  V30 2552 H 250.019 3.87278 0.307954 0
M  V30 2553 H 251.691 3.99946 -2.29871 0
M  V30 2554 H 249.934 3.72597 -2.22157 0
M  V30 2555 H 250.605 5.26249 -1.6663 0
M  V30 2556 H 253.081 4.16011 -0.0859162 0
M  V30 2557 H 251.957 5.47901 0.331063 0
M  V30 2558 H 252.218 4.16887 1.47164 0
M  V30 2559 N 251.277 0.427512 1.51691 0
M  V30 2560 C 252.525 -0.141948 2.01601 0
M  V30 2561 C 252.846 -1.44067 1.31414 0
M  V30 2562 O 252.116 -1.90763 0.445658 0
M  V30 2563 H 250.696 -0.0554468 0.744939 0
M  V30 2564 H 253.358 0.567968 1.86441 0
M  V30 2565 H 252.454 -0.324913 3.10404 0
M  V30 2566 N 252.755 -1.56801 0.158532 0
M  V30 2567 C 254.166 -1.83189 -0.360366 0
M  V30 2568 C 254.517 -1.07778 -1.63946 0
M  V30 2569 O 253.642 -0.326718 -2.13919 0
M  V30 2570 C 254.237 -3.32297 -0.660595 0
M  V30 2571 C 252.796 -3.59227 -1.12398 0
M  V30 2572 C 251.943 -2.76877 -0.153097 0
M  V30 2573 H 254.894 -1.54008 0.383031 0
M  V30 2574 H 254.915 -3.4908 -1.51405 0
M  V30 2575 H 254.427 -3.87156 0.270527 0
M  V30 2576 H 252.528 -3.09766 -2.07064 0
M  V30 2577 H 252.641 -4.67632 -1.04197 0
M  V30 2578 H 251.005 -2.46319 -0.647983 0
M  V30 2579 H 251.788 -3.34511 0.77182 0
M  V30 2580 N 254.233 0.115231 -1.57178 0
M  V30 2581 C 255.463 0.835224 -1.88964 0
M  V30 2582 C 255.871 1.73774 -0.74829 0
M  V30 2583 O 255.214 1.81401 0.289739 0
M  V30 2584 C 255.276 1.7178 -3.15804 0
M  V30 2585 C 254.94 0.989198 -4.46166 0
M  V30 2586 C 255.937 0.328263 -5.18863 0
M  V30 2587 C 253.622 0.969256 -4.9286 0
M  V30 2588 C 255.616 -0.342873 -6.36477 0
M  V30 2589 C 253.303 0.294324 -6.10391 0
M  V30 2590 C 254.301 -0.360582 -6.82048 0
M  V30 2591 O 253.989 -1.02474 -7.97342 0
M  V30 2592 H 253.721 0.245197 -0.629964 0
M  V30 2593 H 256.275 0.10303 -2.05141 0
M  V30 2594 H 254.505 2.49173 -2.95719 0
M  V30 2595 H 256.194 2.31255 -3.33581 0
M  V30 2596 H 256.96 0.335263 -4.8384 0
M  V30 2597 H 252.839 1.46844 -4.36987 0
M  V30 2598 H 256.383 -0.854629 -6.92345 0
M  V30 2599 H 252.28 0.285099 -6.4487 0
M  V30 2600 H 253.048 -0.929594 -8.13204 0
M  V30 2601 N 255.711 1.52812 0.385517 0
M  V30 2602 C 256.643 1.74096 1.49074 0
M  V30 2603 C 257.656 0.621462 1.50472 0
M  V30 2604 O 258.845 0.897245 1.54311 0
M  V30 2605 C 255.945 1.78774 2.87911 0
M  V30 2606 C 255.118 3.08134 3.10439 0
M  V30 2607 C 254.177 3.04313 4.29278 0
M  V30 2608 O 253.203 3.78168 4.25415 0
M  V30 2609 N 254.405 2.23741 5.35649 0
M  V30 2610 H 257.17 2.69455 1.31202 0
M  V30 2611 H 254.731 1.51343 0.575065 0
M  V30 2612 H 256.723 1.73721 3.65518 0
M  V30 2613 H 255.293 0.907869 2.99126 0
M  V30 2614 H 254.513 3.26649 2.20667 0
M  V30 2615 H 255.801 3.93662 3.22347 0
M  V30 2616 H 255.199 1.63211 5.41645 0
M  V30 2617 H 253.756 2.24524 6.11909 0
M  V30 2618 N 257.189 -0.644168 1.43834 0
M  V30 2619 C 258.137 -1.77793 1.49974 0
M  V30 2620 C 259.131 -1.65253 0.372536 0
M  V30 2621 O 260.337 -1.7149 0.546924 0
M  V30 2622 H 256.712 -0.58675 0.47035 0
M  V30 2623 H 258.683 -1.69736 2.45423 0
M  V30 2624 C 257.432 -3.16087 1.4486 0
M  V30 2625 H 256.755 -3.26378 2.30905 0
M  V30 2626 H 258.195 -3.95349 1.53217 0
M  V30 2627 C 256.654 -3.36484 0.167463 0
M  V30 2628 O 257.184 -3.94298 -0.767609 0
M  V30 2629 N 255.39 -2.90504 0.0747556 0
M  V30 2630 H 254.937 -2.4364 0.836507 0
M  V30 2631 H 254.895 -3.04527 -0.781714 0
M  V30 2632 N 258.668 -1.30515 -0.883378 0
M  V30 2633 C 259.914 -1.19607 -1.63774 0
M  V30 2634 C 260.247 0.248314 -1.92606 0
M  V30 2635 O 259.522 1.17742 -1.54813 0
M  V30 2636 C 259.805 -2.02669 -2.97653 0
M  V30 2637 C 259.658 -3.55335 -2.75784 0
M  V30 2638 C 260.977 -1.86573 -3.98596 0
M  V30 2639 H 258.096 -0.435856 -0.594305 0
M  V30 2640 H 260.738 -1.60165 -1.02212 0
M  V30 2641 H 258.888 -1.68208 -3.50197 0
M  V30 2642 H 260.56 -3.99863 -2.30016 0
M  V30 2643 H 258.803 -3.79438 -2.1026 0
M  V30 2644 H 259.474 -4.08745 -3.70988 0
M  V30 2645 H 261.95 -2.16703 -3.55217 0
M  V30 2646 H 260.826 -2.47014 -4.90179 0
M  V30 2647 H 261.087 -0.825321 -4.34328 0
M  V30 2648 N 260.146 1.09593 -1.13257 0
M  V30 2649 C 261.557 1.63229 -0.906274 0
M  V30 2650 C 261.908 1.8811 0.557578 0
M  V30 2651 O 261.033 1.62953 1.42391 0
M  V30 2652 C 261.628 2.96535 -1.63867 0
M  V30 2653 C 260.187 3.47003 -1.45828 0
M  V30 2654 C 259.334 2.2145 -1.66898 0
M  V30 2655 H 262.285 0.92978 -1.28611 0
M  V30 2656 H 262.306 3.64411 -1.09476 0
M  V30 2657 H 261.818 2.78394 -2.70404 0
M  V30 2658 H 259.919 3.70272 -0.415848 0
M  V30 2659 H 260.032 4.24551 -2.2202 0
M  V30 2660 H 258.396 2.30022 -1.09371 0
M  V30 2661 H 259.179 2.0583 -2.74752 0
M  V30 2662 N 261.624 0.925811 1.2754 0
M  V30 2663 C 262.849 0.580924 1.99098 0
M  V30 2664 C 263.274 -0.833555 1.68622 0
M  V30 2665 O 262.632 -1.55903 0.925422 0
M  V30 2666 C 262.68 0.811186 3.51358 0
M  V30 2667 O 261.784 -0.124129 4.12213 0
M  V30 2668 H 261.125 0.223873 0.625122 0
M  V30 2669 H 263.655 1.24455 1.62395 0
M  V30 2670 H 263.665 0.72601 4.01489 0
M  V30 2671 H 262.34 1.84227 3.72872 0
M  V30 2672 H 260.917 0.0108006 3.72898 0
M  V30 2673 N 263.102 -1.41638 0.69111 0
M  V30 2674 C 264.049 -2.30789 0.0229705 0
M  V30 2675 C 265.019 -1.46863 -0.775911 0
M  V30 2676 O 266.204 -1.75661 -0.74485 0
M  V30 2677 C 263.344 -3.32868 -0.910666 0
M  V30 2678 C 262.457 -4.31875 -0.103874 0
M  V30 2679 C 261.592 -5.21024 -1.03475 0
M  V30 2680 C 260.631 -6.11702 -0.220598 0
M  V30 2681 N 259.768 -6.93349 -1.10504 0
M  V30 2682 H 264.608 -2.87366 0.788978 0
M  V30 2683 H 262.145 -1.41535 0.400794 0
M  V30 2684 H 264.103 -3.90596 -1.46597 0
M  V30 2685 H 262.733 -2.77851 -1.64312 0
M  V30 2686 H 261.785 -3.76131 0.568285 0
M  V30 2687 H 263.097 -4.96003 0.527504 0
M  V30 2688 H 262.251 -5.83565 -1.65943 0
M  V30 2689 H 260.99 -4.57112 -1.69999 0
M  V30 2690 H 259.995 -5.48215 0.417187 0
M  V30 2691 H 261.22 -6.77668 0.440784 0
M  V30 2692 H 259.166 -6.3205 -1.75638 0
M  V30 2693 H 259.083 -7.54146 -0.529125 0
M  V30 2694 H 260.351 -7.60362 -1.71667 0
M  V30 2695 N 264.58 -0.43555 -1.51462 0
M  V30 2696 C 265.991 0.0279871 -1.86679 0
M  V30 2697 C 266.342 1.42104 -1.35281 0
M  V30 2698 O 265.467 2.04667 -0.702878 0
M  V30 2699 C 266.062 0.0575626 -3.38751 0
M  V30 2700 C 264.621 0.465507 -3.7351 0
M  V30 2701 C 263.768 -0.342996 -2.75171 0
M  V30 2702 H 266.719 -0.651473 -1.44712 0
M  V30 2703 H 266.74 0.867421 -3.70481 0
M  V30 2704 H 266.252 -0.956448 -3.7613 0
M  V30 2705 H 264.353 1.48519 -3.41721 0
M  V30 2706 H 264.466 0.191546 -4.78717 0
M  V30 2707 H 262.83 0.198442 -2.53926 0
M  V30 2708 H 263.613 -1.35585 -3.15391 0
M  V30 2709 N 266.058 1.56714 -0.166846 0
M  V30 2710 C 267.304 1.97039 0.479962 0
M  V30 2711 C 267.637 1.05264 1.63197 0
M  V30 2712 O 266.912 0.0988833 1.94248 0
M  V30 2713 C 267.195 3.46867 0.967212 0
M  V30 2714 C 267.048 4.49421 -0.18466 0
M  V30 2715 C 268.367 3.9968 1.84238 0
M  V30 2716 H 265.486 0.71641 0.172992 0
M  V30 2717 H 268.128 1.8832 -0.252079 0
M  V30 2718 H 266.278 3.54428 1.59101 0
M  V30 2719 H 267.95 4.53924 -0.821621 0
M  V30 2720 H 266.193 4.25573 -0.840837 0
M  V30 2721 H 266.864 5.51644 0.198317 0
M  V30 2722 H 269.34 3.94723 1.31655 0
M  V30 2723 H 268.216 5.04941 2.15234 0
M  V30 2724 H 268.477 3.43226 2.78654 0
M  V30 2725 N 267.536 -0.106894 1.57237 0
M  V30 2726 C 268.782 -0.81373 1.85759 0
M  V30 2727 C 269.115 -1.78952 0.754315 0
M  V30 2728 O 268.39 -1.93029 -0.23879 0
M  V30 2729 C 268.673 -1.55293 3.24894 0
M  V30 2730 C 268.526 -0.595929 4.45835 0
M  V30 2731 C 269.845 -2.5063 3.61763 0
M  V30 2732 H 266.964 -0.294369 0.67566 0
M  V30 2733 H 269.606 -0.0776472 1.89841 0
M  V30 2734 H 267.756 -2.1804 3.21544 0
M  V30 2735 H 269.428 0.0236262 4.61294 0
M  V30 2736 H 267.671 0.0916191 4.33703 0
M  V30 2737 H 268.342 -1.15004 5.39887 0
M  V30 2738 H 270.818 -1.97982 3.65981 0
M  V30 2739 H 269.694 -2.99376 4.60071 0
M  V30 2740 H 269.955 -3.3385 2.89821 0
M  V30 2741 N 269.014 -1.53014 -0.377408 0
M  V30 2742 C 270.263 -1.67845 -1.11853 0
M  V30 2743 C 270.576 -0.430625 -1.90801 0
M  V30 2744 O 271.782 -0.459261 -2.67587 0
M  V30 2745 C 270.238 -2.96668 -2.03756 0
M  V30 2746 C 269.846 -4.28671 -1.30175 0
M  V30 2747 C 271.59 -3.20865 -2.77932 0
M  V30 2748 C 269.497 -5.48591 -2.20911 0
M  V30 2749 H 268.427 -0.625343 -0.421263 0
M  V30 2750 H 271.078 -1.79514 -0.380409 0
M  V30 2751 H 269.46 -2.78773 -2.8125 0
M  V30 2752 H 270.634 -4.57157 -0.578259 0
M  V30 2753 H 268.949 -4.10825 -0.679108 0
M  V30 2754 H 271.546 -4.07642 -3.46024 0
M  V30 2755 H 271.889 -2.36424 -3.4265 0
M  V30 2756 H 272.422 -3.39379 -2.07525 0
M  V30 2757 H 269.161 -6.35474 -1.6079 0
M  V30 2758 H 268.681 -5.244 -2.91144 0
M  V30 2759 H 270.36 -5.8292 -2.80736 0
M  V30 2760 N 270.492 0.636531 -1.44174 0
M  V30 2761 C 271.422 1.76003 -1.53444 0
M  V30 2762 C 272.403 1.65619 -0.387841 0
M  V30 2763 O 273.588 1.84461 -0.607257 0
M  V30 2764 C 270.718 3.14511 -1.4731 0
M  V30 2765 C 269.672 3.39677 -2.60391 0
M  V30 2766 C 268.998 4.78159 -2.39308 0
M  V30 2767 C 270.298 3.32772 -4.02567 0
M  V30 2768 H 271.992 1.68501 -2.47483 0
M  V30 2769 H 269.538 0.809237 -1.19111 0
M  V30 2770 H 271.491 3.92878 -1.52397 0
M  V30 2771 H 270.215 3.22783 -0.49785 0
M  V30 2772 H 268.874 2.63688 -2.54684 0
M  V30 2773 H 268.522 4.83128 -1.39988 0
M  V30 2774 H 268.222 4.95956 -3.15122 0
M  V30 2775 H 269.746 5.58762 -2.46205 0
M  V30 2776 H 271.16 4.01051 -4.09672 0
M  V30 2777 H 269.557 3.62104 -4.7854 0
M  V30 2778 H 270.627 2.30669 -4.2652 0
M  V30 2779 N 271.97 1.30982 0.876444 0
M  V30 2780 C 273.195 1.23373 1.66715 0
M  V30 2781 C 273.62 -0.19885 1.87046 0
M  V30 2782 O 272.978 -1.1427 1.40756 0
M  V30 2783 C 273.026 1.97644 3.01611 0
M  V30 2784 O 272.13 1.30935 3.91062 0
M  V30 2785 H 271.471 0.426279 0.509099 0
M  V30 2786 H 274.001 1.72944 1.09323 0
M  V30 2787 H 274.011 2.06992 3.51594 0
M  V30 2788 H 272.686 3.01829 2.86133 0
M  V30 2789 H 271.263 1.29996 3.49507 0
M  V30 2790 N 273.449 -1.08991 1.13837 0
M  V30 2791 C 274.412 -2.13925 0.822715 0
M  V30 2792 C 275.412 -1.599 -0.1699 0
M  V30 2793 O 276.602 -1.74104 0.0577251 0
M  V30 2794 C 273.734 -3.40155 0.225318 0
M  V30 2795 H 274.927 -2.43358 1.75262 0
M  V30 2796 H 272.48 -1.24603 0.943594 0
M  V30 2797 H 273.215 -3.16352 -0.713594 0
M  V30 2798 H 273 -3.80661 0.940193 0
M  V30 2799 H 274.49 -4.17594 0.0214784 0
M  V30 2800 N 274.927 -0.932562 -1.27047 0
M  V30 2801 C 275.874 -0.434072 -2.26681 0
M  V30 2802 C 276.844 0.501639 -1.58344 0
M  V30 2803 O 278.029 0.419734 -1.86126 0
M  V30 2804 C 275.169 0.30261 -3.43771 0
M  V30 2805 C 274.282 -0.667774 -4.26808 0
M  V30 2806 C 273.417 0.0892393 -5.31125 0
M  V30 2807 C 272.456 -0.873532 -6.05835 0
M  V30 2808 N 271.593 -0.148832 -7.01942 0
M  V30 2809 H 276.433 -1.28868 -2.68695 0
M  V30 2810 H 273.97 -0.646713 -1.32121 0
M  V30 2811 H 275.928 0.746092 -4.10474 0
M  V30 2812 H 274.558 1.12142 -3.02695 0
M  V30 2813 H 273.61 -1.22978 -3.59973 0
M  V30 2814 H 274.922 -1.40337 -4.78651 0
M  V30 2815 H 274.076 0.592409 -6.03801 0
M  V30 2816 H 272.815 0.85777 -4.80097 0
M  V30 2817 H 271.82 -1.38791 -5.31994 0
M  V30 2818 H 273.045 -1.64193 -6.58952 0
M  V30 2819 H 270.991 0.601365 -6.53238 0
M  V30 2820 H 270.908 -0.82391 -7.51497 0
M  V30 2821 H 272.176 0.333527 -7.78786 0
M  V30 2822 N 276.405 1.4127 -0.698611 0
M  V30 2823 C 277.651 2.01478 -0.231207 0
M  V30 2824 C 277.984 1.55215 1.16713 0
M  V30 2825 O 277.259 0.764672 1.78838 0
M  V30 2826 C 277.542 3.58912 -0.292281 0
M  V30 2827 C 277.395 4.15293 -1.72778 0
M  V30 2828 C 278.714 4.38736 0.346194 0
M  V30 2829 H 275.833 0.732025 -0.0854878 0
M  V30 2830 H 278.475 1.67977 -0.887906 0
M  V30 2831 H 276.625 3.87582 0.26686 0
M  V30 2832 H 278.297 3.97486 -2.341 0
M  V30 2833 H 276.54 3.7022 -2.26096 0
M  V30 2834 H 277.211 5.24452 -1.72202 0
M  V30 2835 H 279.687 4.15897 -0.130035 0
M  V30 2836 H 278.563 5.48221 0.272932 0
M  V30 2837 H 278.824 4.18425 1.42734 0
M  V30 2838 N 277.883 0.443576 1.51229 0
M  V30 2839 C 278.813 -0.355142 2.30783 0
M  V30 2840 C 279.794 -1.0154 1.36468 0
M  V30 2841 O 280.979 -1.01785 1.65389 0
M  V30 2842 C 278.109 -1.45312 3.15439 0
M  V30 2843 C 277.063 -0.916002 4.18083 0
M  V30 2844 C 276.389 -2.1102 4.91299 0
M  V30 2845 C 277.689 0.0538602 5.22272 0
M  V30 2846 H 279.383 0.308767 2.97804 0
M  V30 2847 H 276.929 0.149937 1.43217 0
M  V30 2848 H 278.882 -2.01914 3.69876 0
M  V30 2849 H 277.606 -2.14541 2.46252 0
M  V30 2850 H 276.265 -0.372145 3.64706 0
M  V30 2851 H 275.913 -2.78882 4.18609 0
M  V30 2852 H 275.613 -1.75717 5.60712 0
M  V30 2853 H 277.137 -2.68164 5.48562 0
M  V30 2854 H 278.551 -0.422069 5.71744 0
M  V30 2855 H 276.948 0.319776 5.99247 0
M  V30 2856 H 278.018 0.98858 4.74716 0
M  V30 2857 N 279.361 -1.56624 0.175154 0
M  V30 2858 C 280.772 -1.83561 -0.340916 0
M  V30 2859 C 281.123 -1.09511 -1.62794 0
M  V30 2860 O 280.248 -0.349389 -2.13561 0
M  V30 2861 C 280.843 -3.32979 -0.625313 0
M  V30 2862 C 279.402 -3.60399 -1.08581 0
M  V30 2863 C 278.549 -2.77024 -0.123722 0
M  V30 2864 H 281.5 -1.53593 0.399344 0
M  V30 2865 H 281.521 -3.50666 -1.47694 0
M  V30 2866 H 281.033 -3.86847 0.311575 0
M  V30 2867 H 279.134 -3.11945 -2.03767 0
M  V30 2868 H 279.247 -4.68711 -0.992317 0
M  V30 2869 H 277.611 -2.46993 -0.621821 0
M  V30 2870 H 278.394 -3.33674 0.807256 0
M  V30 2871 O 280.878 -0.0374081 -1.61457 0
M  V30 2872 H 281.569 0.573968 -1.85001 0
M  V30 END ATOM
M  V30 BEGIN BOND
M  V30 END BOND
M  V30 END CTAB
M  END
$$$$
