drugbank_target|P28702 Retinoic acid receptor RXR-beta (DB00210; DB00307; DB00412; DB00459; DB00523; DB00755; DB00799; DB00926; DB01393; DB01941; DB02746; DB03756; DB07080; DB07929; DB08175)
 OpenBabel12092119233D

  0  0  0     0  0            999 V3000
M  V30 BEGIN CTAB
M  V30 COUNTS 7953 8061 0 0 0
M  V30 BEGIN ATOM
M  V30 1 H -0.908 1.98254 -0.117106 0
M  V30 2 N 0 1.576 0 0
M  V30 3 C 0.933 2.03868 1.02534 0
M  V30 4 C 1.911 0.928543 1.3348 0
M  V30 5 O 3.095 1.19667 1.45644 0
M  V30 6 C 0.222 2.43627 2.35294 0
M  V30 7 C -0.732 3.65373 2.2001 0
M  V30 8 S 0.101 5.13292 1.52614 0
M  V30 9 C 1.257 5.56322 2.86805 0
M  V30 10 H 1.49 2.90518 0.631377 0
M  V30 11 H -0.977 1.52953 0.210867 0
M  V30 12 H 0.981 2.67203 3.11629 0
M  V30 13 H -0.358 1.57376 2.7183 0
M  V30 14 H -1.165 3.90944 3.18086 0
M  V30 15 H -1.563 3.418 1.51819 0
M  V30 16 H 0.729 5.58782 3.83104 0
M  V30 17 H 1.672 6.56266 2.65933 0
M  V30 18 H 2.08 4.83886 2.90714 0
M  V30 19 N 1.4781 -0.272755 1.55222 0
M  V30 20 C 2.7031 -1.02683 1.80197 0
M  V30 21 C 3.1281 -1.79142 0.573551 0
M  V30 22 O 2.4861 -1.74917 -0.476849 0
M  V30 23 C 2.5341 -1.9609 3.02624 0
M  V30 24 O 1.6381 -3.04863 2.77727 0
M  V30 25 H 0.9791 -0.293557 0.595584 0
M  V30 26 H 3.5091 -0.30159 2.02365 0
M  V30 27 H 3.5191 -2.38039 3.31363 0
M  V30 28 H 2.1941 -1.39851 3.91682 0
M  V30 29 H 0.7711 -2.67228 2.60084 0
M  V30 30 N 2.9562 -1.48159 -0.537278 0
M  V30 31 C 4.2022 -1.57015 -1.29297 0
M  V30 32 C 4.5572 -0.237791 -1.90925 0
M  V30 33 O 3.8502 0.758621 -1.75942 0
M  V30 34 C 4.0442 -2.63956 -2.40961 0
M  V30 35 C 3.8732 -4.07461 -1.90278 0
M  V30 36 C 2.6432 -4.74685 -1.73213 0
M  V30 37 C 4.8412 -4.93858 -1.43556 0
M  V30 38 N 2.8232 -6.02633 -1.17078 0
M  V30 39 C 4.1942 -6.11993 -0.993204 0
M  V30 40 C 6.2492 -4.80141 -1.31792 0
M  V30 41 C 4.9522 -7.17923 -0.444872 0
M  V30 42 C 6.9782 -5.86186 -0.783585 0
M  V30 43 C 6.3402 -7.03524 -0.351261 0
M  V30 44 H 2.4392 -0.629154 -0.464423 0
M  V30 45 H 5.0232 -1.85006 -0.606705 0
M  V30 46 H 3.1942 -2.378 -3.07093 0
M  V30 47 H 4.9262 -2.62539 -3.07986 0
M  V30 48 H 1.6812 -4.30902 -1.9652 0
M  V30 49 H 2.1052 -6.7085 -0.910421 0
M  V30 50 H 6.7472 -3.89772 -1.63823 0
M  V30 51 H 4.4652 -8.08022 -0.11222 0
M  V30 52 H 8.0512 -5.77624 -0.695835 0
M  V30 53 H 6.9312 -7.8418 0.055777 0
M  V30 54 N 4.4343 0.785586 -1.36625 0
M  V30 55 C 5.3973 1.87999 -1.31107 0
M  V30 56 C 6.3973 1.59316 -0.217959 0
M  V30 57 O 7.5873 1.67656 -0.472977 0
M  V30 58 C 4.7193 3.24861 -1.03334 0
M  V30 59 H 5.9123 1.94307 -2.2844 0
M  V30 60 H 3.4653 0.983813 -1.21453 0
M  V30 61 H 4.2003 3.24235 -0.0647432 0
M  V30 62 H 3.9853 3.4707 -1.82441 0
M  V30 63 H 5.4753 4.04929 -1.02088 0
M  V30 64 N 5.9124 1.20967 1.01018 0
M  V30 65 C 6.8754 0.965918 2.07853 0
M  V30 66 C 7.8754 -0.0610545 1.60684 0
M  V30 67 O 9.0654 0.175681 1.73312 0
M  V30 68 C 6.1974 0.455513 3.37843 0
M  V30 69 H 7.3904 1.91365 2.3091 0
M  V30 70 H 4.9434 1.02594 1.17916 0
M  V30 71 H 5.6784 -0.497381 3.20463 0
M  V30 72 H 5.4634 1.19622 3.73407 0
M  V30 73 H 6.9534 0.304667 4.16487 0
M  V30 74 N 7.3905 -1.2043 1.01659 0
M  V30 75 C 8.8065 -1.41852 0.731442 0
M  V30 76 C 9.0065 -1.89358 -0.688898 0
M  V30 77 O 8.0625 -2.06247 -1.45666 0
M  V30 78 C 9.3755 -2.44019 1.75714 0
M  V30 79 C 10.9235 -2.57785 1.77527 0
M  V30 80 C 11.3985 -3.63194 2.79023 0
M  V30 81 N 12.8895 -3.70678 2.77763 0
M  V30 82 C 13.6245 -4.51897 3.52954 0
M  V30 83 N 13.1205 -5.36921 4.37821 0
M  V30 84 N 14.9135 -4.4643 3.41551 0
M  V30 85 H 7.0645 -0.879093 1.93354 0
M  V30 86 H 9.3275 -0.448425 0.835236 0
M  V30 87 H 9.0335 -2.1611 2.77469 0
M  V30 88 H 8.9075 -3.43007 1.56927 0
M  V30 89 H 11.2945 -2.85023 0.764569 0
M  V30 90 H 11.3755 -1.58992 2.00387 0
M  V30 91 H 11.0195 -3.36699 3.80258 0
M  V30 92 H 10.9495 -4.61609 2.53425 0
M  V30 93 H 13.4405 -3.09944 2.16201 0
M  V30 94 H 13.7535 -5.95981 4.91962 0
M  V30 95 H 12.0985 -5.36424 4.41899 0
M  V30 96 H 15.2895 -3.79042 2.74672 0
M  V30 97 H 15.4625 -5.09491 4.00404 0
M  V30 98 N 8.8686 -0.792821 -1.36206 0
M  V30 99 C 10.2796 -0.429513 -1.81692 0
M  V30 100 C 10.6306 1.04695 -1.65932 0
M  V30 101 O 9.7556 1.81256 -1.18218 0
M  V30 102 C 10.3506 -0.772831 -3.29868 0
M  V30 103 C 8.9096 -0.462307 -3.7355 0
M  V30 104 C 8.0566 -1.00569 -2.5842 0
M  V30 105 H 11.0076 -0.985672 -1.24379 0
M  V30 106 H 11.0286 -0.0651928 -3.80444 0
M  V30 107 H 10.5406 -1.84747 -3.41307 0
M  V30 108 H 8.6416 0.604158 -3.67669 0
M  V30 109 H 8.7546 -0.985299 -4.68859 0
M  V30 110 H 7.1186 -0.428734 -2.51066 0
M  V30 111 H 7.9016 -2.08616 -2.72643 0
M  V30 112 N 10.3467 1.47872 -0.545128 0
M  V30 113 C 11.7577 1.86384 -0.108581 0
M  V30 114 C 12.1087 1.45309 1.31832 0
M  V30 115 O 11.2337 0.850641 1.9898 0
M  V30 116 C 11.8287 3.38265 -0.190274 0
M  V30 117 C 10.3877 3.75914 0.191164 0
M  V30 118 C 9.5347 2.71926 -0.543273 0
M  V30 119 H 12.4857 1.39561 -0.755537 0
M  V30 120 H 12.5067 3.75831 0.594217 0
M  V30 121 H 12.0187 3.6813 -1.2289 0
M  V30 122 H 10.1197 3.51665 1.23136 0
M  V30 123 H 10.2327 4.78836 -0.158987 0
M  V30 124 H 8.5967 2.54697 0.0122495 0
M  V30 125 H 9.3797 3.04634 -1.58282 0
M  V30 126 N 11.8248 0.280983 1.55075 0
M  V30 127 C 13.0718 -0.334115 1.99725 0
M  V30 128 C 13.3998 -1.5542 1.1694 0
M  V30 129 O 12.6548 -1.94361 0.228531 0
M  V30 130 C 12.9538 -0.754656 3.49342 0
M  V30 131 C 12.6198 0.361445 4.49449 0
M  V30 132 C 11.2818 0.667893 4.76542 0
M  V30 133 C 13.6338 1.11322 5.09173 0
M  V30 134 C 10.9618 1.7296 5.60626 0
M  V30 135 C 13.3138 2.1647 5.9441 0
M  V30 136 C 11.9778 2.47742 6.19822 0
M  V30 137 H 11.2478 -0.122261 0.730844 0
M  V30 138 H 13.8948 0.395917 1.87363 0
M  V30 139 H 12.1998 -1.56446 3.5921 0
M  V30 140 H 13.8968 -1.24142 3.813 0
M  V30 141 H 10.4868 0.112481 4.28452 0
M  V30 142 H 14.6708 0.88973 4.8826 0
M  V30 143 H 9.9268 1.97684 5.78559 0
M  V30 144 H 14.1008 2.75193 6.3972 0
M  V30 145 H 11.7278 3.30145 6.84769 0
M  V30 146 N 13.3029 -1.57598 0.00835791 0
M  V30 147 C 14.2329 -2.1198 -0.979113 0
M  V30 148 C 15.2139 -1.03091 -1.35301 0
M  V30 149 O 16.3989 -1.30818 -1.43528 0
M  V30 150 C 13.5289 -2.62995 -2.26828 0
M  V30 151 C 12.4829 -3.76485 -2.03576 0
M  V30 152 C 11.8089 -4.13846 -3.38579 0
M  V30 153 C 13.1089 -5.0342 -1.39161 0
M  V30 154 H 14.8029 -2.94738 -0.526281 0
M  V30 155 H 12.3489 -1.41783 -0.251704 0
M  V30 156 H 14.3019 -2.99669 -2.96271 0
M  V30 157 H 13.0259 -1.7737 -2.7424 0
M  V30 158 H 11.6849 -3.40217 -1.36557 0
M  V30 159 H 11.3329 -3.25232 -3.83709 0
M  V30 160 H 11.0329 -4.90312 -3.23834 0
M  V30 161 H 12.5569 -4.53086 -4.09323 0
M  V30 162 H 13.9709 -5.37812 -1.98573 0
M  V30 163 H 12.3679 -5.84746 -1.34878 0
M  V30 164 H 13.4379 -4.83548 -0.361868 0
M  V30 165 N 14.781 0.264519 -1.55364 0
M  V30 166 C 16.192 0.834936 -1.6699 0
M  V30 167 C 16.543 1.86718 -0.602552 0
M  V30 168 O 15.668 2.14899 0.254425 0
M  V30 169 C 16.263 1.5212 -3.02729 0
M  V30 170 C 14.822 2.03954 -3.16354 0
M  V30 171 C 13.969 0.884498 -2.62815 0
M  V30 172 H 16.92 0.0406869 -1.58648 0
M  V30 173 H 16.941 2.38853 -2.96191 0
M  V30 174 H 16.453 0.769668 -3.80392 0
M  V30 175 H 14.554 2.82041 -2.43482 0
M  V30 176 H 14.667 2.24902 -4.23032 0
M  V30 177 H 13.031 1.2802 -2.20188 0
M  V30 178 H 13.814 0.14634 -3.42988 0
M  V30 179 N 16.2591 1.48442 0.529413 0
M  V30 180 C 17.1911 1.59095 1.64989 0
M  V30 181 C 18.2041 0.475212 1.5571 0
M  V30 182 O 19.3931 0.746081 1.6216 0
M  V30 183 C 16.4931 1.50518 3.0364 0
M  V30 184 C 15.6661 2.77142 3.38395 0
M  V30 185 C 14.7251 2.62012 4.56329 0
M  V30 186 O 13.7511 3.35898 4.59522 0
M  V30 187 N 14.9531 1.71667 5.54536 0
M  V30 188 H 17.7181 2.55723 1.56287 0
M  V30 189 H 15.2791 1.45173 0.716697 0
M  V30 190 H 17.2711 1.38091 3.80412 0
M  V30 191 H 15.8411 0.618627 3.06418 0
M  V30 192 H 15.0611 3.0413 2.50796 0
M  V30 193 H 16.3491 3.61146 3.58401 0
M  V30 194 H 15.7471 1.10841 5.54735 0
M  V30 195 H 14.3041 1.65178 6.30523 0
M  V30 196 N 17.7372 -0.778329 1.37039 0
M  V30 197 C 19.1532 -1.07796 1.17695 0
M  V30 198 C 19.3532 -2.01498 0.00860115 0
M  V30 199 O 18.4092 -2.43901 -0.653352 0
M  V30 200 C 19.7222 -1.68178 2.49272 0
M  V30 201 C 21.2702 -1.80467 2.55735 0
M  V30 202 C 21.7452 -2.44263 3.87427 0
M  V30 203 N 23.2362 -2.51721 3.88833 0
M  V30 204 C 23.9712 -3.01919 4.87476 0
M  V30 205 N 23.4672 -3.5234 5.96513 0
M  V30 206 N 25.2602 -3.00733 4.74885 0
M  V30 207 H 17.4112 -0.156032 2.11826 0
M  V30 208 H 19.6742 -0.131844 0.938787 0
M  V30 209 H 19.3802 -1.06796 3.35093 0
M  V30 210 H 19.2542 -2.67554 2.65885 0
M  V30 211 H 21.6412 -2.40984 1.70325 0
M  V30 212 H 21.7222 -0.798656 2.43013 0
M  V30 213 H 21.3662 -1.84388 4.73248 0
M  V30 214 H 21.2962 -3.45458 3.9745 0
M  V30 215 H 23.7872 -2.1603 3.10063 0
M  V30 216 H 24.1002 -3.89027 6.67741 0
M  V30 217 H 22.4452 -3.50462 6.00168 0
M  V30 218 H 25.6362 -2.60638 3.88826 0
M  V30 219 H 25.8092 -3.39545 5.51918 0
M  V30 220 N 19.2153 -1.21501 -1.00376 0
M  V30 221 C 20.1653 -0.942843 -2.07592 0
M  V30 222 C 21.1493 0.102384 -1.60574 0
M  V30 223 O 22.3413 -0.10671 -1.76678 0
M  V30 224 C 19.4703 -0.510729 -3.3948 0
M  V30 225 C 18.5563 -1.59009 -3.93163 0
M  V30 226 N 18.9473 -2.81544 -4.20198 0
M  V30 227 C 17.2453 -1.45925 -4.21452 0
M  V30 228 C 17.9463 -3.51261 -4.63671 0
M  V30 229 N 16.9223 -2.78703 -4.66718 0
M  V30 230 H 20.7243 -1.87378 -2.26421 0
M  V30 231 H 18.2383 -1.11093 -1.18458 0
M  V30 232 H 20.2353 -0.297101 -4.1584 0
M  V30 233 H 18.8953 0.413436 -3.22057 0
M  V30 234 H 19.9063 -3.18075 -4.08716 0
M  V30 235 H 16.5833 -0.600467 -4.13159 0
M  V30 236 H 17.9733 -4.56183 -4.93302 0
M  V30 237 N 20.6934 1.19889 -1.02296 0
M  V30 238 C 21.6564 2.21116 -0.603351 0
M  V30 239 C 22.6564 1.5738 0.329884 0
M  V30 240 O 23.8464 1.73802 0.117702 0
M  V30 241 C 20.9784 3.40696 0.117992 0
M  V30 242 H 22.1714 2.59754 -1.49893 0
M  V30 243 H 19.7244 1.33463 -0.813468 0
M  V30 244 H 20.4594 3.07569 1.0282 0
M  V30 245 H 20.2444 3.88188 -0.552511 0
M  V30 246 H 21.7344 4.15692 0.398696 0
M  V30 247 N 22.1715 0.800033 1.35784 0
M  V30 248 C 23.1345 0.211565 2.28221 0
M  V30 249 C 24.1345 -0.59728 1.49296 0
M  V30 250 O 25.3245 -0.416721 1.69142 0
M  V30 251 C 22.4565 -0.705846 3.33513 0
M  V30 252 H 23.6495 1.02677 2.81776 0
M  V30 253 H 21.2025 0.570211 1.45528 0
M  V30 254 H 21.9375 -1.54498 2.85133 0
M  V30 255 H 21.7225 -0.127655 3.91892 0
M  V30 256 H 23.2125 -1.11211 4.02519 0
M  V30 257 N 23.6496 -1.47581 0.552962 0
M  V30 258 C 24.8976 -2.02082 0.0272703 0
M  V30 259 C 25.2186 -1.4301 -1.32563 0
M  V30 260 O 24.4886 -0.603745 -1.86365 0
M  V30 261 H 23.0686 -0.746966 0.00709182 0
M  V30 262 H 25.7306 -1.81033 0.722008 0
M  V30 263 H 24.8266 -3.12034 -0.0639951 0
M  V30 264 N 25.1277 -0.289203 -1.54924 0
M  V30 265 C 26.0597 0.625583 -2.20497 0
M  V30 266 C 27.0727 1.10667 -1.19402 0
M  V30 267 O 28.2617 1.02615 -1.46056 0
M  V30 268 C 25.3617 1.86702 -2.82835 0
M  V30 269 C 24.5347 1.5304 -4.09753 0
M  V30 270 C 23.5937 2.62576 -4.56005 0
M  V30 271 O 22.6197 2.28167 -5.21468 0
M  V30 272 N 23.8217 3.92901 -4.27328 0
M  V30 273 H 26.5867 0.0642801 -2.99631 0
M  V30 274 H 24.1477 -0.110896 -1.6152 0
M  V30 275 H 26.1397 2.59304 -3.10715 0
M  V30 276 H 24.7097 2.33702 -2.07611 0
M  V30 277 H 23.9297 0.637564 -3.8901 0
M  V30 278 H 25.2177 1.28072 -4.92418 0
M  V30 279 H 24.6157 4.23671 -3.74859 0
M  V30 280 H 23.1727 4.61837 -4.59946 0
M  V30 281 N 26.6058 1.57591 -0.0167156 0
M  V30 282 C 27.8458 1.93145 0.668902 0
M  V30 283 C 28.2098 0.892406 1.7 0
M  V30 284 O 29.4108 1.13373 2.43721 0
M  V30 285 C 27.6818 3.33678 1.28039 0
M  V30 286 S 29.2408 3.91142 1.9888 0
M  V30 287 H 26.0588 0.67593 0.220545 0
M  V30 288 H 28.6608 1.95347 -0.0774105 0
M  V30 289 H 27.3648 4.07126 0.517339 0
M  V30 290 H 26.8958 3.3489 2.06427 0
M  V30 291 H 28.9108 3.73571 3.26587 0
M  V30 292 N 28.0839 -0.256276 1.55502 0
M  V30 293 C 29.3319 -0.983672 1.76545 0
M  V30 294 C 29.6529 -1.86206 0.578982 0
M  V30 295 O 28.9229 -1.91656 -0.405577 0
M  V30 296 H 27.5029 -0.366191 0.651086 0
M  V30 297 H 30.1649 -0.276479 1.92929 0
M  V30 298 H 29.2609 -1.61087 2.67315 0
M  V30 299 N 29.562 -1.4872 -0.521534 0
M  V30 300 C 30.973 -1.50607 -1.10337 0
M  V30 301 C 31.324 -0.280612 -1.94183 0
M  V30 302 O 30.449 0.611507 -2.0758 0
M  V30 303 C 31.044 -2.72903 -2.00772 0
M  V30 304 C 29.603 -2.77634 -2.54158 0
M  V30 305 C 28.75 -2.44241 -1.31307 0
M  V30 306 H 31.701 -1.55714 -0.306388 0
M  V30 307 H 31.722 -2.519 -2.85178 0
M  V30 308 H 31.234 -3.62077 -1.39721 0
M  V30 309 H 29.335 -1.92689 -3.18907 0
M  V30 310 H 29.448 -3.79283 -2.92714 0
M  V30 311 H 27.812 -1.95577 -1.63161 0
M  V30 312 H 28.595 -3.35666 -0.719943 0
M  V30 313 N 31.0401 0.771051 -1.3745 0
M  V30 314 C 32.2861 1.5319 -1.32894 0
M  V30 315 C 32.6191 1.94008 0.0862511 0
M  V30 316 O 31.8941 1.64124 1.04373 0
M  V30 317 C 32.1771 2.79648 -2.26868 0
M  V30 318 C 32.0301 2.45079 -3.77169 0
M  V30 319 C 33.3491 3.81583 -2.19277 0
M  V30 320 H 30.4681 0.555744 -0.484064 0
M  V30 321 H 33.1101 0.884492 -1.68157 0
M  V30 322 H 31.2601 3.34891 -1.96926 0
M  V30 323 H 32.9321 1.95745 -4.1771 0
M  V30 324 H 31.1751 1.77767 -3.95704 0
M  V30 325 H 31.8461 3.35478 -4.38359 0
M  V30 326 H 34.3221 3.35835 -2.45671 0
M  V30 327 H 33.1981 4.67787 -2.87171 0
M  V30 328 H 33.4591 4.25897 -1.18592 0
M  V30 329 N 32.5182 1.22032 0.997298 0
M  V30 330 C 33.7662 1.04016 1.73278 0
M  V30 331 C 34.0872 -0.426255 1.90284 0
M  V30 332 O 33.3572 -1.30694 1.45931 0
M  V30 333 H 31.9372 0.381897 0.642 0
M  V30 334 H 34.5992 1.5347 1.20137 0
M  V30 335 H 33.6952 1.51441 2.72896 0
M  V30 336 N 33.9963 -1.19345 1.0293 0
M  V30 337 C 35.2423 -1.89318 0.727083 0
M  V30 338 C 35.5753 -1.79446 -0.742483 0
M  V30 339 O 34.8503 -1.1871 -1.54072 0
M  V30 340 C 35.1333 -3.40238 1.17942 0
M  V30 341 C 34.9863 -3.58979 2.71024 0
M  V30 342 C 36.3053 -4.33479 0.760548 0
M  V30 343 H 33.4243 -0.687475 0.265606 0
M  V30 344 H 36.0663 -1.40477 1.2793 0
M  V30 345 H 34.2163 -3.81964 0.709608 0
M  V30 346 H 35.8883 -3.26421 3.25955 0
M  V30 347 H 34.1313 -3.02018 3.11396 0
M  V30 348 H 34.8023 -4.64823 2.9773 0
M  V30 349 H 37.2783 -3.99469 1.16464 0
M  V30 350 H 36.1543 -5.37664 1.10493 0
M  V30 351 H 36.4153 -4.40813 -0.337063 0
M  V30 352 N 35.4744 -0.807222 -1.35358 0
M  V30 353 C 36.8904 -0.491038 -1.51858 0
M  V30 354 C 37.0904 0.987648 -1.75635 0
M  V30 355 O 36.1464 1.77265 -1.79815 0
M  V30 356 C 37.4594 -1.33695 -2.69344 0
M  V30 357 C 39.0074 -1.33246 -2.83222 0
M  V30 358 C 39.4824 -2.1625 -4.03733 0
M  V30 359 N 40.9734 -2.1379 -4.10911 0
M  V30 360 C 41.7084 -2.74772 -5.03277 0
M  V30 361 N 41.2044 -3.44684 -6.0097 0
M  V30 362 N 42.9974 -2.6441 -4.96028 0
M  V30 363 H 35.1484 -1.76485 -1.18181 0
M  V30 364 H 37.4114 -0.751199 -0.578276 0
M  V30 365 H 37.1174 -2.38634 -2.58354 0
M  V30 366 H 36.9914 -0.990618 -3.6396 0
M  V30 367 H 39.3784 -0.290911 -2.93663 0
M  V30 368 H 39.4594 -1.71866 -1.89461 0
M  V30 369 H 39.1034 -3.20445 -3.94052 0
M  V30 370 H 39.0334 -1.74989 -4.96675 0
M  V30 371 H 41.5244 -1.62923 -3.40976 0
M  V30 372 H 41.8374 -3.88501 -6.68047 0
M  V30 373 H 40.1824 -3.48788 -6.01142 0
M  V30 374 H 43.3734 -2.0938 -4.18662 0
M  V30 375 H 43.5464 -3.12225 -5.6782 0
M  V30 376 N 36.9525 1.47285 -0.560781 0
M  V30 377 C 37.8995 2.30058 0.18491 0
M  V30 378 C 38.8695 1.39281 0.904986 0
M  V30 379 O 40.0545 1.68241 0.899979 0
M  V30 380 C 37.1945 3.23317 1.20666 0
M  V30 381 C 36.3075 4.29186 0.492285 0
M  V30 382 C 35.4425 5.09592 1.49964 0
M  V30 383 C 34.4815 6.07232 0.770439 0
M  V30 384 N 33.6185 6.80584 1.72479 0
M  V30 385 H 38.4585 2.93302 -0.527048 0
M  V30 386 H 35.9955 1.44568 -0.271738 0
M  V30 387 H 37.9535 3.75811 1.81168 0
M  V30 388 H 36.5835 2.61929 1.88661 0
M  V30 389 H 35.6355 3.7972 -0.227333 0
M  V30 390 H 36.9475 4.98738 -0.0787929 0
M  V30 391 H 36.1015 5.66254 2.17809 0
M  V30 392 H 34.8405 4.3995 2.10464 0
M  V30 393 H 33.8455 5.49745 0.0780846 0
M  V30 394 H 35.0705 6.78884 0.171134 0
M  V30 395 H 33.0165 6.1367 2.3183 0
M  V30 396 H 32.9335 7.46319 1.20596 0
M  V30 397 H 34.2015 7.41818 2.39428 0
M  V30 398 N 38.4306 0.297415 1.54768 0
M  V30 399 C 39.3406 -0.58983 2.27064 0
M  V30 400 C 40.3566 -1.15144 1.30453 0
M  V30 401 O 41.5326 -1.17699 1.63428 0
M  V30 402 C 38.5976 -1.74714 2.9946 0
M  V30 403 C 37.6586 -1.21997 4.11601 0
M  V30 404 C 36.8916 -2.32212 4.80535 0
M  V30 405 O 37.1146 -3.52036 4.48806 0
M  V30 406 O 36.0486 -1.99106 5.68014 0
M  V30 407 H 39.8746 -0.00348199 3.037 0
M  V30 408 H 37.4596 0.0640035 1.49263 0
M  V30 409 H 39.3416 -2.42147 3.44881 0
M  V30 410 H 38.0166 -2.32016 2.25722 0
M  V30 411 H 36.9236 -0.511458 3.70587 0
M  V30 412 H 38.2566 -0.692419 4.87305 0
M  V30 413 N 39.9087 -1.5758 0.0250728 0
M  V30 414 C 40.8417 -2.05473 -0.992777 0
M  V30 415 C 41.8197 -0.949661 -1.31986 0
M  V30 416 O 43.0037 -1.21969 -1.43722 0
M  V30 417 C 40.1307 -2.4734 -2.31389 0
M  V30 418 C 39.1767 -3.68827 -2.1417 0
M  V30 419 S 40.0097 -5.15655 -1.44429 0
M  V30 420 C 41.1657 -5.60814 -2.77918 0
M  V30 421 H 41.3987 -2.91486 -0.585078 0
M  V30 422 H 38.9317 -1.53269 -0.186507 0
M  V30 423 H 40.8897 -2.72127 -3.07339 0
M  V30 424 H 39.5507 -1.6168 -2.69292 0
M  V30 425 H 38.7437 -3.95955 -3.11826 0
M  V30 426 H 38.3457 -3.44172 -1.46362 0
M  V30 427 H 40.6377 -5.64806 -3.74166 0
M  V30 428 H 41.5807 -6.60414 -2.55459 0
M  V30 429 H 41.9887 -4.8845 -2.82979 0
M  V30 430 N 41.3868 0.248026 -1.55636 0
M  V30 431 C 42.3368 1.30994 -1.86614 0
M  V30 432 C 43.3208 1.43543 -0.726918 0
M  V30 433 O 44.5128 1.46804 -0.988818 0
M  V30 434 C 41.6418 2.6656 -2.16335 0
M  V30 435 C 40.7278 2.58019 -3.36581 0
M  V30 436 N 41.1188 2.1911 -4.55878 0
M  V30 437 C 39.4168 2.89035 -3.39669 0
M  V30 438 C 40.1178 2.21174 -5.38012 0
M  V30 439 N 39.0938 2.60632 -4.77045 0
M  V30 440 H 42.8958 0.999583 -2.76379 0
M  V30 441 H 40.4098 0.456652 -1.55848 0
M  V30 442 H 42.4068 3.43194 -2.36692 0
M  V30 443 H 41.0668 2.98463 -1.27867 0
M  V30 444 H 42.0778 1.90672 -4.81523 0
M  V30 445 H 38.7548 3.25485 -2.61469 0
M  V30 446 H 40.1448 1.9344 -6.43452 0
M  V30 447 N 42.8649 1.48995 0.513639 0
M  V30 448 C 44.1049 1.59452 1.27885 0
M  V30 449 C 44.4689 0.269479 1.90099 0
M  V30 450 O 45.6699 0.249139 2.67643 0
M  V30 451 C 43.9409 2.71277 2.32688 0
M  V30 452 S 45.4999 3.01604 3.18717 0
M  V30 453 H 42.3179 0.562565 0.434789 0
M  V30 454 H 44.9199 1.86595 0.583301 0
M  V30 455 H 43.6239 3.66089 1.8549 0
M  V30 456 H 43.1549 2.46086 3.06929 0
M  V30 457 H 45.1699 2.42155 4.331 0
M  V30 458 N 44.343 -0.763751 1.37857 0
M  V30 459 C 45.591 -1.51957 1.33243 0
M  V30 460 C 45.912 -1.94835 -0.0801709 0
M  V30 461 O 45.182 -1.66894 -1.02582 0
M  V30 462 H 43.762 -0.563626 0.49024 0
M  V30 463 H 46.424 -0.908504 1.7243 0
M  V30 464 H 45.52 -2.41523 1.97669 0
M  V30 465 N 45.8211 -1.22559 -0.990812 0
M  V30 466 C 47.0671 -1.05297 -1.73322 0
M  V30 467 C 47.4001 0.410655 -1.89808 0
M  V30 468 O 46.6751 1.30439 -1.44277 0
M  V30 469 C 46.9581 -1.76713 -3.13759 0
M  V30 470 C 46.8111 -3.30684 -3.04907 0
M  V30 471 C 48.1301 -1.52121 -4.12974 0
M  V30 472 H 45.2491 -0.38392 -0.629106 0
M  V30 473 H 47.8911 -1.50926 -1.15418 0
M  V30 474 H 46.0411 -1.37924 -3.63193 0
M  V30 475 H 47.7131 -3.7893 -2.63077 0
M  V30 476 H 45.9561 -3.60253 -2.41661 0
M  V30 477 H 46.6271 -3.75833 -4.04294 0
M  V30 478 H 49.1031 -1.85819 -3.72304 0
M  V30 479 H 47.9791 -2.04582 -5.0935 0
M  V30 480 H 48.2401 -0.454257 -4.3976 0
M  V30 481 N 47.2992 1.18797 -1.03562 0
M  V30 482 C 48.2622 2.20464 -0.626769 0
M  V30 483 C 49.2622 1.57721 0.313173 0
M  V30 484 O 50.4522 1.73917 0.0992615 0
M  V30 485 C 47.5842 3.40802 0.0818498 0
M  V30 486 H 48.7772 2.58149 -1.5264 0
M  V30 487 H 46.3302 1.32593 -0.827578 0
M  V30 488 H 47.0652 3.08642 0.995518 0
M  V30 489 H 46.8502 3.8758 -0.593652 0
M  V30 490 H 48.3402 4.16092 0.354584 0
M  V30 491 N 48.7773 0.814389 1.34928 0
M  V30 492 C 50.0023 0.410097 2.03305 0
M  V30 493 C 50.4273 -0.973464 1.60951 0
M  V30 494 O 49.7853 -1.63185 0.789964 0
M  V30 495 C 49.8333 0.51049 3.56968 0
M  V30 496 O 48.9373 -0.473035 4.09678 0
M  V30 497 H 48.2783 0.170088 0.641846 0
M  V30 498 H 50.8083 1.10244 1.72358 0
M  V30 499 H 50.8183 0.383135 4.06197 0
M  V30 500 H 49.4933 1.51963 3.87144 0
M  V30 501 H 48.0703 -0.305272 3.71648 0
M  V30 502 N 50.2554 -1.46986 0.568584 0
M  V30 503 C 51.6714 -1.57946 0.229189 0
M  V30 504 C 51.8714 -1.56567 -1.26843 0
M  V30 505 O 50.9274 -1.47511 -2.04931 0
M  V30 506 C 52.2404 -2.87963 0.865909 0
M  V30 507 C 53.7884 -3.01568 0.838188 0
M  V30 508 C 54.2634 -4.34301 1.45419 0
M  V30 509 N 55.7544 -4.40965 1.41788 0
M  V30 510 C 56.4894 -5.42256 1.86403 0
M  V30 511 N 55.9854 -6.50297 2.38926 0
M  V30 512 N 57.7784 -5.3337 1.77405 0
M  V30 513 H 49.9294 -1.46126 1.54146 0
M  V30 514 H 52.1924 -0.696156 0.643484 0
M  V30 515 H 51.8984 -2.94742 1.91886 0
M  V30 516 H 51.7724 -3.75423 0.365687 0
M  V30 517 H 54.1594 -2.94379 -0.206106 0
M  V30 518 H 54.2404 -2.1562 1.37629 0
M  V30 519 H 53.8844 -4.42247 2.49761 0
M  V30 520 H 53.8144 -5.19 0.891435 0
M  V30 521 H 56.3054 -3.63484 1.03381 0
M  V30 522 H 56.6184 -7.23777 2.70863 0
M  V30 523 H 54.9634 -6.51155 2.42944 0
M  V30 524 H 58.1544 -4.47865 1.3614 0
M  V30 525 H 58.3274 -6.12169 2.12492 0
M  V30 526 N 51.7335 -0.305618 -1.54608 0
M  V30 527 C 52.9795 0.295595 -2.01241 0
M  V30 528 C 53.3345 1.51171 -1.19018 0
M  V30 529 O 52.6275 1.89832 -0.259684 0
M  V30 530 C 52.8215 0.698983 -3.50498 0
M  V30 531 C 52.6505 -0.476491 -4.47168 0
M  V30 532 C 51.4205 -0.969963 -4.95903 0
M  V30 533 C 53.6185 -1.32294 -4.96994 0
M  V30 534 N 51.6005 -2.11172 -5.76437 0
M  V30 535 C 52.9715 -2.31212 -5.75275 0
M  V30 536 C 55.0265 -1.35278 -4.7917 0
M  V30 537 C 53.7295 -3.32896 -6.37631 0
M  V30 538 C 55.7555 -2.35823 -5.42348 0
M  V30 539 C 55.1175 -3.33469 -6.20466 0
M  V30 540 H 51.2165 0.0724992 -0.778632 0
M  V30 541 H 53.8005 -0.436583 -1.89742 0
M  V30 542 H 51.9715 1.40032 -3.62278 0
M  V30 543 H 53.7035 1.28013 -3.8392 0
M  V30 544 H 50.4585 -0.544178 -4.70463 0
M  V30 545 H 50.8825 -2.68714 -6.21387 0
M  V30 546 H 55.5245 -0.61157 -4.18354 0
M  V30 547 H 53.2425 -4.07933 -6.97579 0
M  V30 548 H 56.8285 -2.38911 -5.30484 0
M  V30 549 H 55.7085 -4.09996 -6.68485 0
M  V30 550 N 53.2116 1.57565 -0.0334293 0
M  V30 551 C 54.6276 1.56297 0.322997 0
M  V30 552 C 54.8276 1.03945 1.7262 0
M  V30 553 O 53.8836 0.688109 2.42943 0
M  V30 554 C 55.1966 3.00232 0.167664 0
M  V30 555 C 56.7446 3.12078 0.240107 0
M  V30 556 C 57.2196 4.57859 0.113513 0
M  V30 557 N 58.7106 4.62887 0.170359 0
M  V30 558 C 59.4456 5.73319 0.0962517 0
M  V30 559 N 58.9416 6.92794 -0.0291881 0
M  V30 560 N 60.7346 5.61898 0.150551 0
M  V30 561 H 52.8856 1.89923 -0.950956 0
M  V30 562 H 55.1486 0.873824 -0.367608 0
M  V30 563 H 54.8546 3.42501 -0.799102 0
M  V30 564 H 54.7286 3.654 0.936083 0
M  V30 565 H 57.1156 2.69718 1.19733 0
M  V30 566 H 57.1966 2.49623 -0.558763 0
M  V30 567 H 56.8406 5.009 -0.840314 0
M  V30 568 H 56.7706 5.18299 0.931302 0
M  V30 569 H 59.2616 3.76954 0.26728 0
M  V30 570 H 59.5746 7.7276 -0.0789252 0
M  V30 571 H 57.9196 6.94971 -0.0640299 0
M  V30 572 H 61.1106 4.67448 0.246981 0
M  V30 573 H 61.2836 6.47938 0.0893365 0
M  V30 574 N 54.6897 -0.239769 1.55765 0
M  V30 575 C 56.1057 -0.588624 1.48349 0
M  V30 576 C 56.3057 -1.88005 0.72502 0
M  V30 577 O 55.3617 -2.51186 0.257269 0
M  V30 578 C 56.6747 -0.68474 2.928 0
M  V30 579 C 58.2227 -0.77659 3.03213 0
M  V30 580 C 58.6977 -0.904207 4.48986 0
M  V30 581 N 60.1887 -0.968896 4.52953 0
M  V30 582 C 60.9237 -1.08703 5.63002 0
M  V30 583 N 60.4197 -1.17026 6.82845 0
M  V30 584 N 62.2127 -1.12074 5.50814 0
M  V30 585 H 54.3637 0.607911 2.03515 0
M  V30 586 H 56.6267 0.21083 0.924259 0
M  V30 587 H 56.3327 0.194284 3.51163 0
M  V30 588 H 56.2067 -1.55435 3.43686 0
M  V30 589 H 58.5937 -1.64606 2.44926 0
M  V30 590 H 58.6747 0.118315 2.55526 0
M  V30 591 H 58.3187 -0.0392633 5.07885 0
M  V30 592 H 58.2487 -1.81426 4.9436 0
M  V30 593 H 60.7397 -0.915633 3.6664 0
M  V30 594 H 61.0527 -1.25966 7.62465 0
M  V30 595 H 59.3977 -1.13971 6.85591 0
M  V30 596 H 62.5887 -1.05226 4.5612 0
M  V30 597 H 62.7617 -1.20936 6.36615 0
M  V30 598 N 56.1678 -1.49265 -0.50573 0
M  V30 599 C 57.5838 -1.35923 -0.836486 0
M  V30 600 C 57.7838 -0.388704 -1.97715 0
M  V30 601 O 56.8398 0.181336 -2.51848 0
M  V30 602 C 58.1528 -2.76531 -1.18115 0
M  V30 603 C 59.7008 -2.85197 -1.28964 0
M  V30 604 C 60.1758 -4.26561 -1.66761 0
M  V30 605 N 61.6668 -4.2935 -1.73819 0
M  V30 606 C 62.4018 -5.35693 -2.045 0
M  V30 607 N 61.8978 -6.52287 -2.33438 0
M  V30 608 N 63.6908 -5.23105 -2.05711 0
M  V30 609 H 55.8418 -2.10965 0.246519 0
M  V30 610 H 58.1048 -0.9468 0.0476887 0
M  V30 611 H 57.8108 -3.49226 -0.416398 0
M  V30 612 H 57.6848 -3.11599 -2.1257 0
M  V30 613 H 60.0718 -2.12742 -2.04511 0
M  V30 614 H 60.1528 -2.53718 -0.325704 0
M  V30 615 H 59.7968 -4.99541 -0.917656 0
M  V30 616 H 59.7268 -4.55502 -2.64246 0
M  V30 617 H 62.2178 -3.4526 -1.53635 0
M  V30 618 H 62.5308 -7.29158 -2.56024 0
M  V30 619 H 60.8758 -6.55521 -2.30905 0
M  V30 620 H 64.0668 -4.31026 -1.82577 0
M  V30 621 H 64.2398 -6.06078 -2.29289 0
M  V30 622 N 57.6459 0.756429 -1.3826 0
M  V30 623 C 59.0619 1.0591 -1.19395 0
M  V30 624 C 59.2619 2.01459 -0.0406567 0
M  V30 625 O 58.3179 2.44909 0.614467 0
M  V30 626 C 59.6309 1.64191 -2.51916 0
M  V30 627 C 61.1789 1.76376 -2.58574 0
M  V30 628 C 61.6539 2.38069 -3.91264 0
M  V30 629 N 63.1449 2.45503 -3.92788 0
M  V30 630 C 63.8799 2.94126 -4.92217 0
M  V30 631 N 63.3759 3.42805 -6.02043 0
M  V30 632 N 65.1689 2.9314 -4.7961 0
M  V30 633 H 57.3199 0.122313 -2.12048 0
M  V30 634 H 59.5829 0.116892 -0.940766 0
M  V30 635 H 59.2889 1.01451 -3.3675 0
M  V30 636 H 59.1629 2.6329 -2.70108 0
M  V30 637 H 61.5499 2.38244 -1.74137 0
M  V30 638 H 61.6309 0.759894 -2.44252 0
M  V30 639 H 61.2749 1.76835 -4.76121 0
M  V30 640 H 61.2049 3.39091 -4.02895 0
M  V30 641 H 63.6959 2.1107 -3.13461 0
M  V30 642 H 64.0089 3.78354 -6.73846 0
M  V30 643 H 62.3539 3.4087 -6.05667 0
M  V30 644 H 65.5449 2.54419 -3.92923 0
M  V30 645 H 65.7179 3.30721 -5.5725 0
M  V30 646 N 59.124 1.23083 0.984299 0
M  V30 647 C 60.535 1.05609 1.5396 0
M  V30 648 C 60.886 -0.377793 1.92528 0
M  V30 649 O 60.011 -1.26398 1.75649 0
M  V30 650 C 60.606 1.91087 2.7977 0
M  V30 651 C 59.165 1.77885 3.31713 0
M  V30 652 C 58.312 1.87028 2.04733 0
M  V30 653 H 61.263 1.36802 0.804419 0
M  V30 654 H 61.284 1.43336 3.5247 0
M  V30 655 H 60.796 2.9544 2.51668 0
M  V30 656 H 58.897 0.762995 3.64704 0
M  V30 657 H 59.01 2.61047 4.01735 0
M  V30 658 H 57.374 1.30565 2.18689 0
M  V30 659 H 58.157 2.92929 1.79017 0
M  V30 660 N 60.6021 -1.18246 1.0419 0
M  V30 661 C 61.8481 -1.88793 0.75689 0
M  V30 662 C 62.2031 -1.78909 -0.707767 0
M  V30 663 O 61.4961 -1.1794 -1.50999 0
M  V30 664 C 61.6901 -3.38082 1.15911 0
M  V30 665 C 61.5191 -3.62496 2.66133 0
M  V30 666 C 60.2891 -3.7979 3.33298 0
M  V30 667 C 62.4871 -3.62976 3.64353 0
M  V30 668 N 60.4691 -3.91955 4.72487 0
M  V30 669 C 61.8401 -3.80869 4.89222 0
M  V30 670 C 63.8951 -3.46071 3.57965 0
M  V30 671 C 62.5981 -3.83608 6.08471 0
M  V30 672 C 64.6241 -3.50093 4.76643 0
M  V30 673 C 63.9861 -3.68484 6.00332 0
M  V30 674 H 60.0851 -0.709406 0.32904 0
M  V30 675 H 62.6691 -1.42022 1.33183 0
M  V30 676 H 60.8401 -3.83544 0.612238 0
M  V30 677 H 62.5721 -3.96202 0.824989 0
M  V30 678 H 59.3271 -3.79224 2.83701 0
M  V30 679 H 59.7511 -4.01857 5.44831 0
M  V30 680 H 64.3931 -3.30797 2.63311 0
M  V30 681 H 62.1111 -3.97669 7.0348 0
M  V30 682 H 65.6971 -3.38285 4.73344 0
M  V30 683 H 64.5771 -3.71488 6.90627 0
M  V30 684 N 62.0802 -0.821533 -1.34494 0
M  V30 685 C 63.0102 -0.257138 -2.3208 0
M  V30 686 C 63.9912 0.625645 -1.58176 0
M  V30 687 O 65.1762 0.552811 -1.86166 0
M  V30 688 C 62.3062 0.582958 -3.42372 0
M  V30 689 C 61.2602 -0.202571 -4.2752 0
M  V30 690 C 60.5862 0.760179 -5.29269 0
M  V30 691 C 61.8862 -1.40998 -5.02908 0
M  V30 692 H 63.5802 -1.07247 -2.79532 0
M  V30 693 H 61.1262 -0.517163 -1.34393 0
M  V30 694 H 63.0792 0.987972 -4.09655 0
M  V30 695 H 61.8032 1.43133 -2.93565 0
M  V30 696 H 60.4622 -0.588936 -3.61838 0
M  V30 697 H 60.1102 1.60447 -4.76724 0
M  V30 698 H 59.8102 0.238809 -5.87115 0
M  V30 699 H 61.3342 1.16308 -5.9942 0
M  V30 700 H 62.7482 -1.07905 -5.63054 0
M  V30 701 H 61.1452 -1.86689 -5.70322 0
M  V30 702 H 62.2152 -2.1889 -4.32684 0
M  V30 703 N 63.5583 1.46682 -0.576371 0
M  V30 704 C 64.8353 1.95599 0.00703437 0
M  V30 705 C 65.2153 1.51904 1.46589 0
M  V30 706 O 64.5633 0.766755 2.15251 0
M  V30 707 C 64.7733 3.4864 -0.158404 0
M  V30 708 C 66.1213 4.24594 -0.0229439 0
M  V30 709 O 67.1453 3.56094 -0.0869173 0
M  V30 710 O 66.0043 5.46373 0.118015 0
M  V30 711 H 63.0983 0.825275 0.053384 0
M  V30 712 H 65.6443 1.56996 -0.644244 0
M  V30 713 H 64.4163 3.7331 -1.17282 0
M  V30 714 H 64.0393 3.94057 0.5296 0
M  V30 715 N 65.0364 0.313813 1.54444 0
M  V30 716 C 66.4474 -0.176243 1.85866 0
M  V30 717 C 66.7984 -1.52405 1.23561 0
M  V30 718 O 65.9234 -2.09605 0.538016 0
M  V30 719 C 66.5184 -0.32657 3.37222 0
M  V30 720 C 65.0774 -0.760846 3.6863 0
M  V30 721 C 64.2244 0.123247 2.77026 0
M  V30 722 H 67.1754 0.534418 1.49431 0
M  V30 723 H 67.1964 -1.15908 3.62416 0
M  V30 724 H 66.7084 0.654531 3.82541 0
M  V30 725 H 64.8094 -1.75204 3.28838 0
M  V30 726 H 64.9224 -0.571353 4.75681 0
M  V30 727 H 63.2864 -0.399597 2.51546 0
M  V30 728 H 64.0694 1.10094 3.25168 0
M  V30 729 N 66.5145 -1.57545 0.0417849 0
M  V30 730 C 67.4775 -2.09885 -0.92093 0
M  V30 731 C 68.4775 -1.01648 -1.24596 0
M  V30 732 O 69.6675 -1.27759 -1.1842 0
M  V30 733 C 66.7995 -2.57527 -2.23367 0
M  V30 734 H 67.9925 -2.96236 -0.467382 0
M  V30 735 H 65.5455 -1.5493 -0.206467 0
M  V30 736 H 66.2805 -1.74542 -2.73323 0
M  V30 737 H 66.0655 -3.36613 -2.01083 0
M  V30 738 H 67.5555 -2.98201 -2.92346 0
M  V30 739 N 67.9926 0.231505 -1.5589 0
M  V30 740 C 68.9556 1.27028 -1.90779 0
M  V30 741 C 69.9556 1.40308 -0.785507 0
M  V30 742 O 71.1456 1.38744 -1.05336 0
M  V30 743 C 68.2776 2.64566 -2.14983 0
M  V30 744 H 69.4706 0.973017 -2.83677 0
M  V30 745 H 67.0236 0.471486 -1.49019 0
M  V30 746 H 67.7586 2.99406 -1.24604 0
M  V30 747 H 67.5436 2.56305 -2.96732 0
M  V30 748 H 69.0336 3.39543 -2.43105 0
M  V30 749 N 69.4707 1.49531 0.497807 0
M  V30 750 C 70.4337 1.65916 1.58128 0
M  V30 751 C 71.4337 0.530825 1.51786 0
M  V30 752 O 72.6237 0.797342 1.54881 0
M  V30 753 C 69.7557 1.65951 2.9778 0
M  V30 754 H 70.9487 2.62556 1.44929 0
M  V30 755 H 68.5017 1.38611 0.722275 0
M  V30 756 H 69.2367 0.709065 3.16453 0
M  V30 757 H 69.0217 2.47897 3.03792 0
M  V30 758 H 70.5117 1.80673 3.76493 0
M  V30 759 N 70.9488 -0.749086 1.3866 0
M  V30 760 C 71.9118 -1.84457 1.36045 0
M  V30 761 C 72.9118 -1.58682 0.260122 0
M  V30 762 O 74.1018 -1.66343 0.517261 0
M  V30 763 C 71.2338 -3.22008 1.11911 0
M  V30 764 H 72.4268 -1.88182 2.33512 0
M  V30 765 H 69.9798 -0.951266 1.24019 0
M  V30 766 H 70.7148 -3.2395 0.150686 0
M  V30 767 H 70.4998 -3.42111 1.91579 0
M  V30 768 H 71.9898 -4.0208 1.12788 0
M  V30 769 N 72.4269 -1.23603 -0.977757 0
M  V30 770 C 73.3899 -1.02069 -2.05218 0
M  V30 771 C 74.3899 0.0184305 -1.60789 0
M  V30 772 O 75.5799 -0.221569 -1.72785 0
M  V30 773 C 72.7119 -0.544926 -3.36517 0
M  V30 774 H 73.9049 -1.9742 -2.25755 0
M  V30 775 H 71.4579 -1.05684 -1.15155 0
M  V30 776 H 72.1929 0.412241 -3.21669 0
M  V30 777 H 71.9779 -1.2948 -3.70105 0
M  V30 778 H 73.4679 -0.414985 -4.15533 0
M  V30 779 N 73.905 1.17692 -1.04816 0
M  V30 780 C 74.868 2.19787 -0.650117 0
M  V30 781 C 75.868 1.58044 0.296427 0
M  V30 782 O 77.058 1.74012 0.0808097 0
M  V30 783 C 74.19 3.40869 0.0456987 0
M  V30 784 H 75.383 2.56516 -1.5537 0
M  V30 785 H 72.936 1.31708 -0.841594 0
M  V30 786 H 73.671 3.09681 0.962726 0
M  V30 787 H 73.456 3.86928 -0.634727 0
M  V30 788 H 74.946 4.16445 0.310432 0
M  V30 789 N 75.3831 0.828654 1.34056 0
M  V30 790 C 76.3461 0.259927 2.27721 0
M  V30 791 C 77.3461 -0.565478 1.50529 0
M  V30 792 O 78.5361 -0.38075 1.69988 0
M  V30 793 C 75.6681 -0.634944 3.34935 0
M  V30 794 H 76.8611 1.0863 2.79534 0
M  V30 795 H 74.4141 0.600951 1.44285 0
M  V30 796 H 75.1491 -1.48416 2.88346 0
M  V30 797 H 74.9341 -0.0444999 3.92075 0
M  V30 798 H 76.4241 -1.02648 4.04788 0
M  V30 799 N 76.8612 -1.46375 0.584142 0
M  V30 800 C 78.1072 -2.02678 0.0703716 0
M  V30 801 C 78.4402 -1.4545 -1.28678 0
M  V30 802 O 77.7152 -0.62014 -1.84349 0
M  V30 803 C 77.9982 -3.60099 0.00614674 0
M  V30 804 C 77.8512 -4.27709 1.3923 0
M  V30 805 C 79.1702 -4.34598 -0.693742 0
M  V30 806 H 76.2892 -0.736504 0.027047 0
M  V30 807 H 78.9312 -1.74501 0.751615 0
M  V30 808 H 77.0812 -3.84236 -0.574009 0
M  V30 809 H 78.7532 -4.14832 2.01773 0
M  V30 810 H 76.9962 -3.87016 1.95962 0
M  V30 811 H 77.6672 -5.36478 1.29982 0
M  V30 812 H 80.1432 -4.15615 -0.200869 0
M  V30 813 H 79.0192 -5.44318 -0.707714 0
M  V30 814 H 79.2802 -4.05759 -1.75533 0
M  V30 815 N 78.3393 -0.321999 -1.54275 0
M  V30 816 C 79.3023 0.531975 -2.22941 0
M  V30 817 C 80.3023 1.04478 -1.22234 0
M  V30 818 O 81.4923 0.937452 -1.46825 0
M  V30 819 C 78.6243 1.73874 -2.93224 0
M  V30 820 H 79.8173 -0.0682612 -2.99822 0
M  V30 821 H 77.3703 -0.0730644 -1.56129 0
M  V30 822 H 78.1053 2.37825 -2.20476 0
M  V30 823 H 77.8903 1.37847 -3.6707 0
M  V30 824 H 79.3803 2.34496 -3.45545 0
M  V30 825 N 79.8174 1.5752 -0.0501392 0
M  V30 826 C 81.0654 1.9227 0.622642 0
M  V30 827 C 81.3864 0.929083 1.71444 0
M  V30 828 O 80.6564 -0.0262186 1.95882 0
M  V30 829 H 79.2364 0.709739 0.232981 0
M  V30 830 H 81.8984 1.94628 -0.102898 0
M  V30 831 H 80.9944 2.93479 1.06191 0
M  V30 832 N 81.2955 -0.223234 1.56011 0
M  V30 833 C 82.5435 -0.946003 1.78592 0
M  V30 834 C 82.8645 -1.84936 0.618349 0
M  V30 835 O 82.1345 -1.92473 -0.364833 0
M  V30 836 H 80.7145 -0.352298 0.658707 0
M  V30 837 H 83.3765 -0.235494 1.93472 0
M  V30 838 H 82.4725 -1.55381 2.70672 0
M  V30 839 N 82.7736 -1.49793 -0.48987 0
M  V30 840 C 83.6836 -1.70036 -1.61632 0
M  V30 841 C 84.6996 -0.583102 -1.63939 0
M  V30 842 O 85.8756 -0.859169 -1.82154 0
M  V30 843 C 82.9406 -1.77277 -2.97949 0
M  V30 844 C 82.0016 -3.00918 -3.06181 0
M  V30 845 C 81.2346 -3.07804 -4.35996 0
M  V30 846 O 81.4576 -2.21982 -5.25433 0
M  V30 847 O 80.3916 -4.00369 -4.49431 0
M  V30 848 H 84.2176 -2.65486 -1.47482 0
M  V30 849 H 81.8026 -1.33666 -0.667362 0
M  V30 850 H 83.6846 -1.84329 -3.78947 0
M  V30 851 H 82.3596 -0.850076 -3.12339 0
M  V30 852 H 81.2666 -2.99377 -2.2433 0
M  V30 853 H 82.5996 -3.92704 -2.96723 0
M  V30 854 N 84.2517 0.741722 -1.39055 0
M  V30 855 C 85.1837 1.8657 -1.33133 0
M  V30 856 C 86.1967 1.61001 -0.241329 0
M  V30 857 O 87.3857 1.7136 -0.499784 0
M  V30 858 C 84.4857 3.22457 -1.04283 0
M  V30 859 C 83.6587 3.75435 -2.24427 0
M  V30 860 C 82.7177 4.89867 -1.92138 0
M  V30 861 O 81.7437 5.03879 -2.64754 0
M  V30 862 N 82.9457 5.73738 -0.88347 0
M  V30 863 H 85.7107 1.92156 -2.29991 0
M  V30 864 H 83.2717 0.922172 -1.3307 0
M  V30 865 H 85.2637 3.9657 -0.807128 0
M  V30 866 H 83.8337 3.12181 -0.161807 0
M  V30 867 H 83.0537 2.92751 -2.6399 0
M  V30 868 H 84.3417 4.07563 -3.04581 0
M  V30 869 H 83.7397 5.64999 -0.281517 0
M  V30 870 H 82.2967 6.47947 -0.707662 0
M  V30 871 N 85.7298 1.2412 0.971189 0
M  V30 872 C 86.6618 0.988349 2.06795 0
M  V30 873 C 87.6748 -0.0409541 1.62748 0
M  V30 874 O 88.8638 0.195673 1.77424 0
M  V30 875 C 85.9638 0.469023 3.35639 0
M  V30 876 C 85.1368 1.56065 4.08611 0
M  V30 877 C 84.1958 1.04458 5.15728 0
M  V30 878 O 83.2218 1.73553 5.42096 0
M  V30 879 N 84.4238 -0.122817 5.8037 0
M  V30 880 H 87.1888 1.93265 2.29061 0
M  V30 881 H 84.7498 1.15102 1.13856 0
M  V30 882 H 86.7418 0.108613 4.04554 0
M  V30 883 H 85.3118 -0.380919 3.1027 0
M  V30 884 H 84.5318 2.09341 3.34021 0
M  V30 885 H 85.8198 2.29449 4.54126 0
M  V30 886 H 85.2178 -0.700563 5.61345 0
M  V30 887 H 83.7748 -0.424404 6.50417 0
M  V30 888 N 87.2079 -1.17134 1.05439 0
M  V30 889 C 88.4359 -1.91372 0.786414 0
M  V30 890 C 88.8509 -1.76955 -0.658202 0
M  V30 891 O 88.2079 -1.10838 -1.44987 0
M  V30 892 C 88.2589 -3.42356 1.1608 0
M  V30 893 O 87.9799 -3.56332 2.54871 0
M  V30 894 C 89.4809 -4.33663 0.919322 0
M  V30 895 H 86.7009 -0.607118 0.285743 0
M  V30 896 H 89.2449 -1.48525 1.40572 0
M  V30 897 H 87.3999 -3.82939 0.586191 0
M  V30 898 H 87.8139 -4.49896 2.69618 0
M  V30 899 H 89.2879 -5.38099 1.231 0
M  V30 900 H 89.7649 -4.38959 -0.145359 0
M  V30 901 H 90.3709 -3.98796 1.47789 0
M  V30 902 N 88.686 -0.835752 -1.33615 0
M  V30 903 C 90.097 -0.487099 -1.80234 0
M  V30 904 C 90.448 0.993627 -1.69179 0
M  V30 905 O 89.573 1.77403 -1.23924 0
M  V30 906 C 90.168 -0.877385 -3.27242 0
M  V30 907 C 88.727 -0.580915 -3.7189 0
M  V30 908 C 87.874 -1.0874 -2.5509 0
M  V30 909 H 90.825 -1.02474 -1.2118 0
M  V30 910 H 90.846 -0.186195 -3.80044 0
M  V30 911 H 90.358 -1.95512 -3.35256 0
M  V30 912 H 88.459 0.486881 -3.69405 0
M  V30 913 H 88.572 -1.13396 -4.65487 0
M  V30 914 H 86.936 -0.508392 -2.49575 0
M  V30 915 H 87.719 -2.17184 -2.65868 0
M  V30 916 N 90.1641 1.46063 -0.591896 0
M  V30 917 C 91.0741 2.34192 0.13831 0
M  V30 918 C 92.0901 1.50305 0.876608 0
M  V30 919 O 93.2661 1.8315 0.837728 0
M  V30 920 C 90.3311 3.27656 1.13326 0
M  V30 921 C 89.3921 4.27445 0.39863 0
M  V30 922 C 88.6251 5.16443 1.34618 0
M  V30 923 O 88.8481 5.08553 2.58321 0
M  V30 924 O 87.7821 5.95843 0.851768 0
M  V30 925 H 91.6081 2.98002 -0.58552 0
M  V30 926 H 89.1931 1.45188 -0.352239 0
M  V30 927 H 91.0751 3.85291 1.70671 0
M  V30 928 H 89.7501 2.6643 1.83839 0
M  V30 929 H 88.6571 3.73471 -0.216895 0
M  V30 930 H 89.9901 4.91482 -0.265709 0
M  V30 931 N 91.6422 0.330177 1.54103 0
M  V30 932 C 93.0532 -0.15652 1.86043 0
M  V30 933 C 93.4042 -1.51086 1.2517 0
M  V30 934 O 92.5292 -2.09023 0.560217 0
M  V30 935 C 93.1242 -0.290784 3.3755 0
M  V30 936 C 91.6832 -0.721705 3.69416 0
M  V30 937 C 90.8302 0.152622 2.7688 0
M  V30 938 H 93.7812 0.550237 1.48856 0
M  V30 939 H 93.8022 -1.12058 3.63625 0
M  V30 940 H 93.3142 0.695068 3.81825 0
M  V30 941 H 91.4152 -1.71706 3.30678 0
M  V30 942 H 91.5282 -0.520869 4.7626 0
M  V30 943 H 89.8922 -0.372894 2.51956 0
M  V30 944 H 90.6752 1.13536 3.23982 0
M  V30 945 N 93.1203 -1.57491 0.0584922 0
M  V30 946 C 94.0303 -2.15448 -0.928414 0
M  V30 947 C 95.0463 -1.11416 -1.3365 0
M  V30 948 O 96.2223 -1.4362 -1.41193 0
M  V30 949 C 93.2873 -2.69393 -2.18239 0
M  V30 950 C 92.3483 -3.88249 -1.83196 0
M  V30 951 C 91.5813 -4.39613 -3.02616 0
M  V30 952 O 91.8043 -3.90023 -4.16219 0
M  V30 953 O 90.7383 -5.31111 -2.83204 0
M  V30 954 H 94.5643 -3.00112 -0.465483 0
M  V30 955 H 92.1493 -1.48499 -0.163826 0
M  V30 956 H 94.0313 -3.04026 -2.91798 0
M  V30 957 H 92.7063 -1.87796 -2.63656 0
M  V30 958 H 91.6133 -3.58492 -1.06931 0
M  V30 959 H 92.9463 -4.71098 -1.42573 0
M  V30 960 N 94.5984 0.214957 -1.56127 0
M  V30 961 C 96.0094 0.781386 -1.69562 0
M  V30 962 C 96.3604 1.84707 -0.66165 0
M  V30 963 O 95.4854 2.156 0.185927 0
M  V30 964 C 96.0804 1.42411 -3.07416 0
M  V30 965 C 94.6394 1.93786 -3.22683 0
M  V30 966 C 93.7864 0.800438 -2.65496 0
M  V30 967 H 96.7374 -0.00980633 -1.58697 0
M  V30 968 H 96.7584 2.29309 -3.0364 0
M  V30 969 H 96.2704 0.64826 -3.82648 0
M  V30 970 H 94.3714 2.74152 -2.52332 0
M  V30 971 H 94.4844 2.1133 -4.29973 0
M  V30 972 H 92.8484 1.2095 -2.2415 0
M  V30 973 H 93.6314 0.0371471 -3.4328 0
M  V30 974 N 96.0765 1.50051 0.48192 0
M  V30 975 C 97.3245 1.60181 1.23234 0
M  V30 976 C 97.6455 0.299176 1.92691 0
M  V30 977 O 96.9155 -0.682708 1.83619 0
M  V30 978 H 95.4955 0.590232 0.457859 0
M  V30 979 H 98.1575 1.86775 0.556881 0
M  V30 980 H 97.2535 2.40753 1.98607 0
M  V30 981 N 97.5546 -0.734337 1.39446 0
M  V30 982 C 98.4646 -1.87879 1.40495 0
M  V30 983 C 99.4806 -1.714 0.299672 0
M  V30 984 O 100.657 -1.93991 0.541249 0
M  V30 985 C 97.7216 -3.23477 1.24754 0
M  V30 986 C 96.7826 -3.52344 2.45259 0
M  V30 987 C 96.0156 -4.81473 2.30259 0
M  V30 988 O 96.2386 -5.55237 1.30643 0
M  V30 989 O 95.1726 -5.10254 3.19256 0
M  V30 990 H 98.9986 -1.89949 2.36966 0
M  V30 991 H 96.5836 -0.882243 1.20569 0
M  V30 992 H 98.4656 -4.04509 1.18111 0
M  V30 993 H 97.1406 -3.22176 0.313781 0
M  V30 994 H 96.0476 -2.71396 2.57478 0
M  V30 995 H 97.3806 -3.58426 3.37331 0
M  V30 996 N 99.0327 -1.24633 -0.964593 0
M  V30 997 C 99.9957 -1.0424 -2.04124 0
M  V30 998 C 100.996 0.00137563 -1.608 0
M  V30 999 O 102.186 -0.239883 -1.7254 0
M  V30 1000 C 99.3177 -0.580588 -3.3592 0
M  V30 1001 H 100.511 -1.99803 -2.23649 0
M  V30 1002 H 98.0637 -1.06899 -1.14027 0
M  V30 1003 H 98.7987 0.3781 -3.22088 0
M  V30 1004 H 98.5837 -1.33398 -3.6871 0
M  V30 1005 H 100.074 -0.459034 -4.15069 0
M  V30 1006 N 100.511 1.16574 -1.06058 0
M  V30 1007 C 101.759 1.86677 -0.77434 0
M  V30 1008 C 102.08 1.81959 0.701147 0
M  V30 1009 O 101.35 1.2515 1.50713 0
M  V30 1010 H 99.9298 0.691134 -0.283449 0
M  V30 1011 H 102.592 1.41378 -1.34158 0
M  V30 1012 H 101.688 2.92181 -1.09711 0
M  V30 1013 N 101.989 0.842826 1.3317 0
M  V30 1014 C 103.405 0.531128 1.50503 0
M  V30 1015 C 103.605 -0.940734 1.78192 0
M  V30 1016 O 102.661 -1.72436 1.84451 0
M  V30 1017 C 103.974 1.40789 2.65705 0
M  V30 1018 C 105.522 1.40708 2.79589 0
M  V30 1019 C 105.997 2.26878 3.97857 0
M  V30 1020 N 107.488 2.24609 4.05099 0
M  V30 1021 C 108.223 2.88019 4.95815 0
M  V30 1022 N 107.719 3.60496 5.9162 0
M  V30 1023 N 109.512 2.77469 4.88843 0
M  V30 1024 H 101.663 1.79557 1.1346 0
M  V30 1025 H 103.926 0.766267 0.558156 0
M  V30 1026 H 103.632 2.454 2.51936 0
M  V30 1027 H 103.506 1.08677 3.61205 0
M  V30 1028 H 105.893 0.368668 2.92788 0
M  V30 1029 H 105.974 1.76829 1.84838 0
M  V30 1030 H 105.618 3.3078 3.85418 0
M  V30 1031 H 105.548 1.88096 4.91861 0
M  V30 1032 H 108.039 1.71906 3.36536 0
M  V30 1033 H 108.352 4.06076 6.57512 0
M  V30 1034 H 106.697 3.64604 5.91683 0
M  V30 1035 H 109.888 2.20406 4.12963 0
M  V30 1036 H 110.061 3.2717 5.59342 0
M  V30 1037 N 103.467 -1.45747 0.599634 0
M  V30 1038 C 104.744 -1.95585 0.0240846 0
M  V30 1039 C 105.124 -1.54217 -1.44154 0
M  V30 1040 O 104.472 -0.800903 -2.14004 0
M  V30 1041 C 104.682 -3.48344 0.21385 0
M  V30 1042 C 106.03 -4.24504 0.0904902 0
M  V30 1043 O 107.054 -3.55911 0.143558 0
M  V30 1044 O 105.913 -5.46491 -0.0310766 0
M  V30 1045 H 103.007 -0.82602 -0.0402478 0
M  V30 1046 H 105.553 -1.55951 0.669139 0
M  V30 1047 H 104.325 -3.71397 1.23206 0
M  V30 1048 H 103.948 -3.9485 -0.466842 0
M  V30 1049 N 104.945 -0.338344 -1.53925 0
M  V30 1050 C 106.193 0.259245 -2.0043 0
M  V30 1051 C 106.514 1.51484 -1.22791 0
M  V30 1052 O 105.784 1.93037 -0.33368 0
M  V30 1053 H 104.364 0.0987845 -0.740439 0
M  V30 1054 H 107.026 -0.458302 -1.89435 0
M  V30 1055 H 106.122 0.505334 -3.07982 0
M  V30 1056 N 106.423 1.57458 -0.0668435 0
M  V30 1057 C 107.356 2.08033 0.93795 0
M  V30 1058 C 108.334 0.984321 1.29421 0
M  V30 1059 O 109.518 1.25736 1.40437 0
M  V30 1060 C 106.645 2.53388 2.24749 0
M  V30 1061 C 105.691 3.74376 2.04315 0
M  V30 1062 S 106.524 5.19303 1.30706 0
M  V30 1063 C 107.68 5.67986 2.62951 0
M  V30 1064 H 107.913 2.92935 0.50759 0
M  V30 1065 H 105.446 1.5371 0.145804 0
M  V30 1066 H 107.404 2.8018 3.00016 0
M  V30 1067 H 106.065 1.68763 2.64911 0
M  V30 1068 H 105.258 4.04083 3.01218 0
M  V30 1069 H 104.86 3.47931 1.37186 0
M  V30 1070 H 107.152 5.74528 3.5906 0
M  V30 1071 H 108.095 6.66955 2.3786 0
M  V30 1072 H 108.503 4.95781 2.69929 0
M  V30 1073 N 107.901 -0.206675 1.56239 0
M  V30 1074 C 109.149 -0.927007 1.79586 0
M  V30 1075 C 109.47 -1.8427 0.637929 0
M  V30 1076 O 108.74 -1.92849 -0.344398 0
M  V30 1077 H 107.32 -0.345292 0.662407 0
M  V30 1078 H 109.982 -0.21496 1.93711 0
M  V30 1079 H 109.078 -1.52501 2.72305 0
M  V30 1080 N 109.379 -1.50304 -0.473955 0
M  V30 1081 C 110.656 -1.51667 -1.23518 0
M  V30 1082 C 111.036 -0.259701 -2.09496 0
M  V30 1083 O 110.384 0.756986 -2.15597 0
M  V30 1084 C 110.594 -2.81082 -2.06868 0
M  V30 1085 C 111.942 -3.31631 -2.65153 0
M  V30 1086 O 112.966 -2.82384 -2.17113 0
M  V30 1087 O 111.825 -4.17471 -3.52675 0
M  V30 1088 H 108.919 -0.60822 -0.560355 0
M  V30 1089 H 111.465 -1.62592 -0.486011 0
M  V30 1090 H 110.237 -3.64041 -1.4349 0
M  V30 1091 H 109.86 -2.73146 -2.88924 0
M  V30 1092 N 110.857 0.726932 -1.39834 0
M  V30 1093 C 112.082 1.52121 -1.40976 0
M  V30 1094 C 112.507 1.88098 -0.00826029 0
M  V30 1095 O 111.865 1.52479 0.980807 0
M  V30 1096 C 111.913 2.78021 -2.29644 0
M  V30 1097 O 111.017 3.74272 -1.73188 0
M  V30 1098 H 110.358 0.45908 -0.479731 0
M  V30 1099 H 112.888 0.896207 -1.83927 0
M  V30 1100 H 112.898 3.26671 -2.44438 0
M  V30 1101 H 111.573 2.51169 -3.31492 0
M  V30 1102 H 110.15 3.33073 -1.6768 0
M  V30 1103 N 112.336 1.25143 0.95797 0
M  V30 1104 C 113.584 1.09476 1.69881 0
M  V30 1105 C 113.905 -0.365502 1.91544 0
M  V30 1106 O 113.175 -1.25985 1.50015 0
M  V30 1107 H 111.755 0.402128 0.629525 0
M  V30 1108 H 114.417 1.57214 1.15194 0
M  V30 1109 H 113.513 1.60046 2.6794 0
M  V30 1110 N 113.814 -1.1601 1.06675 0
M  V30 1111 C 115.23 -1.38622 0.790948 0
M  V30 1112 C 115.43 -1.92109 -0.607965 0
M  V30 1113 O 114.486 -2.12239 -1.36787 0
M  V30 1114 C 115.799 -2.36347 1.85905 0
M  V30 1115 C 117.347 -2.50023 1.88301 0
M  V30 1116 C 117.822 -3.51033 2.94176 0
M  V30 1117 N 119.313 -3.58563 2.93235 0
M  V30 1118 C 120.048 -4.36521 3.71803 0
M  V30 1119 N 119.544 -5.17869 4.602 0
M  V30 1120 N 121.337 -4.31541 3.60178 0
M  V30 1121 H 113.488 -0.796294 1.96908 0
M  V30 1122 H 115.751 -0.412597 0.853503 0
M  V30 1123 H 115.457 -2.04147 2.86386 0
M  V30 1124 H 115.331 -3.36042 1.71334 0
M  V30 1125 H 117.718 -2.81524 0.884769 0
M  V30 1126 H 117.799 -1.5035 2.06951 0
M  V30 1127 H 117.443 -3.20268 3.94196 0
M  V30 1128 H 117.373 -4.50445 2.72776 0
M  V30 1129 H 119.864 -3.00496 2.29152 0
M  V30 1130 H 120.177 -5.74578 5.16797 0
M  V30 1131 H 118.522 -5.17199 4.64253 0
M  V30 1132 H 121.713 -3.67051 2.90502 0
M  V30 1133 H 121.886 -4.9205 4.21653 0
M  V30 1134 N 115.292 -0.849877 -1.32721 0
M  V30 1135 C 116.569 -0.372405 -1.92022 0
M  V30 1136 C 116.949 1.1435 -1.77447 0
M  V30 1137 O 116.297 1.96296 -1.16962 0
M  V30 1138 C 116.507 -0.831482 -3.3895 0
M  V30 1139 C 117.855 -0.845882 -4.16089 0
M  V30 1140 O 118.879 -0.775806 -3.47649 0
M  V30 1141 O 117.738 -0.943753 -5.38289 0
M  V30 1142 H 114.832 -0.107667 -0.819961 0
M  V30 1143 H 117.378 -0.93646 -1.41522 0
M  V30 1144 H 116.15 -1.87448 -3.4348 0
M  V30 1145 H 115.773 -0.24461 -3.96847 0
M  V30 1146 N 116.77 1.45427 -0.607355 0
M  V30 1147 C 117.995 2.07124 -0.107006 0
M  V30 1148 C 118.42 1.44906 1.19933 0
M  V30 1149 O 117.778 0.541687 1.73019 0
M  V30 1150 C 117.826 3.60595 0.0194119 0
M  V30 1151 O 116.93 3.98285 1.0697 0
M  V30 1152 H 116.271 0.659868 -0.0739597 0
M  V30 1153 H 118.801 1.86683 -0.837297 0
M  V30 1154 H 118.811 4.07419 0.2177 0
M  V30 1155 H 117.486 4.05266 -0.934453 0
M  V30 1156 H 116.063 3.63133 0.847889 0
M  V30 1157 N 118.248 0.346503 1.53744 0
M  V30 1158 C 119.664 -0.00530975 1.59599 0
M  V30 1159 C 119.864 -1.48465 1.36236 0
M  V30 1160 O 118.92 -2.24376 1.15808 0
M  V30 1161 C 120.233 0.433516 2.97559 0
M  V30 1162 C 121.781 0.386111 3.10609 0
M  V30 1163 C 122.256 0.800451 4.50951 0
M  V30 1164 N 123.747 0.754753 4.5701 0
M  V30 1165 C 124.482 1.04727 5.63755 0
M  V30 1166 N 123.978 1.4081 6.7834 0
M  V30 1167 N 125.771 0.971316 5.53644 0
M  V30 1168 H 117.922 1.31009 1.67184 0
M  V30 1169 H 120.185 0.534242 0.783128 0
M  V30 1170 H 119.891 1.46509 3.19731 0
M  V30 1171 H 119.765 -0.189753 3.76722 0
M  V30 1172 H 122.152 -0.636295 2.88158 0
M  V30 1173 H 122.233 1.04462 2.33498 0
M  V30 1174 H 121.877 1.82088 4.74137 0
M  V30 1175 H 121.807 0.119386 5.26465 0
M  V30 1176 H 124.298 0.488662 3.74727 0
M  V30 1177 H 124.611 1.61607 7.55714 0
M  V30 1178 H 122.956 1.44657 6.79779 0
M  V30 1179 H 126.147 0.688748 4.63005 0
M  V30 1180 H 126.32 1.20263 6.36742 0
M  V30 1181 N 119.726 -1.57421 0.075193 0
M  V30 1182 C 120.951 -1.98364 -0.605515 0
M  V30 1183 C 121.376 -0.953383 -1.62149 0
M  V30 1184 O 120.734 0.0806053 -1.81121 0
M  V30 1185 C 120.782 -3.38332 -1.24756 0
M  V30 1186 O 119.886 -3.37959 -2.36342 0
M  V30 1187 H 119.227 -0.645553 -0.155428 0
M  V30 1188 H 121.757 -2.04044 0.150714 0
M  V30 1189 H 121.767 -3.75591 -1.5936 0
M  V30 1190 H 120.442 -4.12846 -0.503129 0
M  V30 1191 H 119.019 -3.12474 -2.03506 0
M  V30 1192 N 121.204 0.198386 -1.56346 0
M  V30 1193 C 122.615 0.763358 -1.70381 0
M  V30 1194 C 122.966 1.83995 -0.681203 0
M  V30 1195 O 122.091 2.15785 0.16305 0
M  V30 1196 C 122.686 1.39143 -3.08909 0
M  V30 1197 C 121.245 1.90352 -3.2472 0
M  V30 1198 C 120.392 0.772233 -2.6633 0
M  V30 1199 H 123.343 -0.0266377 -1.58678 0
M  V30 1200 H 123.364 2.26076 -3.06055 0
M  V30 1201 H 122.876 0.607638 -3.83314 0
M  V30 1202 H 120.977 2.71461 -2.55225 0
M  V30 1203 H 121.09 2.06757 -4.3219 0
M  V30 1204 H 119.454 1.18566 -2.2542 0
M  V30 1205 H 120.237 0.00073556 -3.433 0
M  V30 1206 N 122.682 1.50554 0.465978 0
M  V30 1207 C 123.959 1.5232 1.22712 0
M  V30 1208 C 124.339 0.270807 2.09356 0
M  V30 1209 O 123.687 -0.745541 2.15995 0
M  V30 1210 C 123.897 2.82175 2.05374 0
M  V30 1211 C 125.245 3.33033 2.6339 0
M  V30 1212 O 126.269 2.83531 2.15612 0
M  V30 1213 O 125.128 4.19336 3.50456 0
M  V30 1214 H 122.222 0.611183 0.557122 0
M  V30 1215 H 124.768 1.62847 0.477381 0
M  V30 1216 H 123.54 3.64797 1.41558 0
M  V30 1217 H 123.163 2.74675 2.87471 0
M  V30 1218 N 124.16 -0.719506 1.40217 0
M  V30 1219 C 125.385 -1.51371 1.4178 0
M  V30 1220 C 125.81 -1.88091 0.0182355 0
M  V30 1221 O 125.168 -1.52997 -0.972707 0
M  V30 1222 C 125.216 -2.768 2.31115 0
M  V30 1223 O 124.32 -3.73349 1.7517 0
M  V30 1224 H 123.661 -0.456529 0.482159 0
M  V30 1225 H 126.191 -0.88644 1.844 0
M  V30 1226 H 126.201 -3.25371 2.46167 0
M  V30 1227 H 124.876 -2.49407 3.3282 0
M  V30 1228 H 123.453 -3.32179 1.69444 0
M  V30 1229 N 125.638 -1.25649 -0.95132 0
M  V30 1230 C 126.863 -1.13443 -1.73624 0
M  V30 1231 C 127.288 0.307565 -1.85568 0
M  V30 1232 O 126.646 1.22282 -1.33854 0
M  V30 1233 C 126.694 -1.79723 -3.12621 0
M  V30 1234 O 125.798 -1.07912 -3.98031 0
M  V30 1235 H 125.139 -0.395872 -0.533086 0
M  V30 1236 H 127.669 -1.66276 -1.1922 0
M  V30 1237 H 127.679 -1.86141 -3.63064 0
M  V30 1238 H 126.354 -2.84633 -3.03244 0
M  V30 1239 H 124.931 -1.09398 -3.56492 0
M  V30 1240 N 127.117 1.15442 -1.07289 0
M  V30 1241 C 128.342 1.90638 -0.816828 0
M  V30 1242 C 128.767 1.77445 0.624083 0
M  V30 1243 O 128.125 1.10671 1.43602 0
M  V30 1244 C 128.173 3.39008 -1.22906 0
M  V30 1245 O 127.277 4.10701 -0.373975 0
M  V30 1246 H 126.618 0.593555 -0.297638 0
M  V30 1247 H 129.148 1.46198 -1.43134 0
M  V30 1248 H 129.158 3.89801 -1.20497 0
M  V30 1249 H 127.833 3.47929 -2.27856 0
M  V30 1250 H 126.41 3.70046 -0.460499 0
M  V30 1251 N 128.595 0.856903 1.32268 0
M  V30 1252 C 130.006 0.515711 1.79436 0
M  V30 1253 C 130.357 -0.966586 1.70738 0
M  V30 1254 O 129.482 -1.75409 1.26731 0
M  V30 1255 C 130.077 0.929335 3.25805 0
M  V30 1256 C 128.636 0.640006 3.70919 0
M  V30 1257 C 127.783 1.12784 2.53328 0
M  V30 1258 H 130.734 1.04389 1.19535 0
M  V30 1259 H 130.755 0.246633 3.797 0
M  V30 1260 H 130.267 2.00821 3.32103 0
M  V30 1261 H 128.368 -0.428051 3.70133 0
M  V30 1262 H 128.481 1.20788 4.63624 0
M  V30 1263 H 126.845 0.548033 2.48734 0
M  V30 1264 H 127.628 2.21387 2.62379 0
M  V30 1265 N 130.073 -1.45103 0.615059 0
M  V30 1266 C 131.021 -2.32331 -0.111791 0
M  V30 1267 C 132.015 -1.46409 -0.852102 0
M  V30 1268 O 133.221 -1.62849 -0.766821 0
M  V30 1269 H 129.596 -0.749993 -0.0549072 0
M  V30 1270 H 131.567 -2.91407 0.642225 0
M  V30 1271 C 130.316 -3.3015 -1.09071 0
M  V30 1272 H 129.639 -3.96265 -0.530485 0
M  V30 1273 H 131.079 -3.93898 -1.56908 0
M  V30 1274 C 129.538 -2.57875 -2.168 0
M  V30 1275 O 130.068 -2.36567 -3.24652 0
M  V30 1276 N 128.274 -2.17884 -1.92289 0
M  V30 1277 H 127.821 -2.35413 -1.04587 0
M  V30 1278 H 127.779 -1.6985 -2.64572 0
M  V30 1279 N 131.551 -0.354651 -1.53558 0
M  V30 1280 C 132.962 0.126902 -1.86268 0
M  V30 1281 C 133.313 1.49075 -1.27558 0
M  V30 1282 O 132.438 2.08105 -0.5934 0
M  V30 1283 C 133.033 0.237046 -3.3797 0
M  V30 1284 C 131.592 0.662842 -3.70518 0
M  V30 1285 C 130.739 -0.196652 -2.76602 0
M  V30 1286 H 133.69 -0.573849 -1.47962 0
M  V30 1287 H 133.711 1.06259 -3.65362 0
M  V30 1288 H 133.223 -0.755725 -3.80671 0
M  V30 1289 H 131.324 1.66424 -3.33367 0
M  V30 1290 H 131.437 0.445034 -4.77029 0
M  V30 1291 H 129.801 0.332763 -2.52517 0
M  V30 1292 H 130.584 -1.18676 -3.22135 0
M  V30 1293 N 133.029 1.57378 -0.0835403 0
M  V30 1294 C 133.959 2.1641 0.87686 0
M  V30 1295 C 134.94 1.09429 1.30228 0
M  V30 1296 O 136.125 1.37516 1.37124 0
M  V30 1297 C 133.255 2.73517 2.14022 0
M  V30 1298 C 132.209 3.85769 1.85381 0
M  V30 1299 C 131.535 4.29529 3.18448 0
M  V30 1300 C 132.835 5.09486 1.14984 0
M  V30 1301 H 134.529 2.96914 0.385059 0
M  V30 1302 H 132.075 1.42823 0.18377 0
M  V30 1303 H 134.028 3.13463 2.81636 0
M  V30 1304 H 132.752 1.90252 2.65465 0
M  V30 1305 H 131.411 3.46345 1.20169 0
M  V30 1306 H 131.059 3.43169 3.67755 0
M  V30 1307 H 130.759 5.05204 3.00071 0
M  V30 1308 H 132.283 4.72099 3.8724 0
M  V30 1309 H 133.697 5.46674 1.72687 0
M  V30 1310 H 132.094 5.90515 1.06826 0
M  V30 1311 H 133.164 4.84724 0.130749 0
M  V30 1312 N 134.507 -0.190092 1.56449 0
M  V30 1313 C 135.918 -0.754312 1.70784 0
M  V30 1314 C 136.269 -1.83631 0.690951 0
M  V30 1315 O 135.394 -2.15868 -0.151604 0
M  V30 1316 C 135.989 -1.37503 3.09642 0
M  V30 1317 C 134.548 -1.88628 3.25725 0
M  V30 1318 C 133.695 -0.758098 2.66736 0
M  V30 1319 H 136.646 0.0350524 1.58661 0
M  V30 1320 H 136.667 -2.2445 3.0725 0
M  V30 1321 H 136.179 -0.587302 3.83631 0
M  V30 1322 H 134.28 -2.70103 2.56661 0
M  V30 1323 H 134.393 -2.04462 4.3328 0
M  V30 1324 H 132.757 -1.17369 2.26046 0
M  V30 1325 H 133.54 0.0174705 3.43296 0
M  V30 1326 N 135.985 -1.50799 -0.457987 0
M  V30 1327 C 136.917 -1.66786 -1.57211 0
M  V30 1328 C 137.93 -0.548962 -1.53265 0
M  V30 1329 O 139.119 -0.8226 -1.58416 0
M  V30 1330 C 136.219 -1.64834 -2.96113 0
M  V30 1331 C 135.392 -2.92971 -3.24787 0
M  V30 1332 C 134.451 -2.83485 -4.43309 0
M  V30 1333 O 133.477 -3.5744 -4.42973 0
M  V30 1334 N 134.679 -1.97929 -5.45714 0
M  V30 1335 H 137.444 -2.62889 -1.43909 0
M  V30 1336 H 135.005 -1.48427 -0.646617 0
M  V30 1337 H 136.997 -1.56084 -3.7339 0
M  V30 1338 H 135.567 -0.764118 -3.03117 0
M  V30 1339 H 134.787 -3.15749 -2.36 0
M  V30 1340 H 136.075 -3.77834 -3.40762 0
M  V30 1341 H 135.473 -1.37182 -5.48815 0
M  V30 1342 H 134.03 -1.95073 -6.21924 0
M  V30 1343 N 137.463 0.71206 -1.40597 0
M  V30 1344 C 138.711 1.46907 -1.38791 0
M  V30 1345 C 139.032 1.94998 0.00780391 0
M  V30 1346 O 138.302 1.70587 0.963174 0
M  V30 1347 H 136.882 0.545043 -0.51082 0
M  V30 1348 H 139.544 0.843882 -1.75683 0
M  V30 1349 H 138.64 2.34021 -2.06496 0
M  V30 1350 N 138.941 1.26152 0.944643 0
M  V30 1351 C 140.187 1.11657 1.69294 0
M  V30 1352 C 140.52 -0.339926 1.91202 0
M  V30 1353 O 139.795 -1.24994 1.49019 0
M  V30 1354 C 140.078 1.88236 3.06984 0
M  V30 1355 C 139.931 3.41772 2.92424 0
M  V30 1356 C 141.25 1.67343 4.07043 0
M  V30 1357 H 138.369 0.407004 0.614424 0
M  V30 1358 H 141.011 1.55106 1.09737 0
M  V30 1359 H 139.161 1.51308 3.57824 0
M  V30 1360 H 140.833 3.88433 2.48832 0
M  V30 1361 H 139.076 3.68974 2.28124 0
M  V30 1362 H 139.747 3.90579 3.90067 0
M  V30 1363 H 142.223 1.99509 3.65151 0
M  V30 1364 H 141.099 2.23346 5.01406 0
M  V30 1365 H 141.36 0.617158 4.37771 0
M  V30 1366 N 140.419 -1.14872 1.07899 0
M  V30 1367 C 141.83 -1.67367 0.827363 0
M  V30 1368 C 142.181 -1.85236 -0.646693 0
M  V30 1369 O 141.306 -1.55974 -1.50004 0
M  V30 1370 C 141.901 -3.04016 1.49532 0
M  V30 1371 C 140.46 -3.53566 1.29106 0
M  V30 1372 C 139.607 -2.29161 1.56143 0
M  V30 1373 H 142.558 -0.990083 1.24028 0
M  V30 1374 H 142.579 -3.69219 0.919643 0
M  V30 1375 H 142.091 -2.90978 2.56814 0
M  V30 1376 H 140.192 -3.71835 0.238713 0
M  V30 1377 H 140.305 -4.34661 2.01511 0
M  V30 1378 H 138.669 -2.34978 0.982717 0
M  V30 1379 H 139.452 -2.18705 2.64619 0
M  V30 1380 N 141.898 -0.863906 -1.31812 0
M  V30 1381 C 143.309 -0.52522 -1.7916 0
M  V30 1382 C 143.66 0.957518 -1.71248 0
M  V30 1383 O 142.785 1.74734 -1.27659 0
M  V30 1384 C 143.38 -0.9466 -3.25307 0
M  V30 1385 C 141.939 -0.659668 -3.70574 0
M  V30 1386 C 141.086 -1.14126 -2.52726 0
M  V30 1387 H 144.037 -1.05022 -1.1898 0
M  V30 1388 H 144.058 -0.266766 -3.79564 0
M  V30 1389 H 143.57 -2.02579 -3.31034 0
M  V30 1390 H 141.671 0.408416 -3.70355 0
M  V30 1391 H 141.784 -1.23245 -4.62977 0
M  V30 1392 H 140.148 -0.561216 -2.4844 0
M  V30 1393 H 140.931 -2.22775 -2.61201 0
M  V30 1394 N 143.376 1.44774 -0.622745 0
M  V30 1395 C 144.787 1.85546 -0.207226 0
M  V30 1396 C 145.138 1.52093 1.23944 0
M  V30 1397 O 144.263 0.95492 1.94191 0
M  V30 1398 C 144.858 3.36781 -0.369313 0
M  V30 1399 C 143.417 3.76399 -0.00836847 0
M  V30 1400 C 142.564 2.68664 -0.686651 0
M  V30 1401 H 145.515 1.3536 -0.828454 0
M  V30 1402 H 145.536 3.78453 0.394162 0
M  V30 1403 H 145.048 3.61098 -1.42231 0
M  V30 1404 H 143.149 3.57698 1.04322 0
M  V30 1405 H 143.262 4.7732 -0.412584 0
M  V30 1406 H 141.626 2.54404 -0.122777 0
M  V30 1407 H 142.409 2.95815 -1.74208 0
M  V30 1408 N 144.854 0.36279 1.53368 0
M  V30 1409 C 146.079 -0.231226 2.06107 0
M  V30 1410 C 146.504 -1.419 1.23474 0
M  V30 1411 O 145.862 -1.79524 0.253128 0
M  V30 1412 C 145.91 -0.605523 3.5548 0
M  V30 1413 O 145.014 -1.70312 3.7559 0
M  V30 1414 H 144.355 -0.034327 0.663112 0
M  V30 1415 H 146.885 0.522584 1.97814 0
M  V30 1416 H 146.895 -0.877314 3.98456 0
M  V30 1417 H 145.57 0.263004 4.15068 0
M  V30 1418 H 144.147 -1.4271 3.44512 0
M  V30 1419 N 146.332 -1.57332 0.0918853 0
M  V30 1420 C 147.743 -1.81496 -0.437739 0
M  V30 1421 C 148.094 -1.00727 -1.6837 0
M  V30 1422 O 147.219 -0.235694 -2.15113 0
M  V30 1423 C 147.814 -3.29197 -0.800939 0
M  V30 1424 C 146.373 -3.54136 -1.27532 0
M  V30 1425 C 145.52 -2.75979 -0.270392 0
M  V30 1426 H 148.471 -1.55494 0.317366 0
M  V30 1427 H 148.492 -3.42344 -1.66074 0
M  V30 1428 H 148.004 -3.87955 0.106078 0
M  V30 1429 H 146.105 -3.00705 -2.20016 0
M  V30 1430 H 146.218 -4.62792 -1.23938 0
M  V30 1431 H 144.582 -2.43349 -0.751872 0
M  V30 1432 H 145.365 -3.37484 0.629248 0
M  V30 1433 N 147.81 0.181792 -1.56548 0
M  V30 1434 C 149.221 0.745244 -1.71181 0
M  V30 1435 C 149.572 1.83262 -0.70068 0
M  V30 1436 O 148.697 2.15946 0.140154 0
M  V30 1437 C 149.292 1.35859 -3.10367 0
M  V30 1438 C 147.851 1.86898 -3.2672 0
M  V30 1439 C 146.998 0.743942 -2.67134 0
M  V30 1440 H 149.949 -0.0434661 -1.5864 0
M  V30 1441 H 149.97 2.22817 -3.08436 0
M  V30 1442 H 149.482 0.566948 -3.83937 0
M  V30 1443 H 147.583 2.68738 -2.5809 0
M  V30 1444 H 147.696 2.02162 -4.34359 0
M  V30 1445 H 146.06 1.16169 -2.26665 0
M  V30 1446 H 146.843 -0.035676 -3.43281 0
M  V30 1447 N 149.288 1.51039 0.449983 0
M  V30 1448 C 150.536 1.62759 1.19808 0
M  V30 1449 C 150.857 0.339981 1.92013 0
M  V30 1450 O 150.127 -0.643606 1.85026 0
M  V30 1451 H 148.707 0.599811 0.445237 0
M  V30 1452 H 151.369 1.87914 0.517138 0
M  V30 1453 H 150.465 2.44911 1.93455 0
M  V30 1454 N 150.766 -0.704594 1.40972 0
M  V30 1455 C 152.177 -1.28418 1.3552 0
M  V30 1456 C 152.528 -1.96171 0.0339434 0
M  V30 1457 O 151.653 -1.98231 -0.867944 0
M  V30 1458 C 152.248 -2.33528 2.45459 0
M  V30 1459 C 150.807 -2.87085 2.43433 0
M  V30 1460 C 149.954 -1.61007 2.2577 0
M  V30 1461 H 152.905 -0.499963 1.50619 0
M  V30 1462 H 152.926 -3.14619 2.13998 0
M  V30 1463 H 152.438 -1.84187 3.41609 0
M  V30 1464 H 150.539 -3.40626 1.51013 0
M  V30 1465 H 150.652 -3.3813 3.39419 0
M  V30 1466 H 149.016 -1.86482 1.73483 0
M  V30 1467 H 149.799 -1.13675 3.23933 0
M  V30 1468 N 152.244 -1.26651 -0.937939 0
M  V30 1469 C 153.655 -1.1125 -1.49934 0
M  V30 1470 C 154.006 0.306077 -1.93798 0
M  V30 1471 O 153.131 1.19792 -1.80219 0
M  V30 1472 C 153.726 -2.01339 -2.72485 0
M  V30 1473 C 152.285 -1.90074 -3.24883 0
M  V30 1474 C 151.432 -1.94498 -1.97651 0
M  V30 1475 H 154.383 -1.39693 -0.753091 0
M  V30 1476 H 154.404 -1.56319 -3.46907 0
M  V30 1477 H 153.916 -3.04577 -2.40529 0
M  V30 1478 H 152.017 -0.897827 -3.61621 0
M  V30 1479 H 152.13 -2.75778 -3.9177 0
M  V30 1480 H 150.494 -1.38591 -2.13693 0
M  V30 1481 H 151.277 -2.99372 -1.68022 0
M  V30 1482 N 153.722 1.14298 -1.08507 0
M  V30 1483 C 154.652 2.21542 -0.737646 0
M  V30 1484 C 155.633 1.67773 0.280377 0
M  V30 1485 O 156.818 1.93616 0.150521 0
M  V30 1486 C 153.948 3.46988 -0.147259 0
M  V30 1487 C 152.902 4.13789 -1.09374 0
M  V30 1488 C 152.228 5.33449 -0.365524 0
M  V30 1489 C 153.528 4.62208 -2.4323 0
M  V30 1490 H 155.222 2.5086 -1.6343 0
M  V30 1491 H 152.768 1.20576 -0.787243 0
M  V30 1492 H 154.721 4.21262 0.107808 0
M  V30 1493 H 153.445 3.17037 0.784538 0
M  V30 1494 H 152.104 3.4147 -1.33393 0
M  V30 1495 H 151.752 4.99759 0.57011 0
M  V30 1496 H 151.452 5.79088 -0.996512 0
M  V30 1497 H 152.976 6.10485 -0.118534 0
M  V30 1498 H 154.39 5.27952 -2.23472 0
M  V30 1499 H 152.787 5.18553 -3.02031 0
M  V30 1500 H 153.857 3.77224 -3.04681 0
M  V30 1501 N 155.201 0.870884 1.31352 0
M  V30 1502 C 156.612 0.534714 1.78879 0
M  V30 1503 C 156.963 -0.948423 1.71754 0
M  V30 1504 O 156.088 -1.74055 1.28584 0
M  V30 1505 C 156.683 0.963839 3.24801 0
M  V30 1506 C 155.242 0.679311 3.70219 0
M  V30 1507 C 154.389 1.15465 2.52117 0
M  V30 1508 H 157.34 1.05651 1.18421 0
M  V30 1509 H 157.361 0.286892 3.79417 0
M  V30 1510 H 156.873 2.04332 3.29955 0
M  V30 1511 H 154.974 -0.388769 3.70566 0
M  V30 1512 H 155.087 1.25698 4.62317 0
M  V30 1513 H 153.451 0.574383 2.48139 0
M  V30 1514 H 154.234 2.24157 2.60016 0
M  V30 1515 N 156.679 -1.44442 0.630414 0
M  V30 1516 C 158.09 -1.85434 0.217063 0
M  V30 1517 C 158.441 -1.52748 -1.23136 0
M  V30 1518 O 157.566 -0.965205 -1.93682 0
M  V30 1519 C 158.161 -3.36581 0.387168 0
M  V30 1520 C 156.72 -3.76389 0.0283297 0
M  V30 1521 C 155.867 -2.68296 0.700889 0
M  V30 1522 H 158.818 -1.34919 0.83562 0
M  V30 1523 H 158.839 -3.78657 -0.374086 0
M  V30 1524 H 158.351 -3.60339 1.44144 0
M  V30 1525 H 156.452 -3.58246 -1.02423 0
M  V30 1526 H 156.565 -4.77095 0.437892 0
M  V30 1527 H 154.929 -2.54335 0.136267 0
M  V30 1528 H 155.712 -2.94887 1.75774 0
M  V30 1529 N 158.157 -0.370918 -1.53173 0
M  V30 1530 C 159.382 0.220293 -2.06227 0
M  V30 1531 C 159.807 1.41243 -1.24225 0
M  V30 1532 O 159.165 1.79387 -0.262645 0
M  V30 1533 C 159.213 0.586663 -3.55796 0
M  V30 1534 O 158.317 1.68317 -3.76488 0
M  V30 1535 H 157.658 0.0308099 -0.663285 0
M  V30 1536 H 160.188 -0.533068 -1.97534 0
M  V30 1537 H 160.198 0.85617 -3.98916 0
M  V30 1538 H 158.873 -0.285013 -4.14922 0
M  V30 1539 H 157.45 1.40881 -3.45264 0
M  V30 1540 N 159.635 1.57281 -0.100228 0
M  V30 1541 C 160.863 1.98879 0.570509 0
M  V30 1542 C 161.278 0.979476 1.61405 0
M  V30 1543 O 160.635 -0.0302288 1.82475 0
M  V30 1544 C 160.686 3.4052 1.2136 0
M  V30 1545 O 160.407 4.37588 0.211786 0
M  V30 1546 C 161.908 3.97149 1.96945 0
M  V30 1547 H 159.128 0.653428 0.152555 0
M  V30 1548 H 161.672 2.03697 -0.18103 0
M  V30 1549 H 159.827 3.367 1.91603 0
M  V30 1550 H 160.241 5.20118 0.676607 0
M  V30 1551 H 161.715 4.98393 2.37294 0
M  V30 1552 H 162.192 3.3525 2.83733 0
M  V30 1553 H 162.798 4.04458 1.31506 0
M  V30 1554 N 161.113 -0.173488 1.56642 0
M  V30 1555 C 162.076 -1.19859 1.95362 0
M  V30 1556 C 163.076 -1.37296 0.83704 0
M  V30 1557 O 164.266 -1.34739 1.10413 0
M  V30 1558 C 161.398 -2.56405 2.24654 0
M  V30 1559 H 162.591 -0.867062 2.87092 0
M  V30 1560 H 160.144 -0.415853 1.50666 0
M  V30 1561 H 160.879 -2.94576 1.35631 0
M  V30 1562 H 160.664 -2.45115 3.06041 0
M  V30 1563 H 162.154 -3.30287 2.5554 0
M  V30 1564 N 162.591 -1.51276 -0.441967 0
M  V30 1565 C 164.002 -1.56244 -1.02199 0
M  V30 1566 C 164.353 -0.383149 -1.92422 0
M  V30 1567 O 163.478 0.500613 -2.1053 0
M  V30 1568 C 164.073 -2.83162 -1.86024 0
M  V30 1569 C 162.632 -2.90716 -2.39084 0
M  V30 1570 C 161.779 -2.50858 -1.18175 0
M  V30 1571 H 164.73 -1.5712 -0.223416 0
M  V30 1572 H 164.751 -2.66663 -2.71425 0
M  V30 1573 H 164.263 -3.68974 -1.20331 0
M  V30 1574 H 162.364 -2.09323 -3.08244 0
M  V30 1575 H 162.477 -3.94266 -2.72198 0
M  V30 1576 H 160.841 -2.03951 -1.52565 0
M  V30 1577 H 161.624 -3.3901 -0.541001 0
M  V30 1578 N 164.069 0.697108 -1.41344 0
M  V30 1579 C 165.294 1.49096 -1.44171 0
M  V30 1580 C 165.719 1.88038 -0.0481568 0
M  V30 1581 O 165.077 1.54525 0.948243 0
M  V30 1582 C 165.125 2.73088 -2.3549 0
M  V30 1583 O 164.229 3.70514 -1.81088 0
M  V30 1584 H 163.57 0.448801 -0.489361 0
M  V30 1585 H 166.1 0.856992 -1.85787 0
M  V30 1586 H 166.11 3.21413 -2.51312 0
M  V30 1587 H 164.785 2.44081 -3.36745 0
M  V30 1588 H 163.362 3.29441 -1.74708 0
M  V30 1589 N 165.547 1.27147 0.931209 0
M  V30 1590 C 166.477 1.12081 2.04842 0
M  V30 1591 C 167.458 0.0232364 1.70084 0
M  V30 1592 O 168.643 0.197085 1.93197 0
M  V30 1593 C 165.773 0.76354 3.38803 0
M  V30 1594 C 164.727 1.81396 3.87659 0
M  V30 1595 C 164.053 1.31075 5.18385 0
M  V30 1596 C 165.353 3.21739 4.11438 0
M  V30 1597 H 167.047 2.05537 2.17703 0
M  V30 1598 H 164.593 0.989603 1.04608 0
M  V30 1599 H 166.546 0.644982 4.16435 0
M  V30 1600 H 165.27 -0.206727 3.25945 0
M  V30 1601 H 163.929 1.92136 3.12217 0
M  V30 1602 H 163.577 0.330037 5.01916 0
M  V30 1603 H 163.277 2.013 5.52044 0
M  V30 1604 H 164.801 1.20506 5.98591 0
M  V30 1605 H 166.215 3.14019 4.79651 0
M  V30 1606 H 164.612 3.89644 4.56397 0
M  V30 1607 H 165.682 3.67054 3.16859 0
M  V30 1608 N 167.025 -1.13721 1.09112 0
M  V30 1609 C 168.273 -1.84559 0.823562 0
M  V30 1610 C 168.594 -1.83754 -0.652658 0
M  V30 1611 O 167.864 -1.29102 -1.47342 0
M  V30 1612 H 166.444 -0.683376 0.301673 0
M  V30 1613 H 169.106 -1.37771 1.37859 0
M  V30 1614 H 168.202 -2.8917 1.17419 0
M  V30 1615 N 168.503 -0.877838 -1.30888 0
M  V30 1616 C 169.751 -0.491723 -1.96027 0
M  V30 1617 C 170.072 0.960827 -1.69685 0
M  V30 1618 O 169.342 1.67462 -1.01654 0
M  V30 1619 H 167.922 -0.17885 -0.725273 0
M  V30 1620 H 170.584 -1.11935 -1.59551 0
M  V30 1621 H 169.68 -0.656016 -3.05128 0
M  V30 1622 N 169.982 1.44106 -0.638065 0
M  V30 1623 C 171.207 2.0685 -0.150916 0
M  V30 1624 C 171.632 1.47417 1.16833 0
M  V30 1625 O 170.99 0.578264 1.71831 0
M  V30 1626 C 171.038 3.60555 -0.05708 0
M  V30 1627 O 170.142 4.00465 0.984972 0
M  V30 1628 H 169.483 0.658151 -0.0879399 0
M  V30 1629 H 172.013 1.84865 -0.876707 0
M  V30 1630 H 172.023 4.07789 0.131232 0
M  V30 1631 H 170.698 4.03193 -1.02021 0
M  V30 1632 H 169.275 3.64849 0.770672 0
M  V30 1633 N 171.46 0.379036 1.52974 0
M  V30 1634 C 172.708 -0.206014 2.01047 0
M  V30 1635 C 173.029 -1.48175 1.26765 0
M  V30 1636 O 172.299 -1.92085 0.384743 0
M  V30 1637 H 170.879 -0.0791184 0.742798 0
M  V30 1638 H 173.541 0.508366 1.88153 0
M  V30 1639 H 172.637 -0.423501 3.09213 0
M  V30 1640 N 172.938 -1.57226 0.108567 0
M  V30 1641 C 173.901 -2.13602 -0.831082 0
M  V30 1642 C 174.901 -1.06841 -1.20173 0
M  V30 1643 O 176.091 -1.32666 -1.12895 0
M  V30 1644 C 173.223 -2.66769 -2.12243 0
M  V30 1645 H 174.416 -2.97951 -0.341317 0
M  V30 1646 H 171.969 -1.55667 -0.14057 0
M  V30 1647 H 172.704 -1.85977 -2.65675 0
M  V30 1648 H 172.489 -3.44839 -1.86625 0
M  V30 1649 H 173.979 -3.10332 -2.79435 0
M  V30 1650 N 174.416 0.165178 -1.56732 0
M  V30 1651 C 175.827 0.727046 -1.71962 0
M  V30 1652 C 176.178 1.82508 -0.720078 0
M  V30 1653 O 175.303 2.16082 0.117242 0
M  V30 1654 C 175.898 1.32559 -3.11791 0
M  V30 1655 C 174.457 1.83422 -3.28684 0
M  V30 1656 C 173.604 0.715567 -2.67908 0
M  V30 1657 H 176.555 -0.0602896 -1.58585 0
M  V30 1658 H 176.576 2.19533 -3.10782 0
M  V30 1659 H 176.088 0.526195 -3.84516 0
M  V30 1660 H 174.189 2.65986 -2.60926 0
M  V30 1661 H 174.302 1.97543 -4.36478 0
M  V30 1662 H 172.666 1.13758 -2.27884 0
M  V30 1663 H 173.449 -0.0720836 -3.43224 0
M  V30 1664 N 175.894 1.51508 0.433938 0
M  V30 1665 C 177.305 1.56784 1.01369 0
M  V30 1666 C 177.656 0.393349 1.92217 0
M  V30 1667 O 176.781 -0.489441 2.10792 0
M  V30 1668 C 177.376 2.84144 1.8452 0
M  V30 1669 C 175.935 2.9198 2.37539 0
M  V30 1670 C 175.082 2.51482 1.16843 0
M  V30 1671 H 178.033 1.57236 0.215081 0
M  V30 1672 H 178.054 2.68098 2.70007 0
M  V30 1673 H 177.566 3.69607 1.18373 0
M  V30 1674 H 175.667 2.10955 3.0713 0
M  V30 1675 H 175.78 3.95704 2.70103 0
M  V30 1676 H 174.144 2.04758 1.51481 0
M  V30 1677 H 174.927 3.39293 0.523015 0
M  V30 1678 N 177.372 -0.689602 1.41712 0
M  V30 1679 C 178.783 -1.26973 1.36875 0
M  V30 1680 C 179.134 -1.96124 0.054748 0
M  V30 1681 O 178.259 -1.99141 -0.84687 0
M  V30 1682 C 178.854 -2.30912 2.47922 0
M  V30 1683 C 177.413 -2.84486 2.46464 0
M  V30 1684 C 176.56 -1.58603 2.27465 0
M  V30 1685 H 179.511 -0.48396 1.51141 0
M  V30 1686 H 179.532 -3.12331 2.17323 0
M  V30 1687 H 179.044 -1.80554 3.43543 0
M  V30 1688 H 177.145 -3.39005 1.54617 0
M  V30 1689 H 177.258 -3.34511 3.42986 0
M  V30 1690 H 175.622 -1.84632 1.75451 0
M  V30 1691 H 176.405 -1.10233 3.25121 0
M  V30 1692 N 178.85 -1.27639 -0.924453 0
M  V30 1693 C 180.261 -1.12834 -1.48746 0
M  V30 1694 C 180.612 0.285505 -1.94112 0
M  V30 1695 O 179.737 1.17874 -1.81479 0
M  V30 1696 C 180.332 -2.04217 -2.70334 0
M  V30 1697 C 178.891 -1.93509 -3.22848 0
M  V30 1698 C 178.038 -1.96583 -1.95577 0
M  V30 1699 H 180.989 -1.40484 -0.738233 0
M  V30 1700 H 181.01 -1.59989 -3.4523 0
M  V30 1701 H 180.522 -3.07111 -2.37285 0
M  V30 1702 H 178.623 -0.936131 -3.60649 0
M  V30 1703 H 178.736 -2.79917 -3.88823 0
M  V30 1704 H 177.1 -1.4085 -2.12211 0
M  V30 1705 H 177.883 -3.01137 -1.64837 0
M  V30 1706 N 180.328 1.1314 -1.09713 0
M  V30 1707 C 181.739 1.66029 -0.853885 0
M  V30 1708 C 182.09 1.86241 0.617142 0
M  V30 1709 O 181.215 1.5834 1.47503 0
M  V30 1710 C 181.81 3.01599 -1.5435 0
M  V30 1711 C 180.369 3.51467 -1.34714 0
M  V30 1712 C 179.516 2.26648 -1.59769 0
M  V30 1713 H 182.467 0.970226 -1.25588 0
M  V30 1714 H 182.488 3.67709 -0.978267 0
M  V30 1715 H 182 2.86856 -2.6141 0
M  V30 1716 H 180.101 3.71408 -0.297838 0
M  V30 1717 H 180.214 4.314 -2.08401 0
M  V30 1718 H 178.578 2.33385 -1.01998 0
M  V30 1719 H 179.361 2.14467 -2.68065 0
M  V30 1720 N 181.806 0.884767 1.30421 0
M  V30 1721 C 182.739 0.295999 2.26272 0
M  V30 1722 C 183.717 -0.58332 1.51777 0
M  V30 1723 O 184.901 -0.53346 1.80794 0
M  V30 1724 C 182.028 -0.57944 3.33707 0
M  V30 1725 C 181.074 0.230525 4.25877 0
M  V30 1726 S 181.907 1.61867 5.1045 0
M  V30 1727 C 183.063 0.749756 6.21393 0
M  V30 1728 H 183.296 1.10848 2.75862 0
M  V30 1729 H 180.829 0.684178 1.38414 0
M  V30 1730 H 182.787 -1.07879 3.96071 0
M  V30 1731 H 181.448 -1.36601 2.82841 0
M  V30 1732 H 180.641 -0.437542 5.02097 0
M  V30 1733 H 180.243 0.662493 3.68086 0
M  V30 1734 H 182.535 -0.0333547 6.77492 0
M  V30 1735 H 183.478 1.48356 6.92384 0
M  V30 1736 H 183.886 0.310751 5.63644 0
M  V30 1737 N 183.284 -1.43765 0.645699 0
M  V30 1738 C 184.695 -1.85193 0.236719 0
M  V30 1739 C 185.046 -1.54045 -1.21509 0
M  V30 1740 O 184.171 -0.985694 -1.92647 0
M  V30 1741 C 184.766 -3.36151 0.422845 0
M  V30 1742 C 183.325 -3.76338 0.0682492 0
M  V30 1743 C 182.472 -2.67538 0.729306 0
M  V30 1744 H 185.423 -1.34025 0.849883 0
M  V30 1745 H 185.444 -3.79032 -0.333904 0
M  V30 1746 H 184.956 -3.5879 1.47958 0
M  V30 1747 H 183.057 -3.59312 -0.986179 0
M  V30 1748 H 183.17 -4.76603 0.488469 0
M  V30 1749 H 181.534 -2.54176 0.163235 0
M  V30 1750 H 182.317 -2.93006 1.78892 0
M  V30 1751 N 184.763 -0.387143 -1.52771 0
M  V30 1752 C 186.174 0.0873634 -1.86495 0
M  V30 1753 C 186.525 1.46336 -1.30691 0
M  V30 1754 O 185.65 2.068 -0.637409 0
M  V30 1755 C 186.245 0.165305 -3.38396 0
M  V30 1756 C 184.804 0.584101 -3.7184 0
M  V30 1757 C 183.951 -0.255279 -2.76122 0
M  V30 1758 H 186.902 -0.605104 -1.46711 0
M  V30 1759 H 186.923 0.984848 -3.67534 0
M  V30 1760 H 186.435 -0.836301 -3.78982 0
M  V30 1761 H 184.536 1.59315 -3.36823 0
M  V30 1762 H 184.649 0.343749 -4.77865 0
M  V30 1763 H 183.013 0.279126 -2.53166 0
M  V30 1764 H 183.796 -1.25482 -3.19545 0
M  V30 1765 N 186.241 1.57166 -0.116904 0
M  V30 1766 C 187.652 1.82169 0.408809 0
M  V30 1767 C 188.003 1.03393 1.66746 0
M  V30 1768 O 187.128 0.269886 2.1471 0
M  V30 1769 C 187.723 3.30429 0.748466 0
M  V30 1770 C 186.282 3.5612 1.21882 0
M  V30 1771 C 185.429 2.76374 0.226452 0
M  V30 1772 H 188.38 1.5497 -0.342063 0
M  V30 1773 H 188.401 3.44943 1.60607 0
M  V30 1774 H 187.913 3.87737 -0.167784 0
M  V30 1775 H 186.014 3.04168 2.15204 0
M  V30 1776 H 186.127 4.64705 1.16559 0
M  V30 1777 H 184.491 2.44515 0.713063 0
M  V30 1778 H 185.274 3.3644 -0.682859 0
M  V30 1779 N 187.719 -0.156864 1.56817 0
M  V30 1780 C 189.13 -0.717916 1.72345 0
M  V30 1781 C 189.481 -1.82124 0.729747 0
M  V30 1782 O 188.606 -2.16141 -0.105781 0
M  V30 1783 C 189.201 -1.30904 3.12489 0
M  V30 1784 C 187.76 -1.81676 3.29653 0
M  V30 1785 C 186.907 -0.701349 2.68284 0
M  V30 1786 H 189.858 0.0686989 1.58551 0
M  V30 1787 H 189.879 -2.17882 3.11942 0
M  V30 1788 H 189.391 -0.505796 3.8479 0
M  V30 1789 H 187.492 -2.64598 2.62333 0
M  V30 1790 H 187.605 -1.95226 4.3752 0
M  V30 1791 H 185.969 -1.12548 2.28484 0
M  V30 1792 H 186.752 0.0902846 3.43181 0
M  V30 1793 N 189.197 -1.51736 -0.425897 0
M  V30 1794 C 190.127 -1.76827 -1.52494 0
M  V30 1795 C 191.108 -0.618524 -1.58456 0
M  V30 1796 O 192.293 -0.862416 -1.74 0
M  V30 1797 C 189.423 -1.90374 -2.90474 0
M  V30 1798 C 188.377 -3.0588 -2.99369 0
M  V30 1799 C 187.703 -3.04625 -4.3944 0
M  V30 1800 C 189.003 -4.45644 -2.72394 0
M  V30 1801 H 190.697 -2.68855 -1.31748 0
M  V30 1802 H 188.243 -1.29372 -0.632362 0
M  V30 1803 H 190.196 -2.0651 -3.6733 0
M  V30 1804 H 188.92 -0.95004 -3.12477 0
M  V30 1805 H 187.579 -2.89467 -2.24954 0
M  V30 1806 H 187.227 -2.0701 -4.58428 0
M  V30 1807 H 186.927 -3.82195 -4.46319 0
M  V30 1808 H 188.451 -3.22869 -5.18255 0
M  V30 1809 H 189.865 -4.62348 -3.38979 0
M  V30 1810 H 188.262 -5.25006 -2.9067 0
M  V30 1811 H 189.332 -4.54893 -1.67929 0
M  V30 1812 N 190.675 0.682077 -1.42076 0
M  V30 1813 C 191.923 1.4393 -1.41876 0
M  V30 1814 C 192.244 1.94971 -0.0335599 0
M  V30 1815 O 191.514 1.72591 0.926773 0
M  V30 1816 H 190.094 0.534085 -0.522267 0
M  V30 1817 H 192.756 0.806427 -1.77434 0
M  V30 1818 H 191.852 2.29588 -2.11414 0
M  V30 1819 N 192.153 1.28127 0.917671 0
M  V30 1820 C 193.378 1.18007 1.70555 0
M  V30 1821 C 193.803 -0.258257 1.86319 0
M  V30 1822 O 193.161 -1.1869 1.37049 0
M  V30 1823 C 193.209 1.87948 3.07746 0
M  V30 1824 O 192.313 1.18427 3.9503 0
M  V30 1825 H 191.654 0.409867 0.522403 0
M  V30 1826 H 194.184 1.69379 1.1477 0
M  V30 1827 H 194.194 1.95701 3.58001 0
M  V30 1828 H 192.869 2.92573 2.95591 0
M  V30 1829 H 191.446 1.18811 3.53466 0
M  V30 1830 N 193.631 -1.12557 1.10312 0
M  V30 1831 C 195.042 -1.65574 0.862678 0
M  V30 1832 C 195.393 -1.86566 -0.607256 0
M  V30 1833 O 194.518 -1.59121 -1.46662 0
M  V30 1834 C 195.113 -3.00776 1.55947 0
M  V30 1835 C 193.672 -3.50748 1.36576 0
M  V30 1836 C 192.819 -2.25797 1.60968 0
M  V30 1837 H 195.77 -0.963552 1.26101 0
M  V30 1838 H 195.791 -3.67185 0.997753 0
M  V30 1839 H 195.303 -2.85465 2.62928 0
M  V30 1840 H 193.404 -3.71245 0.317531 0
M  V30 1841 H 193.517 -4.30289 2.10686 0
M  V30 1842 H 191.881 -2.32841 1.03234 0
M  V30 1843 H 192.664 -2.13043 2.69198 0
M  V30 1844 N 195.109 -0.891671 -1.2995 0
M  V30 1845 C 196.356 -0.513501 -1.95881 0
M  V30 1846 C 196.684 0.938655 -1.70351 0
M  V30 1847 O 195.939 1.67936 -1.00478 0
M  V30 1848 C 196.238 -0.742868 -3.49594 0
M  V30 1849 C 195.904 -2.17114 -3.95186 0
M  V30 1850 C 194.566 -2.56169 -4.07346 0
M  V30 1851 C 196.918 -3.10162 -4.18866 0
M  V30 1852 C 194.246 -3.87469 -4.4055 0
M  V30 1853 C 196.598 -4.41001 -4.53542 0
M  V30 1854 C 195.262 -4.79941 -4.63911 0
M  V30 1855 H 194.532 -0.187903 -0.71678 0
M  V30 1856 H 197.179 -1.1288 -1.54694 0
M  V30 1857 H 195.484 -0.044586 -3.91775 0
M  V30 1858 H 197.181 -0.429767 -3.9869 0
M  V30 1859 H 193.771 -1.85801 -3.86233 0
M  V30 1860 H 197.955 -2.81206 -4.08946 0
M  V30 1861 H 193.211 -4.17371 -4.46779 0
M  V30 1862 H 197.385 -5.13133 -4.70815 0
M  V30 1863 H 195.012 -5.81719 -4.89395 0
M  V30 1864 N 196.587 1.43421 -0.653314 0
M  V30 1865 C 197.998 1.85065 -0.246537 0
M  V30 1866 C 198.349 1.54688 1.2069 0
M  V30 1867 O 197.474 0.995896 1.92122 0
M  V30 1868 C 198.069 3.35922 -0.440666 0
M  V30 1869 C 196.628 3.76297 -0.0882064 0
M  V30 1870 C 195.775 2.67147 -0.743484 0
M  V30 1871 H 198.726 1.33572 -0.856979 0
M  V30 1872 H 198.747 3.79204 0.313798 0
M  V30 1873 H 198.259 3.58 -1.49858 0
M  V30 1874 H 196.36 3.5983 0.96711 0
M  V30 1875 H 196.473 4.76338 -0.513738 0
M  V30 1876 H 194.837 2.54086 -0.176712 0
M  V30 1877 H 195.62 2.92053 -1.80443 0
M  V30 1878 N 198.065 0.39524 1.52563 0
M  V30 1879 C 199.311 -0.185318 2.01952 0
M  V30 1880 C 199.644 -1.45964 1.28095 0
M  V30 1881 O 198.919 -1.90689 0.38315 0
M  V30 1882 C 199.202 -0.447193 3.57312 0
M  V30 1883 C 199.055 0.842828 4.41833 0
M  V30 1884 C 200.374 -1.23529 4.22408 0
M  V30 1885 H 197.493 -0.0658788 0.73405 0
M  V30 1886 H 200.135 0.525975 1.82575 0
M  V30 1887 H 198.285 -1.05312 3.73954 0
M  V30 1888 H 199.957 1.4795 4.36931 0
M  V30 1889 H 198.2 1.45686 4.08605 0
M  V30 1890 H 198.871 0.614165 5.48573 0
M  V30 1891 H 201.347 -0.722445 4.0978 0
M  V30 1892 H 200.223 -1.38727 5.3108 0
M  V30 1893 H 200.484 -2.25213 3.80436 0
M  V30 1894 N 199.544 -1.57102 0.125237 0
M  V30 1895 C 200.793 -1.94582 -0.531095 0
M  V30 1896 C 201.106 -1.01126 -1.6743 0
M  V30 1897 O 202.312 -1.28097 -2.39381 0
M  V30 1898 C 200.768 -3.45839 -0.996164 0
M  V30 1899 C 200.376 -4.47842 0.118926 0
M  V30 1900 C 202.12 -3.92227 -1.62352 0
M  V30 1901 C 200.027 -5.90284 -0.363192 0
M  V30 1902 H 198.957 -0.726391 -0.20217 0
M  V30 1903 H 201.608 -1.82339 0.206092 0
M  V30 1904 H 199.99 -3.53338 -1.78796 0
M  V30 1905 H 201.164 -4.52018 0.895358 0
M  V30 1906 H 199.479 -4.11243 0.653324 0
M  V30 1907 H 202.076 -4.96069 -1.99548 0
M  V30 1908 H 202.419 -3.32552 -2.50429 0
M  V30 1909 H 202.952 -3.87554 -0.897019 0
M  V30 1910 H 199.691 -6.53728 0.481679 0
M  V30 1911 H 199.211 -5.89515 -1.10597 0
M  V30 1912 H 200.89 -6.41752 -0.822377 0
M  V30 1913 N 201.022 0.148545 -1.56898 0
M  V30 1914 C 202.247 0.880385 -1.87787 0
M  V30 1915 C 202.672 1.74018 -0.714093 0
M  V30 1916 O 202.03 1.78153 0.336343 0
M  V30 1917 C 202.078 1.71422 -3.17249 0
M  V30 1918 O 201.182 2.8183 -3.01074 0
M  V30 1919 H 200.523 0.245301 -0.617028 0
M  V30 1920 H 203.053 0.139826 -2.04122 0
M  V30 1921 H 203.063 2.10954 -3.49231 0
M  V30 1922 H 201.738 1.08284 -4.01556 0
M  V30 1923 H 200.315 2.45715 -2.80497 0
M  V30 1924 N 202.5 1.5196 0.417844 0
M  V30 1925 C 203.725 1.69717 1.1921 0
M  V30 1926 C 204.15 0.402148 1.83751 0
M  V30 1927 O 203.508 -0.639593 1.69643 0
M  V30 1928 C 203.556 2.82794 2.2374 0
M  V30 1929 O 202.66 2.47756 3.29683 0
M  V30 1930 H 202.001 0.565263 0.348387 0
M  V30 1931 H 204.531 1.98621 0.490985 0
M  V30 1932 H 204.541 3.07452 2.68212 0
M  V30 1933 H 203.216 3.76756 1.76146 0
M  V30 1934 H 201.793 2.33739 2.90552 0
M  V30 1935 N 203.978 -0.674533 1.42435 0
M  V30 1936 C 205.203 -1.46784 1.46524 0
M  V30 1937 C 205.628 -1.87938 0.078066 0
M  V30 1938 O 204.986 -1.56014 -0.92354 0
M  V30 1939 C 205.034 -2.69307 2.39805 0
M  V30 1940 O 204.138 -3.67587 1.86959 0
M  V30 1941 H 203.479 -0.440959 0.496439 0
M  V30 1942 H 206.009 -0.827326 1.87127 0
M  V30 1943 H 206.019 -3.17374 2.56393 0
M  V30 1944 H 204.694 -2.38692 3.40586 0
M  V30 1945 H 203.271 -3.2662 1.79927 0
M  V30 1946 N 205.456 -1.28612 -0.910864 0
M  V30 1947 C 206.389 -1.07109 -2.01502 0
M  V30 1948 C 207.367 0.013706 -1.62594 0
M  V30 1949 O 208.551 -0.134796 -1.88017 0
M  V30 1950 C 205.678 -0.628255 -3.32822 0
M  V30 1951 C 204.724 -1.71012 -3.90714 0
M  V30 1952 S 205.557 -3.30676 -4.21205 0
M  V30 1953 C 206.713 -2.88234 -5.55583 0
M  V30 1954 H 206.946 -2.00591 -2.19432 0
M  V30 1955 H 204.479 -1.12633 -1.05609 0
M  V30 1956 H 206.437 -0.37946 -4.08742 0
M  V30 1957 H 205.098 0.28678 -3.12788 0
M  V30 1958 H 204.291 -1.35195 -4.85529 0
M  V30 1959 H 203.893 -1.91186 -3.21441 0
M  V30 1960 H 206.185 -2.34584 -6.35591 0
M  V30 1961 H 207.128 -3.81857 -5.96314 0
M  V30 1962 H 207.536 -2.26862 -5.16908 0
M  V30 1963 N 206.934 1.1197 -1.10907 0
M  V30 1964 C 208.182 1.83225 -0.852819 0
M  V30 1965 C 208.503 1.84769 0.623341 0
M  V30 1966 O 207.773 1.3143 1.45269 0
M  V30 1967 H 206.353 0.67849 -0.312507 0
M  V30 1968 H 209.015 1.3556 -1.40033 0
M  V30 1969 H 208.111 2.87265 -1.22005 0
M  V30 1970 N 208.412 0.89855 1.29475 0
M  V30 1971 C 209.637 0.538561 2.00285 0
M  V30 1972 C 210.062 -0.869135 1.66816 0
M  V30 1973 O 209.42 -1.57831 0.892145 0
M  V30 1974 C 209.468 0.736475 3.52999 0
M  V30 1975 O 208.572 -0.211537 4.11857 0
M  V30 1976 H 207.913 0.210563 0.62973 0
M  V30 1977 H 210.443 1.20982 1.64998 0
M  V30 1978 H 210.453 0.640685 4.02938 0
M  V30 1979 H 209.128 1.76276 3.76696 0
M  V30 1980 H 207.705 -0.0682991 3.72837 0
M  V30 1981 N 209.89 -1.43072 0.660911 0
M  V30 1982 C 211.301 -1.84932 0.256348 0
M  V30 1983 C 211.652 -1.55325 -1.19868 0
M  V30 1984 O 210.777 -1.00607 -1.91591 0
M  V30 1985 C 211.372 -3.35684 0.458475 0
M  V30 1986 C 209.931 -3.76245 0.108161 0
M  V30 1987 C 209.078 -2.66749 0.757641 0
M  V30 1988 H 212.029 -1.33116 0.864051 0
M  V30 1989 H 212.05 -3.79365 -0.293683 0
M  V30 1990 H 211.562 -3.572 1.51755 0
M  V30 1991 H 209.663 -3.60338 -0.948014 0
M  V30 1992 H 209.776 -4.76058 0.538992 0
M  V30 1993 H 208.14 -2.53989 0.190185 0
M  V30 1994 H 208.923 -2.91092 1.81989 0
M  V30 1995 N 211.368 -0.403325 -1.52352 0
M  V30 1996 C 212.616 0.174003 -2.0135 0
M  V30 1997 C 212.937 1.46139 -1.29106 0
M  V30 1998 O 212.207 1.91448 -0.415253 0
M  V30 1999 H 210.787 0.0672911 -0.743963 0
M  V30 2000 H 213.449 -0.538235 -1.87321 0
M  V30 2001 H 212.545 0.374254 -3.09848 0
M  V30 2002 N 212.846 1.57033 -0.133567 0
M  V30 2003 C 213.776 2.1909 0.807567 0
M  V30 2004 C 214.757 1.13517 1.26681 0
M  V30 2005 O 215.942 1.41809 1.32679 0
M  V30 2006 C 213.072 2.80188 2.05212 0
M  V30 2007 C 212.026 3.91471 1.73015 0
M  V30 2008 C 211.352 4.39443 3.04622 0
M  V30 2009 C 212.652 5.12886 0.987168 0
M  V30 2010 H 214.346 2.97988 0.290403 0
M  V30 2011 H 211.892 1.43335 0.138239 0
M  V30 2012 H 213.845 3.22264 2.71521 0
M  V30 2013 H 212.569 1.98601 2.59278 0
M  V30 2014 H 211.228 3.49993 1.0909 0
M  V30 2015 H 210.876 3.54695 3.56651 0
M  V30 2016 H 210.576 5.14495 2.83847 0
M  V30 2017 H 212.1 4.8418 3.72024 0
M  V30 2018 H 213.514 5.51891 1.55208 0
M  V30 2019 H 211.911 5.93615 0.87985 0
M  V30 2020 H 212.981 4.84894 -0.0235286 0
M  V30 2021 N 214.325 -0.140222 1.56975 0
M  V30 2022 C 215.736 -0.699596 1.73097 0
M  V30 2023 C 216.087 -1.8134 0.749022 0
M  V30 2024 O 215.212 -2.16241 -0.0828503 0
M  V30 2025 C 215.807 -1.27582 3.1386 0
M  V30 2026 C 214.366 -1.78169 3.31561 0
M  V30 2027 C 213.513 -0.672855 2.69013 0
M  V30 2028 H 216.464 0.0855115 1.58469 0
M  V30 2029 H 216.485 -2.14561 3.14235 0
M  V30 2030 H 215.997 -0.464955 3.85305 0
M  V30 2031 H 214.098 -2.61801 2.65124 0
M  V30 2032 H 214.211 -1.90574 4.39566 0
M  V30 2033 H 212.575 -1.10118 2.29665 0
M  V30 2034 H 213.358 0.126679 3.43066 0
M  V30 2035 N 215.803 -1.52179 -0.40978 0
M  V30 2036 C 217.214 -1.58377 -0.988615 0
M  V30 2037 C 217.565 -0.423879 -1.91566 0
M  V30 2038 O 216.69 0.455844 -2.11544 0
M  V30 2039 C 217.285 -2.87044 -1.79976 0
M  V30 2040 C 215.844 -2.95722 -2.32863 0
M  V30 2041 C 214.991 -2.53309 -1.12828 0
M  V30 2042 H 217.942 -1.57558 -0.190039 0
M  V30 2043 H 217.963 -2.7236 -2.65707 0
M  V30 2044 H 217.475 -3.71444 -1.12478 0
M  V30 2045 H 215.576 -2.15814 -3.03735 0
M  V30 2046 H 215.689 -3.99951 -2.63773 0
M  V30 2047 H 214.053 -2.07142 -1.48204 0
M  V30 2048 H 214.836 -3.40082 -0.46897 0
M  V30 2049 N 217.281 0.66697 -1.42791 0
M  V30 2050 C 218.692 1.2478 -1.38877 0
M  V30 2051 C 219.043 1.96012 -0.0859426 0
M  V30 2052 O 218.168 2.00463 0.815081 0
M  V30 2053 C 218.763 2.26938 -2.51564 0
M  V30 2054 C 217.322 2.80529 -2.50959 0
M  V30 2055 C 216.469 1.54965 -2.29959 0
M  V30 2056 H 219.42 0.459853 -1.51892 0
M  V30 2057 H 219.441 3.08834 -2.22265 0
M  V30 2058 H 218.953 1.75065 -3.46372 0
M  V30 2059 H 217.054 3.36502 -1.59991 0
M  V30 2060 H 217.167 3.29012 -3.48265 0
M  V30 2061 H 215.531 1.81817 -1.78366 0
M  V30 2062 H 216.314 1.05047 -3.26833 0
M  V30 2063 N 218.759 1.29093 0.90403 0
M  V30 2064 C 219.722 1.1386 1.98919 0
M  V30 2065 C 220.722 0.0753457 1.60623 0
M  V30 2066 O 221.912 0.321931 1.71199 0
M  V30 2067 C 219.044 0.740198 3.32767 0
M  V30 2068 H 220.237 2.10246 2.13861 0
M  V30 2069 H 217.79 1.12218 1.08797 0
M  V30 2070 H 218.525 -0.223997 3.23525 0
M  V30 2071 H 218.31 1.50838 3.61926 0
M  V30 2072 H 219.8 0.656546 4.12407 0
M  V30 2073 N 220.237 -1.11381 1.11499 0
M  V30 2074 C 221.648 -1.6465 0.880191 0
M  V30 2075 C 221.999 -1.87199 -0.587434 0
M  V30 2076 O 221.124 -1.60667 -1.44966 0
M  V30 2077 C 221.719 -2.99105 1.59128 0
M  V30 2078 C 220.278 -3.49279 1.40289 0
M  V30 2079 C 219.425 -2.24077 1.63354 0
M  V30 2080 H 222.376 -0.950123 1.27116 0
M  V30 2081 H 222.397 -3.66107 1.03664 0
M  V30 2082 H 221.909 -2.82661 2.65941 0
M  V30 2083 H 220.01 -3.70887 0.356888 0
M  V30 2084 H 220.123 -4.2803 2.15238 0
M  V30 2085 H 218.487 -2.31733 1.05698 0
M  V30 2086 H 219.27 -2.10175 2.71443 0
M  V30 2087 N 221.715 -0.905404 -1.28997 0
M  V30 2088 C 223.126 -0.581953 -1.77398 0
M  V30 2089 C 223.477 0.902552 -1.74208 0
M  V30 2090 O 222.602 1.70584 -1.33154 0
M  V30 2091 C 223.197 -1.04961 -3.22131 0
M  V30 2092 C 221.756 -0.777229 -3.68288 0
M  V30 2093 C 220.903 -1.22109 -2.48967 0
M  V30 2094 H 223.854 -1.08754 -1.15578 0
M  V30 2095 H 223.875 -0.387387 -3.78523 0
M  V30 2096 H 223.387 -2.13008 -3.24421 0
M  V30 2097 H 221.488 0.290383 -3.71467 0
M  V30 2098 H 221.601 -1.37911 -4.58822 0
M  V30 2099 H 219.965 -0.639971 -2.46529 0
M  V30 2100 H 220.748 -2.30972 -2.53982 0
M  V30 2101 N 223.193 1.4272 -0.668489 0
M  V30 2102 C 224.441 2.01226 -0.187769 0
M  V30 2103 C 224.762 1.53092 1.2078 0
M  V30 2104 O 224.032 0.74993 1.80977 0
M  V30 2105 H 222.612 0.744041 -0.0664272 0
M  V30 2106 H 225.274 1.74723 -0.863583 0
M  V30 2107 H 224.37 3.11556 -0.184166 0
M  V30 2108 N 224.671 0.411399 1.52136 0
M  V30 2109 C 225.918 -0.163645 2.01838 0
M  V30 2110 C 226.246 -1.4495 1.29691 0
M  V30 2111 O 225.501 -1.91725 0.392431 0
M  V30 2112 C 225.8 -0.455872 3.54481 0
M  V30 2113 C 225.466 0.741055 4.44769 0
M  V30 2114 C 224.128 1.06936 4.69167 0
M  V30 2115 C 226.48 1.54075 4.97906 0
M  V30 2116 C 223.808 2.19851 5.43951 0
M  V30 2117 C 226.16 2.66067 5.73926 0
M  V30 2118 C 224.824 2.99381 5.96596 0
M  V30 2119 H 224.094 -0.0598821 0.738576 0
M  V30 2120 H 226.741 0.553283 1.83333 0
M  V30 2121 H 225.046 -1.2544 3.71177 0
M  V30 2122 H 226.743 -0.913802 3.90449 0
M  V30 2123 H 223.333 0.475192 4.25958 0
M  V30 2124 H 227.517 1.30033 4.78963 0
M  V30 2125 H 222.773 2.46006 5.59724 0
M  V30 2126 H 226.947 3.28419 6.14096 0
M  V30 2127 H 224.574 3.86992 6.54325 0
M  V30 2128 N 226.149 -1.5696 0.141893 0
M  V30 2129 C 227.374 -2.00754 -0.520838 0
M  V30 2130 C 227.799 -1.0213 -1.57959 0
M  V30 2131 O 227.157 0.00371324 -1.813 0
M  V30 2132 C 227.205 -3.43318 -1.10294 0
M  V30 2133 O 226.309 -3.47679 -2.21795 0
M  V30 2134 H 225.65 -0.651564 -0.127908 0
M  V30 2135 H 228.18 -2.03221 0.23712 0
M  V30 2136 H 228.19 -3.82012 -1.43287 0
M  V30 2137 H 226.865 -4.14608 -0.327574 0
M  V30 2138 H 225.442 -3.20824 -1.9007 0
M  V30 2139 N 227.627 0.131896 -1.57047 0
M  V30 2140 C 228.875 0.840269 -1.83804 0
M  V30 2141 C 229.196 1.81017 -0.72512 0
M  V30 2142 O 228.466 1.94272 0.251995 0
M  V30 2143 H 227.046 0.313294 -0.678127 0
M  V30 2144 H 229.708 0.122294 -1.94516 0
M  V30 2145 H 228.804 1.39335 -2.79271 0
M  V30 2146 N 229.106 1.52395 0.401703 0
M  V30 2147 C 230.517 1.58899 0.980202 0
M  V30 2148 C 230.868 0.434032 1.91339 0
M  V30 2149 O 229.993 -0.444619 2.11783 0
M  V30 2150 C 230.588 2.87994 1.78451 0
M  V30 2151 C 229.147 2.96953 2.31292 0
M  V30 2152 C 228.294 2.53903 1.11483 0
M  V30 2153 H 231.245 1.57657 0.18168 0
M  V30 2154 H 231.266 2.73765 2.64259 0
M  V30 2155 H 230.778 3.72035 1.10506 0
M  V30 2156 H 228.879 2.17422 3.02586 0
M  V30 2157 H 228.992 4.01344 2.61649 0
M  V30 2158 H 227.356 2.07925 1.47104 0
M  V30 2159 H 228.139 3.40326 0.450928 0
M  V30 2160 N 230.584 -0.659388 1.43143 0
M  V30 2161 C 231.83 -1.42145 1.44647 0
M  V30 2162 C 232.163 -1.9408 0.0681907 0
M  V30 2163 O 231.438 -1.71899 -0.910007 0
M  V30 2164 C 231.721 -2.60735 2.48373 0
M  V30 2165 C 231.574 -2.14332 3.95451 0
M  V30 2166 C 232.893 -3.62951 2.48906 0
M  V30 2167 H 230.012 -0.51552 0.526696 0
M  V30 2168 H 232.654 -0.748069 1.74654 0
M  V30 2169 H 230.804 -3.18184 2.22916 0
M  V30 2170 H 232.476 -1.61932 4.31944 0
M  V30 2171 H 230.719 -1.4576 4.08578 0
M  V30 2172 H 231.39 -2.99583 4.63631 0
M  V30 2173 H 233.866 -3.1525 2.71582 0
M  V30 2174 H 232.742 -4.43487 3.23435 0
M  V30 2175 H 233.003 -4.15126 1.52061 0
M  V30 2176 N 232.062 -1.29571 -0.897171 0
M  V30 2177 C 233.287 -1.20705 -1.68656 0
M  V30 2178 C 233.712 0.228582 -1.86706 0
M  V30 2179 O 233.07 1.16494 -1.3892 0
M  V30 2180 C 233.118 -1.9282 -3.04717 0
M  V30 2181 O 232.222 -1.24697 -3.93096 0
M  V30 2182 H 231.563 -0.418126 -0.515816 0
M  V30 2183 H 234.093 -1.71183 -1.12061 0
M  V30 2184 H 234.103 -2.01372 -3.54843 0
M  V30 2185 H 232.778 -2.97239 -2.90899 0
M  V30 2186 H 231.355 -1.2442 -3.51531 0
M  V30 2187 N 233.54 1.10788 -1.12088 0
M  V30 2188 C 234.765 1.87002 -0.896949 0
M  V30 2189 C 235.19 1.79933 0.548261 0
M  V30 2190 O 234.548 1.16662 1.38779 0
M  V30 2191 C 234.596 3.3349 -1.37174 0
M  V30 2192 O 233.7 4.08745 -0.547831 0
M  V30 2193 H 233.041 0.580397 -0.322545 0
M  V30 2194 H 235.571 1.39996 -1.49206 0
M  V30 2195 H 235.581 3.84339 -1.36922 0
M  V30 2196 H 234.256 3.37951 -2.42408 0
M  V30 2197 H 232.833 3.6776 -0.617034 0
M  V30 2198 N 235.018 0.912232 1.28515 0
M  V30 2199 C 236.429 0.591352 1.77087 0
M  V30 2200 C 236.78 -0.8933 1.74684 0
M  V30 2201 O 235.905 -1.69876 1.34056 0
M  V30 2202 C 236.5 1.06668 3.2157 0
M  V30 2203 C 235.059 0.79675 3.67871 0
M  V30 2204 C 234.206 1.23427 2.48316 0
M  V30 2205 H 237.157 1.09365 1.15 0
M  V30 2206 H 237.178 0.407455 3.78312 0
M  V30 2207 H 236.69 2.14726 3.23287 0
M  V30 2208 H 234.791 -0.270679 3.71616 0
M  V30 2209 H 234.904 1.40343 4.58084 0
M  V30 2210 H 233.268 0.653036 2.46186 0
M  V30 2211 H 234.051 2.32316 2.52753 0
M  V30 2212 N 236.496 -1.42363 0.676048 0
M  V30 2213 C 237.428 -2.29164 -0.0404605 0
M  V30 2214 C 238.441 -1.43747 -0.764245 0
M  V30 2215 O 239.63 -1.67453 -0.618195 0
M  V30 2216 C 236.73 -3.21196 -1.08103 0
M  V30 2217 C 235.903 -4.35273 -0.430812 0
M  V30 2218 C 234.962 -5.08017 -1.37133 0
M  V30 2219 O 233.988 -5.62494 -0.87116 0
M  V30 2220 N 235.19 -5.13647 -2.70456 0
M  V30 2221 H 237.955 -2.91298 0.704667 0
M  V30 2222 H 235.516 -1.53303 0.520559 0
M  V30 2223 H 237.508 -3.66728 -1.71152 0
M  V30 2224 H 236.078 -2.60505 -1.72788 0
M  V30 2225 H 235.298 -3.92372 0.379209 0
M  V30 2226 H 236.586 -5.08795 0.0221132 0
M  V30 2227 H 235.984 -4.708 -3.1363 0
M  V30 2228 H 234.541 -5.62821 -3.28749 0
M  V30 2229 N 237.974 -0.419461 -1.51915 0
M  V30 2230 C 239.223 0.154346 -2.01109 0
M  V30 2231 C 239.536 1.45338 -1.30905 0
M  V30 2232 O 240.742 2.10906 -1.7097 0
M  V30 2233 C 239.198 0.325615 -3.58424 0
M  V30 2234 C 238.806 -0.961934 -4.37551 0
M  V30 2235 C 240.55 0.854155 -4.15818 0
M  V30 2236 C 238.457 -0.757287 -5.86531 0
M  V30 2237 H 237.387 0.0614563 -0.751491 0
M  V30 2238 H 240.038 -0.54649 -1.75173 0
M  V30 2239 H 238.42 1.08903 -3.80731 0
M  V30 2240 H 239.594 -1.7323 -4.26999 0
M  V30 2241 H 237.909 -1.41766 -3.91524 0
M  V30 2242 H 240.506 1.02346 -5.24814 0
M  V30 2243 H 240.849 1.83172 -3.73837 0
M  V30 2244 H 241.382 0.149528 -3.97519 0
M  V30 2245 H 238.121 -1.70671 -6.32892 0
M  V30 2246 H 237.641 -0.0264061 -5.99794 0
M  V30 2247 H 239.32 -0.403482 -6.45741 0
M  V30 2248 N 239.452 1.56882 -0.150215 0
M  V30 2249 C 240.4 2.18214 0.805313 0
M  V30 2250 C 241.394 1.14006 1.25296 0
M  V30 2251 O 242.6 1.3225 1.22107 0
M  V30 2252 H 238.975 0.698762 0.277913 0
M  V30 2253 H 240.946 2.97231 0.263862 0
M  V30 2254 C 239.695 2.82065 2.03309 0
M  V30 2255 H 239.018 3.61968 1.69763 0
M  V30 2256 H 240.458 3.28477 2.68103 0
M  V30 2257 C 238.917 1.80739 2.84315 0
M  V30 2258 O 239.447 1.27983 3.80767 0
M  V30 2259 N 237.653 1.4997 2.48913 0
M  V30 2260 H 237.2 1.93062 1.70542 0
M  V30 2261 H 237.158 0.824217 3.03404 0
M  V30 2262 N 240.93 -0.123565 1.57115 0
M  V30 2263 C 242.155 -0.850398 1.89164 0
M  V30 2264 C 242.58 -1.7286 0.741688 0
M  V30 2265 O 241.938 -1.78665 -0.307958 0
M  V30 2266 C 241.986 -1.66353 3.19936 0
M  V30 2267 O 241.09 -2.77004 3.0552 0
M  V30 2268 H 240.431 -0.235454 0.620852 0
M  V30 2269 H 242.961 -0.107335 2.04318 0
M  V30 2270 H 242.971 -2.05372 3.52543 0
M  V30 2271 H 241.646 -1.01881 4.03228 0
M  V30 2272 H 240.223 -2.41221 2.84371 0
M  V30 2273 N 242.408 -1.52605 -0.393616 0
M  V30 2274 C 243.636 -1.71294 -1.16043 0
M  V30 2275 C 244.051 -0.429259 -1.83855 0
M  V30 2276 O 243.408 0.595921 -1.72496 0
M  V30 2277 C 243.459 -2.8593 -2.21193 0
M  V30 2278 O 243.18 -4.09329 -1.56146 0
M  V30 2279 C 244.681 -3.16259 -3.10636 0
M  V30 2280 H 241.901 -0.573641 -0.348104 0
M  V30 2281 H 244.445 -1.99234 -0.461092 0
M  V30 2282 H 242.6 -2.60465 -2.86769 0
M  V30 2283 H 243.014 -4.73323 -2.25978 0
M  V30 2284 H 244.488 -3.99946 -3.80456 0
M  V30 2285 H 244.965 -2.3045 -3.73884 0
M  V30 2286 H 245.571 -3.43547 -2.50711 0
M  V30 2287 N 243.887 0.651787 -1.4349 0
M  V30 2288 C 245.133 1.41376 -1.45398 0
M  V30 2289 C 245.466 1.94041 -0.0784823 0
M  V30 2290 O 244.741 1.72379 0.900878 0
M  V30 2291 C 245.024 2.59414 -2.49752 0
M  V30 2292 C 244.877 2.12232 -3.96582 0
M  V30 2293 C 246.196 3.61626 -2.50827 0
M  V30 2294 H 243.315 0.512719 -0.529422 0
M  V30 2295 H 245.957 0.738796 -1.75048 0
M  V30 2296 H 244.107 3.16997 -2.246 0
M  V30 2297 H 245.779 1.59639 -4.32797 0
M  V30 2298 H 244.022 1.43592 -4.09346 0
M  V30 2299 H 244.693 2.9712 -4.65214 0
M  V30 2300 H 247.169 3.13805 -2.7325 0
M  V30 2301 H 246.045 4.41766 -3.25783 0
M  V30 2302 H 246.306 4.14314 -1.5426 0
M  V30 2303 N 245.365 1.30045 0.890287 0
M  V30 2304 C 246.59 1.21598 1.68014 0
M  V30 2305 C 247.015 -0.218678 1.86825 0
M  V30 2306 O 246.373 -1.15756 1.39536 0
M  V30 2307 C 246.421 1.94434 3.03691 0
M  V30 2308 O 245.525 1.2678 3.92429 0
M  V30 2309 H 244.866 0.420856 0.513592 0
M  V30 2310 H 247.396 1.71775 1.11151 0
M  V30 2311 H 247.406 2.03251 3.5377 0
M  V30 2312 H 246.081 2.98777 2.89318 0
M  V30 2313 H 244.658 1.26282 3.50866 0
M  V30 2314 N 246.843 -1.10192 1.12674 0
M  V30 2315 C 247.773 -2.18652 0.819362 0
M  V30 2316 C 248.754 -1.68698 -0.217915 0
M  V30 2317 O 249.939 -1.94041 -0.0785581 0
M  V30 2318 C 247.069 -3.46202 0.27594 0
M  V30 2319 C 246.023 -4.09444 1.24656 0
M  V30 2320 C 245.349 -5.31725 0.563258 0
M  V30 2321 C 246.649 -4.52863 2.60217 0
M  V30 2322 H 248.343 -2.44622 1.72628 0
M  V30 2323 H 245.889 -1.17571 0.831451 0
M  V30 2324 H 247.842 -4.21372 0.0486149 0
M  V30 2325 H 246.566 -3.1973 -0.666331 0
M  V30 2326 H 245.225 -3.36284 1.45974 0
M  V30 2327 H 244.873 -5.0153 -0.384235 0
M  V30 2328 H 244.573 -5.74991 1.21075 0
M  V30 2329 H 246.097 -6.09624 0.34503 0
M  V30 2330 H 247.511 -5.19294 2.42913 0
M  V30 2331 H 245.908 -5.06986 3.21068 0
M  V30 2332 H 246.978 -3.65656 3.18471 0
M  V30 2333 N 248.321 -0.919034 -1.28029 0
M  V30 2334 C 249.732 -0.600735 -1.76771 0
M  V30 2335 C 250.083 0.884024 -1.75156 0
M  V30 2336 O 249.208 1.69163 -1.34956 0
M  V30 2337 C 249.803 -1.08372 -3.21 0
M  V30 2338 C 248.362 -0.816248 -3.67443 0
M  V30 2339 C 247.509 -1.24742 -2.47658 0
M  V30 2340 H 250.46 -1.09974 -1.14418 0
M  V30 2341 H 250.481 -0.427512 -3.78091 0
M  V30 2342 H 249.993 -2.16437 -3.22144 0
M  V30 2343 H 248.094 0.250968 -3.71754 0
M  V30 2344 H 248.207 -1.4277 -4.57333 0
M  V30 2345 H 246.571 -0.666083 -2.45836 0
M  V30 2346 H 247.354 -2.33653 -2.51518 0
M  V30 2347 N 249.799 1.42003 -0.683588 0
M  V30 2348 C 251.047 2.01015 -0.209101 0
M  V30 2349 C 251.368 1.54365 1.19149 0
M  V30 2350 O 250.638 0.769083 1.80172 0
M  V30 2351 H 249.218 0.743294 -0.074315 0
M  V30 2352 H 251.88 1.73798 -0.882066 0
M  V30 2353 H 250.976 3.11343 -0.2172 0
M  V30 2354 N 251.277 0.427512 1.51691 0
M  V30 2355 C 252.525 -0.141948 2.01601 0
M  V30 2356 C 252.846 -1.44067 1.31414 0
M  V30 2357 O 252.116 -1.90763 0.445658 0
M  V30 2358 H 250.696 -0.0554468 0.744939 0
M  V30 2359 H 253.358 0.567968 1.86441 0
M  V30 2360 H 252.454 -0.324913 3.10404 0
M  V30 2361 N 252.755 -1.56801 0.158532 0
M  V30 2362 C 254.003 -1.96102 -0.488712 0
M  V30 2363 C 254.324 -1.04498 -1.64636 0
M  V30 2364 O 253.594 -0.108783 -1.95598 0
M  V30 2365 H 252.174 -0.724102 -0.183535 0
M  V30 2366 H 254.836 -1.93457 0.236728 0
M  V30 2367 H 253.932 -3.00097 -0.857219 0
M  V30 2368 N 254.233 0.115231 -1.57178 0
M  V30 2369 C 255.458 0.840354 -1.89612 0
M  V30 2370 C 255.883 1.72464 -0.750845 0
M  V30 2371 O 255.241 1.78826 0.298478 0
M  V30 2372 C 255.289 1.64654 -3.20814 0
M  V30 2373 O 254.393 2.7538 -3.06985 0
M  V30 2374 H 253.734 0.232158 -0.622092 0
M  V30 2375 H 256.264 0.0964977 -2.04372 0
M  V30 2376 H 256.274 2.03499 -3.53627 0
M  V30 2377 H 254.949 0.997416 -4.03763 0
M  V30 2378 H 253.526 2.3971 -2.85646 0
M  V30 2379 N 255.711 1.52812 0.385517 0
M  V30 2380 C 256.959 1.67694 1.12797 0
M  V30 2381 C 257.28 0.421115 1.90399 0
M  V30 2382 O 256.55 -0.564551 1.87589 0
M  V30 2383 H 255.13 0.618155 0.419396 0
M  V30 2384 H 257.792 1.89938 0.436972 0
M  V30 2385 H 256.888 2.52896 1.82894 0
M  V30 2386 N 257.189 -0.644168 1.43834 0
M  V30 2387 C 258.6 -1.22554 1.40845 0
M  V30 2388 C 258.951 -1.9585 0.117115 0
M  V30 2389 O 258.076 -2.01734 -0.783086 0
M  V30 2390 C 258.671 -2.22907 2.55143 0
M  V30 2391 C 257.23 -2.76501 2.5539 0
M  V30 2392 C 256.377 -1.51287 2.32396 0
M  V30 2393 H 259.328 -0.43563 1.52604 0
M  V30 2394 H 259.349 -3.05259 2.2715 0
M  V30 2395 H 258.861 -1.69533 3.49114 0
M  V30 2396 H 256.962 -3.33914 1.65324 0
M  V30 2397 H 257.075 -3.23429 3.53455 0
M  V30 2398 H 255.439 -1.78957 1.81236 0
M  V30 2399 H 256.222 -0.998336 3.28463 0
M  V30 2400 N 258.668 -1.30515 -0.883378 0
M  V30 2401 C 260.079 -1.17509 -1.45081 0
M  V30 2402 C 260.43 0.223605 -1.94922 0
M  V30 2403 O 259.555 1.12041 -1.85137 0
M  V30 2404 C 260.15 -2.12715 -2.63701 0
M  V30 2405 C 258.709 -2.03682 -3.16529 0
M  V30 2406 C 257.856 -2.02706 -1.89224 0
M  V30 2407 H 260.807 -1.42762 -0.693165 0
M  V30 2408 H 260.828 -1.70891 -3.39965 0
M  V30 2409 H 260.34 -3.14505 -2.27395 0
M  V30 2410 H 258.441 -1.05039 -3.57488 0
M  V30 2411 H 258.554 -2.92146 -3.7972 0
M  V30 2412 H 256.918 -1.4753 -2.07622 0
M  V30 2413 H 257.701 -3.06229 -1.55174 0
M  V30 2414 N 260.146 1.09593 -1.13257 0
M  V30 2415 C 261.056 2.19739 -0.821691 0
M  V30 2416 C 262.072 1.72926 0.19302 0
M  V30 2417 O 263.248 2.01385 0.0244895 0
M  V30 2418 C 260.313 3.45482 -0.290333 0
M  V30 2419 C 259.374 4.06985 -1.36607 0
M  V30 2420 C 258.607 5.26726 -0.859975 0
M  V30 2421 O 258.83 5.69594 0.303082 0
M  V30 2422 O 257.764 5.7931 -1.63351 0
M  V30 2423 H 261.59 2.48781 -1.74189 0
M  V30 2424 H 259.175 1.18496 -0.909894 0
M  V30 2425 H 261.057 4.214 0.000674022 0
M  V30 2426 H 259.732 3.18047 0.602306 0
M  V30 2427 H 258.639 3.32712 -1.71037 0
M  V30 2428 H 259.972 4.38643 -2.23279 0
M  V30 2429 N 261.624 0.925811 1.2754 0
M  V30 2430 C 262.901 0.483726 1.89524 0
M  V30 2431 C 263.281 -1.03809 1.83812 0
M  V30 2432 O 262.629 -1.89143 1.28207 0
M  V30 2433 C 262.839 1.02769 3.33526 0
M  V30 2434 C 264.187 1.08703 4.10449 0
M  V30 2435 O 265.211 0.977175 3.42534 0
M  V30 2436 O 264.07 1.25599 5.31871 0
M  V30 2437 H 261.164 0.15529 0.812289 0
M  V30 2438 H 263.71 1.01738 1.35822 0
M  V30 2439 H 262.482 2.07155 3.31967 0
M  V30 2440 H 262.105 0.475567 3.94746 0
M  V30 2441 N 263.102 -1.41638 0.69111 0
M  V30 2442 C 264.348 -2.01598 0.220519 0
M  V30 2443 C 264.681 -1.54594 -1.17535 0
M  V30 2444 O 263.956 -0.755177 -1.79241 0
M  V30 2445 C 264.239 -3.59062 0.273243 0
M  V30 2446 C 264.092 -4.16203 1.70573 0
M  V30 2447 C 265.411 -4.38546 -0.369457 0
M  V30 2448 H 262.53 -0.732468 0.0816045 0
M  V30 2449 H 265.172 -1.68445 0.878986 0
M  V30 2450 H 263.322 -3.87435 -0.287411 0
M  V30 2451 H 264.994 -3.98722 2.31989 0
M  V30 2452 H 263.237 -3.71414 2.2413 0
M  V30 2453 H 263.908 -5.25358 1.69419 0
M  V30 2454 H 266.384 -4.1596 0.107977 0
M  V30 2455 H 265.26 -5.48069 -0.302002 0
M  V30 2456 H 265.521 -4.17662 -1.44951 0
M  V30 2457 N 264.58 -0.43555 -1.51462 0
M  V30 2458 C 265.527 0.376797 -2.27703 0
M  V30 2459 C 266.497 1.01838 -1.31219 0
M  V30 2460 O 267.682 1.03762 -1.60119 0
M  V30 2461 C 264.822 1.47301 -3.12084 0
M  V30 2462 C 263.935 0.849744 -4.2356 0
M  V30 2463 C 263.07 1.92086 -4.95254 0
M  V30 2464 C 262.109 1.27593 -5.98654 0
M  V30 2465 N 261.246 2.28833 -6.63762 0
M  V30 2466 H 266.086 -0.279734 -2.96684 0
M  V30 2467 H 263.623 -0.149795 -1.46335 0
M  V30 2468 H 265.581 2.11984 -3.59331 0
M  V30 2469 H 264.211 2.0992 -2.45221 0
M  V30 2470 H 263.263 0.0912529 -3.80291 0
M  V30 2471 H 264.575 0.338878 -4.97648 0
M  V30 2472 H 263.729 2.64435 -5.46039 0
M  V30 2473 H 262.468 2.46545 -4.20793 0
M  V30 2474 H 261.473 0.537893 -5.47162 0
M  V30 2475 H 262.698 0.738693 -6.7507 0
M  V30 2476 H 260.644 2.82375 -5.92115 0
M  V30 2477 H 260.561 1.82632 -7.33608 0
M  V30 2478 H 261.829 3.00671 -7.19178 0
M  V30 2479 N 266.058 1.56714 -0.166846 0
M  V30 2480 C 267.469 1.83378 0.350646 0
M  V30 2481 C 267.82 1.08646 1.63372 0
M  V30 2482 O 266.945 0.338058 2.13743 0
M  V30 2483 C 267.54 3.32643 0.642963 0
M  V30 2484 C 266.099 3.59818 1.10491 0
M  V30 2485 C 265.246 2.76954 0.138411 0
M  V30 2486 H 268.197 1.53803 -0.391193 0
M  V30 2487 H 268.218 3.49878 1.49551 0
M  V30 2488 H 267.73 3.87007 -0.291055 0
M  V30 2489 H 265.831 3.1086 2.05418 0
M  V30 2490 H 265.944 4.68178 1.01716 0
M  V30 2491 H 264.308 2.4666 0.634911 0
M  V30 2492 H 265.091 3.34097 -0.789549 0
M  V30 2493 N 267.536 -0.106894 1.57237 0
M  V30 2494 C 268.947 -0.662723 1.74542 0
M  V30 2495 C 269.298 -1.7971 0.787319 0
M  V30 2496 O 268.423 -2.16368 -0.0369636 0
M  V30 2497 C 269.018 -1.20896 3.16496 0
M  V30 2498 C 267.577 -1.71096 3.35266 0
M  V30 2499 C 266.724 -0.615642 2.7038 0
M  V30 2500 H 269.675 0.119106 1.58252 0
M  V30 2501 H 269.696 -2.07847 3.18716 0
M  V30 2502 H 269.208 -0.383122 3.86204 0
M  V30 2503 H 267.309 -2.56119 2.70618 0
M  V30 2504 H 267.422 -1.81208 4.43509 0
M  V30 2505 H 265.786 -1.05222 2.31949 0
M  V30 2506 H 266.569 0.199419 3.4272 0
M  V30 2507 N 269.014 -1.53014 -0.377408 0
M  V30 2508 C 270.26 -1.68872 -1.12294 0
M  V30 2509 C 270.593 -0.433224 -1.89306 0
M  V30 2510 O 269.868 0.569258 -1.85983 0
M  V30 2511 C 270.151 -2.93115 -2.09179 0
M  V30 2512 C 270.004 -4.28794 -1.35853 0
M  V30 2513 C 271.323 -3.12928 -3.09458 0
M  V30 2514 H 268.442 -0.614518 -0.406862 0
M  V30 2515 H 271.084 -1.85633 -0.40503 0
M  V30 2516 H 269.234 -2.78956 -2.70399 0
M  V30 2517 H 270.906 -4.54742 -0.775082 0
M  V30 2518 H 269.149 -4.28744 -0.660364 0
M  V30 2519 H 269.82 -5.11837 -2.06706 0
M  V30 2520 H 272.296 -3.26194 -2.58334 0
M  V30 2521 H 271.172 -4.01316 -3.74482 0
M  V30 2522 H 271.433 -2.27669 -3.78971 0
M  V30 2523 N 270.492 0.636531 -1.44174 0
M  V30 2524 C 271.422 1.76003 -1.53444 0
M  V30 2525 C 272.403 1.65619 -0.387841 0
M  V30 2526 O 273.588 1.84461 -0.607257 0
M  V30 2527 C 270.718 3.14511 -1.4731 0
M  V30 2528 C 269.672 3.39677 -2.60391 0
M  V30 2529 C 268.998 4.78159 -2.39308 0
M  V30 2530 C 270.298 3.32772 -4.02567 0
M  V30 2531 H 271.992 1.68501 -2.47483 0
M  V30 2532 H 269.538 0.809237 -1.19111 0
M  V30 2533 H 271.491 3.92878 -1.52397 0
M  V30 2534 H 270.215 3.22783 -0.49785 0
M  V30 2535 H 268.874 2.63688 -2.54684 0
M  V30 2536 H 268.522 4.83128 -1.39988 0
M  V30 2537 H 268.222 4.95956 -3.15122 0
M  V30 2538 H 269.746 5.58762 -2.46205 0
M  V30 2539 H 271.16 4.01051 -4.09672 0
M  V30 2540 H 269.557 3.62104 -4.7854 0
M  V30 2541 H 270.627 2.30669 -4.2652 0
M  V30 2542 N 271.97 1.30982 0.876444 0
M  V30 2543 C 273.218 1.20058 1.62575 0
M  V30 2544 C 273.539 -0.242947 1.93481 0
M  V30 2545 O 272.809 -1.1619 1.57724 0
M  V30 2546 H 271.389 0.44135 0.602677 0
M  V30 2547 H 274.051 1.64222 1.04962 0
M  V30 2548 H 273.147 1.76762 2.57219 0
M  V30 2549 N 273.449 -1.08991 1.13837 0
M  V30 2550 C 274.695 -1.81526 0.90422 0
M  V30 2551 C 275.028 -1.85706 -0.568066 0
M  V30 2552 O 274.303 -1.32855 -1.42056 0
M  V30 2553 C 274.586 -3.27447 1.49835 0
M  V30 2554 C 274.439 -3.31512 3.04006 0
M  V30 2555 C 275.758 -4.24256 1.17025 0
M  V30 2556 H 272.877 -0.659029 0.329923 0
M  V30 2557 H 275.519 -1.27644 1.40737 0
M  V30 2558 H 273.669 -3.73462 1.07044 0
M  V30 2559 H 275.341 -2.93867 3.55584 0
M  V30 2560 H 273.584 -2.70963 3.38765 0
M  V30 2561 H 274.255 -4.34329 3.40679 0
M  V30 2562 H 276.731 -3.86549 1.54009 0
M  V30 2563 H 275.607 -5.24684 1.61237 0
M  V30 2564 H 275.868 -4.42019 0.0846274 0
M  V30 2565 N 274.927 -0.932562 -1.27047 0
M  V30 2566 C 276.343 -0.633544 -1.46487 0
M  V30 2567 C 276.543 0.815746 -1.84249 0
M  V30 2568 O 275.599 1.59319 -1.95892 0
M  V30 2569 C 276.912 -1.58758 -2.55375 0
M  V30 2570 C 278.46 -1.59634 -2.69232 0
M  V30 2571 C 278.935 -2.53747 -3.81283 0
M  V30 2572 N 280.426 -2.51982 -3.88664 0
M  V30 2573 C 281.161 -3.21491 -4.74796 0
M  V30 2574 N 280.657 -4.00395 -5.65381 0
M  V30 2575 N 282.45 -3.10485 -4.68568 0
M  V30 2576 H 274.601 -1.86946 -1.00821 0
M  V30 2577 H 276.864 -0.802897 -0.504044 0
M  V30 2578 H 276.57 -2.62172 -2.34432 0
M  V30 2579 H 276.444 -1.33301 -3.52861 0
M  V30 2580 H 278.831 -0.569488 -2.89553 0
M  V30 2581 H 278.912 -1.89142 -1.72218 0
M  V30 2582 H 278.556 -3.56545 -3.61715 0
M  V30 2583 H 278.486 -2.21532 -4.77735 0
M  V30 2584 H 280.977 -1.94681 -3.23895 0
M  V30 2585 H 281.29 -4.50406 -6.27976 0
M  V30 2586 H 279.635 -4.04498 -5.65161 0
M  V30 2587 H 282.826 -2.48331 -3.96799 0
M  V30 2588 H 282.999 -3.64925 -5.35475 0
M  V30 2589 N 276.405 1.4127 -0.698611 0
M  V30 2590 C 277.653 2.00782 -0.230409 0
M  V30 2591 C 277.974 1.5562 1.17505 0
M  V30 2592 O 277.244 0.78815 1.79346 0
M  V30 2593 H 275.824 0.742464 -0.0821944 0
M  V30 2594 H 278.486 1.72852 -0.90045 0
M  V30 2595 H 277.582 3.11095 -0.25021 0
M  V30 2596 N 277.883 0.443576 1.51229 0
M  V30 2597 C 278.813 -0.355142 2.30783 0
M  V30 2598 C 279.794 -1.0154 1.36468 0
M  V30 2599 O 280.979 -1.01785 1.65389 0
M  V30 2600 C 278.109 -1.45312 3.15439 0
M  V30 2601 C 277.063 -0.916002 4.18083 0
M  V30 2602 C 276.389 -2.1102 4.91299 0
M  V30 2603 C 277.689 0.0538602 5.22272 0
M  V30 2604 H 279.383 0.308767 2.97804 0
M  V30 2605 H 276.929 0.149937 1.43217 0
M  V30 2606 H 278.882 -2.01914 3.69876 0
M  V30 2607 H 277.606 -2.14541 2.46252 0
M  V30 2608 H 276.265 -0.372145 3.64706 0
M  V30 2609 H 275.913 -2.78882 4.18609 0
M  V30 2610 H 275.613 -1.75717 5.60712 0
M  V30 2611 H 277.137 -2.68164 5.48562 0
M  V30 2612 H 278.551 -0.422069 5.71744 0
M  V30 2613 H 276.948 0.319776 5.99247 0
M  V30 2614 H 278.018 0.98858 4.74716 0
M  V30 2615 N 279.361 -1.56624 0.175154 0
M  V30 2616 C 280.311 -2.14747 -0.766004 0
M  V30 2617 C 281.295 -1.08275 -1.19018 0
M  V30 2618 O 282.487 -1.34388 -1.15191 0
M  V30 2619 C 279.616 -2.79478 -1.99366 0
M  V30 2620 C 278.702 -3.93114 -1.5913 0
M  V30 2621 N 279.093 -4.97752 -0.89872 0
M  V30 2622 C 277.391 -4.04345 -1.88204 0
M  V30 2623 C 278.092 -5.77473 -0.700012 0
M  V30 2624 N 277.068 -5.29207 -1.24263 0
M  V30 2625 H 280.87 -2.93015 -0.22793 0
M  V30 2626 H 278.384 -1.6238 -0.0253843 0
M  V30 2627 H 280.381 -3.19498 -2.67818 0
M  V30 2628 H 279.041 -2.02692 -2.53665 0
M  V30 2629 H 280.052 -5.14903 -0.556347 0
M  V30 2630 H 276.729 -3.38667 -2.44153 0
M  V30 2631 H 278.119 -6.71728 -0.152047 0
M  V30 2632 N 280.839 0.0985539 -1.57292 0
M  V30 2633 C 282.079 0.808332 -1.87737 0
M  V30 2634 C 282.443 1.7607 -0.76572 0
M  V30 2635 O 283.644 2.51358 -0.952499 0
M  V30 2636 C 281.915 1.52093 -3.23423 0
M  V30 2637 S 283.474 2.26947 -3.75554 0
M  V30 2638 H 280.292 0.269377 -0.657995 0
M  V30 2639 H 282.894 0.0656269 -1.9539 0
M  V30 2640 H 281.598 0.81363 -4.02254 0
M  V30 2641 H 281.129 2.30361 -3.189 0
M  V30 2642 H 283.144 3.53027 -3.48692 0
M  V30 2643 N 282.317 1.53212 0.369288 0
M  V30 2644 C 283.728 1.60943 0.946276 0
M  V30 2645 C 284.079 0.47452 1.90375 0
M  V30 2646 O 283.204 -0.399597 2.12679 0
M  V30 2647 C 283.799 2.91715 1.72302 0
M  V30 2648 C 282.358 3.01792 2.24941 0
M  V30 2649 C 281.505 2.56211 1.06072 0
M  V30 2650 H 284.456 1.58007 0.148198 0
M  V30 2651 H 284.477 2.79309 2.58393 0
M  V30 2652 H 283.989 3.74295 1.0259 0
M  V30 2653 H 282.09 2.23791 2.97906 0
M  V30 2654 H 282.203 4.06803 2.53077 0
M  V30 2655 H 280.567 2.10998 1.4266 0
M  V30 2656 H 281.35 3.41206 0.378639 0
M  V30 2657 N 283.795 -0.628877 1.44509 0
M  V30 2658 C 285.206 -1.21054 1.42137 0
M  V30 2659 C 285.557 -1.95715 0.137881 0
M  V30 2660 O 284.682 -2.02554 -0.761645 0
M  V30 2661 C 285.277 -2.20189 2.57493 0
M  V30 2662 C 283.836 -2.73777 2.58308 0
M  V30 2663 C 282.983 -1.48813 2.33987 0
M  V30 2664 H 285.934 -0.41942 1.53057 0
M  V30 2665 H 285.955 -3.02833 2.30375 0
M  V30 2666 H 285.467 -1.6582 3.50892 0
M  V30 2667 H 283.568 -3.32142 1.68856 0
M  V30 2668 H 283.681 -3.19662 3.56865 0
M  V30 2669 H 282.045 -1.77024 1.83124 0
M  V30 2670 H 282.828 -0.963442 3.29504 0
M  V30 2671 N 285.273 -1.31445 -0.869486 0
M  V30 2672 C 286.684 -1.19042 -1.43826 0
M  V30 2673 C 287.035 0.202919 -1.95148 0
M  V30 2674 O 286.16 1.10071 -1.86315 0
M  V30 2675 C 286.755 -2.15499 -2.6143 0
M  V30 2676 C 285.314 -2.07028 -3.14351 0
M  V30 2677 C 284.461 -2.04701 -1.87063 0
M  V30 2678 H 287.412 -1.43489 -0.677984 0
M  V30 2679 H 287.433 -1.74488 -3.38134 0
M  V30 2680 H 286.945 -3.16899 -2.24046 0
M  V30 2681 H 285.046 -1.08825 -3.56354 0
M  V30 2682 H 285.159 -2.96157 -3.766 0
M  V30 2683 H 283.523 -1.49724 -2.06046 0
M  V30 2684 H 284.306 -3.07857 -1.51917 0
M  V30 2685 N 286.751 1.08385 -1.14413 0
M  V30 2686 C 288.162 1.62258 -0.923535 0
M  V30 2687 C 288.513 1.88691 0.537595 0
M  V30 2688 O 287.638 1.64454 1.40655 0
M  V30 2689 C 288.233 2.94781 -1.67002 0
M  V30 2690 C 286.792 3.45437 -1.495 0
M  V30 2691 C 285.939 2.19668 -1.69238 0
M  V30 2692 H 288.89 0.916086 -1.2959 0
M  V30 2693 H 288.911 3.63229 -1.13334 0
M  V30 2694 H 288.423 2.7551 -2.73342 0
M  V30 2695 H 286.524 3.6981 -0.455097 0
M  V30 2696 H 286.637 4.22173 -2.2651 0
M  V30 2697 H 285.001 2.28849 -1.11804 0
M  V30 2698 H 285.784 2.02905 -2.7692 0
M  V30 2699 N 288.23 0.939286 1.26551 0
M  V30 2700 C 289.478 0.58469 1.93457 0
M  V30 2701 C 289.799 -0.878774 1.74076 0
M  V30 2702 O 289.069 -1.62421 1.09528 0
M  V30 2703 H 287.649 0.21325 0.715914 0
M  V30 2704 H 290.311 1.1942 1.54029 0
M  V30 2705 H 289.407 0.800849 3.0165 0
M  V30 2706 N 289.708 -1.40897 0.706093 0
M  V30 2707 C 290.956 -2.00657 0.241054 0
M  V30 2708 C 291.277 -1.56241 -1.16678 0
M  V30 2709 O 290.547 -0.79765 -1.78926 0
M  V30 2710 H 289.127 -0.742018 0.0861308 0
M  V30 2711 H 291.789 -1.72372 0.909604 0
M  V30 2712 H 290.885 -3.10958 0.266705 0
M  V30 2713 N 291.186 -0.45159 -1.50991 0
M  V30 2714 C 292.597 0.00818571 -1.86698 0
M  V30 2715 C 292.948 1.40661 -1.3678 0
M  V30 2716 O 292.073 2.0391 -0.724546 0
M  V30 2717 C 292.668 0.0216303 -3.38793 0
M  V30 2718 C 291.227 0.425865 -3.73983 0
M  V30 2719 C 290.374 -0.372163 -2.74791 0
M  V30 2720 H 293.325 -0.666785 -1.44013 0
M  V30 2721 H 293.346 0.828078 -3.7138 0
M  V30 2722 H 292.858 -0.996288 -3.75094 0
M  V30 2723 H 290.959 1.44886 -3.43277 0
M  V30 2724 H 291.072 0.140761 -4.78893 0
M  V30 2725 H 289.436 0.171498 -2.54122 0
M  V30 2726 H 290.219 -1.38922 -3.13935 0
M  V30 2727 N 292.664 1.56529 -0.183458 0
M  V30 2728 C 293.912 1.96855 0.457452 0
M  V30 2729 C 294.233 1.07104 1.62953 0
M  V30 2730 O 293.503 0.139887 1.954 0
M  V30 2731 H 292.083 0.72693 0.171992 0
M  V30 2732 H 294.745 1.93056 -0.267476 0
M  V30 2733 H 293.841 3.01423 0.809368 0
M  V30 2734 N 294.142 -0.090211 1.57342 0
M  V30 2735 C 295.105 -1.09335 2.01441 0
M  V30 2736 C 296.105 -1.32666 0.908641 0
M  V30 2737 O 297.295 -1.28697 1.174 0
M  V30 2738 C 294.427 -2.44136 2.3793 0
M  V30 2739 H 295.62 -0.713662 2.91285 0
M  V30 2740 H 293.173 -0.335404 1.52659 0
M  V30 2741 H 293.908 -2.86972 1.51055 0
M  V30 2742 H 293.693 -2.28548 3.18603 0
M  V30 2743 H 295.183 -3.16277 2.72688 0
M  V30 2744 N 295.62 -1.53406 -0.361157 0
M  V30 2745 C 296.868 -1.69467 -1.10115 0
M  V30 2746 C 297.189 -0.451352 -1.89705 0
M  V30 2747 O 296.459 0.534636 -1.88463 0
M  V30 2748 H 295.039 -0.624749 -0.409508 0
M  V30 2749 H 297.701 -1.90609 -0.406699 0
M  V30 2750 H 296.797 -2.55774 -1.78847 0
M  V30 2751 N 297.098 0.621204 -1.44841 0
M  V30 2752 C 298.045 1.73267 -1.5247 0
M  V30 2753 C 299.015 1.6189 -0.371611 0
M  V30 2754 O 300.2 1.81668 -0.58321 0
M  V30 2755 C 297.34 3.11545 -1.48438 0
M  V30 2756 C 296.453 3.33827 -2.74196 0
M  V30 2757 C 295.588 4.62133 -2.61929 0
M  V30 2758 C 294.627 4.77627 -3.82804 0
M  V30 2759 N 293.764 5.97219 -3.69153 0
M  V30 2760 H 298.604 1.66082 -2.47428 0
M  V30 2761 H 296.141 0.810026 -1.22788 0
M  V30 2762 H 298.099 3.91528 -1.4409 0
M  V30 2763 H 296.729 3.1772 -0.570402 0
M  V30 2764 H 295.781 2.47715 -2.88689 0
M  V30 2765 H 297.093 3.41153 -3.6389 0
M  V30 2766 H 296.247 5.50291 -2.5547 0
M  V30 2767 H 294.986 4.57182 -1.69811 0
M  V30 2768 H 293.991 3.87896 -3.89637 0
M  V30 2769 H 295.216 4.84385 -4.75971 0
M  V30 2770 H 293.162 5.93339 -2.79794 0
M  V30 2771 H 293.079 6.05644 -4.52472 0
M  V30 2772 H 294.347 6.87912 -3.66603 0
M  V30 2773 N 298.576 1.31904 0.862503 0
M  V30 2774 C 299.992 1.10724 1.14945 0
M  V30 2775 C 300.192 -0.117421 2.01158 0
M  V30 2776 O 299.248 -0.804595 2.39338 0
M  V30 2777 C 300.561 2.38267 1.83437 0
M  V30 2778 C 302.109 2.43949 1.96106 0
M  V30 2779 C 302.584 3.71394 2.68013 0
M  V30 2780 N 304.075 3.72331 2.75543 0
M  V30 2781 C 304.81 4.67641 3.31812 0
M  V30 2782 N 304.306 5.73313 3.88953 0
M  V30 2783 N 306.099 4.5515 3.29841 0
M  V30 2784 H 298.25 2.10436 0.288191 0
M  V30 2785 H 300.513 0.928705 0.190292 0
M  V30 2786 H 300.219 3.27759 1.27542 0
M  V30 2787 H 300.093 2.48633 2.83657 0
M  V30 2788 H 302.48 1.54922 2.51164 0
M  V30 2789 H 302.561 2.37543 0.949059 0
M  V30 2790 H 302.205 4.60791 2.13621 0
M  V30 2791 H 302.135 3.75069 3.69636 0
M  V30 2792 H 304.626 2.95947 2.34997 0
M  V30 2793 H 304.939 6.42107 4.30022 0
M  V30 2794 H 303.284 5.77077 3.87308 0
M  V30 2795 H 306.475 3.71766 2.84443 0
M  V30 2796 H 306.648 5.29604 3.73394 0
M  V30 2797 N 300.054 -1.07777 1.14986 0
M  V30 2798 C 300.984 -2.16865 0.865557 0
M  V30 2799 C 301.965 -1.69123 -0.182083 0
M  V30 2800 O 303.15 -1.94164 -0.0373815 0
M  V30 2801 C 300.28 -3.45539 0.349313 0
M  V30 2802 C 299.234 -4.06708 1.33313 0
M  V30 2803 C 298.56 -5.30411 0.675918 0
M  V30 2804 C 299.86 -4.47241 2.69764 0
M  V30 2805 H 301.554 -2.40905 1.77778 0
M  V30 2806 H 299.1 -1.15781 0.856203 0
M  V30 2807 H 301.053 -4.21174 0.137983 0
M  V30 2808 H 299.777 -3.21072 -0.598362 0
M  V30 2809 H 298.436 -3.33112 1.53075 0
M  V30 2810 H 298.084 -5.02232 -0.277767 0
M  V30 2811 H 297.784 -5.72293 1.33244 0
M  V30 2812 H 299.308 -6.08755 0.474262 0
M  V30 2813 H 300.722 -5.14025 2.53873 0
M  V30 2814 H 299.119 -5.00062 3.3175 0
M  V30 2815 H 300.189 -3.58818 3.26156 0
M  V30 2816 N 301.532 -0.945985 -1.26051 0
M  V30 2817 C 302.772 -0.603665 -1.95282 0
M  V30 2818 C 303.136 0.842377 -1.72534 0
M  V30 2819 O 304.337 1.29387 -2.35611 0
M  V30 2820 C 302.608 -0.942292 -3.44754 0
M  V30 2821 S 304.167 -0.711242 -4.32997 0
M  V30 2822 H 300.985 -0.222176 -0.675395 0
M  V30 2823 H 303.587 -1.21832 -1.52896 0
M  V30 2824 H 302.291 -1.99203 -3.58812 0
M  V30 2825 H 301.822 -0.317546 -3.92116 0
M  V30 2826 H 303.837 0.422221 -4.944 0
M  V30 2827 N 303.011 1.40521 -0.713556 0
M  V30 2828 C 303.974 2.29098 -0.0684347 0
M  V30 2829 C 304.974 1.45268 0.689472 0
M  V30 2830 O 306.164 1.66205 0.521677 0
M  V30 2831 C 303.296 3.28446 0.913024 0
M  V30 2832 H 304.489 2.87645 -0.84855 0
M  V30 2833 H 302.042 1.48809 -0.47809 0
M  V30 2834 H 302.777 2.74913 1.72027 0
M  V30 2835 H 302.562 3.90327 0.372472 0
M  V30 2836 H 304.052 3.94777 1.36165 0
M  V30 2837 N 304.489 0.459591 1.5075 0
M  V30 2838 C 305.738 -0.100971 2.01447 0
M  V30 2839 C 306.051 -1.41816 1.34713 0
M  V30 2840 O 307.257 -2.06299 1.76502 0
M  V30 2841 C 305.713 -0.23047 3.59161 0
M  V30 2842 C 305.321 1.0776 4.34847 0
M  V30 2843 C 307.065 -0.743608 4.17936 0
M  V30 2844 C 304.972 0.91253 5.84317 0
M  V30 2845 H 303.902 -0.0415102 0.752856 0
M  V30 2846 H 306.553 0.592742 1.73663 0
M  V30 2847 H 304.935 -0.987703 3.83485 0
M  V30 2848 H 306.109 1.8449 4.22256 0
M  V30 2849 H 304.424 1.52097 3.87628 0
M  V30 2850 H 307.021 -0.883959 5.27343 0
M  V30 2851 H 307.364 -1.73196 3.78562 0
M  V30 2852 H 307.897 -0.04408 3.97776 0
M  V30 2853 H 304.636 1.87391 6.28144 0
M  V30 2854 H 304.156 0.185422 5.99513 0
M  V30 2855 H 305.835 0.574547 6.44444 0
M  V30 2856 N 305.967 -1.56429 0.191757 0
M  V30 2857 C 307.207 -1.99383 -0.450099 0
M  V30 2858 C 307.571 -1.07581 -1.59029 0
M  V30 2859 O 308.772 -1.39758 -2.29611 0
M  V30 2860 C 307.043 -3.45841 -0.901611 0
M  V30 2861 S 308.602 -4.10822 -1.54177 0
M  V30 2862 H 305.42 -0.696253 -0.144057 0
M  V30 2863 H 308.022 -1.93276 0.294036 0
M  V30 2864 H 306.726 -4.10354 -0.0616596 0
M  V30 2865 H 306.257 -3.55757 -1.67929 0
M  V30 2866 H 308.272 -4.07553 -2.83046 0
M  V30 2867 N 307.445 0.0818655 -1.57387 0
M  V30 2868 C 308.693 0.781368 -1.86384 0
M  V30 2869 C 309.014 1.78618 -0.782342 0
M  V30 2870 O 308.284 1.94976 0.190061 0
M  V30 2871 H 306.864 0.291562 -0.687751 0
M  V30 2872 H 309.526 0.060348 -1.94807 0
M  V30 2873 H 308.622 1.3038 -2.83562 0
M  V30 2874 N 308.923 1.53595 0.353017 0
M  V30 2875 C 310.2 1.61002 1.11075 0
M  V30 2876 C 310.58 0.425356 2.0677 0
M  V30 2877 O 309.928 -0.583267 2.2093 0
M  V30 2878 C 310.138 2.96631 1.83877 0
M  V30 2879 C 311.486 3.51653 2.37961 0
M  V30 2880 O 312.51 2.98743 1.93987 0
M  V30 2881 O 311.369 4.44177 3.18386 0
M  V30 2882 H 308.463 0.650825 0.510251 0
M  V30 2883 H 311.009 1.6594 0.35527 0
M  V30 2884 H 309.781 3.74293 1.14108 0
M  V30 2885 H 309.404 2.95242 2.66304 0
M  V30 2886 N 310.401 -0.613514 1.45168 0
M  V30 2887 C 311.817 -0.933629 1.29443 0
M  V30 2888 C 312.017 -2.00028 0.243101 0
M  V30 2889 O 311.073 -2.49848 -0.364992 0
M  V30 2890 C 312.386 -1.38018 2.67155 0
M  V30 2891 C 313.934 -1.49471 2.75004 0
M  V30 2892 C 314.409 -1.97503 4.13227 0
M  V30 2893 N 315.9 -2.04746 4.15491 0
M  V30 2894 C 316.635 -2.43121 5.19307 0
M  V30 2895 N 316.131 -2.80506 6.33473 0
M  V30 2896 N 317.924 -2.43408 5.06664 0
M  V30 2897 H 310.075 0.0916097 2.12202 0
M  V30 2898 H 312.338 -0.0216655 0.947752 0
M  V30 2899 H 312.044 -0.670625 3.45247 0
M  V30 2900 H 311.918 -2.34784 2.95222 0
M  V30 2901 H 314.305 -2.19519 1.9722 0
M  V30 2902 H 314.386 -0.510342 2.50657 0
M  V30 2903 H 314.03 -1.28045 4.91495 0
M  V30 2904 H 313.96 -2.96843 4.34962 0
M  V30 2905 H 316.451 -1.78468 3.33103 0
M  V30 2906 H 316.764 -3.08652 7.08487 0
M  V30 2907 H 315.109 -2.78216 6.36884 0
M  V30 2908 H 318.3 -2.13604 4.16523 0
M  V30 2909 H 318.473 -2.72989 5.87691 0
M  V30 2910 N 311.879 -1.3236 -0.855495 0
M  V30 2911 C 313.104 -1.2601 -1.64731 0
M  V30 2912 C 313.529 0.169068 -1.87339 0
M  V30 2913 O 312.887 1.12016 -1.42556 0
M  V30 2914 C 312.935 -2.02417 -2.98429 0
M  V30 2915 O 312.039 -1.3714 -3.8893 0
M  V30 2916 H 311.38 -0.434325 -0.502253 0
M  V30 2917 H 313.91 -1.74661 -1.06558 0
M  V30 2918 H 313.92 -2.12559 -3.48257 0
M  V30 2919 H 312.595 -3.06343 -2.81295 0
M  V30 2920 H 311.172 -1.3554 -3.47395 0
M  V30 2921 N 313.357 1.07166 -1.15556 0
M  V30 2922 C 314.582 1.84053 -0.955988 0
M  V30 2923 C 315.007 1.81586 0.490739 0
M  V30 2924 O 314.365 1.21018 1.34997 0
M  V30 2925 C 314.413 3.28957 -1.47714 0
M  V30 2926 O 313.517 4.06795 -0.677593 0
M  V30 2927 H 312.858 0.569842 -0.340847 0
M  V30 2928 H 315.388 1.35178 -1.53584 0
M  V30 2929 H 315.398 3.79788 -1.4908 0
M  V30 2930 H 314.073 3.30068 -2.53037 0
M  V30 2931 H 312.65 3.6561 -0.733721 0
M  V30 2932 N 314.835 0.952656 1.25548 0
M  V30 2933 C 316.083 0.605176 1.92826 0
M  V30 2934 C 316.404 -0.860261 1.74999 0
M  V30 2935 O 315.674 -1.6125 1.11244 0
M  V30 2936 H 314.254 0.220832 0.713612 0
M  V30 2937 H 316.916 1.21047 1.52754 0
M  V30 2938 H 316.012 0.832798 3.00784 0
M  V30 2939 N 316.313 -1.40141 0.720998 0
M  V30 2940 C 317.26 -2.30688 0.071919 0
M  V30 2941 C 318.23 -1.48476 -0.744584 0
M  V30 2942 O 319.415 -1.77201 -0.707423 0
M  V30 2943 C 316.555 -3.34724 -0.839855 0
M  V30 2944 C 315.668 -4.31998 -0.0122438 0
M  V30 2945 C 314.803 -5.23102 -0.923995 0
M  V30 2946 C 313.842 -6.12033 -0.0907969 0
M  V30 2947 N 312.979 -6.95537 -0.957718 0
M  V30 2948 H 317.819 -2.85628 0.849755 0
M  V30 2949 H 315.356 -1.40653 0.430726 0
M  V30 2950 H 317.314 -3.93618 -1.38279 0
M  V30 2951 H 315.944 -2.81274 -1.58381 0
M  V30 2952 H 314.996 -3.74841 0.64794 0
M  V30 2953 H 316.308 -4.94772 0.632595 0
M  V30 2954 H 315.462 -5.86953 -1.53527 0
M  V30 2955 H 314.201 -4.60615 -1.60264 0
M  V30 2956 H 313.206 -5.47207 0.533377 0
M  V30 2957 H 314.431 -6.76581 0.584428 0
M  V30 2958 H 312.377 -6.35633 -1.62192 0
M  V30 2959 H 312.294 -7.55099 -0.36904 0
M  V30 2960 H 313.562 -7.63832 -1.555 0
M  V30 2961 N 317.792 -0.46758 -1.50504 0
M  V30 2962 C 318.742 0.34698 -2.25344 0
M  V30 2963 C 319.726 0.964469 -1.2879 0
M  V30 2964 O 320.918 0.8776 -1.53711 0
M  V30 2965 C 318.047 1.43042 -3.1208 0
M  V30 2966 C 317.133 0.82084 -4.16081 0
M  V30 2967 N 317.524 -0.0567602 -5.05768 0
M  V30 2968 C 315.822 1.08517 -4.32597 0
M  V30 2969 C 316.523 -0.402343 -5.80307 0
M  V30 2970 N 315.499 0.221607 -5.43148 0
M  V30 2971 H 319.301 -0.329129 -2.92051 0
M  V30 2972 H 316.815 -0.281508 -1.59942 0
M  V30 2973 H 318.812 2.02712 -3.64299 0
M  V30 2974 H 317.472 2.10856 -2.46921 0
M  V30 2975 H 318.483 -0.425349 -5.1615 0
M  V30 2976 H 315.16 1.75855 -3.78657 0
M  V30 2977 H 316.55 -1.11834 -6.62528 0
M  V30 2978 N 319.27 1.56325 -0.20005 0
M  V30 2979 C 320.5 2.01811 0.442232 0
M  V30 2980 C 320.908 1.07932 1.55394 0
M  V30 2981 O 320.251 0.0772685 1.83537 0
M  V30 2982 C 320.313 3.43685 1.05457 0
M  V30 2983 C 319.977 4.56928 0.0809833 0
M  V30 2984 C 320.974 5.15009 -0.711471 0
M  V30 2985 C 318.659 5.0229 -0.0315364 0
M  V30 2986 C 320.653 6.16904 -1.60336 0
M  V30 2987 C 318.34 6.04028 -0.926981 0
M  V30 2988 C 319.338 6.6121 -1.71146 0
M  V30 2989 O 319.026 7.60971 -2.59189 0
M  V30 2990 H 318.758 0.666173 0.114848 0
M  V30 2991 H 321.312 2.03085 -0.307511 0
M  V30 2992 H 319.542 3.39413 1.85299 0
M  V30 2993 H 321.231 3.72948 1.60201 0
M  V30 2994 H 321.997 4.80827 -0.634873 0
M  V30 2995 H 317.876 4.57476 0.568902 0
M  V30 2996 H 321.42 6.61464 -2.21611 0
M  V30 2997 H 317.317 6.37634 -1.00468 0
M  V30 2998 H 318.085 7.7841 -2.53023 0
M  V30 2999 N 320.748 -0.0735177 1.57428 0
M  V30 3000 C 321.996 -0.771472 1.86796 0
M  V30 3001 C 322.317 -1.78201 0.791804 0
M  V30 3002 O 321.587 -1.95074 -0.179718 0
M  V30 3003 H 320.167 -0.28791 0.689287 0
M  V30 3004 H 322.829 -0.0500161 1.94836 0
M  V30 3005 H 321.925 -1.28874 2.8425 0
M  V30 3006 N 322.226 -1.5378 -0.344866 0
M  V30 3007 C 323.472 -1.71216 -1.08687 0
M  V30 3008 C 323.805 -0.473281 -1.88345 0
M  V30 3009 O 323.08 0.52968 -1.87149 0
M  V30 3010 C 323.363 -2.97486 -2.02914 0
M  V30 3011 C 323.216 -4.31579 -1.26727 0
M  V30 3012 C 324.535 -3.19422 -3.0275 0
M  V30 3013 H 321.654 -0.62301 -0.393735 0
M  V30 3014 H 324.296 -1.8645 -0.365563 0
M  V30 3015 H 322.446 -2.84629 -2.64421 0
M  V30 3016 H 324.118 -4.56284 -0.67845 0
M  V30 3017 H 322.361 -4.30049 -0.569273 0
M  V30 3018 H 323.032 -5.16106 -1.95803 0
M  V30 3019 H 325.508 -3.316 -2.51357 0
M  V30 3020 H 324.384 -4.09169 -3.65885 0
M  V30 3021 H 324.645 -2.35656 -3.74057 0
M  V30 3022 N 323.704 0.605807 -1.45491 0
M  V30 3023 C 324.934 1.38934 -1.52908 0
M  V30 3024 C 325.342 1.88513 -0.161086 0
M  V30 3025 O 324.685 1.62962 0.847891 0
M  V30 3026 C 324.747 2.62737 -2.45376 0
M  V30 3027 C 324.411 2.34785 -3.92078 0
M  V30 3028 C 325.408 1.95038 -4.8193 0
M  V30 3029 C 323.093 2.47642 -4.37011 0
M  V30 3030 C 325.087 1.68511 -6.14722 0
M  V30 3031 C 322.774 2.20728 -5.69844 0
M  V30 3032 C 323.772 1.81225 -6.58519 0
M  V30 3033 O 323.46 1.54627 -7.88889 0
M  V30 3034 H 323.192 0.431629 -0.520262 0
M  V30 3035 H 325.746 0.74573 -1.91384 0
M  V30 3036 H 323.976 3.29824 -2.01874 0
M  V30 3037 H 325.665 3.24783 -2.43456 0
M  V30 3038 H 326.431 1.84639 -4.48479 0
M  V30 3039 H 322.31 2.77356 -3.68232 0
M  V30 3040 H 325.854 1.37602 -6.83894 0
M  V30 3041 H 321.751 2.30744 -6.02849 0
M  V30 3042 H 322.519 1.68665 -8.00933 0
M  V30 3043 N 325.182 1.32811 0.848464 0
M  V30 3044 C 326.407 1.26882 1.6406 0
M  V30 3045 C 326.832 -0.15913 1.87426 0
M  V30 3046 O 326.19 -1.11258 1.43148 0
M  V30 3047 C 326.238 2.03997 2.97351 0
M  V30 3048 O 325.342 1.39201 3.88197 0
M  V30 3049 H 324.683 0.436982 0.499943 0
M  V30 3050 H 327.213 1.75224 1.0563 0
M  V30 3051 H 327.223 2.14403 3.47124 0
M  V30 3052 H 325.898 3.0783 2.79666 0
M  V30 3053 H 324.475 1.37381 3.46671 0
M  V30 3054 N 326.66 -1.06551 1.16123 0
M  V30 3055 C 327.9 -1.80889 0.951766 0
M  V30 3056 C 328.264 -1.85062 -0.511465 0
M  V30 3057 O 329.465 -2.55353 -0.83954 0
M  V30 3058 C 327.736 -3.21609 1.55893 0
M  V30 3059 S 329.295 -4.12593 1.49373 0
M  V30 3060 H 326.113 -0.623156 0.342341 0
M  V30 3061 H 328.715 -1.27943 1.47821 0
M  V30 3062 H 327.419 -3.16165 2.61664 0
M  V30 3063 H 326.95 -3.79631 1.0317 0
M  V30 3064 H 328.965 -4.93753 0.492196 0
M  V30 3065 N 328.138 -0.959301 -1.25041 0
M  V30 3066 C 329.048 -0.489994 -2.29426 0
M  V30 3067 C 330.064 0.444944 -1.68215 0
M  V30 3068 O 331.24 0.320046 -1.98841 0
M  V30 3069 C 328.305 0.220309 -3.45999 0
M  V30 3070 C 327.366 -0.753418 -4.22637 0
M  V30 3071 C 326.599 -0.076918 -5.33645 0
M  V30 3072 O 326.822 1.13649 -5.58963 0
M  V30 3073 O 325.756 -0.764824 -5.97021 0
M  V30 3074 H 329.582 -1.35755 -2.71669 0
M  V30 3075 H 327.167 -0.725961 -1.30576 0
M  V30 3076 H 329.049 0.619677 -4.16819 0
M  V30 3077 H 327.724 1.06296 -3.0575 0
M  V30 3078 H 326.631 -1.20308 -3.54227 0
M  V30 3079 H 327.964 -1.56423 -4.66683 0
M  V30 3080 N 329.616 1.39756 -0.72842 0
M  V30 3081 C 330.864 2.00248 -0.272946 0
M  V30 3082 C 331.185 1.58077 1.14178 0
M  V30 3083 O 330.455 0.826014 1.77634 0
M  V30 3084 H 329.035 0.740554 -0.0979247 0
M  V30 3085 H 331.697 1.70903 -0.936912 0
M  V30 3086 H 330.793 3.10495 -0.316142 0
M  V30 3087 N 331.094 0.475555 1.50254 0
M  V30 3088 C 332.334 -0.0765802 2.04256 0
M  V30 3089 C 332.698 -1.36587 1.34937 0
M  V30 3090 O 333.899 -2.00066 1.79519 0
M  V30 3091 C 332.17 -0.251668 3.56513 0
M  V30 3092 S 333.729 -0.761716 4.32138 0
M  V30 3093 H 330.547 -0.0138456 0.710865 0
M  V30 3094 H 333.149 0.643714 1.84598 0
M  V30 3095 H 331.853 0.692404 4.04517 0
M  V30 3096 H 331.384 -0.997946 3.80532 0
M  V30 3097 H 333.399 -2.03451 4.52573 0
M  V30 3098 N 332.573 -1.56217 0.208337 0
M  V30 3099 C 333.52 -2.19699 -0.707192 0
M  V30 3100 C 334.49 -1.14836 -1.20008 0
M  V30 3101 O 335.675 -1.4314 -1.26157 0
M  V30 3102 C 332.815 -2.87061 -1.91546 0
M  V30 3103 C 331.928 -4.06483 -1.46271 0
M  V30 3104 C 331.063 -4.61665 -2.62752 0
M  V30 3105 C 330.102 -5.73417 -2.14147 0
M  V30 3106 N 329.239 -6.22948 -3.23853 0
M  V30 3107 H 334.079 -2.97575 -0.159111 0
M  V30 3108 H 331.616 -1.46948 -0.0667874 0
M  V30 3109 H 333.574 -3.24294 -2.62468 0
M  V30 3110 H 332.204 -2.11725 -2.43664 0
M  V30 3111 H 331.256 -3.74825 -0.648886 0
M  V30 3112 H 332.568 -4.87271 -1.06622 0
M  V30 3113 H 331.722 -5.01272 -3.41776 0
M  V30 3114 H 330.461 -3.80013 -3.05682 0
M  V30 3115 H 329.466 -5.33326 -1.33581 0
M  V30 3116 H 330.691 -6.56897 -1.72232 0
M  V30 3117 H 328.637 -5.44213 -3.6629 0
M  V30 3118 H 328.554 -6.98823 -2.88414 0
M  V30 3119 H 329.822 -6.6721 -4.03052 0
M  V30 3120 N 334.051 0.0651679 -1.57465 0
M  V30 3121 C 335.299 0.761555 -1.87202 0
M  V30 3122 C 335.62 1.77778 -0.801243 0
M  V30 3123 O 334.89 1.95166 0.16937 0
M  V30 3124 H 333.47 0.284251 -0.690804 0
M  V30 3125 H 336.132 0.0396827 -1.9486 0
M  V30 3126 H 335.228 1.27365 -2.84929 0
M  V30 3127 N 335.529 1.53961 0.336706 0
M  V30 3128 C 336.776 1.71536 1.07618 0
M  V30 3129 C 337.104 0.482125 1.8843 0
M  V30 3130 O 336.359 -0.536142 1.88213 0
M  V30 3131 C 336.658 2.93493 2.03953 0
M  V30 3132 C 336.324 4.28811 1.39399 0
M  V30 3133 C 334.986 4.65602 1.21523 0
M  V30 3134 C 337.338 5.12844 0.929541 0
M  V30 3135 C 334.666 5.84037 0.558312 0
M  V30 3136 C 337.018 6.31951 0.286505 0
M  V30 3137 C 335.682 6.67432 0.0954869 0
M  V30 3138 H 334.952 0.627696 0.393801 0
M  V30 3139 H 337.599 1.88186 0.354715 0
M  V30 3140 H 335.904 2.71475 2.82504 0
M  V30 3141 H 337.601 3.04285 2.61174 0
M  V30 3142 H 334.191 3.99858 1.54311 0
M  V30 3143 H 338.375 4.84947 1.05548 0
M  V30 3144 H 333.631 6.10097 0.398995 0
M  V30 3145 H 337.805 6.96352 -0.0814376 0
M  V30 3146 H 335.432 7.59063 -0.415579 0
M  V30 3147 N 337.007 -0.598083 1.45811 0
M  V30 3148 C 338.254 -1.35681 1.50323 0
M  V30 3149 C 338.582 -1.9393 0.148739 0
M  V30 3150 O 337.837 -1.76094 -0.853787 0
M  V30 3151 C 338.136 -2.51669 2.53766 0
M  V30 3152 C 337.802 -2.11508 3.98215 0
M  V30 3153 C 336.464 -2.0027 4.37545 0
M  V30 3154 C 338.816 -1.80308 4.89018 0
M  V30 3155 C 336.144 -1.56067 5.65562 0
M  V30 3156 C 338.496 -1.37589 6.17456 0
M  V30 3157 C 337.16 -1.24916 6.55708 0
M  V30 3158 H 336.43 -0.496492 0.550069 0
M  V30 3159 H 339.077 -0.675052 1.79207 0
M  V30 3160 H 337.382 -3.25225 2.18486 0
M  V30 3161 H 339.079 -3.09895 2.54492 0
M  V30 3162 H 335.669 -2.21185 3.67117 0
M  V30 3163 H 339.853 -1.87884 4.59362 0
M  V30 3164 H 335.109 -1.44886 5.93985 0
M  V30 3165 H 339.283 -1.12495 6.87254 0
M  V30 3166 H 336.91 -0.904386 7.54801 0
M  V30 3167 N 338.485 -1.33259 -0.841409 0
M  V30 3168 C 339.432 -1.23302 -1.95103 0
M  V30 3169 C 340.402 -0.112204 -1.65721 0
M  V30 3170 O 341.587 -0.290038 -1.88583 0
M  V30 3171 C 338.727 -0.975583 -3.31023 0
M  V30 3172 C 337.84 -2.18243 -3.72819 0
M  V30 3173 C 336.975 -1.85936 -4.97595 0
M  V30 3174 C 336.014 -3.02866 -5.3192 0
M  V30 3175 N 335.151 -2.70565 -6.47873 0
M  V30 3176 H 339.991 -2.18207 -2.02952 0
M  V30 3177 H 337.528 -1.0851 -0.993173 0
M  V30 3178 H 339.486 -0.80677 -4.09325 0
M  V30 3179 H 338.116 -0.0632755 -3.22738 0
M  V30 3180 H 337.168 -2.46107 -2.90061 0
M  V30 3181 H 338.48 -3.05666 -3.94169 0
M  V30 3182 H 337.634 -1.65684 -5.83638 0
M  V30 3183 H 336.373 -0.957452 -4.78209 0
M  V30 3184 H 335.378 -3.23736 -4.44382 0
M  V30 3185 H 336.603 -3.93809 -5.53255 0
M  V30 3186 H 334.549 -1.8293 -6.29978 0
M  V30 3187 H 334.466 -3.51519 -6.69306 0
M  V30 3188 H 335.734 -2.53774 -7.37034 0
M  V30 3189 N 339.963 1.05934 -1.16686 0
M  V30 3190 C 341.379 1.30938 -0.912542 0
M  V30 3191 C 341.579 1.96803 0.432533 0
M  V30 3192 O 340.635 2.23693 1.17123 0
M  V30 3193 C 341.948 2.18649 -2.06429 0
M  V30 3194 C 343.496 2.32055 -2.10047 0
M  V30 3195 C 343.971 3.23122 -3.24586 0
M  V30 3196 N 345.462 3.30706 -3.24327 0
M  V30 3197 C 346.197 4.01273 -4.09594 0
M  V30 3198 N 345.693 4.74332 -5.04956 0
M  V30 3199 N 347.486 3.97361 -3.97569 0
M  V30 3200 H 339.637 0.615777 -2.03278 0
M  V30 3201 H 341.9 0.334077 -0.887185 0
M  V30 3202 H 341.606 1.77534 -3.03603 0
M  V30 3203 H 341.48 3.19252 -2.00894 0
M  V30 3204 H 343.867 2.72415 -1.13464 0
M  V30 3205 H 343.948 1.31107 -2.19647 0
M  V30 3206 H 343.592 2.83477 -4.2143 0
M  V30 3207 H 343.522 4.24057 -3.12223 0
M  V30 3208 H 346.013 2.78644 -2.55276 0
M  V30 3209 H 346.326 5.25716 -5.6643 0
M  V30 3210 H 344.671 4.733 -5.08933 0
M  V30 3211 H 347.862 3.39405 -3.22369 0
M  V30 3212 H 348.035 4.52089 -4.64241 0
M  V30 3213 N 341.441 0.965919 1.2453 0
M  V30 3214 C 342.669 0.644385 1.96609 0
M  V30 3215 C 343.084 -0.785823 1.71669 0
M  V30 3216 O 342.441 -1.52703 0.999399 0
M  V30 3217 C 342.492 0.907375 3.49927 0
M  V30 3218 O 342.213 2.28136 3.74013 0
M  V30 3219 C 343.714 0.599784 4.39224 0
M  V30 3220 H 340.934 0.240588 0.626385 0
M  V30 3221 H 343.478 1.29337 1.58405 0
M  V30 3222 H 341.633 0.304631 3.862 0
M  V30 3223 H 342.047 2.36002 4.68405 0
M  V30 3224 H 343.521 0.834263 5.45659 0
M  V30 3225 H 343.998 -0.465921 4.36722 0
M  V30 3226 H 344.604 1.18235 4.08535 0
M  V30 3227 N 342.919 -1.39368 0.735821 0
M  V30 3228 C 344.168 -1.99733 0.281004 0
M  V30 3229 C 344.481 -1.59055 -1.13846 0
M  V30 3230 O 345.687 -2.12262 -1.69284 0
M  V30 3231 C 344.143 -3.57057 0.451462 0
M  V30 3232 C 343.751 -4.06697 1.87886 0
M  V30 3233 C 345.495 -4.2446 0.0584616 0
M  V30 3234 C 343.402 -5.56598 1.99883 0
M  V30 3235 H 342.332 -0.747163 0.101311 0
M  V30 3236 H 344.983 -1.59357 0.909819 0
M  V30 3237 H 343.365 -3.95234 -0.246263 0
M  V30 3238 H 344.539 -3.79853 2.60861 0
M  V30 3239 H 342.854 -3.5196 2.22515 0
M  V30 3240 H 345.451 -5.34549 0.127099 0
M  V30 3241 H 345.794 -4.04444 -0.986433 0
M  V30 3242 H 346.327 -3.9146 0.707374 0
M  V30 3243 H 343.066 -5.81494 3.02564 0
M  V30 3244 H 342.586 -5.85242 1.31346 0
M  V30 3245 H 344.265 -6.22022 1.78039 0
M  V30 3246 N 344.397 -0.483516 -1.5 0
M  V30 3247 C 345.813 -0.138404 -1.58999 0
M  V30 3248 C 346.013 1.35597 -1.4905 0
M  V30 3249 O 345.069 2.13039 -1.35539 0
M  V30 3250 C 346.382 -0.699658 -2.92447 0
M  V30 3251 C 347.93 -0.664195 -3.05872 0
M  V30 3252 C 348.405 -1.20321 -4.41913 0
M  V30 3253 N 349.896 -1.16315 -4.48358 0
M  V30 3254 C 350.631 -1.55058 -5.52037 0
M  V30 3255 N 350.127 -2.01311 -6.62907 0
M  V30 3256 N 351.92 -1.46584 -5.42651 0
M  V30 3257 H 344.071 -1.45529 -1.5471 0
M  V30 3258 H 346.334 -0.60258 -0.731848 0
M  V30 3259 H 346.04 -1.747 -3.05242 0
M  V30 3260 H 345.914 -0.150194 -3.76901 0
M  V30 3261 H 348.301 0.374272 -2.92717 0
M  V30 3262 H 348.382 -1.25061 -2.23144 0
M  V30 3263 H 348.026 -2.24037 -4.55818 0
M  V30 3264 H 347.956 -0.592896 -5.23252 0
M  V30 3265 H 350.447 -0.824058 -3.68806 0
M  V30 3266 H 350.76 -2.2899 -7.38095 0
M  V30 3267 H 349.105 -2.05273 -6.63994 0
M  V30 3268 H 352.296 -1.10281 -4.54924 0
M  V30 3269 H 352.469 -1.77103 -6.23329 0
M  V30 3270 N 345.875 1.56104 -0.216619 0
M  V30 3271 C 346.822 2.2007 0.695531 0
M  V30 3272 C 347.792 1.15471 1.19397 0
M  V30 3273 O 348.977 1.43807 1.25396 0
M  V30 3274 C 346.117 2.88073 1.90021 0
M  V30 3275 C 345.23 4.07253 1.44113 0
M  V30 3276 C 344.365 4.63052 2.603 0
M  V30 3277 C 343.404 5.74545 2.11103 0
M  V30 3278 N 342.541 6.24656 3.20545 0
M  V30 3279 H 347.381 2.97655 0.143327 0
M  V30 3280 H 344.918 1.46982 0.0589934 0
M  V30 3281 H 346.876 3.25681 2.60745 0
M  V30 3282 H 345.506 2.13015 2.42538 0
M  V30 3283 H 344.558 3.75164 0.628999 0
M  V30 3284 H 345.87 4.8783 1.04036 0
M  V30 3285 H 345.024 5.03078 3.39113 0
M  V30 3286 H 343.763 3.81628 3.03663 0
M  V30 3287 H 342.768 5.34027 1.3075 0
M  V30 3288 H 343.993 6.57801 1.68746 0
M  V30 3289 H 341.939 5.46148 3.63399 0
M  V30 3290 H 341.856 7.00343 2.84704 0
M  V30 3291 H 343.124 6.69338 3.99508 0
M  V30 3292 N 347.353 -0.0568162 1.57498 0
M  V30 3293 C 348.63 -0.786954 1.79071 0
M  V30 3294 C 349.01 -1.95028 0.80792 0
M  V30 3295 O 348.358 -2.27968 -0.155858 0
M  V30 3296 C 348.568 -1.24594 3.26002 0
M  V30 3297 C 349.916 -1.67323 3.90241 0
M  V30 3298 O 350.94 -1.34124 3.29984 0
M  V30 3299 O 349.799 -2.28842 4.9628 0
M  V30 3300 H 346.893 -0.378262 0.735423 0
M  V30 3301 H 349.439 -0.035734 1.69662 0
M  V30 3302 H 348.211 -0.41423 3.89101 0
M  V30 3303 H 347.834 -2.05803 3.40192 0
M  V30 3304 N 348.832 -1.54138 -0.328536 0
M  V30 3305 C 349.762 -1.86167 -1.40939 0
M  V30 3306 C 350.743 -0.718044 -1.54202 0
M  V30 3307 O 351.928 -0.971328 -1.68163 0
M  V30 3308 C 349.058 -2.08461 -2.77779 0
M  V30 3309 C 348.012 -3.24299 -2.7931 0
M  V30 3310 C 347.338 -3.31955 -4.19178 0
M  V30 3311 C 348.638 -4.62065 -2.43502 0
M  V30 3312 H 350.332 -2.76689 -1.14383 0
M  V30 3313 H 347.878 -1.33132 -0.548806 0
M  V30 3314 H 349.831 -2.29453 -3.53454 0
M  V30 3315 H 348.555 -1.14684 -3.05802 0
M  V30 3316 H 347.214 -3.03187 -2.0609 0
M  V30 3317 H 346.862 -2.35745 -4.44335 0
M  V30 3318 H 346.562 -4.09805 -4.2111 0
M  V30 3319 H 348.086 -3.55175 -4.96672 0
M  V30 3320 H 349.5 -4.8297 -3.08889 0
M  V30 3321 H 347.897 -5.42429 -2.56693 0
M  V30 3322 H 348.967 -4.64652 -1.38659 0
M  V30 3323 N 350.31 0.590341 -1.46126 0
M  V30 3324 C 351.538 1.37504 -1.54597 0
M  V30 3325 C 351.953 1.87897 -0.184447 0
M  V30 3326 O 351.31 1.63192 0.816984 0
M  V30 3327 C 351.361 2.56779 -2.54454 0
M  V30 3328 O 351.082 2.08476 -3.85317 0
M  V30 3329 C 352.583 3.49427 -2.72792 0
M  V30 3330 H 349.803 0.420325 -0.523037 0
M  V30 3331 H 352.347 0.718383 -1.91467 0
M  V30 3332 H 350.502 3.1845 -2.20609 0
M  V30 3333 H 350.916 2.86097 -4.396 0
M  V30 3334 H 352.39 4.29619 -3.466 0
M  V30 3335 H 352.867 4.00876 -1.79429 0
M  V30 3336 H 353.473 2.93598 -3.07702 0
M  V30 3337 N 351.788 1.33704 0.83433 0
M  V30 3338 C 353.018 1.28281 1.6195 0
M  V30 3339 C 353.426 -0.147603 1.88623 0
M  V30 3340 O 352.769 -1.1016 1.47005 0
M  V30 3341 C 352.831 1.99386 2.99141 0
M  V30 3342 C 352.495 3.48681 2.95416 0
M  V30 3343 C 353.492 4.438 2.70809 0
M  V30 3344 C 351.177 3.90925 3.15409 0
M  V30 3345 C 353.171 5.79138 2.66229 0
M  V30 3346 C 350.858 5.26366 3.10454 0
M  V30 3347 C 351.856 6.20284 2.85895 0
M  V30 3348 O 351.544 7.53245 2.80852 0
M  V30 3349 H 351.276 0.44315 0.510484 0
M  V30 3350 H 353.83 1.76711 1.04702 0
M  V30 3351 H 352.06 1.45554 3.58261 0
M  V30 3352 H 353.749 1.87403 3.60049 0
M  V30 3353 H 354.515 4.12485 2.5511 0
M  V30 3354 H 350.394 3.18229 3.33543 0
M  V30 3355 H 353.938 6.52416 2.4698 0
M  V30 3356 H 349.835 5.57304 3.25703 0
M  V30 3357 H 350.603 7.62846 2.96661 0
M  V30 3358 N 353.266 -1.05314 1.17247 0
M  V30 3359 C 354.491 -1.82509 0.985148 0
M  V30 3360 C 354.916 -1.82343 -0.461788 0
M  V30 3361 O 354.274 -1.23151 -1.33055 0
M  V30 3362 C 354.322 -3.26566 1.52929 0
M  V30 3363 O 353.426 -4.05666 0.742225 0
M  V30 3364 H 352.767 -0.564347 0.349869 0
M  V30 3365 H 355.297 -1.32718 1.55715 0
M  V30 3366 H 355.307 -3.77369 1.55103 0
M  V30 3367 H 353.982 -3.26001 2.58256 0
M  V30 3368 H 352.559 -3.64397 0.791794 0
M  V30 3369 N 354.744 -0.972509 -1.24016 0
M  V30 3370 C 355.984 -0.644951 -1.93958 0
M  V30 3371 C 356.348 0.80559 -1.74282 0
M  V30 3372 O 357.549 1.2436 -2.38302 0
M  V30 3373 C 355.82 -1.01521 -3.42678 0
M  V30 3374 S 357.379 -0.802927 -4.31391 0
M  V30 3375 H 354.197 -0.236452 -0.670531 0
M  V30 3376 H 356.799 -1.25048 -1.50277 0
M  V30 3377 H 355.503 -2.06769 -3.54506 0
M  V30 3378 H 355.034 -0.400648 -3.91355 0
M  V30 3379 H 357.049 0.317256 -4.95185 0
M  V30 3380 N 356.222 1.38976 -0.743202 0
M  V30 3381 C 357.638 1.53984 -0.419664 0
M  V30 3382 C 357.838 1.70837 1.0685 0
M  V30 3383 O 356.894 1.7135 1.8546 0
M  V30 3384 C 358.207 2.75287 -1.20985 0
M  V30 3385 C 359.755 2.89129 -1.19889 0
M  V30 3386 C 360.23 4.13381 -1.97181 0
M  V30 3387 N 361.721 4.20437 -1.94389 0
M  V30 3388 C 362.456 5.15547 -2.50996 0
M  V30 3389 N 361.952 6.16395 -3.16274 0
M  V30 3390 N 363.745 5.07822 -2.40984 0
M  V30 3391 H 355.896 1.26285 -1.7078 0
M  V30 3392 H 358.159 0.612689 -0.723406 0
M  V30 3393 H 357.865 2.69204 -2.26323 0
M  V30 3394 H 357.739 3.68184 -0.819759 0
M  V30 3395 H 360.126 2.947 -0.153606 0
M  V30 3396 H 360.207 1.97272 -1.62841 0
M  V30 3397 H 359.851 4.08572 -3.01714 0
M  V30 3398 H 359.781 5.04298 -1.51629 0
M  V30 3399 H 362.272 3.48205 -1.46839 0
M  V30 3400 H 362.585 6.85443 -3.56915 0
M  V30 3401 H 360.93 6.16758 -3.20367 0
M  V30 3402 H 364.121 4.27973 -1.89622 0
M  V30 3403 H 364.294 5.81767 -2.85397 0
M  V30 3404 N 357.7 0.491464 1.49741 0
M  V30 3405 C 358.977 -0.118984 1.95238 0
M  V30 3406 C 359.357 -1.55044 1.43264 0
M  V30 3407 O 358.705 -2.19287 0.642287 0
M  V30 3408 C 358.915 -0.0414187 3.48975 0
M  V30 3409 C 360.263 -0.220133 4.24029 0
M  V30 3410 O 361.287 -0.117055 3.56008 0
M  V30 3411 O 360.146 -0.430567 5.44801 0
M  V30 3412 H 357.24 -0.100536 0.820866 0
M  V30 3413 H 359.786 0.553322 1.60426 0
M  V30 3414 H 358.558 0.957214 3.79412 0
M  V30 3415 H 358.181 -0.754292 3.9038 0
M  V30 3416 N 359.178 -1.55987 0.224894 0
M  V30 3417 C 360.126 -2.21808 -0.700283 0
M  V30 3418 C 361.12 -1.19854 -1.19714 0
M  V30 3419 O 362.326 -1.37925 -1.15658 0
M  V30 3420 H 358.701 -0.711226 -0.244258 0
M  V30 3421 H 360.672 -2.98152 -0.121749 0
M  V30 3422 C 359.421 -2.91444 -1.8962 0
M  V30 3423 H 358.744 -3.69655 -1.52299 0
M  V30 3424 H 360.184 -3.40894 -2.52125 0
M  V30 3425 C 358.643 -1.94098 -2.75368 0
M  V30 3426 O 359.173 -1.46004 -3.74227 0
M  V30 3427 N 357.379 -1.61675 -2.41474 0
M  V30 3428 H 356.926 -2.00979 -1.61137 0
M  V30 3429 H 356.884 -0.968036 -2.99126 0
M  V30 3430 N 360.656 0.0484629 -1.57525 0
M  V30 3431 C 361.603 1.05504 -2.05275 0
M  V30 3432 C 362.573 1.37084 -0.937927 0
M  V30 3433 O 363.758 1.47754 -1.2072 0
M  V30 3434 C 360.898 2.35676 -2.52093 0
M  V30 3435 C 360.011 2.10423 -3.77288 0
M  V30 3436 C 359.146 3.34327 -4.12794 0
M  V30 3437 C 358.185 3.04542 -5.30962 0
M  V30 3438 N 357.322 4.20841 -5.61994 0
M  V30 3439 H 362.162 0.640885 -2.91027 0
M  V30 3440 H 359.699 0.304854 -1.43906 0
M  V30 3441 H 361.657 3.11709 -2.77297 0
M  V30 3442 H 360.287 2.7485 -1.69285 0
M  V30 3443 H 359.339 1.24976 -3.59284 0
M  V30 3444 H 360.651 1.84438 -4.63448 0
M  V30 3445 H 359.805 4.1874 -4.39024 0
M  V30 3446 H 358.544 3.63408 -3.25247 0
M  V30 3447 H 357.549 2.18528 -5.04505 0
M  V30 3448 H 358.774 2.76758 -6.20146 0
M  V30 3449 H 356.72 4.4991 -4.77406 0
M  V30 3450 H 356.637 3.98212 -6.42622 0
M  V30 3451 H 357.905 5.06184 -5.92789 0
M  V30 3452 N 362.134 1.5431 0.320358 0
M  V30 3453 C 363.411 1.63322 1.07635 0
M  V30 3454 C 363.791 0.46912 2.05821 0
M  V30 3455 O 363.139 -0.536274 2.22118 0
M  V30 3456 C 363.349 3.00465 1.77544 0
M  V30 3457 C 364.697 3.56621 2.30449 0
M  V30 3458 O 365.721 3.02791 1.87606 0
M  V30 3459 O 364.58 4.5083 3.08892 0
M  V30 3460 H 361.674 0.661502 0.496331 0
M  V30 3461 H 364.22 1.66656 0.319992 0
M  V30 3462 H 362.992 3.76629 1.06143 0
M  V30 3463 H 362.615 3.00824 2.59982 0
M  V30 3464 N 363.613 -0.582584 1.46437 0
M  V30 3465 C 364.853 -1.35184 1.53312 0
M  V30 3466 C 365.217 -1.9115 0.180508 0
M  V30 3467 O 366.418 -2.68514 0.124017 0
M  V30 3468 C 364.689 -2.45089 2.60127 0
M  V30 3469 S 366.248 -3.32439 2.86408 0
M  V30 3470 H 363.066 -0.460559 0.54167 0
M  V30 3471 H 365.668 -0.669709 1.83671 0
M  V30 3472 H 364.372 -2.02366 3.57038 0
M  V30 3473 H 363.903 -3.18074 2.315 0
M  V30 3474 H 365.918 -4.43924 2.21688 0
M  V30 3475 N 365.091 -1.34144 -0.827227 0
M  V30 3476 C 366.319 -1.29325 -1.61501 0
M  V30 3477 C 366.734 0.13354 -1.88327 0
M  V30 3478 O 366.091 1.0793 -1.47164 0
M  V30 3479 C 366.142 -2.07746 -2.95844 0
M  V30 3480 O 365.863 -3.4486 -2.70191 0
M  V30 3481 C 367.364 -2.10273 -3.90256 0
M  V30 3482 H 364.584 -0.445069 -0.50215 0
M  V30 3483 H 367.128 -1.76693 -1.02955 0
M  V30 3484 H 365.283 -1.6403 -3.5096 0
M  V30 3485 H 365.697 -3.85345 -3.55822 0
M  V30 3486 H 367.171 -2.69575 -4.81698 0
M  V30 3487 H 367.648 -1.096 -4.25305 0
M  V30 3488 H 368.254 -2.54059 -3.41078 0
M  V30 3489 N 366.569 1.04691 -1.17803 0
M  V30 3490 C 367.815 1.78045 -0.970969 0
M  V30 3491 C 368.148 1.87686 0.498751 0
M  V30 3492 O 367.423 1.38035 1.37027 0
M  V30 3493 C 367.706 3.2166 -1.61884 0
M  V30 3494 C 367.559 3.20001 -3.161 0
M  V30 3495 C 368.878 4.1962 -1.3269 0
M  V30 3496 H 365.997 0.64633 -0.354155 0
M  V30 3497 H 368.639 1.22333 -1.45378 0
M  V30 3498 H 366.789 3.69232 -1.20831 0
M  V30 3499 H 368.461 2.80467 -3.66246 0
M  V30 3500 H 366.704 2.58203 -3.48588 0
M  V30 3501 H 367.375 4.21386 -3.56564 0
M  V30 3502 H 369.851 3.80567 -1.68249 0
M  V30 3503 H 368.727 5.18339 -1.80599 0
M  V30 3504 H 368.988 4.414 -0.248622 0
M  V30 3505 N 368.047 0.979072 1.23499 0
M  V30 3506 C 369.324 0.563674 1.87302 0
M  V30 3507 C 369.704 -0.959199 1.88049 0
M  V30 3508 O 369.052 -1.83535 1.36114 0
M  V30 3509 C 369.262 1.16822 3.28867 0
M  V30 3510 C 370.61 1.26014 4.0547 0
M  V30 3511 O 371.634 1.12158 3.38082 0
M  V30 3512 O 370.493 1.48044 5.26066 0
M  V30 3513 H 367.587 0.189602 0.804972 0
M  V30 3514 H 370.133 1.07407 1.31384 0
M  V30 3515 H 368.905 2.21049 3.22883 0
M  V30 3516 H 368.528 0.642564 3.92373 0
M  V30 3517 N 369.525 -1.3858 0.750561 0
M  V30 3518 C 370.472 -2.30483 0.120835 0
M  V30 3519 C 371.442 -1.50022 -0.712923 0
M  V30 3520 O 372.627 -1.78662 -0.669676 0
M  V30 3521 C 369.767 -3.36431 -0.768666 0
M  V30 3522 C 368.88 -4.31927 0.0793922 0
M  V30 3523 C 368.015 -5.24944 -0.81283 0
M  V30 3524 C 367.054 -6.12088 0.0390447 0
M  V30 3525 N 366.191 -6.97412 -0.809969 0
M  V30 3526 H 371.031 -2.83761 0.91015 0
M  V30 3527 H 368.568 -1.39707 0.460463 0
M  V30 3528 H 370.526 -3.96462 -1.29898 0
M  V30 3529 H 369.156 -2.8457 -1.5238 0
M  V30 3530 H 368.208 -3.73382 0.727303 0
M  V30 3531 H 369.52 -4.93319 0.737401 0
M  V30 3532 H 368.674 -5.90078 -1.41042 0
M  V30 3533 H 367.413 -4.63911 -1.50458 0
M  V30 3534 H 366.418 -5.45952 0.649328 0
M  V30 3535 H 367.643 -6.75189 0.727809 0
M  V30 3536 H 365.589 -6.38931 -1.48672 0
M  V30 3537 H 365.506 -7.55712 -0.208789 0
M  V30 3538 H 366.774 -7.66959 -1.39263 0
M  V30 3539 N 371.003 -0.499398 -1.49478 0
M  V30 3540 C 372.419 -0.155261 -1.58843 0
M  V30 3541 C 372.619 1.34008 -1.50479 0
M  V30 3542 O 371.675 2.11589 -1.37791 0
M  V30 3543 C 372.988 -0.730636 -2.91689 0
M  V30 3544 C 374.536 -0.696599 -3.0515 0
M  V30 3545 C 375.011 -1.25001 -4.40612 0
M  V30 3546 N 376.502 -1.21064 -4.47099 0
M  V30 3547 C 377.237 -1.60905 -5.50361 0
M  V30 3548 N 376.733 -2.08331 -6.60735 0
M  V30 3549 N 378.526 -1.52331 -5.41065 0
M  V30 3550 H 370.677 -1.47162 -1.53158 0
M  V30 3551 H 372.94 -0.610309 -0.725415 0
M  V30 3552 H 372.646 -1.77928 -3.03372 0
M  V30 3553 H 372.52 -0.190161 -3.7672 0
M  V30 3554 H 374.907 0.343204 -2.93097 0
M  V30 3555 H 374.988 -1.2742 -2.21806 0
M  V30 3556 H 374.632 -2.28859 -4.53416 0
M  V30 3557 H 374.562 -0.64836 -5.22593 0
M  V30 3558 H 377.053 -0.863128 -3.67911 0
M  V30 3559 H 377.366 -2.36805 -7.35624 0
M  V30 3560 H 375.711 -2.12304 -6.6178 0
M  V30 3561 H 378.902 -1.151 -4.53729 0
M  V30 3562 H 379.075 -1.83704 -6.21415 0
M  V30 3563 N 372.481 1.55866 -0.233164 0
M  V30 3564 C 373.413 2.18099 0.704668 0
M  V30 3565 C 374.426 1.15334 1.14899 0
M  V30 3566 O 375.615 1.42262 1.07814 0
M  V30 3567 C 372.715 2.7592 1.96777 0
M  V30 3568 C 371.888 4.03969 1.67713 0
M  V30 3569 C 370.947 4.46242 2.78845 0
M  V30 3570 O 369.973 5.12903 2.46818 0
M  V30 3571 N 371.175 4.12886 4.08051 0
M  V30 3572 H 373.94 2.99205 0.172258 0
M  V30 3573 H 371.501 1.61815 -0.0525945 0
M  V30 3574 H 373.493 3.01165 2.70337 0
M  V30 3575 H 372.063 1.99051 2.41034 0
M  V30 3576 H 371.283 3.86459 0.777391 0
M  V30 3577 H 372.571 4.8748 1.4574 0
M  V30 3578 H 371.969 3.59342 4.3691 0
M  V30 3579 H 370.526 4.42997 4.78118 0
M  V30 3580 N 373.959 -0.0401083 1.57549 0
M  V30 3581 C 375.375 -0.395556 1.54621 0
M  V30 3582 C 375.575 -1.77281 0.957799 0
M  V30 3583 O 374.631 -2.45888 0.574031 0
M  V30 3584 C 375.944 -0.307535 2.99123 0
M  V30 3585 C 377.492 -0.385425 3.10618 0
M  V30 3586 C 377.967 -0.326973 4.56831 0
M  V30 3587 N 379.458 -0.386102 4.61588 0
M  V30 3588 C 380.193 -0.363591 5.72246 0
M  V30 3589 N 379.689 -0.29402 6.92176 0
M  V30 3590 N 381.482 -0.412503 5.60584 0
M  V30 3591 H 373.633 0.861325 1.94152 0
M  V30 3592 H 375.896 0.326445 0.890021 0
M  V30 3593 H 375.602 0.638461 3.45856 0
M  V30 3594 H 375.476 -1.10552 3.60636 0
M  V30 3595 H 377.863 -1.32185 2.63839 0
M  V30 3596 H 377.944 0.44171 2.51957 0
M  V30 3597 H 377.588 0.605738 5.04275 0
M  V30 3598 H 377.518 -1.17207 5.13391 0
M  V30 3599 H 380.009 -0.442832 3.75296 0
M  V30 3600 H 380.322 -0.28164 7.72287 0
M  V30 3601 H 378.667 -0.260232 6.94513 0
M  V30 3602 H 381.858 -0.464769 4.65787 0
M  V30 3603 H 382.031 -0.391492 6.46816 0
M  V30 3604 N 375.437 -1.54477 -0.31217 0
M  V30 3605 C 376.385 -1.85395 -1.40469 0
M  V30 3606 C 377.379 -0.726749 -1.53019 0
M  V30 3607 O 378.585 -0.910582 -1.55269 0
M  V30 3608 H 374.96 -0.587845 -0.46898 0
M  V30 3609 H 376.931 -2.76736 -1.11623 0
M  V30 3610 C 375.68 -2.10811 -2.76503 0
M  V30 3611 H 375.003 -2.97014 -2.67625 0
M  V30 3612 H 376.443 -2.3639 -3.51988 0
M  V30 3613 C 374.902 -0.903165 -3.24568 0
M  V30 3614 O 375.432 -0.118085 -4.01526 0
M  V30 3615 N 373.638 -0.711634 -2.81752 0
M  V30 3616 H 373.185 -1.35171 -2.19286 0
M  V30 3617 H 373.143 0.0930473 -3.14262 0
M  V30 3618 N 376.915 0.57481 -1.46744 0
M  V30 3619 C 378.331 0.898981 -1.31873 0
M  V30 3620 C 378.531 1.99313 -0.29605 0
M  V30 3621 O 377.587 2.50728 0.298621 0
M  V30 3622 C 378.9 1.30886 -2.7072 0
M  V30 3623 C 380.448 1.42127 -2.78871 0
M  V30 3624 C 380.923 1.86478 -4.18318 0
M  V30 3625 N 382.414 1.93658 -4.20774 0
M  V30 3626 C 383.149 2.29267 -5.2557 0
M  V30 3627 N 382.645 2.63612 -6.40688 0
M  V30 3628 N 384.438 2.29889 -5.1294 0
M  V30 3629 H 376.589 -0.147839 -2.11885 0
M  V30 3630 H 378.852 -0.00347013 -0.947994 0
M  V30 3631 H 378.558 0.578853 -3.46904 0
M  V30 3632 H 378.432 2.26874 -3.01343 0
M  V30 3633 H 380.819 2.14213 -2.0297 0
M  V30 3634 H 380.9 0.443705 -2.51922 0
M  V30 3635 H 380.544 1.14968 -4.94717 0
M  V30 3636 H 380.474 2.85207 -4.42679 0
M  V30 3637 H 382.965 1.69574 -3.37718 0
M  V30 3638 H 383.278 2.89759 -7.16421 0
M  V30 3639 H 381.623 2.61232 -6.44036 0
M  V30 3640 H 384.814 2.02485 -4.22039 0
M  V30 3641 H 384.987 2.57312 -5.94722 0
M  V30 3642 N 378.394 1.34581 0.820102 0
M  V30 3643 C 379.634 1.28448 1.58998 0
M  V30 3644 C 379.998 -0.142883 1.91468 0
M  V30 3645 O 381.199 -0.328422 2.66786 0
M  V30 3646 C 379.47 2.153 2.85273 0
M  V30 3647 S 381.029 2.26548 3.75794 0
M  V30 3648 H 377.847 0.456685 0.54494 0
M  V30 3649 H 380.449 1.69825 0.968487 0
M  V30 3650 H 379.153 3.18008 2.59421 0
M  V30 3651 H 378.684 1.7483 3.52417 0
M  V30 3652 H 380.699 1.44034 4.74835 0
M  V30 3653 N 379.872 -1.04064 1.18357 0
M  V30 3654 C 380.804 -2.12114 0.868358 0
M  V30 3655 C 381.817 -1.62247 -0.134045 0
M  V30 3656 O 383.006 -1.78253 0.0937933 0
M  V30 3657 C 380.106 -3.37773 0.276132 0
M  V30 3658 C 379.279 -4.16874 1.3242 0
M  V30 3659 C 378.338 -5.20861 0.747662 0
M  V30 3660 O 377.364 -5.51141 1.42239 0
M  V30 3661 N 378.566 -5.78715 -0.454823 0
M  V30 3662 H 381.331 -2.39748 1.79836 0
M  V30 3663 H 378.892 -1.20258 1.08396 0
M  V30 3664 H 380.884 -4.04513 -0.123133 0
M  V30 3665 H 379.454 -3.07581 -0.557895 0
M  V30 3666 H 378.674 -3.45456 1.89878 0
M  V30 3667 H 379.962 -4.66516 2.03078 0
M  V30 3668 H 379.36 -5.56415 -1.02073 0
M  V30 3669 H 377.917 -6.46921 -0.79601 0
M  V30 3670 N 381.35 -0.985608 -1.22978 0
M  V30 3671 C 382.58 -0.674603 -1.95276 0
M  V30 3672 C 382.988 0.763483 -1.73111 0
M  V30 3673 O 382.331 1.52601 -1.02268 0
M  V30 3674 C 382.393 -0.891597 -3.48268 0
M  V30 3675 C 382.057 -2.31275 -3.94158 0
M  V30 3676 C 383.054 -3.29179 -4.02415 0
M  V30 3677 C 380.739 -2.64524 -4.27004 0
M  V30 3678 C 382.733 -4.58407 -4.42879 0
M  V30 3679 C 380.42 -3.93974 -4.67149 0
M  V30 3680 C 381.418 -4.90727 -4.75053 0
M  V30 3681 O 381.106 -6.17865 -5.14294 0
M  V30 3682 H 380.838 -0.249251 -0.628371 0
M  V30 3683 H 383.392 -1.32106 -1.5728 0
M  V30 3684 H 381.622 -0.187962 -3.86243 0
M  V30 3685 H 383.311 -0.576957 -4.01779 0
M  V30 3686 H 384.077 -3.04823 -3.77237 0
M  V30 3687 H 379.956 -1.89923 -4.2006 0
M  V30 3688 H 383.5 -5.33926 -4.48964 0
M  V30 3689 H 379.397 -4.18122 -4.91777 0
M  V30 3690 H 380.165 -6.21694 -5.32389 0
M  V30 3691 N 382.828 1.3818 -0.7579 0
M  V30 3692 C 384.068 2.01864 -0.320968 0
M  V30 3693 C 384.432 1.58863 1.07827 0
M  V30 3694 O 385.633 2.14908 1.61456 0
M  V30 3695 C 383.904 3.54626 -0.44446 0
M  V30 3696 S 385.463 4.38706 -0.0907467 0
M  V30 3697 H 382.281 0.700056 -0.124268 0
M  V30 3698 H 384.883 1.68611 -0.989468 0
M  V30 3699 H 383.587 3.83411 -1.4637 0
M  V30 3700 H 383.118 3.92661 0.241073 0
M  V30 3701 H 385.133 4.83435 1.11826 0
M  V30 3702 N 384.306 0.507319 1.49211 0
M  V30 3703 C 385.722 0.163682 1.58758 0
M  V30 3704 C 385.922 -1.33208 1.51188 0
M  V30 3705 O 384.978 -2.10855 1.38911 0
M  V30 3706 C 386.291 0.746095 2.91297 0
M  V30 3707 C 387.839 0.712773 3.04776 0
M  V30 3708 C 388.314 1.27336 4.39943 0
M  V30 3709 N 389.805 1.23433 4.46451 0
M  V30 3710 C 390.54 1.63821 5.495 0
M  V30 3711 N 390.036 2.11832 6.5962 0
M  V30 3712 N 391.829 1.55198 5.4025 0
M  V30 3713 H 383.98 1.47972 1.52375 0
M  V30 3714 H 386.243 0.614147 0.722168 0
M  V30 3715 H 385.949 1.79534 3.02424 0
M  V30 3716 H 385.823 0.210137 3.76614 0
M  V30 3717 H 388.21 -0.327656 2.93275 0
M  V30 3718 H 388.291 1.28595 2.21127 0
M  V30 3719 H 387.935 2.3126 4.52196 0
M  V30 3720 H 387.865 0.676066 5.22242 0
M  V30 3721 H 390.356 0.882627 3.67448 0
M  V30 3722 H 390.669 2.40703 7.34358 0
M  V30 3723 H 389.014 2.1581 6.60644 0
M  V30 3724 H 392.205 1.17505 4.53112 0
M  V30 3725 H 392.378 1.86997 6.20432 0
M  V30 3726 N 385.784 -1.5574 0.241426 0
M  V30 3727 C 387.014 -2.02913 -0.38857 0
M  V30 3728 C 387.422 -1.12014 -1.52478 0
M  V30 3729 O 386.765 -0.125903 -1.83268 0
M  V30 3730 C 386.827 -3.4636 -0.963075 0
M  V30 3731 C 386.491 -4.56982 0.0401916 0
M  V30 3732 C 387.488 -5.12941 0.847766 0
M  V30 3733 C 385.173 -5.0203 0.164699 0
M  V30 3734 C 387.167 -6.12437 1.76636 0
M  V30 3735 C 384.854 -6.01358 1.0868 0
M  V30 3736 C 385.852 -6.5644 1.88616 0
M  V30 3737 O 385.54 -7.53831 2.79273 0
M  V30 3738 H 385.272 -0.668983 -0.0971452 0
M  V30 3739 H 387.826 -2.02198 0.361248 0
M  V30 3740 H 386.056 -3.44206 -1.76235 0
M  V30 3741 H 387.745 -3.77065 -1.50257 0
M  V30 3742 H 388.511 -4.78974 0.762133 0
M  V30 3743 H 384.39 -4.58824 -0.447411 0
M  V30 3744 H 387.934 -6.55355 2.39071 0
M  V30 3745 H 383.831 -6.34746 1.17338 0
M  V30 3746 H 384.599 -7.71428 2.73572 0
M  V30 3747 N 387.262 0.0317525 -1.57568 0
M  V30 3748 C 388.194 1.06073 -2.03178 0
M  V30 3749 C 389.207 1.32627 -0.944132 0
M  V30 3750 O 390.396 1.30162 -1.22148 0
M  V30 3751 C 387.496 2.40297 -2.38978 0
M  V30 3752 C 386.669 2.33137 -3.70089 0
M  V30 3753 C 385.728 3.49787 -3.9311 0
M  V30 3754 O 384.754 3.29403 -4.64201 0
M  V30 3755 N 385.956 4.71562 -3.38541 0
M  V30 3756 H 388.721 0.672006 -2.92069 0
M  V30 3757 H 386.282 0.219745 -1.60402 0
M  V30 3758 H 388.274 3.1705 -2.51518 0
M  V30 3759 H 386.844 2.71024 -1.55771 0
M  V30 3760 H 386.064 1.415 -3.67928 0
M  V30 3761 H 387.352 2.25493 -4.56104 0
M  V30 3762 H 386.75 4.91024 -2.80912 0
M  V30 3763 H 385.307 5.45689 -3.56464 0
M  V30 3764 N 388.74 1.54641 0.303973 0
M  V30 3765 C 389.687 1.85386 1.37479 0
M  V30 3766 C 390.657 0.702528 1.50512 0
M  V30 3767 O 391.842 0.950867 1.65418 0
M  V30 3768 C 388.982 2.10413 2.73533 0
M  V30 3769 C 388.095 3.38049 2.68974 0
M  V30 3770 C 387.23 3.52934 3.97002 0
M  V30 3771 C 386.269 4.74373 3.86829 0
M  V30 3772 N 385.406 4.8608 5.06627 0
M  V30 3773 H 390.246 2.76732 1.1056 0
M  V30 3774 H 387.783 1.37034 0.534805 0
M  V30 3775 H 389.741 2.22919 3.52652 0
M  V30 3776 H 388.371 1.22338 2.98719 0
M  V30 3777 H 387.423 3.3418 1.81736 0
M  V30 3778 H 388.735 4.27288 2.57346 0
M  V30 3779 H 387.889 3.65088 4.84557 0
M  V30 3780 H 386.628 2.61824 4.1146 0
M  V30 3781 H 385.633 4.62255 2.97658 0
M  V30 3782 H 386.858 5.66888 3.73918 0
M  V30 3783 H 384.804 3.97891 5.21554 0
M  V30 3784 H 384.721 5.69315 4.9741 0
M  V30 3785 H 385.989 5.02587 5.95841 0
M  V30 3786 N 390.218 -0.567019 1.47046 0
M  V30 3787 C 391.458 -1.3355 1.54738 0
M  V30 3788 C 391.822 -1.90947 0.200772 0
M  V30 3789 O 393.023 -2.68367 0.152489 0
M  V30 3790 C 391.294 -2.42317 2.62712 0
M  V30 3791 S 392.853 -3.29383 2.89918 0
M  V30 3792 H 389.671 -0.454788 0.546525 0
M  V30 3793 H 392.273 -0.650191 1.84371 0
M  V30 3794 H 390.977 -1.98568 3.59164 0
M  V30 3795 H 390.508 -3.15601 2.34861 0
M  V30 3796 H 392.523 -4.41548 2.26384 0
M  V30 3797 N 391.696 -1.35014 -0.812953 0
M  V30 3798 C 392.626 -1.30069 -1.93919 0
M  V30 3799 C 393.607 -0.176275 -1.69184 0
M  V30 3800 O 394.792 -0.370227 -1.90638 0
M  V30 3801 C 391.922 -1.06547 -3.30552 0
M  V30 3802 C 390.876 -2.15561 -3.69753 0
M  V30 3803 C 390.202 -1.77214 -5.04479 0
M  V30 3804 C 391.502 -3.57476 -3.808 0
M  V30 3805 H 393.196 -2.24303 -1.98314 0
M  V30 3806 H 390.742 -1.07977 -0.952736 0
M  V30 3807 H 392.695 -1.01729 -4.08937 0
M  V30 3808 H 391.419 -0.0875719 -3.26483 0
M  V30 3809 H 390.078 -2.19466 -2.9365 0
M  V30 3810 H 389.726 -0.780589 -4.96906 0
M  V30 3811 H 389.426 -2.50184 -5.31678 0
M  V30 3812 H 390.95 -1.7391 -5.8531 0
M  V30 3813 H 392.364 -3.55929 -4.4943 0
M  V30 3814 H 390.761 -4.29152 -4.19462 0
M  V30 3815 H 391.831 -3.94091 -2.82525 0
M  V30 3816 N 393.175 1.03435 -1.18907 0
M  V30 3817 C 394.138 2.09756 -0.923844 0
M  V30 3818 C 395.138 1.60528 0.093416 0
M  V30 3819 O 396.328 1.73631 -0.140727 0
M  V30 3820 C 393.46 3.38692 -0.387354 0
M  V30 3821 H 394.653 2.34719 -1.86674 0
M  V30 3822 H 392.206 1.19959 -1.00197 0
M  V30 3823 H 392.941 3.19396 0.561845 0
M  V30 3824 H 392.726 3.75742 -1.12074 0
M  V30 3825 H 394.216 4.17016 -0.220694 0
M  V30 3826 N 394.653 0.992116 1.22453 0
M  V30 3827 C 395.881 0.685944 1.95198 0
M  V30 3828 C 396.296 -0.749233 1.73297 0
M  V30 3829 O 395.653 -1.50549 1.03156 0
M  V30 3830 C 395.704 0.981395 3.47924 0
M  V30 3831 O 395.425 2.36018 3.6909 0
M  V30 3832 C 396.926 0.692815 4.37853 0
M  V30 3833 H 394.146 0.253821 0.621141 0
M  V30 3834 H 396.69 1.32668 1.55626 0
M  V30 3835 H 394.845 0.386481 3.85467 0
M  V30 3836 H 395.259 2.45884 4.63294 0
M  V30 3837 H 396.733 0.949818 5.43767 0
M  V30 3838 H 397.21 -0.373181 4.37612 0
M  V30 3839 H 397.816 1.26874 4.05935 0
M  V30 3840 N 396.131 -1.37776 0.765217 0
M  V30 3841 C 397.379 -1.99454 0.325943 0
M  V30 3842 C 397.7 -1.61049 -1.09947 0
M  V30 3843 O 396.97 -0.872821 -1.75381 0
M  V30 3844 H 395.55 -0.737697 0.117525 0
M  V30 3845 H 398.212 -1.68359 0.981895 0
M  V30 3846 H 397.308 -3.09547 0.398353 0
M  V30 3847 N 397.609 -0.515225 -1.4894 0
M  V30 3848 C 398.542 0.302518 -2.26186 0
M  V30 3849 C 399.52 0.957895 -1.31389 0
M  V30 3850 O 400.704 0.985198 -1.60705 0
M  V30 3851 C 397.831 1.42719 -3.07163 0
M  V30 3852 C 396.877 0.884736 -4.17223 0
M  V30 3853 S 397.71 -0.235767 -5.34981 0
M  V30 3854 C 398.866 0.891731 -6.19515 0
M  V30 3855 H 399.099 -0.353076 -2.95196 0
M  V30 3856 H 396.632 -0.300753 -1.51443 0
M  V30 3857 H 398.59 2.07152 -3.54398 0
M  V30 3858 H 397.251 2.05445 -2.37595 0
M  V30 3859 H 396.444 1.72801 -4.73451 0
M  V30 3860 H 396.046 0.317362 -3.72651 0
M  V30 3861 H 398.338 1.79377 -6.53322 0
M  V30 3862 H 399.281 0.367751 -7.07144 0
M  V30 3863 H 399.689 1.16548 -5.52338 0
M  V30 3864 N 399.087 1.5561 -0.249682 0
M  V30 3865 C 400.034 2.21496 0.648694 0
M  V30 3866 C 401.004 1.17977 1.16921 0
M  V30 3867 O 402.189 1.46434 1.22318 0
M  V30 3868 C 399.329 2.92039 1.83868 0
M  V30 3869 C 398.442 4.10219 1.35442 0
M  V30 3870 C 397.577 4.6847 2.50419 0
M  V30 3871 C 396.616 5.78893 1.98869 0
M  V30 3872 N 395.753 6.31315 3.07223 0
M  V30 3873 H 400.593 2.97892 0.0801582 0
M  V30 3874 H 398.13 1.47074 0.0278031 0
M  V30 3875 H 400.088 3.31138 2.53778 0
M  V30 3876 H 398.718 2.18111 2.37965 0
M  V30 3877 H 397.77 3.76413 0.54928 0
M  V30 3878 H 399.082 4.89927 0.936649 0
M  V30 3879 H 398.236 5.10158 3.28366 0
M  V30 3880 H 396.975 3.87984 2.95499 0
M  V30 3881 H 395.98 5.3668 1.19393 0
M  V30 3882 H 397.205 6.61232 1.54755 0
M  V30 3883 H 395.151 5.53733 3.51732 0
M  V30 3884 H 395.068 7.06224 2.69784 0
M  V30 3885 H 396.336 6.77662 3.8522 0
M  V30 3886 N 400.565 -0.0233959 1.57583 0
M  V30 3887 C 401.981 -0.379134 1.55031 0
M  V30 3888 C 402.181 -1.76255 0.976548 0
M  V30 3889 O 401.237 -2.45266 0.600078 0
M  V30 3890 C 402.55 -0.275792 2.99433 0
M  V30 3891 C 404.098 -0.352458 3.11009 0
M  V30 3892 C 404.573 -0.278501 4.57152 0
M  V30 3893 N 406.064 -0.337123 4.61972 0
M  V30 3894 C 406.799 -0.302876 5.726 0
M  V30 3895 N 406.295 -0.220589 6.92449 0
M  V30 3896 N 408.088 -0.353023 5.6099 0
M  V30 3897 H 400.239 0.881869 1.93227 0
M  V30 3898 H 402.502 0.335867 0.886509 0
M  V30 3899 H 402.208 0.675108 3.4516 0
M  V30 3900 H 402.082 -1.06721 3.61788 0
M  V30 3901 H 404.469 -1.29379 2.65226 0
M  V30 3902 H 404.55 0.468409 2.51475 0
M  V30 3903 H 404.194 0.659189 5.03604 0
M  V30 3904 H 404.124 -1.11755 5.14605 0
M  V30 3905 H 406.615 -0.403002 3.75745 0
M  V30 3906 H 406.928 -0.199713 7.72542 0
M  V30 3907 H 405.273 -0.186555 6.9475 0
M  V30 3908 H 408.464 -0.415339 4.66254 0
M  V30 3909 H 408.637 -0.322866 6.47195 0
M  V30 3910 N 402.043 -1.548 -0.295768 0
M  V30 3911 C 402.953 -1.89177 -1.38742 0
M  V30 3912 C 403.969 -0.786481 -1.55211 0
M  V30 3913 O 405.145 -1.08344 -1.69775 0
M  V30 3914 C 402.21 -2.13663 -2.73036 0
M  V30 3915 C 401.271 -3.37349 -2.65508 0
M  V30 3916 C 400.504 -3.60658 -3.93398 0
M  V30 3917 O 400.727 -2.86882 -4.93006 0
M  V30 3918 O 399.661 -4.54179 -3.94975 0
M  V30 3919 H 403.487 -2.82059 -1.12589 0
M  V30 3920 H 401.072 -1.41056 -0.492295 0
M  V30 3921 H 402.954 -2.3094 -3.52484 0
M  V30 3922 H 401.629 -1.23967 -2.99022 0
M  V30 3923 H 400.536 -3.25431 -1.84514 0
M  V30 3924 H 401.869 -4.27192 -2.44474 0
M  V30 3925 N 403.521 0.559213 -1.47345 0
M  V30 3926 C 404.484 1.64854 -1.59235 0
M  V30 3927 C 405.484 1.53851 -0.467607 0
M  V30 3928 O 406.674 1.58045 -0.732617 0
M  V30 3929 C 403.806 3.04388 -1.53496 0
M  V30 3930 H 404.999 1.55662 -2.56339 0
M  V30 3931 H 402.552 0.778973 -1.35505 0
M  V30 3932 H 403.287 3.19115 -0.577604 0
M  V30 3933 H 403.072 3.13783 -2.35123 0
M  V30 3934 H 404.562 3.83642 -1.6495 0
M  V30 3935 N 404.999 1.35443 0.805782 0
M  V30 3936 C 406.245 1.28952 1.56522 0
M  V30 3937 C 406.578 -0.135597 1.93726 0
M  V30 3938 O 405.853 -1.08516 1.61414 0
M  V30 3939 C 406.136 2.19678 2.85331 0
M  V30 3940 C 405.989 3.7081 2.54598 0
M  V30 3941 C 407.308 2.09495 3.8704 0
M  V30 3942 H 404.427 0.469764 0.567883 0
M  V30 3943 H 407.069 1.65851 0.927001 0
M  V30 3944 H 405.219 1.8834 3.39795 0
M  V30 3945 H 406.891 4.12593 2.06312 0
M  V30 3946 H 405.134 3.91051 1.8778 0
M  V30 3947 H 405.805 4.29679 3.46525 0
M  V30 3948 H 408.281 2.37045 3.41978 0
M  V30 3949 H 407.157 2.75173 4.74943 0
M  V30 3950 H 407.418 1.07714 4.28777 0
M  V30 3951 N 406.477 -1.02803 1.19454 0
M  V30 3952 C 407.409 -2.11181 0.890807 0
M  V30 3953 C 408.422 -1.6238 -0.116829 0
M  V30 3954 O 409.611 -1.78144 0.112694 0
M  V30 3955 C 406.711 -3.37461 0.311942 0
M  V30 3956 C 405.884 -4.15446 1.36834 0
M  V30 3957 C 404.943 -5.20039 0.802864 0
M  V30 3958 O 403.969 -5.49602 1.48077 0
M  V30 3959 N 405.171 -5.79165 -0.393417 0
M  V30 3960 H 407.936 -2.37827 1.82369 0
M  V30 3961 H 405.497 -1.19101 1.09666 0
M  V30 3962 H 407.489 -4.0462 -0.0802225 0
M  V30 3963 H 406.059 -3.08156 -0.52524 0
M  V30 3964 H 405.279 -3.43423 1.93531 0
M  V30 3965 H 406.567 -4.64335 2.08015 0
M  V30 3966 H 405.965 -5.57466 -0.961658 0
M  V30 3967 H 404.522 -6.47729 -0.727351 0
M  V30 3968 N 407.956 -0.998596 -1.21925 0
M  V30 3969 C 408.866 -0.562736 -2.27751 0
M  V30 3970 C 409.882 0.391203 -1.69545 0
M  V30 3971 O 411.058 0.256625 -1.99758 0
M  V30 3972 C 408.123 0.11012 -3.46525 0
M  V30 3973 C 407.184 -0.887495 -4.20026 0
M  V30 3974 C 406.417 -0.246654 -5.3313 0
M  V30 3975 O 406.64 0.958088 -5.62296 0
M  V30 3976 O 405.574 -0.954374 -5.94286 0
M  V30 3977 H 409.4 -1.44329 -2.67213 0
M  V30 3978 H 406.985 -0.767135 -1.28201 0
M  V30 3979 H 408.867 0.486756 -4.18579 0
M  V30 3980 H 407.542 0.965154 -3.08976 0
M  V30 3981 H 406.449 -1.31517 -3.5022 0
M  V30 3982 H 407.782 -1.71191 -4.6147 0
M  V30 3983 N 409.434 1.37368 -0.772513 0
M  V30 3984 C 410.344 2.34053 -0.160081 0
M  V30 3985 C 411.36 1.60216 0.678728 0
M  V30 3986 O 412.536 1.92303 0.59847 0
M  V30 3987 C 409.601 3.3939 0.708182 0
M  V30 3988 C 408.662 4.29048 -0.147172 0
M  V30 3989 C 407.895 5.29354 0.679744 0
M  V30 3990 O 408.118 5.3723 1.91678 0
M  V30 3991 O 407.052 6.01835 0.0885444 0
M  V30 3992 H 410.878 2.88159 -0.959053 0
M  V30 3993 H 408.463 1.39543 -0.533685 0
M  V30 3994 H 410.345 4.03839 1.20384 0
M  V30 3995 H 409.02 2.8761 1.48533 0
M  V30 3996 H 407.927 3.67697 -0.689205 0
M  V30 3997 H 409.26 4.84134 -0.887423 0
M  V30 3998 N 410.912 0.523116 1.48665 0
M  V30 3999 C 412.328 0.180511 1.58576 0
M  V30 4000 C 412.528 -1.31597 1.52592 0
M  V30 4001 O 411.584 -2.0937 1.4114 0
M  V30 4002 C 412.897 0.776949 2.90489 0
M  V30 4003 C 414.445 0.745058 3.04003 0
M  V30 4004 C 414.92 1.31995 4.38567 0
M  V30 4005 N 416.411 1.28162 4.45117 0
M  V30 4006 C 417.146 1.6964 5.47731 0
M  V30 4007 N 416.642 2.18816 6.57337 0
M  V30 4008 N 418.435 1.6092 5.38573 0
M  V30 4009 H 410.586 1.4958 1.50797 0
M  V30 4010 H 412.849 0.621772 0.715614 0
M  V30 4011 H 412.555 1.82732 3.00503 0
M  V30 4012 H 412.429 0.25007 3.7637 0
M  V30 4013 H 414.816 -0.296532 2.93606 0
M  V30 4014 H 414.897 1.30933 2.1975 0
M  V30 4015 H 414.541 2.36043 4.49718 0
M  V30 4016 H 414.471 0.731418 5.21496 0
M  V30 4017 H 416.962 0.92155 3.66491 0
M  V30 4018 H 417.275 2.48478 7.31764 0
M  V30 4019 H 415.62 2.22805 6.58318 0
M  V30 4020 H 418.811 1.22304 4.5184 0
M  V30 4021 H 418.984 1.93567 6.18414 0
M  V30 4022 N 412.39 -1.55475 0.257931 0
M  V30 4023 C 413.322 -2.19192 -0.669881 0
M  V30 4024 C 414.335 -1.17148 -1.1305 0
M  V30 4025 O 415.524 -1.43959 -1.05537 0
M  V30 4026 C 412.624 -2.79016 -1.92363 0
M  V30 4027 C 411.797 -4.06586 -1.61265 0
M  V30 4028 C 410.856 -4.50622 -2.7171 0
M  V30 4029 O 409.882 -5.16765 -2.38627 0
M  V30 4030 N 411.084 -4.19325 -4.01431 0
M  V30 4031 H 413.849 -2.99441 -0.124635 0
M  V30 4032 H 411.41 -1.6171 0.0783311 0
M  V30 4033 H 413.402 -3.05427 -2.65511 0
M  V30 4034 H 411.972 -2.0286 -2.37837 0
M  V30 4035 H 411.192 -3.87646 -0.715811 0
M  V30 4036 H 412.48 -4.89737 -1.37967 0
M  V30 4037 H 411.878 -3.66247 -4.31138 0
M  V30 4038 H 410.435 -4.50547 -4.7101 0
M  V30 4039 N 413.868 0.0150385 -1.57593 0
M  V30 4040 C 415.284 0.370907 -1.5523 0
M  V30 4041 C 415.484 1.75735 -0.985882 0
M  V30 4042 O 414.54 2.44944 -0.613077 0
M  V30 4043 C 415.853 0.259908 -2.99575 0
M  V30 4044 C 417.401 0.335959 -3.11192 0
M  V30 4045 C 417.876 0.254253 -4.57294 0
M  V30 4046 N 419.367 0.312618 -4.62144 0
M  V30 4047 C 420.102 0.272505 -5.72752 0
M  V30 4048 N 419.598 0.183864 -6.92556 0
M  V30 4049 N 421.391 0.323267 -5.6117 0
M  V30 4050 H 413.542 -0.892104 -1.92757 0
M  V30 4051 H 415.805 -0.340563 -0.884715 0
M  V30 4052 H 415.511 -0.693403 -3.44797 0
M  V30 4053 H 415.385 1.048 -3.62349 0
M  V30 4054 H 417.772 1.27971 -2.65909 0
M  V30 4055 H 417.853 -0.481739 -2.51223 0
M  V30 4056 H 417.497 -0.685887 -5.03247 0
M  V30 4057 H 417.427 1.09024 -5.15191 0
M  V30 4058 H 419.918 0.38307 -3.75953 0
M  V30 4059 H 420.231 0.15874 -7.72637 0
M  V30 4060 H 418.576 0.149708 -6.94839 0
M  V30 4061 H 421.767 0.390607 -4.66467 0
M  V30 4062 H 421.94 0.288539 -6.47357 0
M  V30 4063 N 415.346 1.54954 0.287554 0
M  V30 4064 C 416.594 1.74528 1.01904 0
M  V30 4065 C 416.915 0.541349 1.87335 0
M  V30 4066 O 416.185 -0.444108 1.908 0
M  V30 4067 H 414.765 0.643576 0.379235 0
M  V30 4068 H 417.427 1.92333 0.315294 0
M  V30 4069 H 416.523 2.64015 1.6644 0
M  V30 4070 N 416.824 -0.551391 1.4764 0
M  V30 4071 C 417.771 -1.65796 1.60563 0
M  V30 4072 C 418.741 -1.59932 0.448428 0
M  V30 4073 O 419.926 -1.78679 0.669222 0
M  V30 4074 C 417.066 -3.04108 1.63133 0
M  V30 4075 C 416.179 -3.20365 2.89811 0
M  V30 4076 C 415.314 -4.49109 2.8368 0
M  V30 4077 C 414.353 -4.58819 4.05156 0
M  V30 4078 N 413.49 -5.78926 3.97227 0
M  V30 4079 H 418.33 -1.54088 2.5507 0
M  V30 4080 H 415.867 -0.75052 1.26513 0
M  V30 4081 H 417.825 -3.84207 1.62606 0
M  V30 4082 H 416.455 -3.14637 0.721341 0
M  V30 4083 H 415.507 -2.33659 3.00179 0
M  V30 4084 H 416.819 -3.23402 3.79753 0
M  V30 4085 H 415.973 -5.37475 2.81434 0
M  V30 4086 H 414.712 -4.4856 1.91431 0
M  V30 4087 H 413.717 -3.68864 4.077 0
M  V30 4088 H 414.942 -4.61124 4.98539 0
M  V30 4089 H 412.888 -5.79314 3.07785 0
M  V30 4090 H 412.805 -5.83367 4.80853 0
M  V30 4091 H 414.073 -6.69637 3.99007 0
M  V30 4092 N 418.302 -1.35869 -0.798587 0
M  V30 4093 C 419.579 -1.20145 -1.54352 0
M  V30 4094 C 419.959 0.216161 -2.0999 0
M  V30 4095 O 419.307 1.22068 -1.93162 0
M  V30 4096 C 419.517 -2.27602 -2.64572 0
M  V30 4097 C 420.865 -2.63811 -3.32699 0
M  V30 4098 O 421.889 -2.26576 -2.74849 0
M  V30 4099 O 420.748 -3.27866 -4.37226 0
M  V30 4100 H 417.842 -0.467248 -0.682355 0
M  V30 4101 H 420.388 -1.47574 -0.837859 0
M  V30 4102 H 419.16 -3.2265 -2.21388 0
M  V30 4103 H 418.783 -2.01488 -3.42766 0
M  V30 4104 N 419.78 1.02168 -1.19998 0
M  V30 4105 C 420.727 2.10601 -0.944228 0
M  V30 4106 C 421.697 1.65639 0.123664 0
M  V30 4107 O 422.882 1.9079 -0.0199941 0
M  V30 4108 C 420.022 3.41504 -0.496865 0
M  V30 4109 C 419.135 3.99973 -1.63234 0
M  V30 4110 C 418.27 5.18915 -1.13579 0
M  V30 4111 C 417.309 5.69456 -2.24468 0
M  V30 4112 N 416.446 6.79665 -1.76068 0
M  V30 4113 H 421.286 2.31814 -1.8726 0
M  V30 4114 H 418.823 1.13686 -0.933483 0
M  V30 4115 H 420.781 4.16626 -0.218843 0
M  V30 4116 H 419.411 3.2038 0.394508 0
M  V30 4117 H 418.463 3.21997 -2.0254 0
M  V30 4118 H 419.775 4.33492 -2.46752 0
M  V30 4119 H 418.929 6.01222 -0.813429 0
M  V30 4120 H 417.668 4.8695 -0.270434 0
M  V30 4121 H 416.673 4.85757 -2.57526 0
M  V30 4122 H 417.898 6.03459 -3.11472 0
M  V30 4123 H 415.844 6.49538 -0.918516 0
M  V30 4124 H 415.761 7.12349 -2.5317 0
M  V30 4125 H 417.029 7.65549 -1.46817 0
M  V30 4126 N 421.258 1.00505 1.21394 0
M  V30 4127 C 422.535 0.603277 1.86064 0
M  V30 4128 C 422.915 -0.919095 1.90042 0
M  V30 4129 O 422.263 -1.80607 1.39977 0
M  V30 4130 C 422.473 1.23772 3.26315 0
M  V30 4131 C 423.821 1.34586 4.02705 0
M  V30 4132 O 424.845 1.19304 3.35626 0
M  V30 4133 O 423.704 1.59169 5.22807 0
M  V30 4134 H 420.798 0.206634 0.800769 0
M  V30 4135 H 423.344 1.1017 1.29076 0
M  V30 4136 H 422.116 2.27848 3.18121 0
M  V30 4137 H 421.739 0.725648 3.90922 0
M  V30 4138 N 422.737 -1.36956 0.779787 0
M  V30 4139 C 423.985 -1.99097 0.347079 0
M  V30 4140 C 424.306 -1.62206 -1.08232 0
M  V30 4141 O 423.576 -0.891373 -1.74446 0
M  V30 4142 H 422.156 -0.736409 0.125342 0
M  V30 4143 H 424.818 -1.67308 0.999696 0
M  V30 4144 H 423.914 -3.09107 0.431162 0
M  V30 4145 N 424.215 -0.530993 -1.48385 0
M  V30 4146 C 425.492 0.0671788 -1.95485 0
M  V30 4147 C 425.872 1.51191 -1.47324 0
M  V30 4148 O 425.22 2.17507 -0.700202 0
M  V30 4149 C 425.43 -0.0511206 -3.48963 0
M  V30 4150 C 426.778 0.107632 -4.24464 0
M  V30 4151 O 427.802 0.0226248 -3.56193 0
M  V30 4152 O 426.661 0.285972 -5.45751 0
M  V30 4153 H 423.755 0.0787365 -0.823243 0
M  V30 4154 H 426.301 -0.595662 -1.58902 0
M  V30 4155 H 425.073 -1.05747 -3.7674 0
M  V30 4156 H 424.696 0.650525 -3.92242 0
M  V30 4157 N 425.693 1.55336 -0.266172 0
M  V30 4158 C 426.941 1.99003 0.35246 0
M  V30 4159 C 427.262 1.15591 1.57047 0
M  V30 4160 O 426.532 0.243268 1.94384 0
M  V30 4161 H 425.112 0.735025 0.133217 0
M  V30 4162 H 427.774 1.91367 -0.369434 0
M  V30 4163 H 426.87 3.05289 0.648453 0
M  V30 4164 N 427.171 -0.0066808 1.57599 0
M  V30 4165 C 428.081 -1.01671 2.11424 0
M  V30 4166 C 429.097 -1.38143 1.05795 0
M  V30 4167 O 430.273 -1.47011 1.37658 0
M  V30 4168 C 427.338 -2.29192 2.60139 0
M  V30 4169 C 426.399 -1.99094 3.80342 0
M  V30 4170 C 425.632 -3.20535 4.26724 0
M  V30 4171 O 425.855 -4.3199 3.72479 0
M  V30 4172 O 424.789 -3.04924 5.18946 0
M  V30 4173 H 428.615 -0.589181 2.9793 0
M  V30 4174 H 426.2 -0.225091 1.47695 0
M  V30 4175 H 428.082 -3.0412 2.917 0
M  V30 4176 H 426.757 -2.71195 1.76733 0
M  V30 4177 H 425.664 -1.21663 3.53764 0
M  V30 4178 H 426.997 -1.61931 4.648 0
M  V30 4179 N 428.649 -1.55105 -0.279332 0
M  V30 4180 C 429.897 -1.75066 -1.00977 0
M  V30 4181 C 430.218 -0.551276 -1.87045 0
M  V30 4182 O 429.488 0.433984 -1.91032 0
M  V30 4183 H 428.068 -0.645578 -0.375816 0
M  V30 4184 H 430.73 -1.92497 -0.305089 0
M  V30 4185 H 429.826 -2.64894 -1.65038 0
M  V30 4186 N 430.127 0.543554 -1.4793 0
M  V30 4187 C 431.09 1.63156 -1.60975 0
M  V30 4188 C 432.09 1.53346 -0.483899 0
M  V30 4189 O 433.28 1.5726 -0.749339 0
M  V30 4190 C 430.412 3.02743 -1.56716 0
M  V30 4191 H 431.605 1.52934 -2.57975 0
M  V30 4192 H 429.158 0.764557 -1.36324 0
M  V30 4193 H 429.893 3.18484 -0.611418 0
M  V30 4194 H 429.678 3.11272 -2.38438 0
M  V30 4195 H 431.168 3.81871 -1.6901 0
M  V30 4196 N 431.605 1.3629 0.791371 0
M  V30 4197 C 432.853 1.30154 1.5461 0
M  V30 4198 C 433.174 -0.119409 1.94634 0
M  V30 4199 O 432.444 -1.05924 1.64794 0
M  V30 4200 H 431.024 0.478784 0.573389 0
M  V30 4201 H 433.686 1.70565 0.94306 0
M  V30 4202 H 432.782 1.92762 2.45457 0
M  V30 4203 N 433.083 -1.0153 1.20538 0
M  V30 4204 C 434.331 -1.74803 1.01432 0
M  V30 4205 C 434.652 -1.8963 -0.454456 0
M  V30 4206 O 433.922 -1.43975 -1.32846 0
M  V30 4207 H 432.502 -0.647598 0.372324 0
M  V30 4208 H 435.164 -1.22402 1.5167 0
M  V30 4209 H 434.26 -2.75114 1.47373 0
M  V30 4210 N 434.561 -1.01147 -1.20859 0
M  V30 4211 C 435.524 -0.582224 -2.21682 0
M  V30 4212 C 436.524 0.344887 -1.57058 0
M  V30 4213 O 437.714 0.134281 -1.73682 0
M  V30 4214 C 434.846 0.150496 -3.40568 0
M  V30 4215 H 436.039 -1.47408 -2.61172 0
M  V30 4216 H 433.592 -0.800695 -1.34233 0
M  V30 4217 H 434.327 1.0575 -3.06574 0
M  V30 4218 H 434.112 -0.515444 -3.88697 0
M  V30 4219 H 435.602 0.438344 -4.15293 0
M  V30 4220 N 436.039 1.36541 -0.78704 0
M  V30 4221 C 437.45 1.81873 -0.421807 0
M  V30 4222 C 437.801 1.65487 1.05397 0
M  V30 4223 O 436.926 1.17448 1.81755 0
M  V30 4224 C 437.521 3.30192 -0.758841 0
M  V30 4225 C 436.08 3.73743 -0.446468 0
M  V30 4226 C 435.227 2.58844 -0.994728 0
M  V30 4227 H 438.178 1.24796 -0.98039 0
M  V30 4228 H 438.199 3.80468 -0.0490648 0
M  V30 4229 H 437.711 3.42087 -1.83299 0
M  V30 4230 H 435.812 3.6741 0.619739 0
M  V30 4231 H 435.925 4.69272 -0.965415 0
M  V30 4232 H 434.289 2.51245 -0.418087 0
M  V30 4233 H 435.072 2.73525 -2.07458 0
M  V30 4234 N 437.518 0.538854 1.48102 0
M  V30 4235 C 438.428 -0.222648 2.33541 0
M  V30 4236 C 439.444 -0.930225 1.47047 0
M  V30 4237 O 440.62 -0.903211 1.80011 0
M  V30 4238 C 437.685 -1.25064 3.23357 0
M  V30 4239 C 436.746 -0.552469 4.2573 0
M  V30 4240 C 435.979 -1.53149 5.11254 0
M  V30 4241 O 436.202 -2.76487 4.9891 0
M  V30 4242 O 435.136 -1.06602 5.92385 0
M  V30 4243 H 438.962 0.477707 2.99919 0
M  V30 4244 H 436.547 0.299669 1.46364 0
M  V30 4245 H 438.429 -1.8445 3.78888 0
M  V30 4246 H 437.104 -1.93325 2.59629 0
M  V30 4247 H 436.011 0.082114 3.7401 0
M  V30 4248 H 437.344 0.0883526 4.92121 0
M  V30 4249 N 438.996 -1.55193 0.274407 0
M  V30 4250 C 439.906 -2.26164 -0.623473 0
M  V30 4251 C 440.922 -1.28729 -1.17068 0
M  V30 4252 O 442.098 -1.61663 -1.20112 0
M  V30 4253 C 439.163 -2.96833 -1.7914 0
M  V30 4254 C 438.224 -4.09745 -1.28093 0
M  V30 4255 C 437.457 -4.77034 -2.3932 0
M  V30 4256 O 437.68 -4.4353 -3.5866 0
M  V30 4257 O 436.614 -5.64996 -2.07516 0
M  V30 4258 H 440.44 -3.03661 -0.0485661 0
M  V30 4259 H 438.025 -1.49341 0.0418382 0
M  V30 4260 H 439.907 -3.41248 -2.4724 0
M  V30 4261 H 438.582 -2.22253 -2.35341 0
M  V30 4262 H 437.489 -3.69787 -0.566416 0
M  V30 4263 H 438.822 -4.86224 -0.764683 0
M  V30 4264 N 440.474 -0.00167713 -1.576 0
M  V30 4265 C 441.407 1.02317 -2.03977 0
M  V30 4266 C 442.385 1.33381 -0.929963 0
M  V30 4267 O 443.569 1.45517 -1.19822 0
M  V30 4268 C 440.696 2.35035 -2.43878 0
M  V30 4269 C 439.742 2.19621 -3.65607 0
M  V30 4270 S 440.575 1.52068 -5.13455 0
M  V30 4271 C 441.731 2.86212 -5.56627 0
M  V30 4272 H 441.964 0.628285 -2.90585 0
M  V30 4273 H 439.497 0.209239 -1.52976 0
M  V30 4274 H 441.455 3.11345 -2.67534 0
M  V30 4275 H 440.116 2.71663 -1.57665 0
M  V30 4276 H 439.309 3.1767 -3.91282 0
M  V30 4277 H 438.911 1.51455 -3.41961 0
M  V30 4278 H 441.203 3.82509 -5.59189 0
M  V30 4279 H 442.146 2.65235 -6.56549 0
M  V30 4280 H 442.554 2.90199 -4.84195 0
M  V30 4281 N 441.952 1.55251 0.271103 0
M  V30 4282 C 443.363 1.66635 0.842007 0
M  V30 4283 C 443.714 0.594631 1.86972 0
M  V30 4284 O 442.839 -0.263532 2.14789 0
M  V30 4285 C 443.434 3.02082 1.53401 0
M  V30 4286 C 441.993 3.15487 2.05293 0
M  V30 4287 C 441.14 2.62438 0.895631 0
M  V30 4288 H 444.091 1.58629 0.0474117 0
M  V30 4289 H 444.112 2.95176 2.40107 0
M  V30 4290 H 443.624 3.80062 0.785786 0
M  V30 4291 H 441.725 2.42284 2.83071 0
M  V30 4292 H 441.838 4.22075 2.26693 0
M  V30 4293 H 440.202 2.19644 1.28953 0
M  V30 4294 H 440.985 3.42923 0.160878 0
M  V30 4295 N 443.43 -0.535701 1.48216 0
M  V30 4296 C 444.676 -1.29375 1.56173 0
M  V30 4297 C 445.009 -1.92804 0.232429 0
M  V30 4298 O 444.284 -1.78992 -0.761048 0
M  V30 4299 C 444.567 -2.38747 2.69577 0
M  V30 4300 C 444.42 -1.80046 4.12193 0
M  V30 4301 C 445.739 -3.40551 2.78771 0
M  V30 4302 H 442.858 -0.469027 0.568491 0
M  V30 4303 H 445.5 -0.597358 1.80365 0
M  V30 4304 H 443.65 -2.98147 2.4908 0
M  V30 4305 H 445.322 -1.24742 4.44114 0
M  V30 4306 H 443.565 -1.10609 4.19462 0
M  V30 4307 H 444.236 -2.59212 4.87353 0
M  V30 4308 H 446.712 -2.91099 2.97322 0
M  V30 4309 H 445.588 -4.1448 3.59857 0
M  V30 4310 H 445.849 -4.00746 1.86696 0
M  V30 4311 N 444.908 -1.36708 -0.784132 0
M  V30 4312 C 446.185 -1.21776 -1.53069 0
M  V30 4313 C 446.565 0.193876 -2.10208 0
M  V30 4314 O 445.913 1.20012 -1.94446 0
M  V30 4315 C 446.123 -2.30395 -2.62143 0
M  V30 4316 C 447.471 -2.67325 -3.29882 0
M  V30 4317 O 448.495 -2.29478 -2.7243 0
M  V30 4318 O 447.354 -3.32485 -4.33724 0
M  V30 4319 H 444.448 -0.474459 -0.677361 0
M  V30 4320 H 446.994 -1.48454 -0.82216 0
M  V30 4321 H 445.766 -3.2498 -2.17953 0
M  V30 4322 H 445.389 -2.05112 -3.40609 0
M  V30 4323 N 446.386 1.0089 -1.21074 0
M  V30 4324 C 447.802 1.2695 -0.967257 0
M  V30 4325 C 448.002 1.9846 0.348673 0
M  V30 4326 O 447.058 2.28459 1.0753 0
M  V30 4327 C 448.371 2.09697 -2.15517 0
M  V30 4328 C 449.919 2.22937 -2.197 0
M  V30 4329 C 450.394 3.09064 -3.37999 0
M  V30 4330 N 451.885 3.16653 -3.38061 0
M  V30 4331 C 452.62 3.8354 -4.26245 0
M  V30 4332 N 452.116 4.52488 -5.2462 0
M  V30 4333 N 453.909 3.80141 -4.14064 0
M  V30 4334 H 446.06 0.529005 -2.05707 0
M  V30 4335 H 448.323 0.296148 -0.900556 0
M  V30 4336 H 448.029 1.64497 -3.10859 0
M  V30 4337 H 447.903 3.10444 -2.14253 0
M  V30 4338 H 450.29 2.67357 -1.24916 0
M  V30 4339 H 450.371 1.21673 -2.2501 0
M  V30 4340 H 450.015 2.65347 -4.33074 0
M  V30 4341 H 449.945 4.10433 -3.29928 0
M  V30 4342 H 452.436 2.67566 -2.66865 0
M  V30 4343 H 452.749 5.01219 -5.88217 0
M  V30 4344 H 451.094 4.51288 -5.28549 0
M  V30 4345 H 454.285 3.25427 -3.36474 0
M  V30 4346 H 454.458 4.31992 -4.82998 0
M  V30 4347 N 447.864 1.01787 1.20321 0
M  V30 4348 C 449.113 0.703249 1.89043 0
M  V30 4349 C 449.426 -0.770445 1.79787 0
M  V30 4350 O 450.632 -1.19767 2.43656 0
M  V30 4351 C 449.088 1.20749 3.3904 0
M  V30 4352 C 448.696 2.70817 3.56878 0
M  V30 4353 C 450.44 0.968352 4.13308 0
M  V30 4354 C 448.347 3.14716 5.00708 0
M  V30 4355 H 447.277 0.259354 0.707991 0
M  V30 4356 H 449.928 1.23072 1.36108 0
M  V30 4357 H 448.31 0.607989 3.91305 0
M  V30 4358 H 449.484 3.36327 3.14993 0
M  V30 4359 H 447.799 2.92888 2.95983 0
M  V30 4360 H 450.396 1.27173 5.19356 0
M  V30 4361 H 450.739 -0.095149 4.16191 0
M  V30 4362 H 451.272 1.53129 3.67146 0
M  V30 4363 H 448.011 4.20347 5.02979 0
M  V30 4364 H 447.531 2.53927 5.43398 0
M  V30 4365 H 449.21 3.07426 5.69296 0
M  V30 4366 N 449.342 -1.36122 0.79427 0
M  V30 4367 C 450.272 -2.32551 0.210328 0
M  V30 4368 C 451.253 -1.56884 -0.657386 0
M  V30 4369 O 452.438 -1.85014 -0.590207 0
M  V30 4370 C 449.568 -3.41128 -0.651819 0
M  V30 4371 C 448.522 -4.27842 0.116395 0
M  V30 4372 C 447.848 -5.2763 -0.86666 0
M  V30 4373 C 449.148 -5.05647 1.30837 0
M  V30 4374 H 450.842 -2.81636 1.01594 0
M  V30 4375 H 448.388 -1.35407 0.489981 0
M  V30 4376 H 450.341 -4.07581 -1.07031 0
M  V30 4377 H 449.065 -2.90622 -1.49019 0
M  V30 4378 H 447.724 -3.62952 0.515915 0
M  V30 4379 H 447.372 -4.73395 -1.70019 0
M  V30 4380 H 447.072 -5.86514 -0.35705 0
M  V30 4381 H 448.596 -5.96955 -1.28361 0
M  V30 4382 H 450.01 -5.65113 0.965393 0
M  V30 4383 H 448.407 -5.73967 1.75161 0
M  V30 4384 H 449.477 -4.37006 2.10128 0
M  V30 4385 N 450.82 -0.546701 -1.47814 0
M  V30 4386 C 451.73 0.21026 -2.33656 0
M  V30 4387 C 452.746 0.922413 -1.47538 0
M  V30 4388 O 453.922 0.893652 -1.80488 0
M  V30 4389 C 450.987 1.23348 -3.24016 0
M  V30 4390 C 450.048 0.529883 -4.26017 0
M  V30 4391 C 449.281 1.50435 -5.12059 0
M  V30 4392 O 449.504 2.73837 -5.00369 0
M  V30 4393 O 448.438 1.03459 -5.92942 0
M  V30 4394 H 452.264 -0.493605 -2.99662 0
M  V30 4395 H 449.849 -0.307427 -1.46203 0
M  V30 4396 H 451.731 1.82438 -3.79861 0
M  V30 4397 H 450.406 1.91945 -2.60651 0
M  V30 4398 H 449.313 -0.101948 -3.73961 0
M  V30 4399 H 450.646 -0.11445 -4.92067 0
M  V30 4400 N 452.299 1.55045 -0.282633 0
M  V30 4401 C 453.262 2.21515 0.588539 0
M  V30 4402 C 454.262 1.19535 1.07554 0
M  V30 4403 O 455.452 1.44391 0.974514 0
M  V30 4404 C 452.584 2.88704 1.8128 0
M  V30 4405 H 453.777 2.99899 0.00806397 0
M  V30 4406 H 451.33 1.56265 -0.0333067 0
M  V30 4407 H 452.065 2.14352 2.43359 0
M  V30 4408 H 451.85 3.63443 1.47144 0
M  V30 4409 H 453.34 3.39465 2.43214 0
M  V30 4410 N 453.777 0.010035 1.57597 0
M  V30 4411 C 454.687 -0.994226 2.12491 0
M  V30 4412 C 455.703 -1.37013 1.07254 0
M  V30 4413 O 456.879 -1.45542 1.3921 0
M  V30 4414 C 453.944 -2.2642 2.62555 0
M  V30 4415 C 453.005 -1.95049 3.82432 0
M  V30 4416 C 452.238 -3.15991 4.30099 0
M  V30 4417 O 452.461 -4.28015 3.7704 0
M  V30 4418 O 451.395 -2.99403 5.22151 0
M  V30 4419 H 455.221 -0.557549 2.98538 0
M  V30 4420 H 452.806 -0.209413 1.47925 0
M  V30 4421 H 454.688 -3.01009 2.9491 0
M  V30 4422 H 453.363 -2.69306 1.796 0
M  V30 4423 H 452.27 -1.17904 3.55034 0
M  V30 4424 H 453.603 -1.56992 4.66491 0
M  V30 4425 N 455.255 -1.55392 -0.262866 0
M  V30 4426 C 456.185 -1.91978 -1.32917 0
M  V30 4427 C 457.166 -0.7828 -1.51017 0
M  V30 4428 O 458.351 -1.04178 -1.63892 0
M  V30 4429 C 455.481 -2.20055 -2.68687 0
M  V30 4430 C 454.435 -3.35854 -2.65304 0
M  V30 4431 C 453.761 -3.49435 -4.04721 0
M  V30 4432 C 455.061 -4.71977 -2.23685 0
M  V30 4433 H 456.755 -2.81292 -1.02544 0
M  V30 4434 H 454.301 -1.3534 -0.491846 0
M  V30 4435 H 456.254 -2.44237 -3.43404 0
M  V30 4436 H 454.978 -1.27551 -3.00663 0
M  V30 4437 H 453.637 -3.11655 -1.93045 0
M  V30 4438 H 453.285 -2.54379 -4.33936 0
M  V30 4439 H 452.985 -4.27297 -4.0335 0
M  V30 4440 H 454.509 -3.7592 -4.81161 0
M  V30 4441 H 455.923 -4.95637 -2.88127 0
M  V30 4442 H 454.32 -5.52828 -2.33456 0
M  V30 4443 H 455.39 -4.70115 -1.18827 0
M  V30 4444 N 456.733 0.527833 -1.48498 0
M  V30 4445 C 457.696 1.61439 -1.62696 0
M  V30 4446 C 458.696 1.52824 -0.500136 0
M  V30 4447 O 459.886 1.56456 -0.765976 0
M  V30 4448 C 457.018 3.01063 -1.59918 0
M  V30 4449 H 458.211 1.50189 -2.59583 0
M  V30 4450 H 455.764 0.750055 -1.37127 0
M  V30 4451 H 456.499 3.17818 -0.645163 0
M  V30 4452 H 456.284 3.08725 -2.41726 0
M  V30 4453 H 457.774 3.80057 -1.73051 0
M  V30 4454 N 458.211 1.37122 0.776871 0
M  V30 4455 C 459.457 1.32243 1.53752 0
M  V30 4456 C 459.79 -0.0944745 1.9397 0
M  V30 4457 O 459.065 -1.05068 1.6368 0
M  V30 4458 C 459.348 2.25681 2.80607 0
M  V30 4459 C 459.201 3.76127 2.46676 0
M  V30 4460 C 460.52 2.17657 3.82509 0
M  V30 4461 H 457.639 0.481704 0.557791 0
M  V30 4462 H 460.281 1.6778 0.891612 0
M  V30 4463 H 458.431 1.95505 3.35723 0
M  V30 4464 H 460.103 4.16877 1.97513 0
M  V30 4465 H 458.346 3.94946 1.79443 0
M  V30 4466 H 459.017 4.36933 3.37333 0
M  V30 4467 H 461.493 2.44245 3.36873 0
M  V30 4468 H 460.369 2.85185 4.69 0
M  V30 4469 H 460.63 1.16785 4.26396 0
M  V30 4470 N 459.689 -1.00246 1.21608 0
M  V30 4471 C 460.599 -2.12515 0.993709 0
M  V30 4472 C 461.615 -1.73913 -0.0549939 0
M  V30 4473 O 462.791 -2.00943 0.135619 0
M  V30 4474 C 459.856 -3.42083 0.563953 0
M  V30 4475 C 458.917 -3.94843 1.68516 0
M  V30 4476 C 458.15 -5.18226 1.27582 0
M  V30 4477 O 458.373 -5.70201 0.150506 0
M  V30 4478 O 457.307 -5.64497 2.0887 0
M  V30 4479 H 461.133 -2.34152 1.93407 0
M  V30 4480 H 458.718 -1.10891 1.00118 0
M  V30 4481 H 460.6 -4.20073 0.334194 0
M  V30 4482 H 459.275 -3.21828 -0.347665 0
M  V30 4483 H 458.182 -3.18068 1.96935 0
M  V30 4484 H 459.515 -4.19512 2.5743 0
M  V30 4485 N 461.167 -1.02423 -1.1978 0
M  V30 4486 C 462.099 -0.559152 -2.22275 0
M  V30 4487 C 463.112 0.36251 -1.58713 0
M  V30 4488 O 464.301 0.159641 -1.77785 0
M  V30 4489 C 461.401 0.205094 -3.38279 0
M  V30 4490 C 460.574 -0.720361 -4.31427 0
M  V30 4491 C 459.633 -0.00234368 -5.262 0
M  V30 4492 O 458.659 -0.627378 -5.65732 0
M  V30 4493 N 459.861 1.26996 -5.66438 0
M  V30 4494 H 462.626 -1.44064 -2.62804 0
M  V30 4495 H 460.187 -0.902692 -1.34399 0
M  V30 4496 H 462.179 0.694868 -3.9869 0
M  V30 4497 H 460.749 0.987947 -2.96578 0
M  V30 4498 H 459.969 -1.39031 -3.68869 0
M  V30 4499 H 461.257 -1.3495 -4.90577 0
M  V30 4500 H 460.655 1.79858 -5.36347 0
M  V30 4501 H 459.212 1.70432 -6.29123 0
M  V30 4502 N 462.645 1.35699 -0.801477 0
M  V30 4503 C 463.592 2.29876 -0.206294 0
M  V30 4504 C 464.562 1.52565 0.656752 0
M  V30 4505 O 465.747 1.81024 0.602906 0
M  V30 4506 C 462.887 3.39052 0.643272 0
M  V30 4507 C 462 4.31335 -0.239644 0
M  V30 4508 C 461.135 5.27599 0.61744 0
M  V30 4509 C 460.174 6.11521 -0.26619 0
M  V30 4510 N 459.311 6.99938 0.550571 0
M  V30 4511 H 464.151 2.80187 -1.01484 0
M  V30 4512 H 461.688 1.37902 -0.511997 0
M  V30 4513 H 463.646 4.0101 1.15094 0
M  V30 4514 H 462.276 2.9003 1.41713 0
M  V30 4515 H 461.328 3.70426 -0.865381 0
M  V30 4516 H 462.64 4.90243 -0.919985 0
M  V30 4517 H 461.794 5.94906 1.19045 0
M  V30 4518 H 460.533 4.69176 1.33137 0
M  V30 4519 H 459.538 5.43166 -0.851507 0
M  V30 4520 H 460.763 6.72022 -0.9779 0
M  V30 4521 H 458.709 6.44008 1.24856 0
M  V30 4522 H 458.626 7.55966 -0.071832 0
M  V30 4523 H 459.894 7.71599 1.10702 0
M  V30 4524 N 464.123 0.554532 1.47522 0
M  V30 4525 C 465.348 0.0322661 2.07375 0
M  V30 4526 C 465.773 -1.25079 1.40488 0
M  V30 4527 O 465.131 -1.74859 0.47896 0
M  V30 4528 C 465.179 -0.149397 3.6029 0
M  V30 4529 O 464.283 -1.21259 3.9417 0
M  V30 4530 H 463.624 0.0501228 0.662106 0
M  V30 4531 H 466.154 0.769452 1.8958 0
M  V30 4532 H 466.164 -0.364437 4.06369 0
M  V30 4533 H 464.839 0.787743 4.08372 0
M  V30 4534 H 463.416 -0.97825 3.5984 0
M  V30 4535 N 465.601 -1.54893 0.290851 0
M  V30 4536 C 466.878 -1.91991 -0.373989 0
M  V30 4537 C 467.258 -1.21694 -1.72493 0
M  V30 4538 O 466.606 -0.34917 -2.25816 0
M  V30 4539 C 466.816 -3.45419 -0.498703 0
M  V30 4540 C 468.164 -4.1748 -0.774298 0
M  V30 4541 O 469.188 -3.51398 -0.582908 0
M  V30 4542 O 468.047 -5.3445 -1.14129 0
M  V30 4543 H 465.141 -0.800593 -0.207315 0
M  V30 4544 H 467.687 -1.66297 0.338164 0
M  V30 4545 H 466.459 -3.88688 0.451392 0
M  V30 4546 H 466.082 -3.77117 -1.25972 0
M  V30 4547 N 467.08 -0.0183926 -1.57589 0
M  V30 4548 C 468.012 0.995557 -2.06449 0
M  V30 4549 C 469.025 1.29556 -0.985849 0
M  V30 4550 O 470.214 1.2621 -1.26227 0
M  V30 4551 C 467.314 2.32572 -2.46502 0
M  V30 4552 C 466.487 2.21245 -3.77319 0
M  V30 4553 C 465.546 3.37104 -4.04039 0
M  V30 4554 O 464.572 3.14468 -4.74445 0
M  V30 4555 N 465.774 4.60553 -3.53372 0
M  V30 4556 H 468.539 0.578746 -2.94059 0
M  V30 4557 H 466.1 0.168603 -1.6102 0
M  V30 4558 H 468.092 3.08887 -2.61478 0
M  V30 4559 H 466.662 2.65931 -1.64315 0
M  V30 4560 H 465.882 1.29723 -3.72244 0
M  V30 4561 H 467.17 2.10868 -4.63047 0
M  V30 4562 H 466.568 4.81839 -2.96391 0
M  V30 4563 H 465.125 5.34072 -3.73644 0
M  V30 4564 N 468.558 1.5553 0.254621 0
M  V30 4565 C 469.806 1.7665 0.981793 0
M  V30 4566 C 470.127 0.580963 1.86145 0
M  V30 4567 O 469.397 -0.403537 1.91699 0
M  V30 4568 H 467.977 0.651475 0.365498 0
M  V30 4569 H 470.639 1.92958 0.274426 0
M  V30 4570 H 469.735 2.67486 1.60802 0
M  V30 4571 N 470.036 -0.519951 1.48776 0
M  V30 4572 C 471.282 -1.27711 1.57536 0
M  V30 4573 C 471.615 -1.92547 0.252866 0
M  V30 4574 O 470.89 -1.7979 -0.742021 0
M  V30 4575 C 471.173 -2.35875 2.72094 0
M  V30 4576 C 471.026 -1.75664 4.1408 0
M  V30 4577 C 472.345 -3.37575 2.82367 0
M  V30 4578 H 469.464 -0.462971 0.573434 0
M  V30 4579 H 472.106 -0.578194 1.80989 0
M  V30 4580 H 470.256 -2.95488 2.52228 0
M  V30 4581 H 471.928 -1.20025 4.45412 0
M  V30 4582 H 470.171 -1.06154 4.20611 0
M  V30 4583 H 470.842 -2.54029 4.90075 0
M  V30 4584 H 473.318 -2.87929 3.00393 0
M  V30 4585 H 472.194 -4.1064 3.64233 0
M  V30 4586 H 472.455 -3.98743 1.90936 0
M  V30 4587 N 471.514 -1.37532 -0.769588 0
M  V30 4588 C 472.424 -1.35668 -1.91393 0
M  V30 4589 C 473.44 -0.255954 -1.72107 0
M  V30 4590 O 474.616 -0.491704 -1.95305 0
M  V30 4591 C 471.681 -1.16481 -3.26547 0
M  V30 4592 C 470.742 -2.36212 -3.58472 0
M  V30 4593 C 469.975 -2.17932 -4.87177 0
M  V30 4594 O 470.198 -1.1647 -5.58382 0
M  V30 4595 O 469.132 -3.06167 -5.18214 0
M  V30 4596 H 472.958 -2.32055 -1.95918 0
M  V30 4597 H 470.543 -1.18284 -0.912641 0
M  V30 4598 H 472.425 -1.07778 -4.07384 0
M  V30 4599 H 471.1 -0.231687 -3.2287 0
M  V30 4600 H 470.007 -2.50488 -2.77861 0
M  V30 4601 H 471.34 -3.281 -3.66894 0
M  V30 4602 N 472.992 0.995999 -1.22138 0
M  V30 4603 C 474.24 1.73167 -1.042 0
M  V30 4604 C 474.561 1.90329 0.42423 0
M  V30 4605 O 473.831 1.4607 1.30539 0
M  V30 4606 H 472.411 0.641593 -0.38258 0
M  V30 4607 H 475.073 1.19974 -1.53598 0
M  V30 4608 H 474.169 2.72734 -1.51731 0
M  V30 4609 N 474.47 1.03057 1.19235 0
M  V30 4610 C 475.881 0.757449 1.70645 0
M  V30 4611 C 476.232 -0.722735 1.82403 0
M  V30 4612 O 475.357 -1.56325 1.49638 0
M  V30 4613 C 475.952 1.36833 3.09939 0
M  V30 4614 C 474.511 1.14375 3.58602 0
M  V30 4615 C 473.658 1.46533 2.35422 0
M  V30 4616 H 476.609 1.19828 1.04052 0
M  V30 4617 H 476.63 0.766184 3.72706 0
M  V30 4618 H 476.142 2.44562 3.01349 0
M  V30 4619 H 474.243 0.0847542 3.72504 0
M  V30 4620 H 474.356 1.83366 4.42622 0
M  V30 4621 H 472.72 0.884712 2.38841 0
M  V30 4622 H 473.503 2.55349 2.2946 0
M  V30 4623 N 475.948 -1.35272 0.808662 0
M  V30 4624 C 477.196 -1.98316 0.389233 0
M  V30 4625 C 477.517 -1.64465 -1.04767 0
M  V30 4626 O 476.787 -0.928175 -1.72516 0
M  V30 4627 H 475.367 -0.733585 0.140935 0
M  V30 4628 H 478.029 -1.6515 1.03496 0
M  V30 4629 H 477.125 -3.08123 0.496631 0
M  V30 4630 N 477.426 -0.562348 -1.47226 0
M  V30 4631 C 478.674 -0.0401371 -2.0206 0
M  V30 4632 C 478.995 1.3165 -1.43852 0
M  V30 4633 O 478.265 1.85976 -0.615599 0
M  V30 4634 H 476.845 -0.0118479 -0.746906 0
M  V30 4635 H 479.507 -0.73352 -1.8057 0
M  V30 4636 H 478.603 0.0441254 -3.12069 0
M  V30 4637 N 478.904 1.54736 -0.299062 0
M  V30 4638 C 480.132 2.04512 0.313447 0
M  V30 4639 C 480.547 1.17643 1.47667 0
M  V30 4640 O 479.904 0.20164 1.81383 0
M  V30 4641 C 479.955 3.53171 0.771542 0
M  V30 4642 O 479.676 4.36736 -0.345379 0
M  V30 4643 C 481.177 4.18936 1.4494 0
M  V30 4644 H 478.397 0.667507 0.0683784 0
M  V30 4645 H 480.941 1.99752 -0.438129 0
M  V30 4646 H 479.096 3.58298 1.47314 0
M  V30 4647 H 479.51 5.24499 0.0109219 0
M  V30 4648 H 480.984 5.24482 1.72111 0
M  V30 4649 H 481.461 3.68554 2.38883 0
M  V30 4650 H 482.067 4.17879 0.791028 0
M  V30 4651 N 480.382 0.0267497 1.57577 0
M  V30 4652 C 481.63 -0.651116 1.91324 0
M  V30 4653 C 481.951 -1.72804 0.90353 0
M  V30 4654 O 481.221 -1.95822 -0.0552946 0
M  V30 4655 H 479.801 -0.243491 0.706202 0
M  V30 4656 H 482.463 0.0739935 1.94759 0
M  V30 4657 H 481.559 -1.10536 2.9187 0
M  V30 4658 N 481.861 -1.55662 -0.24637 0
M  V30 4659 C 483.109 -1.77168 -0.972411 0
M  V30 4660 C 483.43 -0.590827 -1.85834 0
M  V30 4661 O 482.7 0.393365 -1.9191 0
M  V30 4662 H 481.28 -0.653405 -0.362038 0
M  V30 4663 H 483.942 -1.93101 -0.264189 0
M  V30 4664 H 483.038 -2.68335 -1.59382 0
M  V30 4665 N 483.339 0.512053 -1.4905 0
M  V30 4666 C 484.564 1.2959 -1.6193 0
M  V30 4667 C 484.989 1.85906 -0.286454 0
M  V30 4668 O 484.347 1.65312 0.744426 0
M  V30 4669 C 484.395 2.40987 -2.68249 0
M  V30 4670 O 483.499 3.44531 -2.26654 0
M  V30 4671 H 482.84 0.383053 -0.542371 0
M  V30 4672 H 485.37 0.614231 -1.95162 0
M  V30 4673 H 485.38 2.86913 -2.90078 0
M  V30 4674 H 484.055 1.99361 -3.65004 0
M  V30 4675 H 482.632 3.046 -2.15112 0
M  V30 4676 N 484.817 1.37938 0.762283 0
M  V30 4677 C 486.065 1.33404 1.51815 0
M  V30 4678 C 486.386 -0.0780975 1.94844 0
M  V30 4679 O 485.656 -1.02405 1.67003 0
M  V30 4680 H 484.236 0.490839 0.563104 0
M  V30 4681 H 486.898 1.72527 0.906669 0
M  V30 4682 H 485.994 1.97926 2.41313 0
M  V30 4683 N 486.295 -0.989507 1.22664 0
M  V30 4684 C 487.52 -1.77031 1.08051 0
M  V30 4685 C 487.945 -1.84535 -0.364483 0
M  V30 4686 O 487.303 -1.3003 -1.2634 0
M  V30 4687 C 487.351 -3.18 1.70024 0
M  V30 4688 O 486.455 -4.01161 0.956216 0
M  V30 4689 H 485.796 -0.545008 0.379292 0
M  V30 4690 H 488.326 -1.24277 1.62531 0
M  V30 4691 H 488.336 -3.68616 1.74888 0
M  V30 4692 H 487.011 -3.11853 2.75174 0
M  V30 4693 H 485.588 -3.59687 0.98384 0
M  V30 4694 N 487.773 -1.03688 -1.18687 0
M  V30 4695 C 488.998 -0.757819 -1.93059 0
M  V30 4696 C 489.423 0.678353 -1.75442 0
M  V30 4697 O 488.781 1.46938 -1.06203 0
M  V30 4698 C 488.829 -1.12423 -3.42627 0
M  V30 4699 O 487.933 -0.247505 -4.11657 0
M  V30 4700 H 487.274 -0.279245 -0.602427 0
M  V30 4701 H 489.804 -1.3857 -1.5053 0
M  V30 4702 H 489.814 -1.08454 -3.93322 0
M  V30 4703 H 488.489 -2.17049 -3.54771 0
M  V30 4704 H 487.066 -0.34649 -3.71287 0
M  V30 4705 N 489.251 1.34841 -0.815825 0
M  V30 4706 C 490.662 1.80937 -0.46029 0
M  V30 4707 C 491.013 1.67685 1.01863 0
M  V30 4708 O 490.138 1.21277 1.79223 0
M  V30 4709 C 490.733 3.28509 -0.828708 0
M  V30 4710 C 489.292 3.72712 -0.525644 0
M  V30 4711 C 488.439 2.56676 -1.04941 0
M  V30 4712 H 491.39 1.22688 -1.00664 0
M  V30 4713 H 491.411 3.80279 -0.129757 0
M  V30 4714 H 490.923 3.38122 -1.90513 0
M  V30 4715 H 489.024 3.68642 0.541666 0
M  V30 4716 H 489.137 4.67119 -1.06474 0
M  V30 4717 H 487.501 2.50302 -0.471286 0
M  V30 4718 H 488.284 2.69063 -2.13214 0
M  V30 4719 N 490.729 0.570148 1.46925 0
M  V30 4720 C 491.677 -0.183181 2.31878 0
M  V30 4721 C 492.671 -0.896721 1.43719 0
M  V30 4722 O 493.877 -0.816536 1.60414 0
M  V30 4723 H 490.252 -0.077944 0.74795 0
M  V30 4724 H 492.223 0.552312 2.93244 0
M  V30 4725 C 490.972 -1.19172 3.2664 0
M  V30 4726 H 490.295 -0.652088 3.94446 0
M  V30 4727 H 491.735 -1.68946 3.88887 0
M  V30 4728 C 490.194 -2.24627 2.51086 0
M  V30 4729 O 490.724 -3.31773 2.26472 0
M  V30 4730 N 488.93 -1.98898 2.11867 0
M  V30 4731 H 488.477 -1.11777 2.32086 0
M  V30 4732 H 488.435 -2.6967 1.61634 0
M  V30 4733 N 492.207 -1.54576 0.307264 0
M  V30 4734 C 493.484 -1.92377 -0.353605 0
M  V30 4735 C 493.864 -1.23517 -1.71192 0
M  V30 4736 O 493.212 -0.373101 -2.25433 0
M  V30 4737 C 493.422 -3.45928 -0.462039 0
M  V30 4738 C 494.77 -4.18278 -0.729975 0
M  V30 4739 O 495.794 -3.51997 -0.545605 0
M  V30 4740 O 494.653 -5.3563 -1.08454 0
M  V30 4741 H 491.747 -0.802747 -0.198812 0
M  V30 4742 H 494.293 -1.65929 0.355783 0
M  V30 4743 H 493.065 -3.88187 0.492592 0
M  V30 4744 H 492.688 -3.78431 -1.21965 0
M  V30 4745 N 493.685 -0.035106 -1.57561 0
M  V30 4746 C 495.096 0.502885 -1.798 0
M  V30 4747 C 495.447 1.71892 -0.945921 0
M  V30 4748 O 494.572 2.15822 -0.157991 0
M  V30 4749 C 495.167 0.919097 -3.26095 0
M  V30 4750 C 493.726 1.40216 -3.49308 0
M  V30 4751 C 492.873 0.369709 -2.74824 0
M  V30 4752 H 495.824 -0.261102 -1.56537 0
M  V30 4753 H 495.845 1.78308 -3.36135 0
M  V30 4754 H 495.357 0.0338526 -3.88085 0
M  V30 4755 H 493.458 2.30714 -2.92578 0
M  V30 4756 H 493.571 1.40541 -4.58023 0
M  V30 4757 H 491.935 0.839113 -2.40481 0
M  V30 4758 H 492.718 -0.507173 -3.39533 0
M  V30 4759 N 495.163 1.55791 0.238111 0
M  V30 4760 C 496.409 1.78297 0.966337 0
M  V30 4761 C 496.742 0.601903 1.84637 0
M  V30 4762 O 496.017 -0.399499 1.90353 0
M  V30 4763 C 496.3 3.10758 1.81939 0
M  V30 4764 C 496.153 4.39283 0.966958 0
M  V30 4765 C 497.472 3.39519 2.80027 0
M  V30 4766 H 494.591 0.648654 0.349882 0
M  V30 4767 H 497.233 1.88525 0.236253 0
M  V30 4768 H 495.383 3.02168 2.44185 0
M  V30 4769 H 497.055 4.59873 0.362514 0
M  V30 4770 H 495.298 4.32948 0.271669 0
M  V30 4771 H 495.969 5.28368 1.59784 0
M  V30 4772 H 498.445 3.48128 2.27917 0
M  V30 4773 H 497.321 4.33402 3.36829 0
M  V30 4774 H 497.582 2.60864 3.56934 0
M  V30 4775 N 496.642 -0.504142 1.49319 0
M  V30 4776 C 497.87 -1.28256 1.62351 0
M  V30 4777 C 498.285 -1.86502 0.293682 0
M  V30 4778 O 497.642 -1.67678 -0.720449 0
M  V30 4779 C 497.693 -2.41507 2.68992 0
M  V30 4780 O 497.414 -1.85656 3.96817 0
M  V30 4781 C 498.915 -3.32929 2.927 0
M  V30 4782 H 496.135 -0.389115 0.546654 0
M  V30 4783 H 498.679 -0.605531 1.95329 0
M  V30 4784 H 496.834 -3.05046 2.38801 0
M  V30 4785 H 497.248 -2.59981 4.55533 0
M  V30 4786 H 498.722 -4.0868 3.71058 0
M  V30 4787 H 499.199 -3.89733 2.02496 0
M  V30 4788 H 499.805 -2.75158 3.24296 0
M  V30 4789 N 498.12 -1.38341 -0.754957 0
M  V30 4790 C 499.068 -1.35573 -1.89005 0
M  V30 4791 C 500.062 -0.241824 -1.67665 0
M  V30 4792 O 501.268 -0.410785 -1.7525 0
M  V30 4793 H 497.643 -0.422898 -0.621821 0
M  V30 4794 H 499.614 -2.31359 -1.88455 0
M  V30 4795 C 498.363 -1.19631 -3.26471 0
M  V30 4796 H 497.686 -2.04605 -3.43477 0
M  V30 4797 H 499.126 -1.21748 -4.06144 0
M  V30 4798 C 497.585 0.0968705 -3.36761 0
M  V30 4799 O 498.115 1.07439 -3.87066 0
M  V30 4800 N 496.321 0.153242 -2.90196 0
M  V30 4801 H 495.868 -0.642908 -2.49448 0
M  V30 4802 H 495.826 1.01807 -2.9746 0
M  V30 4803 N 499.598 0.982988 -1.23187 0
M  V30 4804 C 500.847 1.71817 -1.05649 0
M  V30 4805 C 501.16 1.91315 0.407176 0
M  V30 4806 O 502.366 2.62256 0.702436 0
M  V30 4807 C 500.822 3.09188 -1.84203 0
M  V30 4808 C 500.43 2.97586 -3.34882 0
M  V30 4809 C 502.174 3.86684 -1.75146 0
M  V30 4810 C 500.081 4.30173 -4.05839 0
M  V30 4811 H 499.011 0.644258 -0.391724 0
M  V30 4812 H 501.662 1.09659 -1.4713 0
M  V30 4813 H 500.044 3.72087 -1.35527 0
M  V30 4814 H 501.218 2.43793 -3.91026 0
M  V30 4815 H 499.533 2.33567 -3.44725 0
M  V30 4816 H 502.13 4.84836 -2.25473 0
M  V30 4817 H 502.473 4.10136 -0.713737 0
M  V30 4818 H 503.006 3.30482 -2.21419 0
M  V30 4819 H 499.745 4.11918 -5.09906 0
M  V30 4820 H 499.265 4.83841 -3.54482 0
M  V30 4821 H 500.944 4.98873 -4.11989 0
M  V30 4822 N 501.076 1.04316 1.18135 0
M  V30 4823 C 502.316 0.756937 1.89868 0
M  V30 4824 C 502.68 -0.702609 1.78682 0
M  V30 4825 O 503.881 -1.10255 2.45148 0
M  V30 4826 C 502.152 1.21327 3.36176 0
M  V30 4827 S 503.711 1.05307 4.25976 0
M  V30 4828 H 500.529 0.275143 0.655604 0
M  V30 4829 H 503.131 1.33597 1.42731 0
M  V30 4830 H 501.835 2.27086 3.41848 0
M  V30 4831 H 501.366 0.628137 3.88353 0
M  V30 4832 H 503.381 -0.0280093 4.96192 0
M  V30 4833 N 502.554 -1.34406 0.822964 0
M  V30 4834 C 503.486 -2.28305 0.202375 0
M  V30 4835 C 504.499 -1.5103 -0.60777 0
M  V30 4836 O 505.688 -1.73057 -0.437444 0
M  V30 4837 C 502.788 -3.30836 -0.734911 0
M  V30 4838 C 501.961 -4.37388 0.0324177 0
M  V30 4839 C 501.02 -5.1968 -0.825803 0
M  V30 4840 O 500.046 -5.68556 -0.270771 0
M  V30 4841 N 501.248 -5.39393 -2.14558 0
M  V30 4842 H 504.013 -2.82201 1.00909 0
M  V30 4843 H 501.574 -1.4693 0.67993 0
M  V30 4844 H 503.566 -3.82786 -1.31365 0
M  V30 4845 H 502.136 -2.77334 -1.44238 0
M  V30 4846 H 501.356 -3.86152 0.792469 0
M  V30 4847 H 502.644 -5.05702 0.560633 0
M  V30 4848 H 502.042 -5.01357 -2.62025 0
M  V30 4849 H 500.599 -5.94461 -2.67318 0
M  V30 4850 N 504.032 -0.577932 -1.46621 0
M  V30 4851 C 504.995 0.147805 -2.28723 0
M  V30 4852 C 505.995 0.823325 -1.38123 0
M  V30 4853 O 507.185 0.676011 -1.60548 0
M  V30 4854 C 504.317 1.21853 -3.18378 0
M  V30 4855 H 505.51 -0.573654 -2.94362 0
M  V30 4856 H 503.063 -0.335703 -1.52652 0
M  V30 4857 H 503.798 1.97173 -2.57475 0
M  V30 4858 H 503.583 0.738714 -3.85078 0
M  V30 4859 H 505.073 1.72768 -3.80186 0
M  V30 4860 N 505.51 1.54411 -0.315457 0
M  V30 4861 C 506.473 2.22713 0.54142 0
M  V30 4862 C 507.473 1.2179 1.04995 0
M  V30 4863 O 508.663 1.46426 0.943667 0
M  V30 4864 C 505.795 2.92485 1.75116 0
M  V30 4865 H 506.988 2.99849 -0.0555508 0
M  V30 4866 H 504.541 1.56159 -0.0664453 0
M  V30 4867 H 505.276 2.19466 2.38758 0
M  V30 4868 H 505.061 3.66483 1.39401 0
M  V30 4869 H 506.551 3.44548 2.35959 0
M  V30 4870 N 506.988 0.0434614 1.5754 0
M  V30 4871 C 508.265 -0.671479 1.83713 0
M  V30 4872 C 508.645 -1.89495 0.930315 0
M  V30 4873 O 507.993 -2.28498 -0.0105639 0
M  V30 4874 C 508.203 -1.0361 3.33266 0
M  V30 4875 C 509.551 -1.42167 4.00092 0
M  V30 4876 O 510.575 -1.12866 3.37846 0
M  V30 4877 O 509.434 -1.96817 5.09829 0
M  V30 4878 H 506.528 -0.330726 0.75799 0
M  V30 4879 H 509.074 0.0722373 1.69546 0
M  V30 4880 H 507.846 -0.165938 3.90948 0
M  V30 4881 H 507.469 -1.83751 3.52592 0
M  V30 4882 N 508.466 -1.55915 -0.229846 0
M  V30 4883 C 509.413 -1.91734 -1.28478 0
M  V30 4884 C 510.383 -0.773539 -1.46988 0
M  V30 4885 O 511.568 -1.02871 -1.60693 0
M  V30 4886 C 508.708 -2.23224 -2.63182 0
M  V30 4887 C 507.821 -3.50497 -2.52539 0
M  V30 4888 C 506.956 -3.71474 -3.79711 0
M  V30 4889 C 505.995 -4.92289 -3.63755 0
M  V30 4890 N 505.132 -5.09698 -4.82858 0
M  V30 4891 H 509.972 -2.81692 -0.972308 0
M  V30 4892 H 507.509 -1.39429 -0.468815 0
M  V30 4893 H 509.467 -2.3949 -3.41614 0
M  V30 4894 H 508.097 -1.36451 -2.92542 0
M  V30 4895 H 507.149 -3.4247 -1.65585 0
M  V30 4896 H 508.461 -4.39079 -2.36666 0
M  V30 4897 H 507.615 -3.87791 -4.66586 0
M  V30 4898 H 506.354 -2.81157 -3.985 0
M  V30 4899 H 505.359 -4.7593 -2.75264 0
M  V30 4900 H 506.584 -5.84083 -3.46445 0
M  V30 4901 H 504.53 -4.22322 -5.01976 0
M  V30 4902 H 504.447 -5.92399 -4.69681 0
M  V30 4903 H 505.715 -5.30443 -5.71183 0
M  V30 4904 N 509.944 0.496216 -1.49584 0
M  V30 4905 C 510.876 1.61404 -1.62731 0
M  V30 4906 C 511.889 1.54613 -0.50978 0
M  V30 4907 O 513.078 1.60458 -0.782017 0
M  V30 4908 C 510.178 3.00212 -1.57245 0
M  V30 4909 C 509.351 3.32138 -2.84611 0
M  V30 4910 C 508.41 4.5038 -2.72112 0
M  V30 4911 O 507.436 4.51926 -3.46051 0
M  V30 4912 N 508.638 5.50575 -1.83977 0
M  V30 4913 H 511.403 1.50552 -2.59141 0
M  V30 4914 H 508.964 0.684182 -1.46733 0
M  V30 4915 H 510.956 3.77241 -1.4653 0
M  V30 4916 H 509.526 3.04964 -0.686729 0
M  V30 4917 H 508.746 2.4396 -3.09641 0
M  V30 4918 H 510.034 3.50268 -3.69039 0
M  V30 4919 H 509.432 5.52128 -1.23171 0
M  V30 4920 H 507.989 6.26687 -1.79182 0
M  V30 4921 N 511.423 1.38739 0.74761 0
M  V30 4922 C 512.353 1.39173 1.87492 0
M  V30 4923 C 513.334 0.256794 1.6815 0
M  V30 4924 O 514.519 0.460762 1.88655 0
M  V30 4925 C 511.649 1.22197 3.25093 0
M  V30 4926 C 510.603 2.32957 3.59047 0
M  V30 4927 C 509.929 2.01082 4.95449 0
M  V30 4928 C 511.229 3.75237 3.6331 0
M  V30 4929 H 512.923 2.3351 1.87386 0
M  V30 4930 H 510.469 1.12399 0.900134 0
M  V30 4931 H 512.422 1.21124 4.03617 0
M  V30 4932 H 511.146 0.243241 3.25693 0
M  V30 4933 H 509.805 2.33226 2.82845 0
M  V30 4934 H 509.453 1.01678 4.92616 0
M  V30 4935 H 509.153 2.75267 5.19136 0
M  V30 4936 H 510.677 2.01638 5.76346 0
M  V30 4937 H 512.091 3.76966 4.31937 0
M  V30 4938 H 510.488 4.48677 3.98509 0
M  V30 4939 H 511.558 4.07122 2.634 0
M  V30 4940 N 512.901 -0.976442 1.23707 0
M  V30 4941 C 514.148 -1.71827 1.07153 0
M  V30 4942 C 514.476 -1.9053 -0.390982 0
M  V30 4943 O 513.731 -1.45779 -1.30564 0
M  V30 4944 C 514.03 -3.11814 1.74662 0
M  V30 4945 C 513.696 -3.12978 3.24585 0
M  V30 4946 C 512.358 -3.13003 3.6549 0
M  V30 4947 C 514.71 -3.07986 4.20469 0
M  V30 4948 C 512.038 -3.05757 5.00729 0
M  V30 4949 C 514.39 -3.02282 5.55705 0
M  V30 4950 C 513.054 -3.00631 5.95968 0
M  V30 4951 H 512.324 -0.628758 0.392102 0
M  V30 4952 H 514.971 -1.14239 1.53693 0
M  V30 4953 H 513.276 -3.72812 1.20492 0
M  V30 4954 H 514.973 -3.67989 1.59328 0
M  V30 4955 H 511.563 -3.13718 2.92026 0
M  V30 4956 H 515.747 -3.07103 3.89874 0
M  V30 4957 H 511.003 -3.02834 5.31132 0
M  V30 4958 H 515.177 -2.97376 6.29714 0
M  V30 4959 H 512.804 -2.94771 7.00724 0
M  V30 4960 N 514.379 -1.04941 -1.1758 0
M  V30 4961 C 515.607 -0.778294 -1.91703 0
M  V30 4962 C 516.022 0.665697 -1.76675 0
M  V30 4963 O 515.379 1.45456 -1.10222 0
M  V30 4964 C 515.43 -1.14628 -3.42845 0
M  V30 4965 O 515.151 -2.53359 -3.57409 0
M  V30 4966 C 516.652 -0.900931 -4.34049 0
M  V30 4967 H 513.872 -0.283167 -0.608323 0
M  V30 4968 H 516.416 -1.39942 -1.49119 0
M  V30 4969 H 514.571 -0.569953 -3.83184 0
M  V30 4970 H 514.985 -2.67709 -4.51035 0
M  V30 4971 H 516.459 -1.20817 -5.38616 0
M  V30 4972 H 516.936 0.163966 -4.38894 0
M  V30 4973 H 517.542 -1.46097 -3.99419 0
M  V30 4974 N 515.857 1.33968 -0.830081 0
M  V30 4975 C 516.787 2.31911 -0.271911 0
M  V30 4976 C 517.768 1.58571 0.61556 0
M  V30 4977 O 518.953 1.86514 0.540946 0
M  V30 4978 C 516.083 3.42737 0.561146 0
M  V30 4979 C 515.037 4.27383 -0.229789 0
M  V30 4980 C 514.363 5.29742 0.726463 0
M  V30 4981 C 515.663 5.02 -1.44197 0
M  V30 4982 H 517.357 2.78844 -1.09025 0
M  V30 4983 H 514.903 1.34061 -0.52571 0
M  V30 4984 H 516.856 4.10276 0.961867 0
M  V30 4985 H 515.58 2.94471 1.41261 0
M  V30 4986 H 514.239 3.61456 -0.611964 0
M  V30 4987 H 513.887 4.77736 1.57408 0
M  V30 4988 H 513.587 5.87255 0.20142 0
M  V30 4989 H 515.111 6.00149 1.12489 0
M  V30 4990 H 516.525 5.62355 -1.11488 0
M  V30 4991 H 514.922 5.69122 -1.90317 0
M  V30 4992 H 515.992 4.31281 -2.2164 0
M  V30 4993 N 517.335 0.585699 1.46312 0
M  V30 4994 C 518.581 0.0725284 2.0267 0
M  V30 4995 C 518.914 -1.28523 1.45586 0
M  V30 4996 O 518.189 -1.84283 0.622101 0
M  V30 4997 C 518.472 0.0099788 3.60099 0
M  V30 4998 C 518.325 1.39685 4.27561 0
M  V30 4999 C 519.644 -0.689117 4.34671 0
M  V30 5000 H 516.763 0.0278307 0.736474 0
M  V30 5001 H 519.405 0.753472 1.74421 0
M  V30 5002 H 517.555 -0.56992 3.84297 0
M  V30 5003 H 519.227 2.02215 4.14617 0
M  V30 5004 H 517.47 1.96374 3.86807 0
M  V30 5005 H 518.141 1.30553 5.36339 0
M  V30 5006 H 520.617 -0.196446 4.15636 0
M  V30 5007 H 519.493 -0.701921 5.44393 0
M  V30 5008 H 519.754 -1.75101 4.05946 0
M  V30 5009 N 518.813 -1.54241 0.323641 0
M  V30 5010 C 519.723 -2.28033 -0.551205 0
M  V30 5011 C 520.739 -1.32388 -1.12913 0
M  V30 5012 O 521.915 -1.65403 -1.14908 0
M  V30 5013 C 518.98 -3.02382 -1.69606 0
M  V30 5014 C 518.041 -4.13612 -1.14993 0
M  V30 5015 C 517.274 -4.84407 -2.24022 0
M  V30 5016 O 517.497 -4.54716 -3.44368 0
M  V30 5017 O 516.431 -5.71312 -1.89436 0
M  V30 5018 H 520.257 -3.03662 0.048066 0
M  V30 5019 H 517.842 -1.49133 0.0893289 0
M  V30 5020 H 519.724 -3.48941 -2.36259 0
M  V30 5021 H 518.399 -2.29628 -2.28151 0
M  V30 5022 H 517.306 -3.71402 -0.448484 0
M  V30 5023 H 518.639 -4.8841 -0.609608 0
M  V30 5024 N 520.291 -0.0518155 -1.57515 0
M  V30 5025 C 521.537 0.616839 -1.93821 0
M  V30 5026 C 521.892 1.68413 -0.930307 0
M  V30 5027 O 521.185 1.91534 0.0504231 0
M  V30 5028 C 521.379 1.25607 -3.34601 0
M  V30 5029 C 521.208 0.252222 -4.48992 0
M  V30 5030 C 519.978 -0.156031 -5.05059 0
M  V30 5031 C 522.176 -0.502613 -5.11838 0
M  V30 5032 N 520.158 -1.15267 -6.02981 0
M  V30 5033 C 521.529 -1.35232 -6.05072 0
M  V30 5034 C 523.584 -0.560855 -4.94731 0
M  V30 5035 C 522.287 -2.25505 -6.83037 0
M  V30 5036 C 524.313 -1.45102 -5.73323 0
M  V30 5037 C 523.675 -2.28845 -6.6619 0
M  V30 5038 H 519.774 0.197344 -0.75669 0
M  V30 5039 H 522.358 -0.124297 -1.94303 0
M  V30 5040 H 520.529 1.96723 -3.34895 0
M  V30 5041 H 522.261 1.88358 -3.58195 0
M  V30 5042 H 519.016 0.22306 -4.73074 0
M  V30 5043 H 519.44 -1.64791 -6.56638 0
M  V30 5044 H 524.082 0.0723639 -4.22738 0
M  V30 5045 H 521.8 -2.89872 -7.54321 0
M  V30 5046 H 525.386 -1.50066 -5.62113 0
M  V30 5047 H 524.266 -2.96608 -7.25943 0
M  V30 5048 N 521.769 1.56035 0.221574 0
M  V30 5049 C 522.732 1.91584 1.2581 0
M  V30 5050 C 523.732 0.794425 1.39805 0
M  V30 5051 O 524.922 1.06217 1.38071 0
M  V30 5052 C 522.054 2.16663 2.63192 0
M  V30 5053 H 523.247 2.8429 0.954935 0
M  V30 5054 H 520.8 1.49316 0.461988 0
M  V30 5055 H 521.535 1.26508 2.98607 0
M  V30 5056 H 521.32 2.98358 2.5441 0
M  V30 5057 H 522.81 2.45262 3.37988 0
M  V30 5058 N 523.247 -0.488276 1.49845 0
M  V30 5059 C 524.194 -1.58836 1.67451 0
M  V30 5060 C 525.164 -1.57886 0.515857 0
M  V30 5061 O 526.349 -1.75679 0.744403 0
M  V30 5062 C 523.489 -2.96915 1.75885 0
M  V30 5063 C 522.602 -3.07784 3.03138 0
M  V30 5064 C 521.737 -4.36673 3.02473 0
M  V30 5065 C 520.776 -4.41222 4.24252 0
M  V30 5066 N 519.913 -5.61557 4.21424 0
M  V30 5067 H 524.753 -1.43131 2.61376 0
M  V30 5068 H 522.29 -0.696186 1.29583 0
M  V30 5069 H 524.248 -3.76965 1.78755 0
M  V30 5070 H 522.878 -3.11295 0.85414 0
M  V30 5071 H 521.93 -2.20717 3.09819 0
M  V30 5072 H 523.242 -3.07005 3.93128 0
M  V30 5073 H 522.396 -5.25055 3.03977 0
M  V30 5074 H 521.135 -4.40037 2.10283 0
M  V30 5075 H 520.14 -3.5124 4.22978 0
M  V30 5076 H 521.365 -4.39564 5.17649 0
M  V30 5077 H 519.311 -5.65738 3.32078 0
M  V30 5078 H 519.228 -5.62447 5.05163 0
M  V30 5079 H 520.496 -6.52111 4.2705 0
M  V30 5080 N 524.725 -1.39134 -0.740242 0
M  V30 5081 C 526.141 -1.20623 -1.0451 0
M  V30 5082 C 526.341 -0.0641651 -2.01398 0
M  V30 5083 O 525.397 0.585843 -2.4561 0
M  V30 5084 C 526.71 -2.53815 -1.6124 0
M  V30 5085 C 528.258 -2.60615 -1.73346 0
M  V30 5086 C 528.733 -3.94015 -2.33486 0
M  V30 5087 N 530.224 -3.95627 -2.40902 0
M  V30 5088 C 530.959 -4.95616 -2.88361 0
M  V30 5089 N 530.455 -6.06003 -3.35756 0
M  V30 5090 N 532.248 -4.82998 -2.87523 0
M  V30 5091 H 524.399 -2.12176 -0.0975576 0
M  V30 5092 H 526.662 -0.942066 -0.105904 0
M  V30 5093 H 526.368 -3.37911 -0.975144 0
M  V30 5094 H 526.242 -2.73162 -2.6012 0
M  V30 5095 H 528.629 -1.76906 -2.36195 0
M  V30 5096 H 528.71 -2.45123 -0.731336 0
M  V30 5097 H 528.354 -4.78153 -1.71267 0
M  V30 5098 H 528.284 -4.06825 -3.34366 0
M  V30 5099 H 530.775 -3.15903 -2.07398 0
M  V30 5100 H 531.088 -6.78215 -3.70464 0
M  V30 5101 H 529.433 -6.09604 -3.33778 0
M  V30 5102 H 532.624 -3.95866 -2.49816 0
M  V30 5103 H 532.797 -5.61072 -3.24196 0
M  V30 5104 N 526.204 0.969867 -1.24223 0
M  V30 5105 C 527.453 1.70687 -1.07466 0
M  V30 5106 C 527.766 1.91736 0.386861 0
M  V30 5107 O 528.972 2.62986 0.674581 0
M  V30 5108 C 527.428 3.07217 -1.87472 0
M  V30 5109 C 527.036 2.94018 -3.3802 0
M  V30 5110 C 528.78 3.84804 -1.79237 0
M  V30 5111 C 526.687 4.25844 -4.10379 0
M  V30 5112 H 525.617 0.640067 -0.398536 0
M  V30 5113 H 528.268 1.08092 -1.48285 0
M  V30 5114 H 526.65 3.70628 -1.39466 0
M  V30 5115 H 527.824 2.39632 -3.9359 0
M  V30 5116 H 526.139 2.29898 -3.47183 0
M  V30 5117 H 528.736 4.82417 -2.30603 0
M  V30 5118 H 529.079 4.09356 -0.757197 0
M  V30 5119 H 529.612 3.28115 -2.24912 0
M  V30 5120 H 526.351 4.06486 -5.14246 0
M  V30 5121 H 525.871 4.80054 -3.59594 0
M  V30 5122 H 527.55 4.94475 -4.17257 0
M  V30 5123 N 527.682 1.05563 1.17022 0
M  V30 5124 C 529.093 0.793475 1.69 0
M  V30 5125 C 529.444 -0.683882 1.83895 0
M  V30 5126 O 528.569 -1.53116 1.5292 0
M  V30 5127 C 529.164 1.43376 3.06967 0
M  V30 5128 C 527.723 1.21956 3.56095 0
M  V30 5129 C 526.87 1.51494 2.3226 0
M  V30 5130 H 529.821 1.22008 1.01487 0
M  V30 5131 H 529.842 0.845068 3.70997 0
M  V30 5132 H 529.354 2.50899 2.96093 0
M  V30 5133 H 527.455 0.163749 3.7224 0
M  V30 5134 H 527.568 1.92713 4.38633 0
M  V30 5135 H 525.932 0.935175 2.3691 0
M  V30 5136 H 526.715 2.60159 2.23992 0
M  V30 5137 N 529.16 -1.33526 0.837174 0
M  V30 5138 C 530.11 -2.2672 0.241269 0
M  V30 5139 C 531.094 -1.49183 -0.602756 0
M  V30 5140 O 532.286 -1.71052 -0.455002 0
M  V30 5141 C 529.415 -3.38294 -0.584125 0
M  V30 5142 C 528.501 -4.23231 0.271315 0
M  V30 5143 N 528.892 -4.87473 1.34922 0
M  V30 5144 C 527.19 -4.45962 0.0580589 0
M  V30 5145 C 527.891 -5.50685 1.87405 0
M  V30 5146 N 526.867 -5.30732 1.17578 0
M  V30 5147 H 530.669 -2.73903 1.06558 0
M  V30 5148 H 528.183 -1.47411 0.68145 0
M  V30 5149 H 530.18 -4.04044 -1.02731 0
M  V30 5150 H 528.84 -2.9266 -1.40643 0
M  V30 5151 H 529.851 -4.88077 1.7321 0
M  V30 5152 H 526.528 -4.11052 -0.730938 0
M  V30 5153 H 527.918 -6.11845 2.77661 0
M  V30 5154 N 530.638 -0.59345 -1.46 0
M  V30 5155 C 531.885 -0.0831523 -2.02329 0
M  V30 5156 C 532.213 1.28093 -1.46364 0
M  V30 5157 O 531.468 1.85526 -0.622793 0
M  V30 5158 C 531.767 0.021178 -3.57394 0
M  V30 5159 C 531.433 -1.27671 -4.32448 0
M  V30 5160 C 530.095 -1.63227 -4.5267 0
M  V30 5161 C 532.447 -2.13511 -4.7546 0
M  V30 5162 C 529.775 -2.84401 -5.1316 0
M  V30 5163 C 532.127 -3.33922 -5.37289 0
M  V30 5164 C 530.791 -3.69747 -5.55737 0
M  V30 5165 H 530.061 -0.0304276 -0.740375 0
M  V30 5166 H 532.708 -0.772239 -1.75239 0
M  V30 5167 H 531.013 0.793454 -3.83682 0
M  V30 5168 H 532.71 0.431942 -3.98667 0
M  V30 5169 H 529.3 -0.989937 -4.17011 0
M  V30 5170 H 533.484 -1.87344 -4.59582 0
M  V30 5171 H 528.74 -3.12282 -5.25633 0
M  V30 5172 H 532.914 -4.00698 -5.69574 0
M  V30 5173 H 530.541 -4.6373 -6.02377 0
M  V30 5174 N 532.116 1.54067 -0.331816 0
M  V30 5175 C 533.341 2.05599 0.272705 0
M  V30 5176 C 533.766 1.2059 1.44359 0
M  V30 5177 O 533.124 0.216907 1.79998 0
M  V30 5178 C 533.172 3.54188 0.677021 0
M  V30 5179 O 532.276 3.72082 1.77844 0
M  V30 5180 H 531.617 0.662286 0.0476801 0
M  V30 5181 H 534.147 1.98826 -0.482624 0
M  V30 5182 H 534.157 3.96608 0.957415 0
M  V30 5183 H 532.832 4.15513 -0.179325 0
M  V30 5184 H 531.409 3.41566 1.49622 0
M  V30 5185 N 533.594 0.0601682 1.57485 0
M  V30 5186 C 534.819 -0.624416 1.97777 0
M  V30 5187 C 535.244 -1.63051 0.937867 0
M  V30 5188 O 534.602 -1.81036 -0.0978845 0
M  V30 5189 C 534.65 -1.27979 3.37126 0
M  V30 5190 O 533.754 -2.39556 3.35688 0
M  V30 5191 H 533.095 -0.161581 0.64404 0
M  V30 5192 H 535.625 0.131237 2.04179 0
M  V30 5193 H 535.635 -1.62937 3.74053 0
M  V30 5194 H 534.31 -0.542501 4.12347 0
M  V30 5195 H 532.887 -2.06478 3.10517 0
M  V30 5196 N 535.072 -1.5615 -0.213296 0
M  V30 5197 C 536.002 -1.96109 -1.26742 0
M  V30 5198 C 536.983 -0.830448 -1.48451 0
M  V30 5199 O 538.168 -1.09339 -1.60495 0
M  V30 5200 C 535.298 -2.28492 -2.61551 0
M  V30 5201 C 534.252 -3.44124 -2.54485 0
M  V30 5202 C 533.578 -3.62134 -3.93399 0
M  V30 5203 C 534.878 -4.78855 -2.08556 0
M  V30 5204 H 536.572 -2.84412 -0.935434 0
M  V30 5205 H 534.118 -1.36836 -0.44854 0
M  V30 5206 H 536.071 -2.55039 -3.3546 0
M  V30 5207 H 534.795 -1.37052 -2.96453 0
M  V30 5208 H 533.454 -3.17639 -1.83033 0
M  V30 5209 H 533.102 -2.68055 -4.25623 0
M  V30 5210 H 532.802 -4.39913 -3.89551 0
M  V30 5211 H 534.326 -3.91038 -4.68958 0
M  V30 5212 H 535.74 -5.04552 -2.72213 0
M  V30 5213 H 534.137 -5.59975 -2.1575 0
M  V30 5214 H 535.207 -4.73657 -1.03811 0
M  V30 5215 N 536.55 0.480323 -1.50102 0
M  V30 5216 C 537.961 1.06142 -1.53593 0
M  V30 5217 C 538.312 1.93335 -0.334055 0
M  V30 5218 O 537.437 2.09188 0.55403 0
M  V30 5219 C 538.032 1.9317 -2.78336 0
M  V30 5220 C 536.591 2.46405 -2.84538 0
M  V30 5221 C 535.738 1.24521 -2.4777 0
M  V30 5222 H 538.689 0.26333 -1.565 0
M  V30 5223 H 538.71 2.78123 -2.59669 0
M  V30 5224 H 538.222 1.29683 -3.65792 0
M  V30 5225 H 536.323 3.13472 -2.01411 0
M  V30 5226 H 536.436 2.82143 -3.87211 0
M  V30 5227 H 534.8 1.57706 -2.00003 0
M  V30 5228 H 535.583 0.627102 -3.37524 0
M  V30 5229 N 538.028 1.39524 0.732853 0
M  V30 5230 C 538.958 1.41153 1.86005 0
M  V30 5231 C 539.939 0.274614 1.67869 0
M  V30 5232 O 541.124 0.480745 1.88155 0
M  V30 5233 C 538.254 1.25638 3.23778 0
M  V30 5234 C 537.208 2.36752 3.56556 0
M  V30 5235 C 536.534 2.06326 4.93289 0
M  V30 5236 C 537.834 3.79069 3.5931 0
M  V30 5237 H 539.528 2.35484 1.84899 0
M  V30 5238 H 537.074 1.13348 0.888162 0
M  V30 5239 H 539.027 1.25398 4.0231 0
M  V30 5240 H 537.751 0.277772 3.25417 0
M  V30 5241 H 536.41 2.36213 2.80355 0
M  V30 5242 H 536.058 1.06897 4.9151 0
M  V30 5243 H 535.758 2.80757 5.16187 0
M  V30 5244 H 537.282 2.07739 5.74175 0
M  V30 5245 H 538.696 3.81526 4.27914 0
M  V30 5246 H 537.093 4.52878 3.93728 0
M  V30 5247 H 538.163 4.09893 2.59068 0
M  V30 5248 N 539.506 -0.963266 1.24736 0
M  V30 5249 C 540.783 -1.68248 0.9976 0
M  V30 5250 C 541.163 -2.05599 -0.478776 0
M  V30 5251 O 540.511 -1.7626 -1.45412 0
M  V30 5252 C 540.721 -2.91118 1.92487 0
M  V30 5253 C 542.069 -3.63261 2.19833 0
M  V30 5254 O 543.093 -3.01184 1.90176 0
M  V30 5255 O 541.952 -4.75019 2.7022 0
M  V30 5256 H 539.046 -0.735744 0.377637 0
M  V30 5257 H 541.592 -1.01696 1.35853 0
M  V30 5258 H 540.364 -2.60242 2.92215 0
M  V30 5259 H 539.987 -3.65402 1.56738 0
M  V30 5260 N 540.985 -1.06182 -1.16461 0
M  V30 5261 C 542.262 -0.691364 -1.82974 0
M  V30 5262 C 542.642 0.827377 -1.9421 0
M  V30 5263 O 541.99 1.73723 -1.48434 0
M  V30 5264 C 542.2 -1.39199 -3.20038 0
M  V30 5265 C 543.548 -1.53647 -3.95825 0
M  V30 5266 O 544.572 -1.35181 -3.29552 0
M  V30 5267 O 543.431 -1.83932 -5.14618 0
M  V30 5268 H 540.525 -0.244605 -0.789998 0
M  V30 5269 H 543.071 -1.16203 -1.23673 0
M  V30 5270 H 541.843 -2.42766 -3.06888 0
M  V30 5271 H 541.466 -0.911335 -3.87015 0
M  V30 5272 N 542.463 1.3308 -0.844243 0
M  V30 5273 C 543.395 2.27954 -0.238671 0
M  V30 5274 C 544.408 1.51978 0.583665 0
M  V30 5275 O 545.597 1.73731 0.409857 0
M  V30 5276 C 542.697 3.31963 0.682185 0
M  V30 5277 C 541.87 4.37281 -0.101998 0
M  V30 5278 C 540.929 5.20928 0.743022 0
M  V30 5279 O 539.955 5.68914 0.180285 0
M  V30 5280 N 541.157 5.42738 2.0595 0
M  V30 5281 H 543.922 2.8056 -1.05386 0
M  V30 5282 H 541.483 1.4583 -0.70322 0
M  V30 5283 H 543.475 3.84828 1.25259 0
M  V30 5284 H 542.045 2.79594 1.39808 0
M  V30 5285 H 541.265 3.84843 -0.853802 0
M  V30 5286 H 542.553 5.04746 -0.641015 0
M  V30 5287 H 541.951 5.05463 2.54016 0
M  V30 5288 H 540.508 5.98639 2.57827 0
M  V30 5289 N 543.941 0.601185 1.45683 0
M  V30 5290 C 545.187 0.0940202 2.02582 0
M  V30 5291 C 545.52 -1.26972 1.46941 0
M  V30 5292 O 544.795 -1.83613 0.641612 0
M  V30 5293 C 545.078 0.0481715 3.60068 0
M  V30 5294 C 544.931 1.44212 4.26055 0
M  V30 5295 C 546.25 -0.642975 4.35378 0
M  V30 5296 H 543.369 0.0356404 0.736138 0
M  V30 5297 H 546.011 0.771929 1.73612 0
M  V30 5298 H 544.161 -0.529128 3.8488 0
M  V30 5299 H 545.833 2.06601 4.12449 0
M  V30 5300 H 544.076 2.00465 3.84703 0
M  V30 5301 H 544.747 1.36234 5.34925 0
M  V30 5302 H 547.223 -0.152351 4.15821 0
M  V30 5303 H 546.099 -0.644141 5.45107 0
M  V30 5304 H 546.36 -1.70785 4.0778 0
M  V30 5305 N 545.419 -1.53889 0.339982 0
M  V30 5306 C 546.668 -2.00035 -0.258604 0
M  V30 5307 C 546.981 -1.23179 -1.51942 0
M  V30 5308 O 548.187 -1.59784 -2.19503 0
M  V30 5309 C 546.643 -3.56249 -0.511359 0
M  V30 5310 C 546.251 -4.41957 0.733349 0
M  V30 5311 C 547.995 -4.1082 -1.069 0
M  V30 5312 C 545.902 -5.89673 0.451591 0
M  V30 5313 H 544.832 -0.747284 -0.10041 0
M  V30 5314 H 547.483 -1.77776 0.454758 0
M  V30 5315 H 545.865 -3.7456 -1.28533 0
M  V30 5316 H 547.039 -4.35421 1.50815 0
M  V30 5317 H 545.354 -3.9836 1.21237 0
M  V30 5318 H 547.951 -5.18789 -1.2947 0
M  V30 5319 H 548.294 -3.63817 -2.02343 0
M  V30 5320 H 548.827 -3.96205 -0.355817 0
M  V30 5321 H 545.566 -6.40903 1.37565 0
M  V30 5322 H 545.086 -5.99122 -0.285193 0
M  V30 5323 H 546.765 -6.46965 0.0675067 0
M  V30 5324 N 546.897 -0.0685191 -1.57451 0
M  V30 5325 C 547.827 0.89747 -2.15564 0
M  V30 5326 C 548.808 1.31266 -1.08181 0
M  V30 5327 O 549.993 1.38429 -1.36202 0
M  V30 5328 C 547.123 2.16623 -2.71463 0
M  V30 5329 C 546.077 1.89054 -3.83982 0
M  V30 5330 C 545.403 3.22532 -4.26471 0
M  V30 5331 C 546.703 1.1984 -5.08366 0
M  V30 5332 H 548.397 0.413373 -2.96533 0
M  V30 5333 H 545.943 0.197391 -1.42641 0
M  V30 5334 H 547.896 2.84614 -3.10761 0
M  V30 5335 H 546.62 2.67269 -1.8771 0
M  V30 5336 H 545.279 1.23469 -3.45183 0
M  V30 5337 H 544.927 3.71013 -3.39644 0
M  V30 5338 H 544.627 3.04879 -5.02317 0
M  V30 5339 H 546.151 3.91727 -4.68383 0
M  V30 5340 H 547.565 1.77896 -5.45001 0
M  V30 5341 H 545.962 1.12456 -5.89469 0
M  V30 5342 H 547.032 0.176996 -4.84577 0
M  V30 5343 N 548.375 1.56261 0.205012 0
M  V30 5344 C 549.305 1.96779 1.257 0
M  V30 5345 C 550.286 0.838309 1.48008 0
M  V30 5346 O 551.471 1.10189 1.59913 0
M  V30 5347 C 548.601 2.29876 2.60335 0
M  V30 5348 C 547.555 3.45469 2.52656 0
M  V30 5349 C 546.881 3.64215 3.91473 0
M  V30 5350 C 548.181 4.79954 2.06014 0
M  V30 5351 H 549.875 2.84904 0.920338 0
M  V30 5352 H 547.421 1.37072 0.441277 0
M  V30 5353 H 549.374 2.56814 3.34102 0
M  V30 5354 H 548.098 1.38622 2.95722 0
M  V30 5355 H 546.757 3.18605 1.81345 0
M  V30 5356 H 546.405 2.70309 4.24196 0
M  V30 5357 H 546.105 4.41973 3.87213 0
M  V30 5358 H 547.629 3.93519 4.66878 0
M  V30 5359 H 549.043 5.05989 2.69533 0
M  V30 5360 H 547.44 5.61111 2.12777 0
M  V30 5361 H 548.51 4.74201 1.01297 0
M  V30 5362 N 549.853 -0.472356 1.50355 0
M  V30 5363 C 551.269 -0.806001 1.37753 0
M  V30 5364 C 551.469 -1.968 0.432649 0
M  V30 5365 O 550.525 -2.52189 -0.12519 0
M  V30 5366 C 551.838 -1.11926 2.79093 0
M  V30 5367 C 553.386 -1.22579 2.87999 0
M  V30 5368 C 553.861 -1.57218 4.3017 0
M  V30 5369 N 555.352 -1.64212 4.33115 0
M  V30 5370 C 556.087 -1.92517 5.40116 0
M  V30 5371 N 555.583 -2.1885 6.57325 0
M  V30 5372 N 557.376 -1.94008 5.27558 0
M  V30 5373 H 549.527 0.293451 2.10363 0
M  V30 5374 H 551.79 0.0687672 0.945503 0
M  V30 5375 H 551.496 -0.338504 3.50067 0
M  V30 5376 H 551.37 -2.05577 3.16256 0
M  V30 5377 H 553.757 -1.99722 2.17245 0
M  V30 5378 H 553.838 -0.269107 2.54381 0
M  V30 5379 H 553.482 -0.806154 5.01461 0
M  V30 5380 H 553.412 -2.54034 4.61275 0
M  V30 5381 H 555.903 -1.45906 3.48597 0
M  V30 5382 H 556.216 -2.39718 7.3468 0
M  V30 5383 H 554.561 -2.16245 6.60502 0
M  V30 5384 H 557.752 -1.72931 4.34986 0
M  V30 5385 H 557.925 -2.15731 6.11035 0
M  V30 5386 N 551.331 -1.39911 -0.725443 0
M  V30 5387 C 552.294 -1.39156 -1.82121 0
M  V30 5388 C 553.294 -0.287018 -1.58218 0
M  V30 5389 O 554.484 -0.545421 -1.65441 0
M  V30 5390 C 551.616 -1.1736 -3.20062 0
M  V30 5391 H 552.809 -2.36672 -1.84191 0
M  V30 5392 H 550.362 -1.25615 -0.930079 0
M  V30 5393 H 551.097 -0.205648 -3.23647 0
M  V30 5394 H 550.882 -1.97358 -3.3881 0
M  V30 5395 H 552.372 -1.19596 -4.00108 0
M  V30 5396 N 552.809 0.956637 -1.25245 0
M  V30 5397 C 554.057 1.69764 -1.09657 0
M  V30 5398 C 554.378 1.91583 0.363464 0
M  V30 5399 O 553.648 1.50149 1.25825 0
M  V30 5400 H 552.228 0.629097 -0.402798 0
M  V30 5401 H 554.89 1.15026 -1.57337 0
M  V30 5402 H 553.986 2.67769 -1.60331 0
M  V30 5403 N 554.287 1.06798 1.15896 0
M  V30 5404 C 555.533 0.798757 1.8706 0
M  V30 5405 C 555.888 -0.667739 1.80441 0
M  V30 5406 O 555.181 -1.48334 1.21274 0
M  V30 5407 C 555.375 1.23414 3.35416 0
M  V30 5408 C 555.204 2.74142 3.56478 0
M  V30 5409 C 553.974 3.41675 3.72272 0
M  V30 5410 C 556.172 3.72348 3.5477 0
M  V30 5411 N 554.154 4.81101 3.81333 0
M  V30 5412 C 555.525 4.97585 3.69877 0
M  V30 5413 C 557.58 3.65585 3.38011 0
M  V30 5414 C 556.283 6.16866 3.69959 0
M  V30 5415 C 558.309 4.84323 3.39389 0
M  V30 5416 C 557.671 6.08391 3.5502 0
M  V30 5417 H 553.77 0.344761 0.7019 0
M  V30 5418 H 556.354 1.36314 1.3902 0
M  V30 5419 H 554.525 0.697522 3.82085 0
M  V30 5420 H 556.257 0.91304 3.94266 0
M  V30 5421 H 553.012 2.92078 3.7281 0
M  V30 5422 H 553.436 5.53647 3.8962 0
M  V30 5423 H 558.078 2.70615 3.2485 0
M  V30 5424 H 555.796 7.12164 3.819 0
M  V30 5425 H 559.382 4.80762 3.27658 0
M  V30 5426 H 558.262 6.98731 3.56012 0
M  V30 5427 N 555.766 -1.3263 0.851289 0
M  V30 5428 C 556.714 -2.30882 0.282202 0
M  V30 5429 C 557.708 -1.58697 -0.592589 0
M  V30 5430 O 558.914 -1.73461 -0.480768 0
M  V30 5431 H 555.289 -0.748492 0.0725487 0
M  V30 5432 H 557.26 -2.76374 1.12516 0
M  V30 5433 C 556.009 -3.43828 -0.517449 0
M  V30 5434 H 555.332 -3.99532 0.146392 0
M  V30 5435 H 556.772 -4.1474 -0.88128 0
M  V30 5436 C 555.231 -2.90786 -1.70133 0
M  V30 5437 O 555.761 -2.88 -2.80034 0
M  V30 5438 N 553.967 -2.4723 -1.52728 0
M  V30 5439 H 553.514 -2.49695 -0.633257 0
M  V30 5440 H 553.472 -2.12094 -2.32085 0
M  V30 5441 N 557.244 -0.608902 -1.45362 0
M  V30 5442 C 558.154 0.110969 -2.34337 0
M  V30 5443 C 559.17 0.859007 -1.51318 0
M  V30 5444 O 560.346 0.816296 -1.84116 0
M  V30 5445 C 557.411 1.09494 -3.28956 0
M  V30 5446 C 556.472 0.348718 -4.27881 0
M  V30 5447 C 555.705 1.28582 -5.17979 0
M  V30 5448 O 555.928 2.52369 -5.11533 0
M  V30 5449 O 554.862 0.782172 -5.96796 0
M  V30 5450 H 558.688 -0.620258 -2.97299 0
M  V30 5451 H 556.273 -0.36916 -1.44767 0
M  V30 5452 H 558.155 1.66163 -3.87257 0
M  V30 5453 H 556.83 1.80717 -2.68557 0
M  V30 5454 H 555.737 -0.260465 -3.73192 0
M  V30 5455 H 557.07 -0.323049 -4.91139 0
M  V30 5456 N 558.722 1.53707 -0.348139 0
M  V30 5457 C 559.652 2.28111 0.498766 0
M  V30 5458 C 560.633 1.29851 1.09876 0
M  V30 5459 O 561.818 1.587 1.11928 0
M  V30 5460 C 558.948 3.05735 1.64753 0
M  V30 5461 C 557.902 4.11537 1.17565 0
M  V30 5462 C 557.228 4.77142 2.4133 0
M  V30 5463 C 558.528 5.21587 0.272844 0
M  V30 5464 H 560.222 2.99152 -0.121934 0
M  V30 5465 H 557.768 1.43875 -0.0600842 0
M  V30 5466 H 559.721 3.56526 2.24649 0
M  V30 5467 H 558.445 2.32354 2.2952 0
M  V30 5468 H 557.104 3.61665 0.599483 0
M  V30 5469 H 556.752 4.0035 3.04514 0
M  V30 5470 H 556.452 5.48626 2.10436 0
M  V30 5471 H 557.976 5.30719 3.01943 0
M  V30 5472 H 559.39 5.67986 0.778779 0
M  V30 5473 H 557.787 6.00074 0.0555849 0
M  V30 5474 H 558.857 4.79969 -0.689785 0
M  V30 5475 N 560.2 0.0768682 1.57412 0
M  V30 5476 C 561.13 -0.886026 2.16037 0
M  V30 5477 C 562.111 -1.30691 1.08876 0
M  V30 5478 O 563.296 -1.37705 1.36934 0
M  V30 5479 C 560.426 -2.1518 2.72608 0
M  V30 5480 C 559.38 -1.87015 3.8498 0
M  V30 5481 C 558.706 -3.20266 4.28175 0
M  V30 5482 C 560.006 -1.17143 5.08994 0
M  V30 5483 H 561.7 -0.397642 2.96748 0
M  V30 5484 H 559.246 -0.189823 1.42743 0
M  V30 5485 H 561.199 -2.82962 3.12266 0
M  V30 5486 H 559.923 -2.66269 1.89125 0
M  V30 5487 H 558.582 -1.21636 3.45833 0
M  V30 5488 H 558.23 -3.69207 3.41607 0
M  V30 5489 H 557.93 -3.0221 5.03927 0
M  V30 5490 H 559.454 -3.89237 4.70454 0
M  V30 5491 H 560.868 -1.75003 5.45937 0
M  V30 5492 H 559.265 -1.09328 5.90057 0
M  V30 5493 H 560.335 -0.151295 4.84664 0
M  V30 5494 N 561.678 -1.56367 -0.196722 0
M  V30 5495 C 562.927 -1.79724 -0.915539 0
M  V30 5496 C 563.24 -0.649804 -1.84491 0
M  V30 5497 O 564.446 -0.767631 -2.60422 0
M  V30 5498 C 562.902 -3.18369 -1.67836 0
M  V30 5499 C 562.51 -4.4091 -0.793897 0
M  V30 5500 C 564.254 -3.51037 -2.38691 0
M  V30 5501 C 562.161 -5.70577 -1.55549 0
M  V30 5502 H 561.091 -0.67013 -0.345604 0
M  V30 5503 H 563.742 -1.82721 -0.168856 0
M  V30 5504 H 562.124 -3.09617 -2.46887 0
M  V30 5505 H 563.298 -4.60781 -0.042163 0
M  V30 5506 H 561.613 -4.15937 -0.19626 0
M  V30 5507 H 564.21 -4.4515 -2.96219 0
M  V30 5508 H 564.553 -2.74704 -3.12799 0
M  V30 5509 H 565.086 -3.61229 -1.66608 0
M  V30 5510 H 561.825 -6.49871 -0.857226 0
M  V30 5511 H 561.345 -5.54726 -2.2812 0
M  V30 5512 H 563.024 -6.11637 -2.10971 0
M  V30 5513 N 563.156 0.464375 -1.50603 0
M  V30 5514 C 564.119 1.54393 -1.69397 0
M  V30 5515 C 565.119 1.50566 -0.564504 0
M  V30 5516 O 566.309 1.53066 -0.831645 0
M  V30 5517 C 563.441 2.9401 -1.72543 0
M  V30 5518 H 564.634 1.39044 -2.65719 0
M  V30 5519 H 562.187 0.69122 -1.40185 0
M  V30 5520 H 562.922 3.14795 -0.77938 0
M  V30 5521 H 562.707 2.98195 -2.54602 0
M  V30 5522 H 564.197 3.72375 -1.89015 0
M  V30 5523 N 564.634 1.40294 0.718013 0
M  V30 5524 C 565.859 1.41941 1.5122 0
M  V30 5525 C 566.284 0.0202371 1.88089 0
M  V30 5526 O 565.642 -0.971078 1.53101 0
M  V30 5527 C 565.69 2.3141 2.76554 0
M  V30 5528 O 564.794 1.75567 3.73162 0
M  V30 5529 H 564.135 0.482644 0.456016 0
M  V30 5530 H 566.665 1.84494 0.884478 0
M  V30 5531 H 566.675 2.46513 3.25108 0
M  V30 5532 H 565.35 3.33085 2.49053 0
M  V30 5533 H 563.927 1.69798 3.31999 0
M  V30 5534 N 566.112 -0.949982 1.2575 0
M  V30 5535 C 567.359 -1.69515 1.10774 0
M  V30 5536 C 567.687 -1.91316 -0.350479 0
M  V30 5537 O 566.942 -1.48515 -1.27443 0
M  V30 5538 C 567.241 -3.08039 1.81237 0
M  V30 5539 C 566.907 -3.06023 3.31151 0
M  V30 5540 C 565.569 -3.0518 3.72047 0
M  V30 5541 C 567.921 -2.98998 4.26907 0
M  V30 5542 C 565.249 -2.95067 5.07102 0
M  V30 5543 C 567.601 -2.90426 5.61992 0
M  V30 5544 C 566.265 -2.87922 6.0221 0
M  V30 5545 H 565.535 -0.6203 0.405351 0
M  V30 5546 H 568.182 -1.10953 1.56082 0
M  V30 5547 H 566.487 -3.70172 1.28373 0
M  V30 5548 H 568.184 -3.64526 1.67098 0
M  V30 5549 H 564.774 -3.07453 2.98614 0
M  V30 5550 H 568.958 -2.98764 3.963 0
M  V30 5551 H 564.214 -2.915 5.37436 0
M  V30 5552 H 568.388 -2.83952 6.35881 0
M  V30 5553 H 566.015 -2.79841 7.06819 0
M  V30 5554 N 567.59 -1.07411 -1.15328 0
M  V30 5555 C 568.815 -0.818856 -1.90551 0
M  V30 5556 C 569.24 0.622194 -1.77512 0
M  V30 5557 O 568.598 1.43484 -1.10824 0
M  V30 5558 C 568.646 -1.23267 -3.38877 0
M  V30 5559 O 567.75 -0.378345 -4.10661 0
M  V30 5560 H 567.091 -0.29827 -0.593238 0
M  V30 5561 H 569.621 -1.43289 -1.46046 0
M  V30 5562 H 569.631 -1.20912 -3.89672 0
M  V30 5563 H 568.306 -2.28226 -3.47686 0
M  V30 5564 H 566.883 -0.464437 -3.69996 0
M  V30 5565 N 569.068 1.32177 -0.85831 0
M  V30 5566 C 570.018 2.26307 -0.277307 0
M  V30 5567 C 571.002 1.50123 0.578946 0
M  V30 5568 O 572.194 1.71754 0.427731 0
M  V30 5569 C 569.323 3.39181 0.530232 0
M  V30 5570 C 568.409 4.22746 -0.338613 0
M  V30 5571 N 568.8 4.85265 -1.4266 0
M  V30 5572 C 567.098 4.45813 -0.129 0
M  V30 5573 C 567.799 5.47634 -1.96142 0
M  V30 5574 N 566.775 5.28794 -1.26007 0
M  V30 5575 H 570.577 2.72173 -1.10902 0
M  V30 5576 H 568.091 1.46308 -0.704816 0
M  V30 5577 H 570.088 4.05628 0.962904 0
M  V30 5578 H 568.748 2.9486 1.35969 0
M  V30 5579 H 569.759 4.85259 -1.80953 0
M  V30 5580 H 566.436 4.12163 0.665451 0
M  V30 5581 H 567.826 6.0735 -2.8736 0
M  V30 5582 N 570.547 0.616602 1.45037 0
M  V30 5583 C 571.963 0.280994 1.57107 0
M  V30 5584 C 572.163 -1.21627 1.60653 0
M  V30 5585 O 571.219 -1.9997 1.54169 0
M  V30 5586 C 572.532 0.960116 2.8496 0
M  V30 5587 C 574.08 0.936884 2.98649 0
M  V30 5588 C 574.555 1.59619 4.29285 0
M  V30 5589 N 576.046 1.5621 4.36065 0
M  V30 5590 C 576.781 2.04131 5.35834 0
M  V30 5591 N 576.277 2.60177 6.4209 0
M  V30 5592 N 578.07 1.94845 5.27249 0
M  V30 5593 H 570.221 1.58867 1.40979 0
M  V30 5594 H 572.484 0.666024 0.674623 0
M  V30 5595 H 572.19 2.01473 2.88273 0
M  V30 5596 H 572.064 0.488921 3.74018 0
M  V30 5597 H 574.451 -0.109209 2.94898 0
M  V30 5598 H 574.532 1.44643 2.10979 0
M  V30 5599 H 574.176 2.64166 4.33796 0
M  V30 5600 H 574.106 1.06159 5.15789 0
M  V30 5601 H 576.597 1.15276 3.59889 0
M  V30 5602 H 576.91 2.94513 7.1448 0
M  V30 5603 H 575.255 2.64221 6.42816 0
M  V30 5604 H 578.446 1.50792 4.43147 0
M  V30 5605 H 578.619 2.32504 6.04852 0
M  V30 5606 N 572.025 -1.5352 0.356285 0
M  V30 5607 C 573.25 -2.06007 -0.239961 0
M  V30 5608 C 573.675 -1.22872 -1.42422 0
M  V30 5609 O 573.033 -0.245516 -1.7963 0
M  V30 5610 C 573.081 -3.5522 -0.620587 0
M  V30 5611 O 572.185 -3.74864 -1.71902 0
M  V30 5612 H 571.526 -0.662961 -0.0371377 0
M  V30 5613 H 574.056 -1.98033 0.514194 0
M  V30 5614 H 574.066 -3.98081 -0.894197 0
M  V30 5615 H 572.741 -4.15175 0.245407 0
M  V30 5616 H 571.318 -3.43904 -1.44169 0
M  V30 5617 N 573.503 -0.0852151 -1.57369 0
M  V30 5618 C 574.752 0.580443 -1.93168 0
M  V30 5619 C 575.065 1.6995 -0.968319 0
M  V30 5620 O 576.271 2.42564 -1.21963 0
M  V30 5621 C 574.727 1.08386 -3.43192 0
M  V30 5622 C 574.335 -0.00491388 -4.48 0
M  V30 5623 C 576.079 1.72281 -3.87968 0
M  V30 5624 C 573.986 0.513299 -5.89168 0
M  V30 5625 H 572.916 0.22059 -0.72101 0
M  V30 5626 H 575.567 -0.159621 -1.82804 0
M  V30 5627 H 573.949 1.8773 -3.48674 0
M  V30 5628 H 575.123 -0.780032 -4.5415 0
M  V30 5629 H 573.438 -0.548453 -4.12772 0
M  V30 5630 H 576.035 2.12108 -4.9083 0
M  V30 5631 H 576.378 2.58811 -3.26071 0
M  V30 5632 H 576.911 0.995359 -3.85146 0
M  V30 5633 H 573.65 -0.315153 -6.54742 0
M  V30 5634 H 573.17 1.25564 -5.8651 0
M  V30 5635 H 574.849 0.985433 -6.39451 0
M  V30 5636 N 574.981 1.5647 0.188427 0
M  V30 5637 C 576.258 1.71857 0.934058 0
M  V30 5638 C 576.638 0.641867 2.01105 0
M  V30 5639 O 575.986 -0.346098 2.25864 0
M  V30 5640 C 576.196 3.14431 1.5144 0
M  V30 5641 C 577.544 3.74869 1.99396 0
M  V30 5642 O 578.568 3.17601 1.61269 0
M  V30 5643 O 577.427 4.75387 2.69573 0
M  V30 5644 H 574.521 0.701186 0.438483 0
M  V30 5645 H 577.067 1.68768 0.177599 0
M  V30 5646 H 575.839 3.8427 0.738416 0
M  V30 5647 H 575.462 3.21775 2.33552 0
M  V30 5648 N 576.459 -0.456382 1.50847 0
M  V30 5649 C 577.705 -1.20914 1.62811 0
M  V30 5650 C 578.038 -1.91301 0.334304 0
M  V30 5651 O 577.313 -1.82775 -0.665098 0
M  V30 5652 C 577.596 -2.24122 2.81853 0
M  V30 5653 C 577.449 -1.57944 4.21158 0
M  V30 5654 C 578.768 -3.25295 2.96431 0
M  V30 5655 H 575.887 -0.438233 0.592554 0
M  V30 5656 H 578.529 -0.50091 1.83278 0
M  V30 5657 H 576.679 -2.84524 2.64534 0
M  V30 5658 H 578.351 -1.01025 4.50102 0
M  V30 5659 H 576.594 -0.882185 4.24735 0
M  V30 5660 H 577.265 -2.33014 5.00408 0
M  V30 5661 H 579.741 -2.7493 3.12335 0
M  V30 5662 H 578.617 -3.94822 3.81322 0
M  V30 5663 H 578.878 -3.90286 2.07676 0
M  V30 5664 N 577.937 -1.40673 -0.710563 0
M  V30 5665 C 579.353 -1.22813 -1.01928 0
M  V30 5666 C 579.553 -0.10687 -2.01216 0
M  V30 5667 O 578.609 0.533614 -2.46797 0
M  V30 5668 C 579.922 -2.57178 -1.5582 0
M  V30 5669 C 581.47 -2.64233 -1.67779 0
M  V30 5670 C 581.945 -3.98879 -2.25076 0
M  V30 5671 N 583.436 -4.00647 -2.32456 0
M  V30 5672 C 584.171 -5.01621 -2.77784 0
M  V30 5673 N 583.667 -6.12989 -3.22826 0
M  V30 5674 N 585.46 -4.88988 -2.77213 0
M  V30 5675 H 577.611 -2.12335 -0.05253 0
M  V30 5676 H 579.874 -0.9441 -0.085898 0
M  V30 5677 H 579.58 -3.39903 -0.903249 0
M  V30 5678 H 579.454 -2.78618 -2.54267 0
M  V30 5679 H 581.841 -1.81876 -2.3239 0
M  V30 5680 H 581.922 -2.46619 -0.679178 0
M  V30 5681 H 581.566 -4.81678 -1.61086 0
M  V30 5682 H 581.496 -4.13826 -3.25661 0
M  V30 5683 H 583.987 -3.20231 -2.0065 0
M  V30 5684 H 584.3 -6.85921 -3.55995 0
M  V30 5685 H 582.645 -6.16547 -3.20773 0
M  V30 5686 H 585.836 -4.01075 -2.41363 0
M  V30 5687 H 586.009 -5.67822 -3.12221 0
M  V30 5688 N 579.415 0.9433 -1.26252 0
M  V30 5689 C 580.692 1.66639 -1.02424 0
M  V30 5690 C 581.072 2.06335 0.446006 0
M  V30 5691 O 580.42 1.78551 1.42589 0
M  V30 5692 C 580.63 2.88019 -1.97094 0
M  V30 5693 C 581.978 3.59718 -2.25584 0
M  V30 5694 O 583.002 2.9812 -1.94943 0
M  V30 5695 O 581.861 4.7066 -2.77743 0
M  V30 5696 H 578.955 0.729643 -0.389294 0
M  V30 5697 H 581.501 0.995218 -1.37454 0
M  V30 5698 H 580.273 2.5556 -2.96319 0
M  V30 5699 H 579.896 3.62863 -1.62532 0
M  V30 5700 N 580.893 1.08022 1.14757 0
M  V30 5701 C 582.141 0.805913 1.85336 0
M  V30 5702 C 582.462 -0.670162 1.83122 0
M  V30 5703 O 581.732 -1.48567 1.2769 0
M  V30 5704 H 580.312 0.295138 0.686223 0
M  V30 5705 H 582.974 1.36538 1.3908 0
M  V30 5706 H 582.07 1.14655 2.90277 0
M  V30 5707 N 582.371 -1.3172 0.865308 0
M  V30 5708 C 583.62 -1.96145 0.470098 0
M  V30 5709 C 583.933 -1.69182 -0.981674 0
M  V30 5710 O 585.139 -2.27431 -1.48281 0
M  V30 5711 C 583.595 -3.51129 0.789732 0
M  V30 5712 C 583.203 -3.86938 2.25795 0
M  V30 5713 C 584.947 -4.2197 0.462765 0
M  V30 5714 C 582.854 -5.35012 2.52024 0
M  V30 5715 H 581.784 -0.734105 0.172065 0
M  V30 5716 H 584.435 -1.49959 1.05757 0
M  V30 5717 H 582.817 -3.95781 0.131571 0
M  V30 5718 H 583.991 -3.5326 2.95879 0
M  V30 5719 H 582.306 -3.29149 2.55049 0
M  V30 5720 H 584.903 -5.30904 0.636019 0
M  V30 5721 H 585.246 -4.12005 -0.59645 0
M  V30 5722 H 585.779 -3.82936 1.07727 0
M  V30 5723 H 582.518 -5.50008 3.56611 0
M  V30 5724 H 582.038 -5.70058 1.8653 0
M  V30 5725 H 583.717 -6.0222 2.36515 0
M  V30 5726 N 583.85 -0.624285 -1.44708 0
M  V30 5727 C 584.779 0.0717025 -2.3339 0
M  V30 5728 C 585.76 0.841814 -1.47809 0
M  V30 5729 O 586.946 0.809056 -1.76544 0
M  V30 5730 C 584.076 1.05852 -3.30776 0
M  V30 5731 C 583.029 0.400503 -4.26122 0
M  V30 5732 C 582.356 1.49674 -5.13324 0
M  V30 5733 C 583.656 -0.688924 -5.17737 0
M  V30 5734 H 585.35 -0.668819 -2.91834 0
M  V30 5735 H 582.896 -0.32308 -1.40329 0
M  V30 5736 H 584.849 1.5541 -3.91696 0
M  V30 5737 H 583.572 1.82984 -2.70526 0
M  V30 5738 H 582.231 -0.0743687 -3.66525 0
M  V30 5739 H 581.88 2.25877 -4.49431 0
M  V30 5740 H 581.58 1.06188 -5.77926 0
M  V30 5741 H 583.104 1.99427 -5.77115 0
M  V30 5742 H 584.518 -0.276724 -5.72632 0
M  V30 5743 H 582.915 -1.04652 -5.90904 0
M  V30 5744 H 583.985 -1.55884 -4.5916 0
M  V30 5745 N 585.328 1.53329 -0.364422 0
M  V30 5746 C 586.258 2.28627 0.474543 0
M  V30 5747 C 587.239 1.31009 1.08492 0
M  V30 5748 O 588.424 1.59878 1.10239 0
M  V30 5749 C 585.554 3.07465 1.61501 0
M  V30 5750 C 584.508 4.1276 1.13194 0
M  V30 5751 C 583.834 4.79674 2.36255 0
M  V30 5752 C 585.134 5.21847 0.217507 0
M  V30 5753 H 586.828 2.99005 -0.153656 0
M  V30 5754 H 584.374 1.43803 -0.0753406 0
M  V30 5755 H 586.327 3.58889 2.20855 0
M  V30 5756 H 585.051 2.34775 2.27042 0
M  V30 5757 H 583.71 3.62281 0.56109 0
M  V30 5758 H 583.358 4.03557 3.00251 0
M  V30 5759 H 583.058 5.50827 2.04606 0
M  V30 5760 H 584.582 5.33892 2.96297 0
M  V30 5761 H 585.996 5.6878 0.718493 0
M  V30 5762 H 584.393 6.00099 -0.00806408 0
M  V30 5763 H 585.463 4.7921 -0.740653 0
M  V30 5764 N 586.806 0.0935595 1.57322 0
M  V30 5765 C 587.769 -0.851426 2.12799 0
M  V30 5766 C 588.769 -1.21187 1.0569 0
M  V30 5767 O 589.959 -1.14156 1.31583 0
M  V30 5768 C 587.091 -2.14779 2.64731 0
M  V30 5769 H 588.284 -0.369733 2.97612 0
M  V30 5770 H 585.837 -0.155417 1.55525 0
M  V30 5771 H 586.572 -2.67437 1.83434 0
M  V30 5772 H 586.357 -1.89907 3.43042 0
M  V30 5773 H 587.847 -2.82383 3.07651 0
M  V30 5774 N 588.284 -1.56567 -0.180126 0
M  V30 5775 C 589.512 -1.85618 -0.913972 0
M  V30 5776 C 589.927 -0.677892 -1.7621 0
M  V30 5777 O 589.284 0.353171 -1.7905 0
M  V30 5778 C 589.335 -3.13619 -1.79793 0
M  V30 5779 O 589.056 -4.26906 -0.98402 0
M  V30 5780 C 590.557 -3.55954 -2.64219 0
M  V30 5781 H 587.777 -0.616043 -0.265954 0
M  V30 5782 H 590.321 -2.03681 -0.182872 0
M  V30 5783 H 588.476 -2.97409 -2.48247 0
M  V30 5784 H 588.89 -4.9989 -1.58776 0
M  V30 5785 H 590.364 -4.48444 -3.21873 0
M  V30 5786 H 590.841 -2.79653 -3.38661 0
M  V30 5787 H 591.447 -3.74746 -2.01111 0
M  V30 5788 N 589.762 0.448376 -1.51087 0
M  V30 5789 C 591.01 1.19635 -1.62886 0
M  V30 5790 C 591.331 1.91977 -0.342024 0
M  V30 5791 O 590.601 1.85094 0.641636 0
M  V30 5792 H 589.181 0.444598 -0.600285 0
M  V30 5793 H 591.843 0.515138 -1.87969 0
M  V30 5794 H 590.939 1.93194 -2.45117 0
M  V30 5795 N 591.24 1.41047 0.703093 0
M  V30 5796 C 592.17 1.45067 1.82969 0
M  V30 5797 C 593.151 0.31016 1.67248 0
M  V30 5798 O 594.336 0.520548 1.87093 0
M  V30 5799 C 591.466 1.32478 3.2104 0
M  V30 5800 C 590.42 2.44262 3.51454 0
M  V30 5801 C 589.746 2.16742 4.88801 0
M  V30 5802 C 591.046 3.86606 3.51189 0
M  V30 5803 H 592.74 2.39353 1.79863 0
M  V30 5804 H 590.286 1.15206 0.863919 0
M  V30 5805 H 592.239 1.33904 3.99559 0
M  V30 5806 H 590.963 0.346735 3.24754 0
M  V30 5807 H 589.622 2.42107 2.75282 0
M  V30 5808 H 589.27 1.17299 4.89132 0
M  V30 5809 H 588.97 2.91643 5.10116 0
M  V30 5810 H 590.494 2.19872 5.69639 0
M  V30 5811 H 591.908 3.90517 4.19725 0
M  V30 5812 H 590.305 4.61128 3.84033 0
M  V30 5813 H 591.375 4.15296 2.50315 0
M  V30 5814 N 592.718 -0.936591 1.26751 0
M  V30 5815 C 593.668 -2.0219 1.05371 0
M  V30 5816 C 594.652 -1.60893 -0.0154112 0
M  V30 5817 O 595.844 -1.75843 0.202085 0
M  V30 5818 C 592.973 -3.36222 0.693541 0
M  V30 5819 C 592.059 -3.8399 1.80035 0
M  V30 5820 N 592.45 -4.0436 3.03852 0
M  V30 5821 C 590.748 -4.12945 1.685 0
M  V30 5822 C 591.449 -4.44 3.75818 0
M  V30 5823 N 590.425 -4.50966 3.03531 0
M  V30 5824 H 594.227 -2.15958 1.99347 0
M  V30 5825 H 591.741 -1.12277 1.17335 0
M  V30 5826 H 593.738 -4.13625 0.521513 0
M  V30 5827 H 592.398 -3.23821 -0.238693 0
M  V30 5828 H 593.409 -3.9092 3.39709 0
M  V30 5829 H 590.086 -4.09308 0.822986 0
M  V30 5830 H 591.476 -4.67914 4.82189 0
M  V30 5831 N 594.196 -1.08629 -1.14182 0
M  V30 5832 C 595.442 -0.818556 -1.85546 0
M  V30 5833 C 595.775 0.654076 -1.82854 0
M  V30 5834 O 595.05 1.48099 -1.26083 0
M  V30 5835 C 595.333 -1.34397 -3.3408 0
M  V30 5836 C 595.186 -2.8821 -3.45333 0
M  V30 5837 C 596.505 -0.971069 -4.29253 0
M  V30 5838 H 593.624 -0.298821 -0.673702 0
M  V30 5839 H 596.266 -1.34629 -1.34071 0
M  V30 5840 H 594.416 -0.895064 -3.78049 0
M  V30 5841 H 596.088 -3.41488 -3.10134 0
M  V30 5842 H 594.331 -3.25756 -2.86471 0
M  V30 5843 H 595.002 -3.20047 -4.49749 0
M  V30 5844 H 597.478 -1.35809 -3.93313 0
M  V30 5845 H 596.354 -1.36586 -5.31635 0
M  V30 5846 H 596.615 0.121659 -4.41933 0
M  V30 5847 N 595.674 1.31259 -0.872281 0
M  V30 5848 C 596.624 2.26 -0.301295 0
M  V30 5849 C 597.608 1.50729 0.562991 0
M  V30 5850 O 598.8 1.72198 0.40949 0
M  V30 5851 C 595.929 3.39724 0.494227 0
M  V30 5852 C 595.015 4.22363 -0.383432 0
M  V30 5853 N 595.406 4.83724 -1.47799 0
M  V30 5854 C 593.704 4.45652 -0.176278 0
M  V30 5855 C 594.405 5.45523 -2.01939 0
M  V30 5856 N 593.381 5.27428 -1.31608 0
M  V30 5857 H 597.183 2.70981 -1.13782 0
M  V30 5858 H 594.697 1.45552 -0.720294 0
M  V30 5859 H 596.694 4.06626 0.919828 0
M  V30 5860 H 595.354 2.96286 1.32834 0
M  V30 5861 H 596.365 4.83313 -1.8609 0
M  V30 5862 H 593.042 4.12845 0.621698 0
M  V30 5863 H 594.432 6.04268 -2.93786 0
M  V30 5864 N 597.152 0.631951 1.44375 0
M  V30 5865 C 598.568 0.297642 1.568 0
M  V30 5866 C 598.768 -1.19916 1.61934 0
M  V30 5867 O 597.824 -1.98324 1.56281 0
M  V30 5868 C 599.137 0.990286 2.83926 0
M  V30 5869 C 600.685 0.968507 2.97639 0
M  V30 5870 C 601.16 1.64163 4.27568 0
M  V30 5871 N 602.651 1.60826 4.34384 0
M  V30 5872 C 603.386 2.09802 5.33639 0
M  V30 5873 N 602.882 2.66973 6.39294 0
M  V30 5874 N 604.675 2.00426 5.25153 0
M  V30 5875 H 596.826 1.60353 1.39286 0
M  V30 5876 H 599.089 0.673142 0.667521 0
M  V30 5877 H 598.795 2.04519 2.8612 0
M  V30 5878 H 598.669 0.528563 3.73478 0
M  V30 5879 H 601.056 -0.0779247 2.94997 0
M  V30 5880 H 601.137 1.46873 2.09433 0
M  V30 5881 H 600.781 2.68752 4.3097 0
M  V30 5882 H 600.711 1.11624 5.14634 0
M  V30 5883 H 603.202 1.19087 3.58646 0
M  V30 5884 H 603.515 3.02074 7.11316 0
M  V30 5885 H 601.86 2.71024 6.39977 0
M  V30 5886 H 605.051 1.55483 4.41523 0
M  V30 5887 H 605.224 2.38906 6.02352 0
M  V30 5888 N 598.631 -1.53133 0.372548 0
M  V30 5889 C 599.579 -2.27473 -0.485681 0
M  V30 5890 C 600.573 -1.30719 -1.07745 0
M  V30 5891 O 601.779 -1.48321 -1.01985 0
M  V30 5892 H 598.154 -0.731269 -0.175356 0
M  V30 5893 H 600.125 -2.97955 0.162986 0
M  V30 5894 C 598.874 -3.08191 -1.60978 0
M  V30 5895 H 598.197 -3.82488 -1.16373 0
M  V30 5896 H 599.637 -3.63373 -2.18485 0
M  V30 5897 C 598.096 -2.19461 -2.55614 0
M  V30 5898 O 598.626 -1.81008 -3.58607 0
M  V30 5899 N 596.832 -1.83955 -2.24965 0
M  V30 5900 H 596.379 -2.15423 -1.41247 0
M  V30 5901 H 596.337 -1.24874 -2.88538 0
M  V30 5902 N 600.109 -0.101901 -1.5727 0
M  V30 5903 C 601.334 0.571759 -1.99363 0
M  V30 5904 C 601.759 1.60507 -0.980768 0
M  V30 5905 O 601.117 1.81231 0.0498517 0
M  V30 5906 C 601.165 1.18996 -3.404 0
M  V30 5907 O 600.269 2.30572 -3.41922 0
M  V30 5908 H 599.61 0.144449 -0.648098 0
M  V30 5909 H 602.14 -0.185325 -2.03759 0
M  V30 5910 H 602.15 1.52962 -3.78241 0
M  V30 5911 H 600.825 0.432984 -4.1364 0
M  V30 5912 H 599.402 1.98173 -3.15883 0
M  V30 5913 N 601.587 1.56661 0.17182 0
M  V30 5914 C 602.55 1.9549 1.19651 0
M  V30 5915 C 603.55 0.838501 1.37207 0
M  V30 5916 O 604.74 1.10556 1.34622 0
M  V30 5917 C 601.872 2.24927 2.56166 0
M  V30 5918 H 603.065 2.87184 0.864007 0
M  V30 5919 H 600.618 1.50711 0.41425 0
M  V30 5920 H 601.353 1.35944 2.94431 0
M  V30 5921 H 601.138 3.06301 2.4479 0
M  V30 5922 H 602.628 2.55891 3.30014 0
M  V30 5923 N 603.065 -0.440357 1.51323 0
M  V30 5924 C 604.015 -1.53263 1.68803 0
M  V30 5925 C 604.999 -1.51494 0.542057 0
M  V30 5926 O 606.191 -1.57999 0.797839 0
M  V30 5927 C 603.32 -2.91479 1.8137 0
M  V30 5928 C 602.406 -2.98015 3.01742 0
M  V30 5929 N 602.797 -2.743 4.24962 0
M  V30 5930 C 601.095 -3.29173 3.00934 0
M  V30 5931 C 601.796 -2.86601 5.06197 0
M  V30 5932 N 600.772 -3.1814 4.40781 0
M  V30 5933 H 604.574 -1.33675 2.61741 0
M  V30 5934 H 602.088 -0.647616 1.48929 0
M  V30 5935 H 604.085 -3.70055 1.92002 0
M  V30 5936 H 602.745 -3.12089 0.896117 0
M  V30 5937 H 603.756 -2.49287 4.53957 0
M  V30 5938 H 600.433 -3.55577 2.18796 0
M  V30 5939 H 601.823 -2.72246 6.14274 0
M  V30 5940 N 604.543 -1.41418 -0.695603 0
M  V30 5941 C 605.768 -1.44329 -1.48942 0
M  V30 5942 C 606.193 -0.0501579 -1.88033 0
M  V30 5943 O 605.551 0.946598 -1.54626 0
M  V30 5944 C 605.599 -2.3578 -2.72837 0
M  V30 5945 O 604.703 -1.81482 -3.70322 0
M  V30 5946 H 604.044 -0.489838 -0.44828 0
M  V30 5947 H 606.574 -1.85878 -0.855014 0
M  V30 5948 H 606.584 -2.51654 -3.21145 0
M  V30 5949 H 605.259 -3.37005 -2.43722 0
M  V30 5950 H 603.836 -1.75058 -3.29255 0
M  V30 5951 N 606.021 0.929856 -1.27246 0
M  V30 5952 C 606.984 2.01172 -1.09829 0
M  V30 5953 C 607.984 1.60743 -0.0429687 0
M  V30 5954 O 609.174 1.71813 -0.287373 0
M  V30 5955 C 606.306 3.34191 -0.673003 0
M  V30 5956 H 607.499 2.18054 -2.05895 0
M  V30 5957 H 605.052 1.11036 -1.10003 0
M  V30 5958 H 605.787 3.23009 0.289134 0
M  V30 5959 H 605.572 3.64892 -1.43515 0
M  V30 5960 H 607.062 4.13646 -0.573323 0
M  V30 5961 N 607.499 1.09233 1.13605 0
M  V30 5962 C 608.747 0.825525 1.84471 0
M  V30 5963 C 609.068 -0.650702 1.83823 0
M  V30 5964 O 608.338 -1.47204 1.29259 0
M  V30 5965 H 606.918 0.3024 0.683054 0
M  V30 5966 H 609.58 1.38006 1.37624 0
M  V30 5967 H 608.676 1.17727 2.89045 0
M  V30 5968 N 608.977 -1.30795 0.87923 0
M  V30 5969 C 610.223 -1.96653 0.495519 0
M  V30 5970 C 610.556 -1.69282 -0.951703 0
M  V30 5971 O 609.831 -0.994374 -1.6716 0
M  V30 5972 C 610.114 -3.51898 0.764174 0
M  V30 5973 C 609.967 -3.88808 2.2616 0
M  V30 5974 C 611.286 -4.39462 0.236825 0
M  V30 5975 H 608.405 -0.7143 0.181507 0
M  V30 5976 H 611.047 -1.54765 1.10217 0
M  V30 5977 H 609.197 -3.87709 0.247841 0
M  V30 5978 H 610.869 -3.63051 2.8459 0
M  V30 5979 H 609.112 -3.37082 2.73053 0
M  V30 5980 H 609.783 -4.97086 2.4002 0
M  V30 5981 H 612.259 -4.10528 0.678683 0
M  V30 5982 H 611.135 -5.47018 0.454176 0
M  V30 5983 H 611.396 -4.33621 -0.861683 0
M  V30 5984 N 610.455 -0.639598 -1.44038 0
M  V30 5985 C 611.703 -0.147188 -2.01563 0
M  V30 5986 C 612.024 1.2384 -1.50628 0
M  V30 5987 O 611.294 1.82452 -0.713316 0
M  V30 5988 H 609.874 -0.0514231 -0.745228 0
M  V30 5989 H 612.536 -0.828205 -1.76428 0
M  V30 5990 H 611.632 -0.121358 -3.11864 0
M  V30 5991 N 611.933 1.52934 -0.380664 0
M  V30 5992 C 612.896 2.24809 0.446473 0
M  V30 5993 C 613.896 1.26133 0.997347 0
M  V30 5994 O 615.086 1.50297 0.880714 0
M  V30 5995 C 612.218 2.99649 1.62553 0
M  V30 5996 H 613.411 2.99343 -0.182677 0
M  V30 5997 H 610.964 1.55736 -0.132618 0
M  V30 5998 H 611.699 2.29395 2.29235 0
M  V30 5999 H 611.484 3.72066 1.23732 0
M  V30 6000 H 612.974 3.54246 2.21133 0
M  V30 6001 N 613.412 0.11024 1.57214 0
M  V30 6002 C 614.661 -0.549638 1.94067 0
M  V30 6003 C 614.974 -1.68388 0.995234 0
M  V30 6004 O 616.18 -2.40593 1.25807 0
M  V30 6005 C 614.636 -1.02912 3.44873 0
M  V30 6006 C 614.244 0.0761861 4.47935 0
M  V30 6007 C 615.988 -1.66087 3.9066 0
M  V30 6008 C 613.895 -0.419502 5.8991 0
M  V30 6009 H 612.825 -0.209092 0.724428 0
M  V30 6010 H 615.476 0.188683 1.82527 0
M  V30 6011 H 613.858 -1.82159 3.51616 0
M  V30 6012 H 615.032 0.852185 4.52851 0
M  V30 6013 H 613.347 0.614052 4.11847 0
M  V30 6014 H 615.944 -2.04272 4.94143 0
M  V30 6015 H 616.287 -2.53591 3.30148 0
M  V30 6016 H 616.82 -0.933959 3.86681 0
M  V30 6017 H 613.559 0.419277 6.54158 0
M  V30 6018 H 613.079 -1.16217 5.88433 0
M  V30 6019 H 614.758 -0.883577 6.40938 0
M  V30 6020 N 614.89 -1.56749 -0.16351 0
M  V30 6021 C 616.137 -1.82434 -0.878866 0
M  V30 6022 C 616.465 -0.688557 -1.81904 0
M  V30 6023 O 615.72 0.323644 -1.93005 0
M  V30 6024 C 616.019 -3.14342 -1.70071 0
M  V30 6025 C 615.685 -4.41647 -0.908775 0
M  V30 6026 C 614.347 -4.76224 -0.690236 0
M  V30 6027 C 616.699 -5.19998 -0.353815 0
M  V30 6028 C 614.027 -5.86624 0.0942374 0
M  V30 6029 C 616.379 -6.3122 0.41761 0
M  V30 6030 C 615.043 -6.64358 0.646879 0
M  V30 6031 H 614.313 -0.667574 -0.3216 0
M  V30 6032 H 616.96 -1.90963 -0.14337 0
M  V30 6033 H 615.265 -3.0119 -2.50583 0
M  V30 6034 H 616.962 -3.31426 -2.25738 0
M  V30 6035 H 613.552 -4.1453 -1.08916 0
M  V30 6036 H 617.736 -4.93673 -0.509975 0
M  V30 6037 H 612.992 -6.10751 0.281529 0
M  V30 6038 H 617.166 -6.91133 0.854849 0
M  V30 6039 H 614.793 -7.49742 1.25662 0
M  V30 6040 N 616.368 0.432326 -1.51554 0
M  V30 6041 C 617.645 1.19288 -1.55015 0
M  V30 6042 C 618.025 2.08701 -0.317375 0
M  V30 6043 O 617.373 2.17602 0.697243 0
M  V30 6044 C 617.583 1.99037 -2.86679 0
M  V30 6045 C 618.931 2.55907 -3.38817 0
M  V30 6046 O 619.955 2.09243 -2.88263 0
M  V30 6047 O 618.814 3.41029 -4.27038 0
M  V30 6048 H 615.908 0.543369 -0.623441 0
M  V30 6049 H 618.454 0.440988 -1.6387 0
M  V30 6050 H 617.226 1.33397 -3.6786 0
M  V30 6051 H 616.849 2.81281 -2.8101 0
M  V30 6052 N 617.846 1.41785 0.688094 0
M  V30 6053 C 619.262 1.24419 0.999608 0
M  V30 6054 C 619.462 0.138868 2.01021 0
M  V30 6055 O 618.518 -0.494283 2.47615 0
M  V30 6056 C 619.831 2.59625 1.51709 0
M  V30 6057 C 621.379 2.66869 1.63554 0
M  V30 6058 C 621.854 4.0241 2.18702 0
M  V30 6059 N 623.345 4.04295 2.26053 0
M  V30 6060 C 624.08 5.05977 2.69768 0
M  V30 6061 N 623.576 6.18047 3.13033 0
M  V30 6062 N 625.369 4.93336 2.69398 0
M  V30 6063 H 617.52 2.12392 0.0187427 0
M  V30 6064 H 619.783 0.945347 0.0708673 0
M  V30 6065 H 619.489 3.41297 0.849059 0
M  V30 6066 H 619.363 2.82628 2.49803 0
M  V30 6067 H 621.75 1.8555 2.29467 0
M  V30 6068 H 621.831 2.47668 0.639857 0
M  V30 6069 H 621.475 4.8418 1.53402 0
M  V30 6070 H 621.405 4.18955 3.19037 0
M  V30 6071 H 623.896 3.23383 1.9553 0
M  V30 6072 H 624.209 6.91498 3.45038 0
M  V30 6073 H 622.554 6.21572 3.10923 0
M  V30 6074 H 625.745 4.04865 2.34952 0
M  V30 6075 H 625.918 5.72717 3.03148 0
M  V30 6076 N 619.324 -0.923095 1.27737 0
M  V30 6077 C 620.57 -1.67375 1.14514 0
M  V30 6078 C 620.903 -1.91751 -0.307424 0
M  V30 6079 O 620.178 -1.51119 -1.22447 0
M  V30 6080 C 620.461 -3.03745 1.9342 0
M  V30 6081 C 620.314 -2.86581 3.46686 0
M  V30 6082 C 621.633 -4.04144 1.74228 0
M  V30 6083 H 618.752 -0.607427 0.417374 0
M  V30 6084 H 621.394 -1.07089 1.56946 0
M  V30 6085 H 619.544 -3.55204 1.5736 0
M  V30 6086 H 621.216 -2.42203 3.92601 0
M  V30 6087 H 619.459 -2.21829 3.72793 0
M  V30 6088 H 620.13 -3.83381 3.97143 0
M  V30 6089 H 622.606 -3.61712 2.05678 0
M  V30 6090 H 621.482 -4.97543 2.31824 0
M  V30 6091 H 621.743 -4.36661 0.691373 0
M  V30 6092 N 620.802 -1.09834 -1.13024 0
M  V30 6093 C 621.732 -0.763451 -2.20666 0
M  V30 6094 C 622.713 0.260778 -1.68089 0
M  V30 6095 O 623.898 0.127915 -1.93778 0
M  V30 6096 C 621.028 -0.187744 -3.46792 0
M  V30 6097 C 619.982 -1.14196 -4.12484 0
M  V30 6098 C 619.308 -0.427755 -5.32986 0
M  V30 6099 C 620.608 -2.48607 -4.59338 0
M  V30 6100 H 622.302 -1.66347 -2.48936 0
M  V30 6101 H 619.848 -0.801261 -1.19649 0
M  V30 6102 H 621.801 0.0586375 -4.21359 0
M  V30 6103 H 620.525 0.747485 -3.17931 0
M  V30 6104 H 619.184 -1.37369 -3.3989 0
M  V30 6105 H 618.832 0.511747 -5.0039 0
M  V30 6106 H 618.532 -1.06403 -5.77886 0
M  V30 6107 H 620.056 -0.189772 -6.10305 0
M  V30 6108 H 621.47 -2.29618 -5.25308 0
M  V30 6109 H 619.867 -3.08062 -5.14993 0
M  V30 6110 H 620.937 -3.09062 -3.73642 0
M  V30 6111 N 622.28 1.30327 -0.886154 0
M  V30 6112 C 623.508 2.00254 -0.520176 0
M  V30 6113 C 623.923 1.66419 0.891637 0
M  V30 6114 O 623.28 0.901951 1.58654 0
M  V30 6115 C 623.331 3.54916 -0.686775 0
M  V30 6116 O 623.052 3.87547 -2.04301 0
M  V30 6117 C 624.553 4.42115 -0.323945 0
M  V30 6118 H 621.773 0.640204 -0.200947 0
M  V30 6119 H 624.317 1.66183 -1.19178 0
M  V30 6120 H 622.472 3.8735 -0.0625273 0
M  V30 6121 H 622.886 4.82247 -2.06249 0
M  V30 6122 H 624.36 5.49808 -0.491407 0
M  V30 6123 H 624.837 4.32953 0.73811 0
M  V30 6124 H 625.443 4.15129 -0.924565 0
M  V30 6125 N 623.758 0.647228 1.43697 0
M  V30 6126 C 624.668 -0.0487997 2.34549 0
M  V30 6127 C 625.684 -0.818586 1.53542 0
M  V30 6128 O 626.86 -0.767195 1.86215 0
M  V30 6129 C 623.925 -1.00734 3.31743 0
M  V30 6130 C 622.986 -0.23515 4.28655 0
M  V30 6131 C 622.219 -1.14803 5.21206 0
M  V30 6132 O 622.442 -2.38717 5.18045 0
M  V30 6133 O 621.376 -0.623667 5.9866 0
M  V30 6134 H 625.202 0.698863 2.9555 0
M  V30 6135 H 622.787 0.407412 1.43738 0
M  V30 6136 H 624.669 -1.55837 3.91526 0
M  V30 6137 H 623.344 -1.73534 2.73254 0
M  V30 6138 H 622.251 0.359319 3.7237 0
M  V30 6139 H 623.584 0.453152 4.9011 0
M  V30 6140 N 625.236 -1.5273 0.388769 0
M  V30 6141 C 626.166 -2.29353 -0.438111 0
M  V30 6142 C 627.147 -1.32719 -1.06394 0
M  V30 6143 O 628.332 -1.61612 -1.07681 0
M  V30 6144 C 625.462 -3.09995 -1.56589 0
M  V30 6145 C 624.416 -4.14509 -1.06613 0
M  V30 6146 C 623.742 -4.83372 -2.28594 0
M  V30 6147 C 625.042 -5.22127 -0.134459 0
M  V30 6148 H 626.736 -2.98723 0.201206 0
M  V30 6149 H 624.282 -1.43665 0.0982089 0
M  V30 6150 H 626.235 -3.62357 -2.15118 0
M  V30 6151 H 624.959 -2.38357 -2.23279 0
M  V30 6152 H 623.618 -3.63128 -0.503383 0
M  V30 6153 H 623.266 -4.08283 -2.93792 0
M  V30 6154 H 622.966 -5.54012 -1.95817 0
M  V30 6155 H 624.49 -5.38538 -2.87766 0
M  V30 6156 H 625.904 -5.69851 -0.627914 0
M  V30 6157 H 624.301 -6.00011 0.103534 0
M  V30 6158 H 625.371 -4.77971 0.816798 0
M  V30 6159 N 626.714 -0.118576 -1.57153 0
M  V30 6160 C 627.96 0.540326 -1.95469 0
M  V30 6161 C 628.293 1.66356 -1.00196 0
M  V30 6162 O 627.568 1.94461 -0.039104 0
M  V30 6163 C 627.851 1.07342 -3.43729 0
M  V30 6164 C 627.704 -0.0463732 -4.49776 0
M  V30 6165 C 629.023 1.96442 -3.93826 0
M  V30 6166 H 626.142 0.19494 -0.710751 0
M  V30 6167 H 628.784 -0.19405 -1.89006 0
M  V30 6168 H 626.934 1.69925 -3.49368 0
M  V30 6169 H 628.606 -0.681648 -4.56236 0
M  V30 6170 H 626.849 -0.709574 -4.27957 0
M  V30 6171 H 627.52 0.367856 -5.50773 0
M  V30 6172 H 629.996 1.43731 -3.90488 0
M  V30 6173 H 628.872 2.3066 -4.98084 0
M  V30 6174 H 629.133 2.89077 -3.34495 0
M  V30 6175 N 628.193 1.56834 0.155195 0
M  V30 6176 C 629.418 1.87412 0.888337 0
M  V30 6177 C 629.843 0.70671 1.74319 0
M  V30 6178 O 629.201 -0.343892 1.78009 0
M  V30 6179 C 629.249 3.1652 1.72765 0
M  V30 6180 O 628.353 2.99877 2.83103 0
M  V30 6181 H 627.694 0.615983 0.247914 0
M  V30 6182 H 630.224 2.04061 0.148478 0
M  V30 6183 H 630.234 3.48334 2.12433 0
M  V30 6184 H 628.909 4.01094 1.09985 0
M  V30 6185 H 627.486 2.79453 2.46902 0
M  V30 6186 N 629.671 -0.424282 1.51781 0
M  V30 6187 C 630.618 -1.51591 1.74037 0
M  V30 6188 C 631.588 -1.55556 0.582358 0
M  V30 6189 O 632.773 -1.72364 0.818245 0
M  V30 6190 C 629.913 -2.89188 1.8832 0
M  V30 6191 C 629.026 -2.9465 3.1592 0
M  V30 6192 C 628.161 -4.23452 3.20721 0
M  V30 6193 C 627.2 -4.22831 4.42584 0
M  V30 6194 N 626.337 -5.43178 4.44862 0
M  V30 6195 H 631.177 -1.31917 2.67212 0
M  V30 6196 H 628.714 -0.640599 1.32419 0
M  V30 6197 H 630.672 -3.69044 1.94583 0
M  V30 6198 H 629.302 -3.07392 0.985402 0
M  V30 6199 H 628.354 -2.07378 3.18902 0
M  V30 6200 H 629.666 -2.90055 4.05795 0
M  V30 6201 H 628.82 -5.1169 3.25973 0
M  V30 6202 H 627.559 -4.30722 2.28757 0
M  V30 6203 H 626.564 -3.32984 4.37495 0
M  V30 6204 H 627.789 -4.17213 5.35826 0
M  V30 6205 H 625.735 -5.51145 3.55775 0
M  V30 6206 H 625.652 -5.40515 5.28563 0
M  V30 6207 H 626.92 -6.33412 4.54324 0
M  V30 6208 N 631.149 -1.42148 -0.680565 0
M  V30 6209 C 632.082 -1.39602 -1.80517 0
M  V30 6210 C 633.06 -0.261098 -1.6049 0
M  V30 6211 O 634.244 -0.450404 -1.8304 0
M  V30 6212 C 631.371 -1.18134 -3.1743 0
M  V30 6213 C 630.417 -2.34543 -3.56219 0
M  V30 6214 S 631.25 -3.97063 -3.59306 0
M  V30 6215 C 632.406 -3.77926 -4.98921 0
M  V30 6216 H 632.639 -2.3477 -1.82402 0
M  V30 6217 H 630.172 -1.28851 -0.850691 0
M  V30 6218 H 632.13 -1.06434 -3.96462 0
M  V30 6219 H 630.791 -0.245611 -3.13138 0
M  V30 6220 H 629.984 -2.15255 -4.55721 0
M  V30 6221 H 629.586 -2.42728 -2.84533 0
M  V30 6222 H 631.878 -3.3856 -5.86842 0
M  V30 6223 H 632.821 -4.77084 -5.23256 0
M  V30 6224 H 633.229 -3.10904 -4.71167 0
M  V30 6225 N 632.627 0.916307 -1.28225 0
M  V30 6226 C 634.043 1.19425 -1.05876 0
M  V30 6227 C 634.243 2.005 0.2005 0
M  V30 6228 O 633.299 2.35806 0.902873 0
M  V30 6229 C 634.612 1.93133 -2.30478 0
M  V30 6230 C 636.16 2.06026 -2.35632 0
M  V30 6231 C 636.635 2.83141 -3.59994 0
M  V30 6232 N 638.126 2.90704 -3.60618 0
M  V30 6233 C 638.861 3.50865 -4.53521 0
M  V30 6234 N 638.357 4.12327 -5.56739 0
M  V30 6235 N 640.15 3.48379 -4.41122 0
M  V30 6236 H 632.301 0.37496 -2.09064 0
M  V30 6237 H 634.564 0.228531 -0.920042 0
M  V30 6238 H 634.27 1.40985 -3.22205 0
M  V30 6239 H 634.144 2.93696 -2.36691 0
M  V30 6240 H 636.531 2.57355 -1.44404 0
M  V30 6241 H 636.612 1.04647 -2.33415 0
M  V30 6242 H 636.256 2.32492 -4.51564 0
M  V30 6243 H 636.186 3.84829 -3.59464 0
M  V30 6244 H 638.677 2.47034 -2.85977 0
M  V30 6245 H 638.99 4.56205 -6.23776 0
M  V30 6246 H 637.335 4.10839 -5.60568 0
M  V30 6247 H 640.526 2.99572 -3.59686 0
M  V30 6248 H 640.699 3.94974 -5.13712 0
M  V30 6249 N 634.105 1.10431 1.1244 0
M  V30 6250 C 635.382 0.758797 1.80282 0
M  V30 6251 C 635.762 -0.754727 1.97147 0
M  V30 6252 O 635.11 -1.68094 1.54779 0
M  V30 6253 C 635.32 1.50982 3.14651 0
M  V30 6254 C 636.668 1.68232 3.8985 0
M  V30 6255 O 637.692 1.47319 3.24308 0
M  V30 6256 O 636.551 2.02905 5.07437 0
M  V30 6257 H 633.645 0.273756 0.780376 0
M  V30 6258 H 636.191 1.20713 1.19275 0
M  V30 6259 H 634.963 2.53989 2.97666 0
M  V30 6260 H 634.586 1.05435 3.83366 0
M  V30 6261 N 635.583 -1.29855 0.893053 0
M  V30 6262 C 636.516 -2.26079 0.3104 0
M  V30 6263 C 637.494 -1.52145 -0.573644 0
M  V30 6264 O 638.678 -1.8113 -0.521937 0
M  V30 6265 C 635.805 -3.34069 -0.558179 0
M  V30 6266 C 634.851 -4.25721 0.257638 0
M  V30 6267 S 635.684 -5.09409 1.65114 0
M  V30 6268 C 636.84 -6.20903 0.789307 0
M  V30 6269 H 637.073 -2.75151 1.12602 0
M  V30 6270 H 634.606 -1.37975 0.692978 0
M  V30 6271 H 636.564 -3.9675 -1.05355 0
M  V30 6272 H 635.225 -2.83705 -1.34797 0
M  V30 6273 H 634.418 -5.02366 -0.405562 0
M  V30 6274 H 634.02 -3.67656 0.685917 0
M  V30 6275 H 636.312 -6.77499 0.00978451 0
M  V30 6276 H 637.255 -6.91426 1.52762 0
M  V30 6277 H 637.663 -5.63435 0.346634 0
M  V30 6278 N 637.061 -0.65484 -1.43351 0
M  V30 6279 C 638.477 -0.32255 -1.56307 0
M  V30 6280 C 638.677 1.17324 -1.63821 0
M  V30 6281 O 637.733 1.95813 -1.59417 0
M  V30 6282 C 639.046 -1.03533 -2.82314 0
M  V30 6283 C 640.594 -1.01574 -2.9606 0
M  V30 6284 C 641.069 -1.70945 -4.24902 0
M  V30 6285 N 642.56 -1.67716 -4.3177 0
M  V30 6286 C 643.295 -2.18265 -5.30234 0
M  V30 6287 N 642.791 -2.7711 -6.34966 0
M  V30 6288 N 644.584 -2.08756 -5.21898 0
M  V30 6289 H 636.735 -1.62549 -1.36717 0
M  V30 6290 H 638.998 -0.683676 -0.656727 0
M  V30 6291 H 638.704 -2.09045 -2.8283 0
M  V30 6292 H 638.578 -0.587913 -3.7259 0
M  V30 6293 H 640.965 0.0309834 -2.95084 0
M  V30 6294 H 641.046 -1.50186 -2.07069 0
M  V30 6295 H 640.69 -2.75574 -4.26639 0
M  V30 6296 H 640.62 -1.19797 -5.12793 0
M  V30 6297 H 643.111 -1.24777 -3.56706 0
M  V30 6298 H 643.424 -3.13353 -7.06421 0
M  V30 6299 H 641.769 -2.81171 -6.35585 0
M  V30 6300 H 644.96 -1.62488 -4.38994 0
M  V30 6301 H 645.133 -2.48459 -5.98475 0
M  V30 6302 N 638.539 1.52521 -0.396863 0
M  V30 6303 C 639.472 2.23118 0.478926 0
M  V30 6304 C 640.45 1.23475 1.05796 0
M  V30 6305 O 641.634 1.52486 1.10817 0
M  V30 6306 C 638.761 2.95028 1.66362 0
M  V30 6307 C 637.807 4.09002 1.20913 0
M  V30 6308 S 638.64 5.35182 0.184407 0
M  V30 6309 C 639.796 6.10616 1.37471 0
M  V30 6310 H 640.029 2.97056 -0.120542 0
M  V30 6311 H 637.562 1.53334 -0.18109 0
M  V30 6312 H 639.52 3.37066 2.34301 0
M  V30 6313 H 638.181 2.20756 2.23441 0
M  V30 6314 H 637.374 4.58445 2.09389 0
M  V30 6315 H 636.976 3.69016 0.608559 0
M  V30 6316 H 639.268 6.37247 2.30048 0
M  V30 6317 H 640.211 7.02084 0.921051 0
M  V30 6318 H 640.619 5.41499 1.59495 0
M  V30 6319 N 640.017 0.126909 1.57088 0
M  V30 6320 C 641.294 -0.573152 1.87014 0
M  V30 6321 C 641.674 -1.84297 1.02945 0
M  V30 6322 O 641.022 -2.28232 0.110573 0
M  V30 6323 C 641.232 -0.857984 3.38289 0
M  V30 6324 C 642.58 -1.20759 4.07066 0
M  V30 6325 O 643.604 -0.947992 3.43353 0
M  V30 6326 O 642.463 -1.69516 5.19545 0
M  V30 6327 H 639.557 -0.290082 0.774456 0
M  V30 6328 H 642.103 0.162008 1.68925 0
M  V30 6329 H 640.875 0.0415286 3.91278 0
M  V30 6330 H 640.498 -1.64803 3.61837 0
M  V30 6331 N 641.495 -1.56914 -0.146875 0
M  V30 6332 C 642.442 -1.98275 -1.18134 0
M  V30 6333 C 643.412 -0.850367 -1.42681 0
M  V30 6334 O 644.597 -1.11244 -1.55014 0
M  V30 6335 C 641.737 -2.36861 -2.5098 0
M  V30 6336 C 640.85 -3.63391 -2.33605 0
M  V30 6337 C 639.985 -3.91079 -3.59486 0
M  V30 6338 C 639.024 -5.10879 -3.37149 0
M  V30 6339 N 638.161 -5.34577 -4.55161 0
M  V30 6340 H 643.001 -2.8645 -0.821622 0
M  V30 6341 H 640.538 -1.41718 -0.394248 0
M  V30 6342 H 642.496 -2.57262 -3.28439 0
M  V30 6343 H 641.126 -1.51766 -2.84898 0
M  V30 6344 H 640.178 -3.50766 -1.47199 0
M  V30 6345 H 641.49 -4.51007 -2.13059 0
M  V30 6346 H 640.644 -4.11979 -4.45374 0
M  V30 6347 H 639.383 -3.01885 -3.83036 0
M  V30 6348 H 638.388 -4.89853 -2.49649 0
M  V30 6349 H 639.613 -6.01626 -3.14997 0
M  V30 6350 H 637.559 -4.48337 -4.78884 0
M  V30 6351 H 637.476 -6.16463 -4.37618 0
M  V30 6352 H 638.744 -5.59975 -5.42263 0
M  V30 6353 N 642.974 0.416227 -1.52004 0
M  V30 6354 C 644.202 1.18573 -1.69553 0
M  V30 6355 C 644.617 1.84472 -0.401919 0
M  V30 6356 O 643.974 1.71593 0.621463 0
M  V30 6357 C 644.025 2.25413 -2.82615 0
M  V30 6358 O 643.746 1.62205 -4.06966 0
M  V30 6359 C 645.247 3.15297 -3.11613 0
M  V30 6360 H 642.467 0.356582 -0.56841 0
M  V30 6361 H 645.011 0.490618 -1.98528 0
M  V30 6362 H 643.166 2.90604 -2.56179 0
M  V30 6363 H 643.58 2.3298 -4.69916 0
M  V30 6364 H 645.054 3.86351 -3.94255 0
M  V30 6365 H 645.531 3.77264 -2.24874 0
M  V30 6366 H 646.137 2.55783 -3.39787 0
M  V30 6367 N 644.452 1.42507 0.673017 0
M  V30 6368 C 645.362 1.4853 1.81593 0
M  V30 6369 C 646.378 0.373907 1.69935 0
M  V30 6370 O 647.554 0.625078 1.91454 0
M  V30 6371 C 644.619 1.387 3.17747 0
M  V30 6372 C 643.68 2.60346 3.41348 0
M  V30 6373 C 642.913 2.50975 4.71007 0
M  V30 6374 O 643.136 1.54659 5.49033 0
M  V30 6375 O 642.07 3.41138 4.95892 0
M  V30 6376 H 645.896 2.45001 1.79467 0
M  V30 6377 H 643.481 1.2429 0.82899 0
M  V30 6378 H 645.363 1.35586 3.98992 0
M  V30 6379 H 644.038 0.453555 3.20507 0
M  V30 6380 H 642.945 2.69034 2.59945 0
M  V30 6381 H 644.278 3.52595 3.43421 0
M  V30 6382 N 645.93 -0.909495 1.28709 0
M  V30 6383 C 646.86 -2.0291 1.15542 0
M  V30 6384 C 647.841 -1.7002 0.0521017 0
M  V30 6385 O 649.026 -1.92835 0.229849 0
M  V30 6386 C 646.156 -3.37458 0.820935 0
M  V30 6387 C 645.11 -3.84524 1.87949 0
M  V30 6388 C 644.436 -5.16086 1.39854 0
M  V30 6389 C 645.736 -4.05918 3.28676 0
M  V30 6390 H 647.43 -2.14183 2.09203 0
M  V30 6391 H 644.976 -1.02913 1.00722 0
M  V30 6392 H 646.929 -4.1528 0.715571 0
M  V30 6393 H 645.653 -3.26249 -0.151374 0
M  V30 6394 H 644.312 -3.08911 1.97408 0
M  V30 6395 H 643.96 -5.01284 0.41518 0
M  V30 6396 H 643.66 -5.48547 2.1064 0
M  V30 6397 H 645.184 -5.96459 1.30649 0
M  V30 6398 H 646.598 -4.74252 3.22115 0
M  V30 6399 H 644.995 -4.49717 3.97334 0
M  V30 6400 H 646.065 -3.10583 3.72379 0
M  V30 6401 N 647.408 -1.11026 -1.11852 0
M  V30 6402 C 648.656 -0.854769 -1.83134 0
M  V30 6403 C 648.977 0.621375 -1.84835 0
M  V30 6404 O 648.247 1.45129 -1.31584 0
M  V30 6405 H 646.827 -0.313229 -0.678157 0
M  V30 6406 H 649.489 -1.40178 -1.35411 0
M  V30 6407 H 648.585 -1.22311 -2.87135 0
M  V30 6408 N 648.886 1.2938 -0.899927 0
M  V30 6409 C 650.126 1.97332 -0.532871 0
M  V30 6410 C 650.49 1.69385 0.904029 0
M  V30 6411 O 651.691 2.30793 1.37797 0
M  V30 6412 C 649.962 3.47927 -0.817393 0
M  V30 6413 S 651.521 4.3528 -0.55468 0
M  V30 6414 H 648.339 0.682966 -0.197683 0
M  V30 6415 H 650.941 1.57189 -1.16241 0
M  V30 6416 H 649.645 3.65761 -1.86138 0
M  V30 6417 H 649.176 3.93006 -0.175978 0
M  V30 6418 H 651.191 4.92557 0.600182 0
M  V30 6419 N 650.364 0.662433 1.43002 0
M  V30 6420 C 651.294 -0.00979809 2.33498 0
M  V30 6421 C 652.275 -0.802329 1.49989 0
M  V30 6422 O 653.46 -0.761964 1.78627 0
M  V30 6423 C 650.59 -0.970446 3.33466 0
M  V30 6424 C 649.544 -0.287383 4.27034 0
M  V30 6425 C 648.87 -1.36012 5.17112 0
M  V30 6426 C 650.17 0.82595 5.15728 0
M  V30 6427 H 651.864 0.745959 2.89958 0
M  V30 6428 H 649.41 0.360172 1.39423 0
M  V30 6429 H 651.363 -1.44971 3.95679 0
M  V30 6430 H 650.087 -1.75748 2.75282 0
M  V30 6431 H 648.746 0.17152 3.66199 0
M  V30 6432 H 648.394 -2.13882 4.55262 0
M  V30 6433 H 648.094 -0.908276 5.80538 0
M  V30 6434 H 649.618 -1.84056 5.82199 0
M  V30 6435 H 651.032 0.42845 5.71697 0
M  V30 6436 H 649.429 1.20282 5.87922 0
M  V30 6437 H 650.499 1.68003 4.54866 0
M  V30 6438 N 651.842 -1.52309 0.404946 0
M  V30 6439 C 653.258 -1.59503 0.0556255 0
M  V30 6440 C 653.458 -1.41805 -1.43156 0
M  V30 6441 O 652.514 -1.2429 -2.19792 0
M  V30 6442 C 653.827 -2.95687 0.546801 0
M  V30 6443 C 655.375 -3.08909 0.504413 0
M  V30 6444 C 655.85 -4.47566 0.97203 0
M  V30 6445 N 657.341 -4.53795 0.928679 0
M  V30 6446 C 658.076 -5.59346 1.26174 0
M  V30 6447 N 657.572 -6.72469 1.66604 0
M  V30 6448 N 659.365 -5.49532 1.18198 0
M  V30 6449 H 651.516 -1.6206 1.37296 0
M  V30 6450 H 653.779 -0.762161 0.563751 0
M  V30 6451 H 653.485 -3.13905 1.58609 0
M  V30 6452 H 653.359 -3.77172 -0.0457905 0
M  V30 6453 H 655.746 -2.90378 -0.525819 0
M  V30 6454 H 655.827 -2.2934 1.13301 0
M  V30 6455 H 655.471 -4.6684 2.00057 0
M  V30 6456 H 655.401 -5.25625 0.320292 0
M  V30 6457 H 657.892 -3.72588 0.631369 0
M  V30 6458 H 658.205 -7.48993 1.9034 0
M  V30 6459 H 656.55 -6.73761 1.70504 0
M  V30 6460 H 659.741 -4.60038 0.865011 0
M  V30 6461 H 659.914 -6.31687 1.44485 0
M  V30 6462 N 653.32 -0.135238 -1.57019 0
M  V30 6463 C 654.283 0.794707 -2.14981 0
M  V30 6464 C 655.283 1.18342 -1.08866 0
M  V30 6465 O 656.473 1.10627 -1.34563 0
M  V30 6466 C 653.605 2.07685 -2.70333 0
M  V30 6467 H 654.798 0.290696 -2.98488 0
M  V30 6468 H 652.351 0.114128 -1.55883 0
M  V30 6469 H 653.086 2.6248 -1.9046 0
M  V30 6470 H 652.871 1.80745 -3.47957 0
M  V30 6471 H 654.361 2.74127 -3.1503 0
M  V30 6472 N 654.798 1.5699 0.138552 0
M  V30 6473 C 656.047 1.82998 0.848205 0
M  V30 6474 C 656.36 0.717829 1.81952 0
M  V30 6475 O 657.566 0.863756 2.57394 0
M  V30 6476 C 656.022 3.24379 1.55904 0
M  V30 6477 C 655.63 4.43552 0.62971 0
M  V30 6478 C 657.374 3.59654 2.25498 0
M  V30 6479 C 655.281 5.75957 1.34266 0
M  V30 6480 H 654.211 0.682495 0.320495 0
M  V30 6481 H 656.862 1.83222 0.100924 0
M  V30 6482 H 655.244 3.18567 2.35226 0
M  V30 6483 H 656.418 4.6062 -0.128882 0
M  V30 6484 H 654.733 4.16379 0.0417526 0
M  V30 6485 H 657.33 4.55837 2.79493 0
M  V30 6486 H 657.673 2.86124 3.02388 0
M  V30 6487 H 658.206 3.67164 1.53087 0
M  V30 6488 H 654.945 6.52604 0.615441 0
M  V30 6489 H 654.465 5.62811 2.07375 0
M  V30 6490 H 656.144 6.19046 1.88126 0
M  V30 6491 N 656.276 -0.40816 1.52223 0
M  V30 6492 C 657.525 -1.15212 1.65557 0
M  V30 6493 C 657.838 -1.9163 0.392096 0
M  V30 6494 O 659.044 -2.68458 0.405256 0
M  V30 6495 C 657.5 -2.09691 2.92502 0
M  V30 6496 C 657.108 -1.38785 4.25961 0
M  V30 6497 C 658.852 -2.8434 3.152 0
M  V30 6498 C 656.759 -2.31919 5.44029 0
M  V30 6499 H 655.689 -0.433776 0.616729 0
M  V30 6500 H 658.34 -0.4165 1.78711 0
M  V30 6501 H 656.722 -2.8681 2.7305 0
M  V30 6502 H 657.896 -0.670248 4.55899 0
M  V30 6503 H 656.211 -0.761741 4.09373 0
M  V30 6504 H 658.808 -3.54166 4.00587 0
M  V30 6505 H 659.151 -3.47344 2.29473 0
M  V30 6506 H 659.684 -2.14321 3.35129 0
M  V30 6507 H 656.423 -1.7356 6.32105 0
M  V30 6508 H 655.943 -3.0165 5.18428 0
M  V30 6509 H 657.622 -2.92424 5.77146 0
M  V30 6510 N 657.755 -1.42862 -0.66545 0
M  V30 6511 C 658.685 -1.49867 -1.79059 0
M  V30 6512 C 659.666 -0.354394 -1.66367 0
M  V30 6513 O 660.851 -0.569969 -1.85647 0
M  V30 6514 C 657.981 -1.40943 -3.17415 0
M  V30 6515 C 656.935 -2.53495 -3.44854 0
M  V30 6516 C 656.261 -2.29626 -4.82883 0
M  V30 6517 C 657.561 -3.95781 -3.40815 0
M  V30 6518 H 659.255 -2.44037 -1.73453 0
M  V30 6519 H 656.801 -1.17456 -0.833071 0
M  V30 6520 H 658.754 -1.4445 -3.95869 0
M  V30 6521 H 657.478 -0.432716 -3.23721 0
M  V30 6522 H 656.137 -2.4932 -2.68766 0
M  V30 6523 H 655.785 -1.30226 -4.8585 0
M  V30 6524 H 655.485 -3.05065 -5.02204 0
M  V30 6525 H 657.009 -2.34897 -5.63609 0
M  V30 6526 H 658.423 -4.01508 -4.09224 0
M  V30 6527 H 656.82 -4.71148 -3.71672 0
M  V30 6528 H 657.89 -4.21786 -2.39216 0
M  V30 6529 N 659.233 0.902656 -1.29189 0
M  V30 6530 C 660.48 1.65287 -1.16989 0
M  V30 6531 C 660.808 1.92485 0.279232 0
M  V30 6532 O 660.063 1.53143 1.21843 0
M  V30 6533 C 660.362 3.011 -1.92545 0
M  V30 6534 C 660.028 2.93521 -3.42281 0
M  V30 6535 C 658.69 2.91161 -3.83117 0
M  V30 6536 C 661.042 2.82947 -4.3771 0
M  V30 6537 C 658.37 2.76043 -5.17704 0
M  V30 6538 C 660.722 2.69368 -5.72384 0
M  V30 6539 C 659.386 2.65373 -6.12482 0
M  V30 6540 H 658.656 0.604828 -0.428094 0
M  V30 6541 H 661.303 1.05084 -1.60092 0
M  V30 6542 H 659.608 3.65153 -1.42024 0
M  V30 6543 H 661.305 3.58073 -1.80512 0
M  V30 6544 H 657.895 2.96158 -3.09819 0
M  V30 6545 H 662.079 2.83849 -4.07116 0
M  V30 6546 H 657.335 2.71352 -5.47885 0
M  V30 6547 H 661.509 2.60156 -6.45981 0
M  V30 6548 H 659.136 2.53415 -7.16718 0
M  V30 6549 N 660.711 1.11618 1.11262 0
M  V30 6550 C 661.659 0.771291 2.1944 0
M  V30 6551 C 662.653 -0.238073 1.67719 0
M  V30 6552 O 663.859 -0.0971628 1.79738 0
M  V30 6553 H 660.234 0.231548 0.715465 0
M  V30 6554 H 662.205 1.69226 2.45775 0
M  V30 6555 C 660.954 0.232765 3.4692 0
M  V30 6556 H 660.277 1.00072 3.87073 0
M  V30 6557 H 661.717 0.0296561 4.2399 0
M  V30 6558 C 660.176 -1.03738 3.20531 0
M  V30 6559 O 660.706 -2.11675 3.41404 0
M  V30 6560 N 658.912 -0.960906 2.74253 0
M  V30 6561 H 658.459 -0.0824323 2.57468 0
M  V30 6562 H 658.417 -1.8114 2.56974 0
M  V30 6563 N 662.189 -1.289 0.906776 0
M  V30 6564 C 663.6 -1.77336 0.58384 0
M  V30 6565 C 663.951 -1.74304 -0.900697 0
M  V30 6566 O 663.076 -1.33335 -1.70443 0
M  V30 6567 C 663.671 -3.22019 1.05304 0
M  V30 6568 C 662.23 -3.68205 0.781148 0
M  V30 6569 C 661.377 -2.48837 1.22373 0
M  V30 6570 H 664.328 -1.15462 1.08877 0
M  V30 6571 H 664.349 -3.78481 0.391414 0
M  V30 6572 H 663.861 -3.24194 2.13353 0
M  V30 6573 H 661.962 -3.71497 -0.28643 0
M  V30 6574 H 662.075 -4.58675 1.384 0
M  V30 6575 H 660.439 -2.46461 0.642594 0
M  V30 6576 H 661.222 -2.53736 2.31242 0
M  V30 6577 N 663.667 -0.670007 -1.42649 0
M  V30 6578 C 664.944 -0.119451 -1.95235 0
M  V30 6579 C 665.324 1.36461 -1.61064 0
M  V30 6580 O 664.672 2.09843 -0.904329 0
M  V30 6581 C 664.882 -0.383498 -3.46887 0
M  V30 6582 C 666.23 -0.297431 -4.23557 0
M  V30 6583 O 667.254 -0.31698 -3.54787 0
M  V30 6584 O 666.113 -0.235507 -5.45992 0
M  V30 6585 H 663.207 -8.85474e-05 -0.827 0
M  V30 6586 H 665.753 -0.744406 -1.52501 0
M  V30 6587 H 664.525 -1.41174 -3.64946 0
M  V30 6588 H 664.148 0.273702 -3.96657 0
M  V30 6589 N 665.145 1.52092 -0.413018 0
M  V30 6590 C 666.108 2.25706 0.398687 0
M  V30 6591 C 667.108 1.28221 0.970368 0
M  V30 6592 O 668.298 1.52131 0.848635 0
M  V30 6593 C 665.43 3.03029 1.5616 0
M  V30 6594 H 666.623 2.98888 -0.246131 0
M  V30 6595 H 664.176 1.5542 -0.165622 0
M  V30 6596 H 664.911 2.34205 2.24317 0
M  V30 6597 H 664.696 3.74606 1.15812 0
M  V30 6598 H 666.186 3.58857 2.13569 0
M  V30 6599 N 666.623 0.143563 1.56945 0
M  V30 6600 C 667.57 -0.797433 2.16586 0
M  V30 6601 C 668.54 -1.24654 1.09775 0
M  V30 6602 O 669.725 -1.31968 1.37801 0
M  V30 6603 C 666.865 -2.03253 2.78895 0
M  V30 6604 C 665.978 -1.62954 4.00087 0
M  V30 6605 C 665.113 -2.81617 4.50406 0
M  V30 6606 C 664.152 -2.37675 5.64072 0
M  V30 6607 N 663.289 -3.49335 6.09023 0
M  V30 6608 H 668.129 -0.282023 2.96662 0
M  V30 6609 H 665.666 -0.127494 1.46546 0
M  V30 6610 H 667.624 -2.75653 3.13163 0
M  V30 6611 H 666.254 -2.52211 2.01469 0
M  V30 6612 H 665.306 -0.803322 3.71821 0
M  V30 6613 H 666.618 -1.26679 4.82446 0
M  V30 6614 H 665.772 -3.62212 4.86711 0
M  V30 6615 H 664.511 -3.21134 3.67048 0
M  V30 6616 H 663.516 -1.55519 5.27346 0
M  V30 6617 H 664.741 -1.99247 6.49213 0
M  V30 6618 H 662.687 -3.8848 5.28601 0
M  V30 6619 H 662.604 -3.17064 6.86299 0
M  V30 6620 H 663.872 -4.30297 6.49973 0
M  V30 6621 N 668.101 -1.57061 -0.130224 0
M  V30 6622 C 669.349 -1.83893 -0.838313 0
M  V30 6623 C 669.67 -0.727046 -1.80939 0
M  V30 6624 O 668.94 0.249927 -1.94299 0
M  V30 6625 H 667.52 -0.67846 -0.312573 0
M  V30 6626 H 670.182 -1.94529 -0.120224 0
M  V30 6627 H 669.278 -2.79419 -1.39038 0
M  V30 6628 N 669.579 0.400081 -1.52437 0
M  V30 6629 C 670.509 1.4947 -1.7939 0
M  V30 6630 C 671.49 1.57383 -0.645329 0
M  V30 6631 O 672.675 1.72511 -0.891826 0
M  V30 6632 C 669.805 2.87201 -1.95276 0
M  V30 6633 C 668.759 2.94134 -3.10917 0
M  V30 6634 C 668.085 4.34207 -3.1204 0
M  V30 6635 C 669.385 2.64791 -4.50203 0
M  V30 6636 H 671.079 1.27165 -2.71052 0
M  V30 6637 H 668.625 0.610312 -1.30427 0
M  V30 6638 H 670.578 3.63772 -2.12715 0
M  V30 6639 H 669.302 3.10819 -1.00294 0
M  V30 6640 H 667.961 2.20009 -2.93243 0
M  V30 6641 H 667.609 4.54848 -2.14761 0
M  V30 6642 H 667.309 4.39768 -3.89715 0
M  V30 6643 H 668.833 5.127 -3.31619 0
M  V30 6644 H 670.247 3.31083 -4.68035 0
M  V30 6645 H 668.644 2.81717 -5.29864 0
M  V30 6646 H 669.714 1.60184 -4.57678 0
M  V30 6647 N 671.057 1.43213 0.657864 0
M  V30 6648 C 672.282 1.48227 1.45064 0
M  V30 6649 C 672.707 0.0999939 1.87834 0
M  V30 6650 O 672.065 -0.905269 1.57081 0
M  V30 6651 C 672.113 2.42931 2.6649 0
M  V30 6652 O 671.217 1.91237 3.6538 0
M  V30 6653 H 670.558 0.501551 0.435135 0
M  V30 6654 H 673.088 1.8808 0.805431 0
M  V30 6655 H 673.098 2.6008 3.1436 0
M  V30 6656 H 671.773 3.43348 2.34701 0
M  V30 6657 H 670.35 1.83726 3.24498 0
M  V30 6658 N 672.536 -0.895792 1.29666 0
M  V30 6659 C 673.484 -2.02173 1.15017 0
M  V30 6660 C 674.478 -1.69276 0.0647651 0
M  V30 6661 O 675.684 -1.7859 0.224846 0
M  V30 6662 H 672.059 -0.662719 0.355397 0
M  V30 6663 H 674.03 -2.11666 2.10334 0
M  V30 6664 C 672.779 -3.37212 0.847555 0
M  V30 6665 H 672.102 -3.6303 1.67479 0
M  V30 6666 H 673.542 -4.16668 0.785106 0
M  V30 6667 C 672.001 -3.33891 -0.44929 0
M  V30 6668 O 672.531 -3.73673 -1.47415 0
M  V30 6669 N 670.737 -2.86991 -0.456547 0
M  V30 6670 H 670.284 -2.54813 0.377925 0
M  V30 6671 H 670.242 -2.85152 -1.32423 0
M  V30 6672 N 674.014 -1.12206 -1.10668 0
M  V30 6673 C 675.425 -0.890657 -1.64086 0
M  V30 6674 C 675.776 0.575502 -1.8757 0
M  V30 6675 O 674.901 1.4394 -1.61587 0
M  V30 6676 C 675.496 -1.61029 -2.98085 0
M  V30 6677 C 674.055 -1.4251 -3.48379 0
M  V30 6678 C 673.202 -1.64778 -2.23033 0
M  V30 6679 H 676.153 -1.27718 -0.94201 0
M  V30 6680 H 676.174 -1.05993 -3.65439 0
M  V30 6681 H 675.686 -2.67735 -2.80962 0
M  V30 6682 H 673.787 -0.380497 -3.70652 0
M  V30 6683 H 673.9 -2.17959 -4.26651 0
M  V30 6684 H 672.264 -1.07171 -2.31055 0
M  V30 6685 H 673.047 -2.72776 -2.08443 0
M  V30 6686 N 675.492 1.28418 -0.913599 0
M  V30 6687 C 676.717 1.99643 -0.561899 0
M  V30 6688 C 677.142 1.67819 0.849608 0
M  V30 6689 O 676.5 0.910503 1.56779 0
M  V30 6690 C 676.548 3.52116 -0.777622 0
M  V30 6691 O 675.652 4.12076 0.163457 0
M  V30 6692 H 674.993 0.627229 -0.217898 0
M  V30 6693 H 677.523 1.63575 -1.229 0
M  V30 6694 H 677.533 4.02163 -0.687666 0
M  V30 6695 H 676.208 3.74613 -1.8066 0
M  V30 6696 H 674.785 3.72892 0.0247827 0
M  V30 6697 N 676.97 0.677563 1.42291 0
M  V30 6698 C 677.88 0.000962654 2.346 0
M  V30 6699 C 678.896 -0.785833 1.55244 0
M  V30 6700 O 680.072 -0.727523 1.87801 0
M  V30 6701 C 677.137 -0.936746 3.33805 0
M  V30 6702 C 676.198 -0.144173 4.29058 0
M  V30 6703 C 675.431 -1.03722 5.23524 0
M  V30 6704 O 675.654 -2.27675 5.22992 0
M  V30 6705 O 674.588 -0.496542 5.99848 0
M  V30 6706 H 678.414 0.761397 2.94001 0
M  V30 6707 H 675.999 0.43781 1.42841 0
M  V30 6708 H 677.881 -1.47497 3.94744 0
M  V30 6709 H 676.556 -1.67698 2.76874 0
M  V30 6710 H 675.463 0.438224 3.71524 0
M  V30 6711 H 676.796 0.55701 4.89038 0
M  V30 6712 N 678.448 -1.51871 0.421078 0
M  V30 6713 C 679.694 -2.02237 -0.151014 0
M  V30 6714 C 680.027 -1.30554 -1.43768 0
M  V30 6715 O 679.302 -0.41546 -1.90011 0
M  V30 6716 C 679.585 -3.5802 -0.386482 0
M  V30 6717 C 679.438 -4.40339 0.9177 0
M  V30 6718 C 680.757 -4.24444 -1.16342 0
M  V30 6719 H 677.876 -0.735062 -0.0534102 0
M  V30 6720 H 680.518 -1.81656 0.556888 0
M  V30 6721 H 678.668 -3.75688 -0.989494 0
M  V30 6722 H 680.34 -4.34357 1.55344 0
M  V30 6723 H 678.583 -4.06073 1.526 0
M  V30 6724 H 679.254 -5.47451 0.707187 0
M  V30 6725 H 681.73 -4.10948 -0.652788 0
M  V30 6726 H 680.606 -5.33358 -1.29693 0
M  V30 6727 H 680.867 -3.84204 -2.18724 0
M  V30 6728 N 679.926 -0.151884 -1.56866 0
M  V30 6729 C 680.836 0.798876 -2.20579 0
M  V30 6730 C 681.852 1.268 -1.19154 0
M  V30 6731 O 683.028 1.32418 -1.51748 0
M  V30 6732 C 680.093 2.01861 -2.81874 0
M  V30 6733 C 679.154 1.59825 -3.9844 0
M  V30 6734 C 678.387 2.75984 -4.56802 0
M  V30 6735 O 678.61 3.92331 -4.14044 0
M  V30 6736 O 677.544 2.51175 -5.46987 0
M  V30 6737 H 681.37 0.2865 -3.02346 0
M  V30 6738 H 678.955 0.0753806 -1.4921 0
M  V30 6739 H 680.837 2.73235 -3.20813 0
M  V30 6740 H 679.512 2.52042 -2.03117 0
M  V30 6741 H 678.419 0.854601 -3.64208 0
M  V30 6742 H 679.752 1.14355 -4.78731 0
M  V30 6743 N 681.404 1.57128 0.121893 0
M  V30 6744 C 682.65 1.84974 0.831418 0
M  V30 6745 C 682.983 0.737204 1.79663 0
M  V30 6746 O 682.258 -0.257199 1.92792 0
M  V30 6747 C 682.541 3.23397 1.58386 0
M  V30 6748 C 682.394 4.45246 0.638445 0
M  V30 6749 C 683.713 3.59355 2.54071 0
M  V30 6750 H 680.832 0.67282 0.300803 0
M  V30 6751 H 683.474 1.89759 0.0957587 0
M  V30 6752 H 681.624 3.19449 2.21098 0
M  V30 6753 H 683.296 4.61295 0.0203925 0
M  V30 6754 H 681.539 4.33771 -0.05023 0
M  V30 6755 H 682.21 5.38765 1.20151 0
M  V30 6756 H 684.686 3.64075 2.01465 0
M  V30 6757 H 683.562 4.57193 3.03752 0
M  V30 6758 H 683.823 2.86622 3.36601 0
M  V30 6759 N 682.882 -0.391992 1.52647 0
M  V30 6760 C 683.812 -1.48517 1.8018 0
M  V30 6761 C 684.793 -1.57039 0.653667 0
M  V30 6762 O 685.978 -1.72036 0.900962 0
M  V30 6763 C 683.108 -2.86161 1.96797 0
M  V30 6764 C 682.062 -2.92481 3.12472 0
M  V30 6765 C 681.388 -4.32546 3.14338 0
M  V30 6766 C 682.688 -2.624 4.51601 0
M  V30 6767 H 684.382 -1.25726 2.71723 0
M  V30 6768 H 681.928 -0.603387 1.30749 0
M  V30 6769 H 683.881 -3.62639 2.14641 0
M  V30 6770 H 682.605 -3.10283 1.01941 0
M  V30 6771 H 681.264 -2.18451 2.94406 0
M  V30 6772 H 680.912 -4.53703 2.1717 0
M  V30 6773 H 680.612 -4.37695 3.92042 0
M  V30 6774 H 682.136 -5.10934 3.34333 0
M  V30 6775 H 683.55 -3.28596 4.69785 0
M  V30 6776 H 681.947 -2.78903 5.3135 0
M  V30 6777 H 683.017 -1.57754 4.58521 0
M  V30 6778 N 684.36 -1.4356 -0.65026 0
M  V30 6779 C 685.776 -1.27025 -0.966269 0
M  V30 6780 C 685.976 -0.192117 -2.00582 0
M  V30 6781 O 685.032 0.428459 -2.48838 0
M  V30 6782 C 686.345 -2.63556 -1.44772 0
M  V30 6783 C 687.893 -2.71111 -1.56421 0
M  V30 6784 C 688.368 -4.08067 -2.07956 0
M  V30 6785 N 689.859 -4.10146 -2.15254 0
M  V30 6786 C 690.594 -5.12952 -2.56258 0
M  V30 6787 N 690.09 -6.26129 -2.96537 0
M  V30 6788 N 691.883 -5.00306 -2.56224 0
M  V30 6789 H 684.034 -2.12367 0.0375758 0
M  V30 6790 H 686.297 -0.946894 -0.0457782 0
M  V30 6791 H 686.003 -3.43429 -0.758271 0
M  V30 6792 H 685.877 -2.89152 -2.42221 0
M  V30 6793 H 688.264 -1.91569 -2.24467 0
M  V30 6794 H 688.345 -2.49277 -0.573967 0
M  V30 6795 H 687.989 -4.88077 -1.40511 0
M  V30 6796 H 687.919 -4.27266 -3.07817 0
M  V30 6797 H 690.41 -3.28453 -1.86887 0
M  V30 6798 H 690.723 -7.00403 -3.26582 0
M  V30 6799 H 689.068 -6.29597 -2.94334 0
M  V30 6800 H 692.259 -4.10952 -2.24135 0
M  V30 6801 H 692.432 -5.80553 -2.87857 0
M  V30 6802 N 685.838 0.888903 -1.30139 0
M  V30 6803 C 686.748 2.02705 -1.18101 0
M  V30 6804 C 687.764 1.73702 -0.101809 0
M  V30 6805 O 688.94 1.98906 -0.315984 0
M  V30 6806 C 686.005 3.35616 -0.869651 0
M  V30 6807 C 685.066 3.78067 -2.03381 0
M  V30 6808 C 684.299 5.04635 -1.73721 0
M  V30 6809 O 684.522 5.66531 -0.663267 0
M  V30 6810 O 683.456 5.43399 -2.58845 0
M  V30 6811 H 687.282 2.15788 -2.13704 0
M  V30 6812 H 684.867 1.01426 -1.09695 0
M  V30 6813 H 686.749 4.15358 -0.711043 0
M  V30 6814 H 685.424 3.23651 0.0565002 0
M  V30 6815 H 684.331 2.99046 -2.24772 0
M  V30 6816 H 685.664 3.94631 -2.94155 0
M  V30 6817 N 687.317 1.12792 1.10072 0
M  V30 6818 C 688.264 0.79921 2.16521 0
M  V30 6819 C 689.234 -0.235726 1.64419 0
M  V30 6820 O 690.419 -0.109457 1.90486 0
M  V30 6821 C 687.559 0.264091 3.44088 0
M  V30 6822 C 686.672 1.35729 4.10124 0
M  V30 6823 C 685.807 0.781212 5.25424 0
M  V30 6824 C 684.846 1.85327 5.8337 0
M  V30 6825 N 683.983 1.29564 6.90042 0
M  V30 6826 H 688.823 1.71105 2.43981 0
M  V30 6827 H 686.36 0.854225 1.19756 0
M  V30 6828 H 688.318 -0.0642423 4.17151 0
M  V30 6829 H 686.948 -0.610901 3.16967 0
M  V30 6830 H 686 1.80234 3.34993 0
M  V30 6831 H 687.312 2.16782 4.4923 0
M  V30 6832 H 686.466 0.403769 6.05355 0
M  V30 6833 H 685.205 -0.0604686 4.87663 0
M  V30 6834 H 684.21 2.23986 5.02106 0
M  V30 6835 H 685.435 2.69824 6.23195 0
M  V30 6836 H 683.381 0.475844 6.54272 0
M  V30 6837 H 683.298 2.04271 7.2788 0
M  V30 6838 H 684.566 0.945545 7.73744 0
M  V30 6839 N 688.795 -1.27931 0.920396 0
M  V30 6840 C 690.041 -1.94977 0.557832 0
M  V30 6841 C 690.374 -1.72224 -0.897365 0
M  V30 6842 O 689.649 -1.04705 -1.63912 0
M  V30 6843 C 689.932 -3.49289 0.875741 0
M  V30 6844 C 689.785 -3.81416 2.38416 0
M  V30 6845 C 691.104 -4.38486 0.376517 0
M  V30 6846 H 688.223 -0.708164 0.20414 0
M  V30 6847 H 690.865 -1.5118 1.15085 0
M  V30 6848 H 689.015 -3.86724 0.371062 0
M  V30 6849 H 690.687 -3.53813 2.95997 0
M  V30 6850 H 688.93 -3.28225 2.83639 0
M  V30 6851 H 689.601 -4.89198 2.55713 0
M  V30 6852 H 692.077 -4.08161 0.808945 0
M  V30 6853 H 690.953 -5.45296 0.627976 0
M  V30 6854 H 691.214 -4.36143 -0.723293 0
M  V30 6855 N 690.273 -0.685099 -1.4193 0
M  V30 6856 C 691.503 -0.220052 -2.05425 0
M  V30 6857 C 691.911 1.13185 -1.51611 0
M  V30 6858 O 691.254 1.71631 -0.654875 0
M  V30 6859 C 691.316 -0.0888364 -3.5939 0
M  V30 6860 C 690.98 -1.37109 -4.35947 0
M  V30 6861 C 691.977 -2.30675 -4.65924 0
M  V30 6862 C 689.662 -1.62155 -4.75406 0
M  V30 6863 C 691.656 -3.47556 -5.34306 0
M  V30 6864 C 689.343 -2.79324 -5.43527 0
M  V30 6865 C 690.341 -3.71848 -5.72903 0
M  V30 6866 O 690.029 -4.86966 -6.39624 0
M  V30 6867 H 689.761 -0.102165 -0.668235 0
M  V30 6868 H 692.315 -0.935194 -1.82875 0
M  V30 6869 H 690.545 0.681981 -3.80639 0
M  V30 6870 H 692.234 0.337669 -4.04493 0
M  V30 6871 H 693 -2.12579 -4.3593 0
M  V30 6872 H 688.879 -0.910053 -4.51928 0
M  V30 6873 H 692.423 -4.19794 -5.57153 0
M  V30 6874 H 688.32 -2.97342 -5.72938 0
M  V30 6875 H 689.088 -4.86644 -6.58118 0
M  V30 6876 N 691.751 1.51645 -0.429126 0
M  V30 6877 C 692.714 2.26116 0.374726 0
M  V30 6878 C 693.714 1.29242 0.956714 0
M  V30 6879 O 694.904 1.53022 0.832452 0
M  V30 6880 C 692.036 3.04669 1.52937 0
M  V30 6881 H 693.229 2.9861 -0.277818 0
M  V30 6882 H 690.782 1.55236 -0.182097 0
M  V30 6883 H 691.517 2.36571 2.21821 0
M  V30 6884 H 691.302 3.75814 1.11833 0
M  V30 6885 H 692.792 3.61102 2.09751 0
M  V30 6886 N 693.229 0.160201 1.56784 0
M  V30 6887 C 694.454 -0.497373 2.01348 0
M  V30 6888 C 694.879 -1.56757 1.03966 0
M  V30 6889 O 694.237 -1.81292 0.0174455 0
M  V30 6890 C 694.285 -1.0628 3.44582 0
M  V30 6891 O 693.389 -2.17723 3.50244 0
M  V30 6892 H 692.73 -0.120295 0.653012 0
M  V30 6893 H 695.26 0.260821 2.02931 0
M  V30 6894 H 695.27 -1.38819 3.83658 0
M  V30 6895 H 693.945 -0.279166 4.14962 0
M  V30 6896 H 692.522 -1.86313 3.2302 0
M  V30 6897 N 694.707 -1.5719 -0.113559 0
M  V30 6898 C 695.637 -2.03772 -1.14013 0
M  V30 6899 C 696.618 -0.923176 -1.42869 0
M  V30 6900 O 697.803 -1.19325 -1.53216 0
M  V30 6901 C 694.933 -2.44663 -2.4649 0
M  V30 6902 C 693.887 -3.59612 -2.32085 0
M  V30 6903 C 693.213 -3.8642 -3.69573 0
M  V30 6904 C 694.513 -4.91149 -1.7768 0
M  V30 6905 H 696.207 -2.89785 -0.752665 0
M  V30 6906 H 693.753 -1.39412 -0.360609 0
M  V30 6907 H 695.706 -2.75857 -3.18561 0
M  V30 6908 H 694.43 -1.55628 -2.87137 0
M  V30 6909 H 693.089 -3.28636 -1.62461 0
M  V30 6910 H 692.737 -2.94581 -4.07715 0
M  V30 6911 H 692.437 -4.63797 -3.60786 0
M  V30 6912 H 693.961 -4.2007 -4.4314 0
M  V30 6913 H 695.375 -5.20843 -2.39574 0
M  V30 6914 H 693.772 -5.72562 -1.79701 0
M  V30 6915 H 694.842 -4.79301 -0.734776 0
M  V30 6916 N 696.185 0.383891 -1.52853 0
M  V30 6917 C 697.095 1.49343 -1.80925 0
M  V30 6918 C 698.111 1.59458 -0.696348 0
M  V30 6919 O 699.287 1.75698 -0.984481 0
M  V30 6920 C 696.352 2.84819 -1.97684 0
M  V30 6921 C 695.413 2.84382 -3.21598 0
M  V30 6922 C 694.646 4.13397 -3.37548 0
M  V30 6923 O 694.869 5.08619 -2.58192 0
M  V30 6924 O 693.803 4.20325 -4.30826 0
M  V30 6925 H 697.629 1.2855 -2.75152 0
M  V30 6926 H 695.214 0.572229 -1.38007 0
M  V30 6927 H 697.096 3.65125 -2.10385 0
M  V30 6928 H 695.771 3.05627 -1.06647 0
M  V30 6929 H 694.678 2.0284 -3.14336 0
M  V30 6930 H 696.011 2.68526 -4.12498 0
M  V30 6931 N 697.663 1.43903 0.642637 0
M  V30 6932 C 698.891 1.4954 1.42988 0
M  V30 6933 C 699.306 0.116588 1.8844 0
M  V30 6934 O 698.663 -0.875285 1.60141 0
M  V30 6935 C 698.714 2.45031 2.65785 0
M  V30 6936 O 698.435 3.77551 2.22232 0
M  V30 6937 C 699.936 2.60017 3.59035 0
M  V30 6938 H 697.156 0.507544 0.438907 0
M  V30 6939 H 699.7 1.88752 0.786942 0
M  V30 6940 H 697.855 2.08985 3.26196 0
M  V30 6941 H 698.269 4.29001 3.01759 0
M  V30 6942 H 699.743 3.30887 4.41835 0
M  V30 6943 H 700.22 1.64861 4.07084 0
M  V30 6944 H 700.826 2.96918 3.045 0
M  V30 6945 N 699.141 -0.881989 1.30609 0
M  V30 6946 C 700.371 -1.66469 1.22359 0
M  V30 6947 C 700.779 -1.87969 -0.215507 0
M  V30 6948 O 700.122 -1.42938 -1.15388 0
M  V30 6949 C 700.184 -3.06135 1.88472 0
M  V30 6950 C 699.848 -3.07795 3.37804 0
M  V30 6951 C 700.845 -2.86633 4.33749 0
M  V30 6952 C 698.53 -3.29297 3.793 0
M  V30 6953 C 700.524 -2.86934 5.69164 0
M  V30 6954 C 698.211 -3.29228 5.14832 0
M  V30 6955 C 699.209 -3.08071 6.09574 0
M  V30 6956 O 698.897 -3.07824 7.4263 0
M  V30 6957 H 698.629 -0.526129 0.424458 0
M  V30 6958 H 701.183 -1.11004 1.72821 0
M  V30 6959 H 699.413 -3.63276 1.32543 0
M  V30 6960 H 701.102 -3.66571 1.74301 0
M  V30 6961 H 701.868 -2.69814 4.0302 0
M  V30 6962 H 697.747 -3.44799 3.05998 0
M  V30 6963 H 701.291 -2.70339 6.43088 0
M  V30 6964 H 697.188 -3.45583 5.452 0
M  V30 6965 H 697.956 -3.2397 7.51656 0
M  V30 6966 N 700.619 -1.13374 -1.09472 0
M  V30 6967 C 701.859 -0.905422 -1.83252 0
M  V30 6968 C 702.223 0.558396 -1.83701 0
M  V30 6969 O 703.424 0.904254 -2.53134 0
M  V30 6970 C 701.695 -1.47658 -3.25472 0
M  V30 6971 S 703.254 -1.38825 -4.16261 0
M  V30 6972 H 700.072 -0.326371 -0.631667 0
M  V30 6973 H 702.674 -1.44517 -1.31663 0
M  V30 6974 H 701.378 -2.53533 -3.22722 0
M  V30 6975 H 700.909 -0.934756 -3.82133 0
M  V30 6976 H 702.924 -0.366379 -4.94846 0
M  V30 6977 N 702.098 1.27442 -0.927168 0
M  V30 6978 C 703.045 2.26863 -0.424459 0
M  V30 6979 C 704.015 1.5813 0.508346 0
M  V30 6980 O 705.2 1.85946 0.42762 0
M  V30 6981 C 702.34 3.43639 0.31718 0
M  V30 6982 C 701.453 4.27087 -0.649675 0
M  V30 6983 C 700.588 5.31082 0.111753 0
M  V30 6984 C 699.627 6.062 -0.847843 0
M  V30 6985 N 698.764 7.01999 -0.119074 0
M  V30 6986 H 703.604 2.69239 -1.27728 0
M  V30 6987 H 701.141 1.32394 -0.641106 0
M  V30 6988 H 703.099 4.10155 0.763486 0
M  V30 6989 H 701.729 3.02217 1.13424 0
M  V30 6990 H 700.781 3.60491 -1.21451 0
M  V30 6991 H 702.093 4.79242 -1.38307 0
M  V30 6992 H 701.247 6.03544 0.618 0
M  V30 6993 H 699.986 4.7973 0.878114 0
M  V30 6994 H 698.991 5.32577 -1.36534 0
M  V30 6995 H 700.216 6.59642 -1.61398 0
M  V30 6996 H 698.162 6.52977 0.629051 0
M  V30 6997 H 698.079 7.5184 -0.792046 0
M  V30 6998 H 699.347 7.78638 0.366537 0
M  V30 6999 N 703.576 0.692616 1.41565 0
M  V30 7000 C 704.508 -0.0137132 2.29196 0
M  V30 7001 C 705.521 -0.747417 1.44629 0
M  V30 7002 O 706.71 -0.598611 1.68163 0
M  V30 7003 C 703.81 -1.04347 3.22436 0
M  V30 7004 C 702.983 -0.379985 4.35746 0
M  V30 7005 C 702.042 -1.31195 5.09583 0
M  V30 7006 O 701.068 -0.805455 5.63472 0
M  V30 7007 N 702.27 -2.64443 5.16769 0
M  V30 7008 H 705.035 0.738614 2.90456 0
M  V30 7009 H 702.596 0.538415 1.52685 0
M  V30 7010 H 704.588 -1.6686 3.687 0
M  V30 7011 H 703.158 -1.69736 2.62504 0
M  V30 7012 H 702.378 0.424975 3.91903 0
M  V30 7013 H 703.666 0.0814904 5.08735 0
M  V30 7014 H 703.064 -3.08114 4.74428 0
M  V30 7015 H 701.621 -3.22159 5.66619 0
M  V30 7016 N 705.054 -1.51416 0.437162 0
M  V30 7017 C 706.001 -2.27743 -0.374374 0
M  V30 7018 C 706.971 -1.31327 -1.01698 0
M  V30 7019 O 708.156 -1.60229 -1.03592 0
M  V30 7020 C 705.296 -3.12241 -1.46969 0
M  V30 7021 C 704.409 -4.23651 -0.845236 0
M  V30 7022 C 703.544 -4.95458 -1.91559 0
M  V30 7023 C 702.583 -5.98789 -1.26956 0
M  V30 7024 N 701.72 -6.64005 -2.28126 0
M  V30 7025 H 706.56 -2.96654 0.282892 0
M  V30 7026 H 704.097 -1.46319 0.151352 0
M  V30 7027 H 706.055 -3.59556 -2.11602 0
M  V30 7028 H 704.685 -2.45445 -2.09659 0
M  V30 7029 H 703.737 -3.803 -0.0872059 0
M  V30 7030 H 705.049 -4.97683 -0.333582 0
M  V30 7031 H 704.203 -5.46321 -2.63854 0
M  V30 7032 H 702.942 -4.21055 -2.46097 0
M  V30 7033 H 701.947 -5.47219 -0.53207 0
M  V30 7034 H 703.172 -6.75149 -0.731509 0
M  V30 7035 H 701.118 -5.92415 -2.81745 0
M  V30 7036 H 701.035 -7.33802 -1.81852 0
M  V30 7037 H 702.303 -7.19498 -2.99905 0
M  V30 7038 N 706.532 -0.168513 -1.56696 0
M  V30 7039 C 707.762 0.482802 -2.0088 0
M  V30 7040 C 708.17 1.57537 -1.0478 0
M  V30 7041 O 707.513 1.83656 -0.0402746 0
M  V30 7042 C 707.575 1.1236 -3.4149 0
M  V30 7043 C 707.239 0.173027 -4.56672 0
M  V30 7044 C 708.236 -0.607565 -5.16338 0
M  V30 7045 C 705.921 0.0696691 -5.02252 0
M  V30 7046 C 707.915 -1.47874 -6.2001 0
M  V30 7047 C 705.602 -0.805096 -6.05773 0
M  V30 7048 C 706.6 -1.57789 -6.64524 0
M  V30 7049 O 706.288 -2.43804 -7.66038 0
M  V30 7050 H 706.02 0.128246 -0.663723 0
M  V30 7051 H 708.574 -0.266532 -2.03663 0
M  V30 7052 H 706.804 1.921 -3.35611 0
M  V30 7053 H 708.493 1.67683 -3.69645 0
M  V30 7054 H 709.259 -0.53787 -4.82008 0
M  V30 7055 H 705.138 0.660957 -4.56237 0
M  V30 7056 H 708.682 -2.0824 -6.65794 0
M  V30 7057 H 704.579 -0.876005 -6.39528 0
M  V30 7058 H 705.347 -2.37289 -7.83349 0
M  V30 7059 N 708.01 1.57248 0.105221 0
M  V30 7060 C 709.421 1.74612 0.660865 0
M  V30 7061 C 709.772 0.789231 1.79626 0
M  V30 7062 O 708.897 -0.0346611 2.16372 0
M  V30 7063 C 709.492 3.16624 1.20559 0
M  V30 7064 C 708.051 3.35447 1.7074 0
M  V30 7065 C 707.198 2.70445 0.612764 0
M  V30 7066 H 710.149 1.5824 -0.12079 0
M  V30 7067 H 710.17 3.18937 2.07508 0
M  V30 7068 H 709.682 3.86245 0.379012 0
M  V30 7069 H 707.783 2.7089 2.5583 0
M  V30 7070 H 707.896 4.43702 1.80736 0
M  V30 7071 H 706.26 2.32061 1.04975 0
M  V30 7072 H 707.043 3.42699 -0.203066 0
M  V30 7073 N 709.488 -0.375779 1.53054 0
M  V30 7074 C 710.398 -1.48381 1.81715 0
M  V30 7075 C 711.414 -1.59087 0.704795 0
M  V30 7076 O 712.59 -1.75174 0.993785 0
M  V30 7077 C 709.655 -2.83767 1.99192 0
M  V30 7078 C 708.716 -2.82673 3.23102 0
M  V30 7079 C 707.949 -4.11601 3.39736 0
M  V30 7080 O 708.172 -5.07243 2.60885 0
M  V30 7081 O 707.106 -4.18034 4.33049 0
M  V30 7082 H 710.932 -1.27089 2.7583 0
M  V30 7083 H 708.517 -0.564902 1.38308 0
M  V30 7084 H 710.399 -3.64004 2.12318 0
M  V30 7085 H 709.074 -3.05057 1.08267 0
M  V30 7086 H 707.981 -2.0117 3.15407 0
M  V30 7087 H 709.314 -2.66335 4.13916 0
M  V30 7088 N 710.966 -1.44241 -0.634997 0
M  V30 7089 C 711.898 -1.46793 -1.76024 0
M  V30 7090 C 712.911 -0.361781 -1.58729 0
M  V30 7091 O 714.1 -0.627297 -1.67114 0
M  V30 7092 C 711.2 -1.28248 -3.13697 0
M  V30 7093 C 710.373 -2.52038 -3.57485 0
M  V30 7094 C 709.432 -2.2845 -4.74022 0
M  V30 7095 O 708.458 -3.01915 -4.82531 0
M  V30 7096 N 709.66 -1.31264 -5.65464 0
M  V30 7097 H 712.425 -2.43797 -1.74307 0
M  V30 7098 H 709.986 -1.39631 -0.819438 0
M  V30 7099 H 711.978 -1.10321 -3.89373 0
M  V30 7100 H 710.548 -0.39623 -3.10079 0
M  V30 7101 H 709.768 -2.85268 -2.72059 0
M  V30 7102 H 711.056 -3.34382 -3.83492 0
M  V30 7103 H 710.454 -0.705817 -5.6128 0
M  V30 7104 H 709.011 -1.19316 -6.40786 0
M  V30 7105 N 712.444 0.87505 -1.31075 0
M  V30 7106 C 713.376 1.98773 -1.14114 0
M  V30 7107 C 714.389 1.62595 -0.0816119 0
M  V30 7108 O 715.578 1.75449 -0.32861 0
M  V30 7109 C 712.678 3.31159 -0.720224 0
M  V30 7110 C 711.851 3.9571 -1.86366 0
M  V30 7111 C 710.91 5.06407 -1.42965 0
M  V30 7112 O 709.936 5.27501 -2.13848 0
M  V30 7113 N 711.138 5.79649 -0.314194 0
M  V30 7114 H 713.903 2.1387 -2.09951 0
M  V30 7115 H 711.464 1.04873 -1.23342 0
M  V30 7116 H 713.456 4.0259 -0.412687 0
M  V30 7117 H 712.026 3.12257 0.146396 0
M  V30 7118 H 711.246 3.17324 -2.33879 0
M  V30 7119 H 712.534 4.35576 -2.62966 0
M  V30 7120 H 711.932 5.65025 0.276228 0
M  V30 7121 H 710.489 6.51766 -0.0661641 0
M  V30 7122 N 713.922 1.13953 1.08869 0
M  V30 7123 C 715.17 0.903023 1.80803 0
M  V30 7124 C 715.491 -0.572151 1.86417 0
M  V30 7125 O 714.761 -1.41589 1.35386 0
M  V30 7126 H 713.341 0.331099 0.669614 0
M  V30 7127 H 716.003 1.43719 1.31647 0
M  V30 7128 H 715.099 1.29881 2.83791 0
M  V30 7129 N 715.4 -1.26948 0.933913 0
M  V30 7130 C 716.816 -1.46419 0.635103 0
M  V30 7131 C 717.016 -1.84336 -0.813785 0
M  V30 7132 O 716.072 -1.96061 -1.59111 0
M  V30 7133 C 717.385 -2.55206 1.5903 0
M  V30 7134 C 718.933 -2.69062 1.5992 0
M  V30 7135 C 719.408 -3.81013 2.54152 0
M  V30 7136 N 720.899 -3.88395 2.52395 0
M  V30 7137 C 721.634 -4.74454 3.21996 0
M  V30 7138 N 721.13 -5.64954 4.00997 0
M  V30 7139 N 722.923 -4.68237 3.10983 0
M  V30 7140 H 715.074 -1.00622 1.87053 0
M  V30 7141 H 717.337 -0.503189 0.803433 0
M  V30 7142 H 717.043 -2.34153 2.62422 0
M  V30 7143 H 716.917 -3.52719 1.33677 0
M  V30 7144 H 719.304 -2.89492 0.572569 0
M  V30 7145 H 719.385 -1.72016 1.89325 0
M  V30 7146 H 719.029 -3.61336 3.5693 0
M  V30 7147 H 718.959 -4.77499 2.22041 0
M  V30 7148 H 721.45 -3.23687 1.95025 0
M  V30 7149 H 721.763 -6.27496 4.51074 0
M  V30 7150 H 720.108 -5.6473 4.05099 0
M  V30 7151 H 723.299 -3.96535 2.48753 0
M  V30 7152 H 723.472 -5.35087 3.65494 0
M  V30 7153 N 716.879 -0.700114 -1.41195 0
M  V30 7154 C 718.126 -0.233006 -2.01155 0
M  V30 7155 C 718.454 1.16883 -1.55462 0
M  V30 7156 O 717.709 1.80395 -0.758695 0
M  V30 7157 C 718.008 -0.243986 -3.56566 0
M  V30 7158 C 717.674 -1.59397 -4.21786 0
M  V30 7159 C 716.336 -1.96355 -4.39316 0
M  V30 7160 C 718.688 -2.48192 -4.58312 0
M  V30 7161 C 716.016 -3.21683 -4.9065 0
M  V30 7162 C 718.368 -3.72857 -5.11039 0
M  V30 7163 C 717.032 -4.09951 -5.26779 0
M  V30 7164 H 716.302 -0.085263 -0.736078 0
M  V30 7165 H 718.949 -0.9001 -1.69028 0
M  V30 7166 H 717.254 0.506663 -3.8851 0
M  V30 7167 H 718.951 0.135031 -4.00773 0
M  V30 7168 H 715.541 -1.29654 -4.08519 0
M  V30 7169 H 719.725 -2.20918 -4.4442 0
M  V30 7170 H 714.981 -3.50412 -5.01021 0
M  V30 7171 H 719.155 -4.41844 -5.38282 0
M  V30 7172 H 716.782 -5.07136 -5.66319 0
M  V30 7173 N 718.357 1.51182 -0.445186 0
M  V30 7174 C 719.32 2.26501 0.350722 0
M  V30 7175 C 720.32 1.3025 0.942952 0
M  V30 7176 O 721.51 1.53897 0.816175 0
M  V30 7177 C 718.642 3.06274 1.49697 0
M  V30 7178 H 719.835 2.98299 -0.309474 0
M  V30 7179 H 717.388 1.55034 -0.198551 0
M  V30 7180 H 718.123 2.38911 2.19299 0
M  V30 7181 H 717.908 3.76979 1.0784 0
M  V30 7182 H 719.398 3.63306 2.05909 0
M  V30 7183 N 719.835 0.176821 1.56605 0
M  V30 7184 C 720.782 -0.751312 2.18229 0
M  V30 7185 C 721.752 -1.22297 1.12395 0
M  V30 7186 O 722.937 -1.29015 1.40569 0
M  V30 7187 C 720.077 -1.97291 2.83143 0
M  V30 7188 C 719.19 -1.54431 4.03454 0
M  V30 7189 C 718.325 -2.72 4.56278 0
M  V30 7190 C 717.364 -2.25657 5.68986 0
M  V30 7191 N 716.501 -3.36338 6.16296 0
M  V30 7192 H 721.341 -0.219033 2.97194 0
M  V30 7193 H 718.878 -0.0963803 1.46784 0
M  V30 7194 H 720.836 -2.68949 3.1894 0
M  V30 7195 H 719.466 -2.4788 2.06773 0
M  V30 7196 H 718.518 -0.724273 3.73441 0
M  V30 7197 H 719.83 -1.16417 4.85024 0
M  V30 7198 H 718.984 -3.51806 4.94285 0
M  V30 7199 H 717.723 -3.13277 3.73777 0
M  V30 7200 H 716.728 -1.44299 5.30526 0
M  V30 7201 H 717.953 -1.85432 6.53293 0
M  V30 7202 H 715.899 -3.7718 5.36723 0
M  V30 7203 H 715.816 -3.02435 6.9287 0
M  V30 7204 H 717.084 -4.16413 6.58954 0
M  V30 7205 N 721.313 -1.57302 -0.09688 0
M  V30 7206 C 722.243 -2.0497 -1.11846 0
M  V30 7207 C 723.224 -0.938278 -1.41882 0
M  V30 7208 O 724.409 -1.20943 -1.51942 0
M  V30 7209 C 721.539 -2.47264 -2.43881 0
M  V30 7210 C 720.493 -3.62053 -2.28257 0
M  V30 7211 C 719.819 -3.90318 -3.65453 0
M  V30 7212 C 721.119 -4.93005 -1.72461 0
M  V30 7213 H 722.813 -2.90567 -0.721888 0
M  V30 7214 H 720.359 -1.39786 -0.345803 0
M  V30 7215 H 722.312 -2.7922 -3.15617 0
M  V30 7216 H 721.036 -1.58664 -2.8547 0
M  V30 7217 H 719.695 -3.30341 -1.58967 0
M  V30 7218 H 719.343 -2.98889 -4.04567 0
M  V30 7219 H 719.043 -4.67597 -3.55846 0
M  V30 7220 H 720.567 -4.24747 -4.3866 0
M  V30 7221 H 721.981 -5.23354 -2.34036 0
M  V30 7222 H 720.378 -5.74436 -1.73618 0
M  V30 7223 H 721.448 -4.80053 -0.683898 0
M  V30 7224 N 722.791 0.367657 -1.53252 0
M  V30 7225 C 723.721 1.45632 -1.8252 0
M  V30 7226 C 724.702 1.55979 -0.678568 0
M  V30 7227 O 725.887 1.70581 -0.928217 0
M  V30 7228 C 723.017 2.82994 -2.01325 0
M  V30 7229 C 721.971 2.87473 -3.17086 0
M  V30 7230 C 721.297 4.2749 -3.21179 0
M  V30 7231 C 722.597 2.55182 -4.55719 0
M  V30 7232 H 724.291 1.21387 -2.73689 0
M  V30 7233 H 721.837 0.58251 -1.31692 0
M  V30 7234 H 723.79 3.59179 -2.20383 0
M  V30 7235 H 722.514 3.08622 -1.06864 0
M  V30 7236 H 721.173 2.13739 -2.97844 0
M  V30 7237 H 720.821 4.5019 -2.24361 0
M  V30 7238 H 720.521 4.31403 -3.98955 0
M  V30 7239 H 722.045 5.0555 -3.42419 0
M  V30 7240 H 723.459 3.21081 -4.74953 0
M  V30 7241 H 721.856 2.70414 -5.3572 0
M  V30 7242 H 722.926 1.5044 -4.60973 0
M  V30 7243 N 724.269 1.44576 0.627338 0
M  V30 7244 C 725.199 1.54562 1.75022 0
M  V30 7245 C 726.18 0.398378 1.65369 0
M  V30 7246 O 727.365 0.61899 1.84071 0
M  V30 7247 C 724.495 1.49309 3.13567 0
M  V30 7248 C 723.449 2.62549 3.38012 0
M  V30 7249 C 722.775 2.42348 4.76625 0
M  V30 7250 C 724.075 4.04678 3.30202 0
M  V30 7251 H 725.769 2.4855 1.66922 0
M  V30 7252 H 723.315 1.19624 0.801636 0
M  V30 7253 H 725.268 1.54895 3.919 0
M  V30 7254 H 723.992 0.518392 3.2246 0
M  V30 7255 H 722.651 2.56358 2.62061 0
M  V30 7256 H 722.299 1.43062 4.82226 0
M  V30 7257 H 721.999 3.18273 4.93939 0
M  V30 7258 H 723.523 2.49758 5.57183 0
M  V30 7259 H 724.937 4.12217 3.98435 0
M  V30 7260 H 723.334 4.80836 3.5905 0
M  V30 7261 H 724.404 4.2798 2.27949 0
M  V30 7262 N 725.747 -0.868086 1.31537 0
M  V30 7263 C 727.163 -1.15414 1.10235 0
M  V30 7264 C 727.363 -2.01106 -0.125947 0
M  V30 7265 O 726.419 -2.38994 -0.814734 0
M  V30 7266 C 727.732 -1.84445 2.37488 0
M  V30 7267 C 729.28 -1.97139 2.43116 0
M  V30 7268 C 729.755 -2.69585 3.70254 0
M  V30 7269 N 731.246 -2.77119 3.71159 0
M  V30 7270 C 731.981 -3.33791 4.6623 0
M  V30 7271 N 731.477 -3.9138 5.71659 0
M  V30 7272 N 733.27 -3.31767 4.53747 0
M  V30 7273 H 725.421 -0.297109 2.10312 0
M  V30 7274 H 727.684 -0.194227 0.92789 0
M  V30 7275 H 727.39 -1.2893 3.27215 0
M  V30 7276 H 727.264 -2.84709 2.47428 0
M  V30 7277 H 729.651 -2.51818 1.53856 0
M  V30 7278 H 729.732 -0.95912 2.37138 0
M  V30 7279 H 729.376 -2.15572 4.59881 0
M  V30 7280 H 729.306 -3.71223 3.73499 0
M  V30 7281 H 731.797 -2.3625 2.94948 0
M  V30 7282 H 732.11 -4.3274 6.40278 0
M  V30 7283 H 730.455 -3.8975 5.7543 0
M  V30 7284 H 733.646 -2.86016 3.70557 0
M  V30 7285 H 733.819 -3.75636 5.28017 0
M  V30 7286 N 727.225 -1.14528 -1.08264 0
M  V30 7287 C 728.155 -0.856356 -2.1723 0
M  V30 7288 C 729.136 0.189251 -1.69044 0
M  V30 7289 O 730.321 0.0456119 -1.94146 0
M  V30 7290 C 727.451 -0.334662 -3.45684 0
M  V30 7291 C 726.405 -1.31588 -4.0727 0
M  V30 7292 C 725.731 -0.653428 -5.30692 0
M  V30 7293 C 727.031 -2.67866 -4.48381 0
M  V30 7294 H 728.725 -1.76755 -2.41657 0
M  V30 7295 H 726.271 -0.851287 -1.16143 0
M  V30 7296 H 728.224 -0.120128 -4.21229 0
M  V30 7297 H 726.948 0.611967 -3.20815 0
M  V30 7298 H 725.607 -1.51661 -3.33758 0
M  V30 7299 H 725.255 0.299054 -5.0211 0
M  V30 7300 H 724.955 -1.30817 -5.72853 0
M  V30 7301 H 726.479 -0.448453 -6.08951 0
M  V30 7302 H 727.893 -2.51692 -5.15096 0
M  V30 7303 H 726.29 -3.29627 -5.01464 0
M  V30 7304 H 727.36 -3.24632 -3.60198 0
M  V30 7305 N 728.703 1.26451 -0.940633 0
M  V30 7306 C 730.114 1.75726 -0.630653 0
M  V30 7307 C 730.465 1.76631 0.854167 0
M  V30 7308 O 729.59 1.37807 1.66848 0
M  V30 7309 C 730.185 3.19114 -1.13805 0
M  V30 7310 C 728.744 3.66005 -0.878497 0
M  V30 7311 C 727.891 2.45505 -1.28928 0
M  V30 7312 H 730.842 1.12535 -1.119 0
M  V30 7313 H 730.863 3.77311 -0.491625 0
M  V30 7314 H 730.375 3.18424 -2.21874 0
M  V30 7315 H 728.476 3.72126 0.187833 0
M  V30 7316 H 728.589 4.54844 -1.50512 0
M  V30 7317 H 726.953 2.4467 -0.707713 0
M  V30 7318 H 727.736 2.47516 -2.37888 0
M  V30 7319 N 730.181 0.707592 1.40822 0
M  V30 7320 C 731.144 0.0587224 2.29125 0
M  V30 7321 C 732.144 -0.695624 1.44975 0
M  V30 7322 O 733.334 -0.528718 1.65983 0
M  V30 7323 C 730.466 -0.926939 3.28056 0
M  V30 7324 H 731.659 0.836349 2.88002 0
M  V30 7325 H 729.212 0.471778 1.4901 0
M  V30 7326 H 729.947 -1.7319 2.74182 0
M  V30 7327 H 729.732 -0.389015 3.90165 0
M  V30 7328 H 731.222 -1.37837 3.94196 0
M  V30 7329 N 731.66 -1.50943 0.453197 0
M  V30 7330 C 732.59 -2.31005 -0.34044 0
M  V30 7331 C 733.571 -1.37112 -1.00669 0
M  V30 7332 O 734.756 -1.66033 -1.0073 0
M  V30 7333 C 731.886 -3.16358 -1.433 0
M  V30 7334 C 730.84 -4.18658 -0.889363 0
M  V30 7335 C 730.166 -4.92633 -2.07887 0
M  V30 7336 C 731.466 -5.22227 0.0871142 0
M  V30 7337 H 733.16 -2.97601 0.327723 0
M  V30 7338 H 730.706 -1.43119 0.159054 0
M  V30 7339 H 732.659 -3.71155 -1.99555 0
M  V30 7340 H 731.383 -2.47613 -2.12968 0
M  V30 7341 H 730.042 -3.64936 -0.348915 0
M  V30 7342 H 729.69 -4.20376 -2.76211 0
M  V30 7343 H 729.39 -5.61819 -1.72143 0
M  V30 7344 H 730.914 -5.50258 -2.64666 0
M  V30 7345 H 732.328 -5.72001 -0.385656 0
M  V30 7346 H 730.725 -5.99032 0.357926 0
M  V30 7347 H 731.795 -4.74077 1.01879 0
M  V30 7348 N 733.138 -0.185124 -1.56509 0
M  V30 7349 C 734.554 0.170865 -1.58683 0
M  V30 7350 C 734.754 1.61799 -1.20098 0
M  V30 7351 O 733.81 2.35181 -0.919038 0
M  V30 7352 C 735.123 -0.122459 -3.00451 0
M  V30 7353 C 736.671 -0.0617699 -3.12939 0
M  V30 7354 C 737.146 -0.328269 -4.56822 0
M  V30 7355 N 738.637 -0.276533 -4.62374 0
M  V30 7356 C 739.372 -0.456722 -5.71578 0
M  V30 7357 N 738.868 -0.69672 -6.89288 0
M  V30 7358 N 740.661 -0.391669 -5.60734 0
M  V30 7359 H 732.812 -1.12956 -1.79874 0
M  V30 7360 H 735.075 -0.45011 -0.834329 0
M  V30 7361 H 734.781 -1.12546 -3.33206 0
M  V30 7362 H 734.655 0.579578 -3.72721 0
M  V30 7363 H 737.042 0.931826 -2.80002 0
M  V30 7364 H 737.123 -0.796732 -2.43076 0
M  V30 7365 H 736.767 -1.31914 -4.9047 0
M  V30 7366 H 736.697 0.427465 -5.24862 0
M  V30 7367 H 739.188 -0.0972458 -3.77775 0
M  V30 7368 H 739.501 -0.823291 -7.68402 0
M  V30 7369 H 737.846 -0.733497 -6.91119 0
M  V30 7370 H 741.037 -0.204663 -4.67652 0
M  V30 7371 H 741.21 -0.535518 -6.45783 0
M  V30 7372 N 734.616 1.57351 0.0885366 0
M  V30 7373 C 735.841 1.91011 0.80805 0
M  V30 7374 C 736.266 0.780009 1.71165 0
M  V30 7375 O 735.624 -0.268083 1.79307 0
M  V30 7376 C 735.672 3.23562 1.59185 0
M  V30 7377 O 734.776 3.11615 2.7013 0
M  V30 7378 H 734.117 0.625943 0.221565 0
M  V30 7379 H 736.647 2.04507 0.0617954 0
M  V30 7380 H 736.657 3.5703 1.97468 0
M  V30 7381 H 735.332 4.05398 0.928741 0
M  V30 7382 H 733.909 2.89673 2.34827 0
M  V30 7383 N 736.094 -0.359525 1.53444 0
M  V30 7384 C 737.343 -1.09886 1.69139 0
M  V30 7385 C 737.656 -1.90285 0.452863 0
M  V30 7386 O 738.862 -2.67033 0.490459 0
M  V30 7387 C 737.318 -2.0028 2.99025 0
M  V30 7388 C 736.926 -1.25164 4.30161 0
M  V30 7389 C 738.67 -2.74168 3.24086 0
M  V30 7390 C 736.577 -2.14494 5.51132 0
M  V30 7391 H 735.507 -0.413936 0.630217 0
M  V30 7392 H 738.158 -0.359434 1.79945 0
M  V30 7393 H 736.54 -2.77978 2.82036 0
M  V30 7394 H 737.714 -0.524867 4.57801 0
M  V30 7395 H 736.029 -0.631116 4.11589 0
M  V30 7396 H 738.626 -3.41243 4.11652 0
M  V30 7397 H 738.969 -3.39868 2.40407 0
M  V30 7398 H 739.502 -2.0355 3.41778 0
M  V30 7399 H 736.241 -1.53362 6.37307 0
M  V30 7400 H 735.761 -2.85004 5.27762 0
M  V30 7401 H 737.44 -2.73914 5.86157 0
M  V30 7402 N 737.572 -1.44907 -0.619662 0
M  V30 7403 C 738.82 -1.47999 -1.37625 0
M  V30 7404 C 739.141 -0.118295 -1.94641 0
M  V30 7405 O 738.411 0.85086 -1.76457 0
M  V30 7406 H 736.991 -0.544993 -0.510873 0
M  V30 7407 H 739.653 -1.80772 -0.728522 0
M  V30 7408 H 738.749 -2.21196 -2.20179 0
M  V30 7409 N 739.05 0.861098 -1.31996 0
M  V30 7410 C 739.98 1.98482 -1.22993 0
M  V30 7411 C 740.961 1.6971 -0.115168 0
M  V30 7412 O 742.146 1.91849 -0.30126 0
M  V30 7413 C 739.276 3.34179 -0.945615 0
M  V30 7414 C 738.23 3.77284 -2.02091 0
M  V30 7415 C 737.556 5.1054 -1.58912 0
M  V30 7416 C 738.856 3.93439 -3.43515 0
M  V30 7417 H 740.55 2.06271 -2.17008 0
M  V30 7418 H 738.096 0.991043 -1.04472 0
M  V30 7419 H 740.049 4.12338 -0.869206 0
M  V30 7420 H 738.773 3.26586 0.0301849 0
M  V30 7421 H 737.432 3.01371 -2.08737 0
M  V30 7422 H 737.08 4.99397 -0.600942 0
M  V30 7423 H 736.78 5.40352 -2.30854 0
M  V30 7424 H 738.304 5.91199 -1.52696 0
M  V30 7425 H 739.718 4.6197 -3.39495 0
M  V30 7426 H 738.115 4.34661 -4.13751 0
M  V30 7427 H 739.185 2.96548 -3.8365 0
M  V30 7428 N 740.528 1.15101 1.07655 0
M  V30 7429 C 741.475 0.844958 2.14777 0
M  V30 7430 C 742.445 -0.200798 1.64882 0
M  V30 7431 O 743.63 -0.0690278 1.90675 0
M  V30 7432 C 740.77 0.337018 3.4345 0
M  V30 7433 C 739.883 1.44398 4.07153 0
M  V30 7434 C 739.018 0.892487 5.23649 0
M  V30 7435 C 738.057 1.9766 5.79307 0
M  V30 7436 N 737.194 1.44171 6.87138 0
M  V30 7437 H 742.034 1.76242 2.40297 0
M  V30 7438 H 739.571 0.879435 1.17917 0
M  V30 7439 H 741.529 0.024256 4.17193 0
M  V30 7440 H 740.159 -0.543531 3.18191 0
M  V30 7441 H 739.211 1.87299 3.31094 0
M  V30 7442 H 740.523 2.26262 4.4453 0
M  V30 7443 H 739.677 0.532083 6.04362 0
M  V30 7444 H 738.416 0.0429854 4.87681 0
M  V30 7445 H 737.421 2.34586 4.97242 0
M  V30 7446 H 738.646 2.82982 6.17331 0
M  V30 7447 H 736.592 0.614518 6.53115 0
M  V30 7448 H 736.509 2.19665 7.23383 0
M  V30 7449 H 737.777 1.10945 7.71564 0
M  V30 7450 N 742.006 -1.2595 0.947325 0
M  V30 7451 C 743.246 -1.95218 0.605743 0
M  V30 7452 C 743.61 -1.72624 -0.84054 0
M  V30 7453 O 744.811 -2.35748 -1.29136 0
M  V30 7454 C 743.082 -3.44654 0.94596 0
M  V30 7455 S 744.641 -4.32922 0.715849 0
M  V30 7456 H 741.459 -0.675159 0.222894 0
M  V30 7457 H 744.061 -1.52766 1.21995 0
M  V30 7458 H 742.765 -3.586 1.99585 0
M  V30 7459 H 742.296 -3.92082 0.321718 0
M  V30 7460 H 744.311 -4.94445 -0.416959 0
M  V30 7461 N 743.484 -0.715051 -1.40445 0
M  V30 7462 C 744.414 -0.0768699 -2.33373 0
M  V30 7463 C 745.395 0.746109 -1.52863 0
M  V30 7464 O 746.58 0.695142 -1.81332 0
M  V30 7465 C 743.71 0.846014 -3.36838 0
M  V30 7466 C 742.664 0.128694 -4.27806 0
M  V30 7467 C 741.99 1.16726 -5.21804 0
M  V30 7468 C 743.29 -1.01679 -5.12307 0
M  V30 7469 H 744.984 -0.853061 -2.8699 0
M  V30 7470 H 742.53 -0.41167 -1.3799 0
M  V30 7471 H 744.483 1.30185 -4.00786 0
M  V30 7472 H 743.207 1.6541 -2.81615 0
M  V30 7473 H 741.866 -0.307314 -3.6531 0
M  V30 7474 H 741.514 1.96838 -4.62887 0
M  V30 7475 H 741.214 0.692188 -5.83509 0
M  V30 7476 H 742.738 1.62321 -5.88629 0
M  V30 7477 H 744.152 -0.640337 -5.69713 0
M  V30 7478 H 742.549 -1.4202 -5.83053 0
M  V30 7479 H 743.619 -1.84769 -4.48317 0
M  V30 7480 N 744.962 1.50701 -0.461195 0
M  V30 7481 C 745.872 2.32069 0.343661 0
M  V30 7482 C 746.888 1.42016 1.00535 0
M  V30 7483 O 748.064 1.75077 0.995498 0
M  V30 7484 C 745.129 3.16424 1.41692 0
M  V30 7485 C 744.19 4.22286 0.772869 0
M  V30 7486 C 743.423 5.02609 1.79499 0
M  V30 7487 O 743.646 4.83874 3.0203 0
M  V30 7488 O 742.58 5.86047 1.3723 0
M  V30 7489 H 746.406 3.01996 -0.321268 0
M  V30 7490 H 743.991 1.47723 -0.223235 0
M  V30 7491 H 745.873 3.68795 2.03883 0
M  V30 7492 H 744.548 2.49236 2.0655 0
M  V30 7493 H 743.455 3.73931 0.112277 0
M  V30 7494 H 744.788 4.91915 0.167399 0
M  V30 7495 N 746.441 0.193421 1.56409 0
M  V30 7496 C 747.391 -0.74089 2.15627 0
M  V30 7497 C 748.375 -1.17747 1.09656 0
M  V30 7498 O 749.567 -1.13615 1.35723 0
M  V30 7499 C 746.696 -1.96091 2.81786 0
M  V30 7500 C 745.782 -1.54531 3.94944 0
M  V30 7501 N 746.173 -0.840569 4.98767 0
M  V30 7502 C 744.471 -1.83473 4.06514 0
M  V30 7503 C 745.172 -0.632571 5.7825 0
M  V30 7504 N 744.148 -1.18078 5.30621 0
M  V30 7505 H 747.95 -0.193718 2.93261 0
M  V30 7506 H 745.464 -0.00643211 1.62399 0
M  V30 7507 H 747.461 -2.64071 3.22602 0
M  V30 7508 H 746.121 -2.51282 2.05639 0
M  V30 7509 H 747.132 -0.496218 5.15517 0
M  V30 7510 H 743.809 -2.40184 3.41493 0
M  V30 7511 H 745.199 -0.0736433 6.7186 0
M  V30 7512 N 747.919 -1.57396 -0.0801906 0
M  V30 7513 C 748.849 -2.06145 -1.09665 0
M  V30 7514 C 749.83 -0.953273 -1.40878 0
M  V30 7515 O 751.015 -1.22548 -1.50651 0
M  V30 7516 C 748.145 -2.49836 -2.41245 0
M  V30 7517 C 747.099 -3.64454 -2.24405 0
M  V30 7518 C 746.425 -3.94172 -3.61293 0
M  V30 7519 C 747.725 -4.94807 -1.67223 0
M  V30 7520 H 749.419 -2.91316 -0.691028 0
M  V30 7521 H 746.965 -1.40145 -0.330957 0
M  V30 7522 H 748.918 -2.82552 -3.12638 0
M  V30 7523 H 747.642 -1.61683 -2.83771 0
M  V30 7524 H 746.301 -3.32008 -1.55454 0
M  V30 7525 H 745.949 -3.03163 -4.01374 0
M  V30 7526 H 745.649 -4.71345 -3.50867 0
M  V30 7527 H 747.173 -4.29376 -4.3413 0
M  V30 7528 H 748.587 -5.25807 -2.28472 0
M  V30 7529 H 746.984 -5.76245 -1.67515 0
M  V30 7530 H 748.054 -4.80751 -0.632944 0
M  V30 7531 N 749.397 0.351382 -1.53633 0
M  V30 7532 C 750.644 1.0925 -1.70502 0
M  V30 7533 C 750.972 1.88881 -0.464123 0
M  V30 7534 O 750.227 1.87693 0.554077 0
M  V30 7535 C 750.526 2.06744 -2.91533 0
M  V30 7536 C 750.192 1.43484 -4.27461 0
M  V30 7537 C 748.854 1.2596 -4.64422 0
M  V30 7538 C 751.206 0.978436 -5.11934 0
M  V30 7539 C 748.534 0.614017 -5.83478 0
M  V30 7540 C 750.886 0.346795 -6.31649 0
M  V30 7541 C 749.55 0.15917 -6.6731 0
M  V30 7542 H 748.82 0.399773 -0.623909 0
M  V30 7543 H 751.467 0.372656 -1.87839 0
M  V30 7544 H 749.772 2.85082 -2.68767 0
M  V30 7545 H 751.469 2.64066 -3.01778 0
M  V30 7546 H 748.059 1.5812 -3.98367 0
M  V30 7547 H 752.243 1.1017 -4.83918 0
M  V30 7548 H 747.499 0.457194 -6.09688 0
M  V30 7549 H 751.673 -0.0149864 -6.96398 0
M  V30 7550 H 749.3 -0.343129 -7.59425 0
M  V30 7551 N 750.875 1.45233 0.611969 0
M  V30 7552 C 752.122 1.49021 1.37109 0
M  V30 7553 C 752.45 0.130227 1.94064 0
M  V30 7554 O 751.705 -0.870551 1.75271 0
M  V30 7555 C 752.004 2.51353 2.54079 0
M  V30 7556 C 751.67 3.96178 2.15299 0
M  V30 7557 C 750.332 4.35614 2.04436 0
M  V30 7558 C 752.684 4.87275 1.84966 0
M  V30 7559 C 750.012 5.64047 1.61456 0
M  V30 7560 C 752.364 6.16115 1.43474 0
M  V30 7561 C 751.028 6.54486 1.31167 0
M  V30 7562 H 750.298 0.545307 0.501719 0
M  V30 7563 H 752.945 1.78555 0.692122 0
M  V30 7564 H 751.25 2.15372 3.27295 0
M  V30 7565 H 752.947 2.51523 3.12309 0
M  V30 7566 H 749.537 3.6499 2.24678 0
M  V30 7567 H 753.721 4.57548 1.92258 0
M  V30 7568 H 748.977 5.92575 1.50547 0
M  V30 7569 H 753.151 6.86149 1.19048 0
M  V30 7570 H 750.778 7.53904 0.97637 0
M  V30 7571 N 752.353 -0.854086 1.3245 0
M  V30 7572 C 753.6 -1.60831 1.23043 0
M  V30 7573 C 753.928 -1.93389 -0.2076 0
M  V30 7574 O 753.183 -1.5756 -1.16075 0
M  V30 7575 C 753.482 -2.93746 2.03587 0
M  V30 7576 C 753.148 -2.80615 3.52939 0
M  V30 7577 C 751.81 -2.76742 3.93659 0
M  V30 7578 C 754.162 -2.66507 4.4791 0
M  V30 7579 C 751.49 -2.56638 5.27592 0
M  V30 7580 C 753.842 -2.47939 5.81987 0
M  V30 7581 C 752.506 -2.42458 6.21909 0
M  V30 7582 H 751.776 -0.588523 0.450247 0
M  V30 7583 H 754.423 -0.990699 1.63882 0
M  V30 7584 H 752.728 -3.5963 1.55478 0
M  V30 7585 H 754.425 -3.51127 1.93677 0
M  V30 7586 H 751.015 -2.84456 3.20598 0
M  V30 7587 H 755.199 -2.68544 4.1737 0
M  V30 7588 H 750.455 -2.50831 5.57579 0
M  V30 7589 H 754.629 -2.36002 6.55192 0
M  V30 7590 H 752.256 -2.2664 7.2563 0
M  V30 7591 N 753.831 -1.1567 -1.07043 0
M  V30 7592 C 754.778 -0.856336 -2.14326 0
M  V30 7593 C 755.748 0.192051 -1.64986 0
M  V30 7594 O 756.933 0.0589148 -1.90709 0
M  V30 7595 C 754.073 -0.355227 -3.43267 0
M  V30 7596 C 753.186 -1.46555 -4.06381 0
M  V30 7597 C 752.321 -0.920245 -5.23168 0
M  V30 7598 C 751.36 -2.00729 -5.78251 0
M  V30 7599 N 750.497 -1.47813 -6.86364 0
M  V30 7600 H 755.337 -1.77514 -2.39359 0
M  V30 7601 H 752.874 -0.885676 -1.17449 0
M  V30 7602 H 754.832 -0.0463804 -4.17174 0
M  V30 7603 H 753.462 0.526649 -3.18475 0
M  V30 7604 H 752.514 -1.89052 -3.30096 0
M  V30 7605 H 753.826 -2.28616 -4.43324 0
M  V30 7606 H 752.98 -0.564127 -6.04072 0
M  V30 7607 H 751.719 -0.0688477 -4.87651 0
M  V30 7608 H 750.724 -2.3722 -4.95991 0
M  V30 7609 H 751.949 -2.86252 -6.15822 0
M  V30 7610 H 749.895 -0.649145 -6.5278 0
M  V30 7611 H 749.812 -2.23498 -7.22208 0
M  V30 7612 H 751.08 -1.15036 -7.70965 0
M  V30 7613 N 755.309 1.25446 -0.953992 0
M  V30 7614 C 756.239 2.28264 -0.491717 0
M  V30 7615 C 757.22 1.63717 0.461617 0
M  V30 7616 O 758.405 1.90821 0.36071 0
M  V30 7617 C 755.535 3.46525 0.231915 0
M  V30 7618 C 754.489 4.23247 -0.636098 0
M  V30 7619 C 753.815 5.34254 0.218238 0
M  V30 7620 C 755.115 4.85971 -1.91389 0
M  V30 7621 H 756.809 2.67183 -1.35106 0
M  V30 7622 H 754.355 1.2844 -0.651095 0
M  V30 7623 H 756.308 4.17576 0.566439 0
M  V30 7624 H 755.032 3.06594 1.12551 0
M  V30 7625 H 753.691 3.53978 -0.953696 0
M  V30 7626 H 753.339 4.90564 1.11156 0
M  V30 7627 H 753.039 5.86501 -0.359232 0
M  V30 7628 H 754.563 6.08138 0.547743 0
M  V30 7629 H 755.977 5.49168 -1.64581 0
M  V30 7630 H 754.374 5.48391 -2.43696 0
M  V30 7631 H 755.444 4.08192 -2.61738 0
M  V30 7632 N 756.787 0.722489 1.40064 0
M  V30 7633 C 758.036 0.261932 1.99992 0
M  V30 7634 C 758.349 -1.15358 1.57961 0
M  V30 7635 O 759.555 -1.71301 2.10637 0
M  V30 7636 C 758.011 0.41737 3.57472 0
M  V30 7637 C 757.619 1.83997 4.08472 0
M  V30 7638 C 759.363 0.0179561 4.24496 0
M  V30 7639 C 757.27 1.94563 5.5848 0
M  V30 7640 H 756.2 0.0941768 0.748095 0
M  V30 7641 H 758.851 0.894572 1.60218 0
M  V30 7642 H 757.233 -0.283965 3.94981 0
M  V30 7643 H 758.407 2.57224 3.82325 0
M  V30 7644 H 756.722 2.19147 3.54067 0
M  V30 7645 H 759.319 0.076085 5.34646 0
M  V30 7646 H 759.662 -1.02498 4.03485 0
M  V30 7647 H 760.195 0.669988 3.92117 0
M  V30 7648 H 756.934 2.97001 5.84355 0
M  V30 7649 H 756.454 1.25756 5.86469 0
M  V30 7650 H 758.133 1.72095 6.23692 0
M  V30 7651 N 758.265 -1.50454 0.469181 0
M  V30 7652 C 759.513 -2.01916 -0.0862982 0
M  V30 7653 C 759.834 -1.35337 -1.40388 0
M  V30 7654 O 759.104 -0.498096 -1.89462 0
M  V30 7655 H 757.684 -0.746185 -0.0348825 0
M  V30 7656 H 760.346 -1.84804 0.619167 0
M  V30 7657 H 759.442 -3.11182 -0.239189 0
M  V30 7658 N 759.743 -0.201713 -1.56304 0
M  V30 7659 C 761.02 0.483273 -1.89536 0
M  V30 7660 C 761.4 1.79176 -1.11621 0
M  V30 7661 O 760.748 2.27445 -0.219339 0
M  V30 7662 C 760.958 0.695604 -3.41998 0
M  V30 7663 C 762.306 1.012 -4.12364 0
M  V30 7664 O 763.33 0.783094 -3.47485 0
M  V30 7665 O 762.189 1.44534 -5.27041 0
M  V30 7666 H 759.283 0.252801 -0.787414 0
M  V30 7667 H 761.829 -0.24242 -1.6796 0
M  V30 7668 H 760.601 -0.228165 -3.90634 0
M  V30 7669 H 760.224 1.47351 -3.69288 0
M  V30 7670 N 761.222 1.57436 0.0718424 0
M  V30 7671 C 762.45 1.91474 0.783932 0
M  V30 7672 C 762.865 0.797669 1.71122 0
M  V30 7673 O 762.222 -0.228989 1.81058 0
M  V30 7674 C 762.273 3.25259 1.57761 0
M  V30 7675 O 761.994 4.3267 0.687596 0
M  V30 7676 C 763.495 3.7331 2.3907 0
M  V30 7677 H 760.715 0.632901 0.222885 0
M  V30 7678 H 763.259 2.04457 0.0421262 0
M  V30 7679 H 761.414 3.13804 2.27169 0
M  V30 7680 H 761.828 5.09641 1.23962 0
M  V30 7681 H 763.302 4.69551 2.90216 0
M  V30 7682 H 763.779 3.02318 3.18591 0
M  V30 7683 H 764.385 3.8771 1.74818 0
M  V30 7684 N 762.7 -0.34323 1.53817 0
M  V30 7685 C 764.111 -0.918823 1.62525 0
M  V30 7686 C 764.462 -1.89542 0.506765 0
M  V30 7687 O 763.587 -2.13326 -0.363441 0
M  V30 7688 C 764.182 -1.67326 2.94597 0
M  V30 7689 C 762.741 -2.19786 3.05567 0
M  V30 7690 C 761.888 -1.01708 2.57974 0
M  V30 7691 H 764.839 -0.121358 1.58235 0
M  V30 7692 H 764.86 -2.53615 2.83654 0
M  V30 7693 H 764.372 -0.962223 3.75983 0
M  V30 7694 H 762.473 -2.94065 2.28816 0
M  V30 7695 H 762.586 -2.46135 4.1104 0
M  V30 7696 H 760.95 -1.39058 2.13389 0
M  V30 7697 H 761.733 -0.320671 3.41799 0
M  V30 7698 N 764.178 -1.45556 -0.604258 0
M  V30 7699 C 765.427 -1.49019 -1.35928 0
M  V30 7700 C 765.74 -0.137409 -1.95117 0
M  V30 7701 O 766.946 -0.0497032 -2.71455 0
M  V30 7702 C 765.402 -2.62477 -2.46239 0
M  V30 7703 C 765.01 -4.04082 -1.93447 0
M  V30 7704 C 766.754 -2.7519 -3.23219 0
M  V30 7705 C 764.661 -5.08917 -3.0126 0
M  V30 7706 H 763.591 -0.554518 -0.510907 0
M  V30 7707 H 766.242 -1.71705 -0.647262 0
M  V30 7708 H 764.624 -2.3308 -3.2014 0
M  V30 7709 H 765.798 -4.43173 -1.26232 0
M  V30 7710 H 764.113 -3.95849 -1.29201 0
M  V30 7711 H 766.71 -3.50683 -4.0364 0
M  V30 7712 H 767.053 -1.81941 -3.74437 0
M  V30 7713 H 767.586 -3.04129 -2.56418 0
M  V30 7714 H 764.325 -6.03886 -2.54955 0
M  V30 7715 H 763.845 -4.74393 -3.67031 0
M  V30 7716 H 765.524 -5.33814 -3.65584 0
M  V30 7717 N 765.656 0.84705 -1.32902 0
M  V30 7718 C 766.933 1.58583 -1.14503 0
M  V30 7719 C 767.313 2.09075 0.291724 0
M  V30 7720 O 766.661 1.88636 1.28952 0
M  V30 7721 C 766.871 2.72605 -2.17916 0
M  V30 7722 C 768.219 3.41993 -2.51646 0
M  V30 7723 O 769.243 2.82838 -2.1652 0
M  V30 7724 O 768.102 4.48761 -3.1189 0
M  V30 7725 H 765.196 0.698756 -0.442345 0
M  V30 7726 H 767.742 0.890516 -1.44457 0
M  V30 7727 H 766.514 2.32876 -3.14459 0
M  V30 7728 H 766.137 3.49807 -1.89 0
M  V30 7729 N 767.134 1.16236 1.06428 0
M  V30 7730 C 768.362 0.967184 1.82902 0
M  V30 7731 C 768.777 -0.484601 1.82475 0
M  V30 7732 O 768.134 -1.33631 1.24294 0
M  V30 7733 C 768.185 1.48534 3.29576 0
M  V30 7734 O 767.906 2.88026 3.3011 0
M  V30 7735 C 769.407 1.33298 4.22784 0
M  V30 7736 H 766.627 0.342923 0.576754 0
M  V30 7737 H 769.171 1.54232 1.34286 0
M  V30 7738 H 767.326 0.952513 3.75508 0
M  V30 7739 H 767.74 3.11721 4.21818 0
M  V30 7740 H 769.214 1.74385 5.23731 0
M  V30 7741 H 769.691 0.278356 4.38317 0
M  V30 7742 H 770.297 1.85535 3.82697 0
M  V30 7743 N 768.612 -1.24939 0.960631 0
M  V30 7744 C 769.859 -1.92818 0.618663 0
M  V30 7745 C 770.187 -1.75177 -0.845173 0
M  V30 7746 O 769.442 -1.09412 -1.62258 0
M  V30 7747 C 769.741 -3.45066 0.930809 0
M  V30 7748 C 769.407 -3.82869 2.38164 0
M  V30 7749 C 768.069 -3.92899 2.7782 0
M  V30 7750 C 770.421 -4.01483 3.32356 0
M  V30 7751 C 767.749 -4.18955 4.10723 0
M  V30 7752 C 770.101 -4.29033 4.6488 0
M  V30 7753 C 768.765 -4.37282 5.04322 0
M  V30 7754 H 768.035 -0.705571 0.226385 0
M  V30 7755 H 770.682 -1.48365 1.21079 0
M  V30 7756 H 768.987 -3.9096 0.256355 0
M  V30 7757 H 770.684 -3.95783 0.644712 0
M  V30 7758 H 767.274 -3.75622 2.06413 0
M  V30 7759 H 771.458 -3.93143 3.02907 0
M  V30 7760 H 766.714 -4.23558 4.40918 0
M  V30 7761 H 770.888 -4.42381 5.3784 0
M  V30 7762 H 768.515 -4.57225 6.0733 0
M  V30 7763 N 770.09 -0.729906 -1.39679 0
M  V30 7764 C 771.02 -0.101618 -2.33279 0
M  V30 7765 C 772.001 0.729854 -1.53646 0
M  V30 7766 O 773.186 0.67587 -1.82059 0
M  V30 7767 C 770.316 0.81024 -3.37716 0
M  V30 7768 C 769.27 0.0833126 -4.27919 0
M  V30 7769 C 768.596 1.11185 -5.23012 0
M  V30 7770 C 769.896 -1.07107 -5.112 0
M  V30 7771 H 771.59 -0.883452 -2.86069 0
M  V30 7772 H 769.136 -0.426283 -1.37546 0
M  V30 7773 H 771.089 1.25927 -4.02145 0
M  V30 7774 H 769.813 1.62413 -2.83354 0
M  V30 7775 H 768.472 -0.346043 -3.64963 0
M  V30 7776 H 768.12 1.91917 -4.64948 0
M  V30 7777 H 767.82 0.63026 -5.8421 0
M  V30 7778 H 769.344 1.56068 -5.90318 0
M  V30 7779 H 770.758 -0.700726 -5.69002 0
M  V30 7780 H 769.155 -1.48196 -5.81514 0
M  V30 7781 H 770.225 -1.89513 -4.46332 0
M  V30 7782 N 771.568 1.50203 -0.477153 0
M  V30 7783 C 772.501 2.25343 0.359983 0
M  V30 7784 C 773.479 1.28909 0.991022 0
M  V30 7785 O 774.663 1.58146 1.02578 0
M  V30 7786 C 771.79 3.03431 1.5049 0
M  V30 7787 C 770.836 4.14836 0.99063 0
M  V30 7788 S 771.669 5.35407 -0.0995413 0
M  V30 7789 C 772.825 6.17045 1.04911 0
M  V30 7790 H 773.058 2.95999 -0.277836 0
M  V30 7791 H 770.591 1.52159 -0.262115 0
M  V30 7792 H 772.549 3.49012 2.16105 0
M  V30 7793 H 771.21 2.32289 2.11425 0
M  V30 7794 H 770.403 4.689 1.84794 0
M  V30 7795 H 770.005 3.71723 0.412097 0
M  V30 7796 H 772.297 6.48546 1.95946 0
M  V30 7797 H 773.24 7.05979 0.547596 0
M  V30 7798 H 773.648 5.49193 1.30567 0
M  V30 7799 N 773.046 0.209999 1.56195 0
M  V30 7800 C 773.956 -0.716459 2.23392 0
M  V30 7801 C 774.972 -1.22291 1.23778 0
M  V30 7802 O 776.148 -1.26694 1.56558 0
M  V30 7803 C 773.213 -1.91261 2.89172 0
M  V30 7804 C 772.274 -1.44927 4.04097 0
M  V30 7805 C 771.507 -2.5884 4.66731 0
M  V30 7806 O 771.73 -3.76693 4.2832 0
M  V30 7807 O 770.664 -2.30701 5.55932 0
M  V30 7808 H 774.49 -0.174089 3.03201 0
M  V30 7809 H 772.075 -0.0199505 1.49387 0
M  V30 7810 H 773.957 -2.6114 3.30733 0
M  V30 7811 H 772.632 -2.4433 2.12331 0
M  V30 7812 H 771.539 -0.718839 3.67129 0
M  V30 7813 H 772.872 -0.965084 4.82646 0
M  V30 7814 N 774.524 -1.57472 -0.0634922 0
M  V30 7815 C 775.457 -1.99571 -1.10664 0
M  V30 7816 C 776.435 -0.874015 -1.37112 0
M  V30 7817 O 777.619 -1.13702 -1.50347 0
M  V30 7818 C 774.746 -2.3395 -2.44918 0
M  V30 7819 C 773.792 -3.56213 -2.34551 0
M  V30 7820 S 774.625 -5.06727 -1.73169 0
M  V30 7821 C 775.781 -5.44316 -3.08984 0
M  V30 7822 H 776.014 -2.87739 -0.747905 0
M  V30 7823 H 773.547 -1.5198 -0.272316 0
M  V30 7824 H 775.505 -2.54431 -3.22141 0
M  V30 7825 H 774.166 -1.46297 -2.7795 0
M  V30 7826 H 773.359 -3.77812 -3.33578 0
M  V30 7827 H 772.961 -3.35406 -1.65466 0
M  V30 7828 H 775.253 -5.42894 -4.05305 0
M  V30 7829 H 776.196 -6.4502 -2.92156 0
M  V30 7830 H 776.604 -4.71781 -3.09972 0
M  V30 7831 N 776.003 0.335068 -1.53997 0
M  V30 7832 C 776.933 1.41727 -1.85568 0
M  V30 7833 C 777.914 1.54505 -0.7115 0
M  V30 7834 O 779.099 1.68573 -0.964191 0
M  V30 7835 C 776.229 2.7866 -2.07282 0
M  V30 7836 C 775.183 2.80682 -3.23112 0
M  V30 7837 C 774.509 4.20581 -3.30175 0
M  V30 7838 C 775.809 2.45458 -4.61029 0
M  V30 7839 H 777.503 1.15555 -2.76202 0
M  V30 7840 H 775.049 0.554445 -1.32898 0
M  V30 7841 H 777.002 3.54423 -2.27952 0
M  V30 7842 H 775.726 3.06286 -1.13387 0
M  V30 7843 H 774.385 2.07373 -3.02311 0
M  V30 7844 H 774.033 4.4533 -2.33859 0
M  V30 7845 H 773.733 4.22843 -4.08016 0
M  V30 7846 H 775.257 4.98174 -3.53066 0
M  V30 7847 H 776.671 3.10934 -4.81656 0
M  V30 7848 H 775.068 2.5899 -5.41336 0
M  V30 7849 H 776.138 1.40628 -4.6406 0
M  V30 7850 N 777.481 1.45874 0.596531 0
M  V30 7851 C 778.391 1.57947 1.73464 0
M  V30 7852 C 779.407 0.463461 1.67714 0
M  V30 7853 O 780.583 0.725685 1.87872 0
M  V30 7854 C 777.648 1.55348 3.09948 0
M  V30 7855 C 776.709 2.78074 3.27068 0
M  V30 7856 C 775.942 2.75589 4.57041 0
M  V30 7857 O 776.165 1.83545 5.40063 0
M  V30 7858 O 775.099 3.66945 4.77111 0
M  V30 7859 H 778.925 2.54169 1.66228 0
M  V30 7860 H 776.51 1.2851 0.76194 0
M  V30 7861 H 778.392 1.56545 3.91244 0
M  V30 7862 H 777.067 0.622811 3.17652 0
M  V30 7863 H 775.974 2.82435 2.45319 0
M  V30 7864 H 777.307 3.70303 3.24248 0
M  V30 7865 N 778.959 -0.83999 1.33349 0
M  V30 7866 C 779.922 -1.93128 1.23426 0
M  V30 7867 C 780.922 -1.60065 0.153599 0
M  V30 7868 O 782.112 -1.69425 0.405049 0
M  V30 7869 C 779.244 -3.28761 0.901622 0
M  V30 7870 H 780.437 -2.03352 2.20427 0
M  V30 7871 H 777.99 -1.03194 1.17391 0
M  V30 7872 H 778.725 -3.24233 -0.0659337 0
M  V30 7873 H 778.51 -3.54138 1.68311 0
M  V30 7874 H 780 -4.08714 0.856913 0
M  V30 7875 N 780.437 -1.16799 -1.0581 0
M  V30 7876 C 781.848 -0.95945 -1.60161 0
M  V30 7877 C 782.199 0.49543 -1.89842 0
M  V30 7878 O 781.324 1.36957 -1.67546 0
M  V30 7879 C 781.919 -1.73527 -2.90987 0
M  V30 7880 C 780.478 -1.57158 -3.42021 0
M  V30 7881 C 779.625 -1.74089 -2.15843 0
M  V30 7882 H 782.576 -1.31598 -0.886992 0
M  V30 7883 H 782.597 -1.21397 -3.60615 0
M  V30 7884 H 782.109 -2.79411 -2.69353 0
M  V30 7885 H 780.21 -0.537361 -3.68705 0
M  V30 7886 H 780.323 -2.35858 -4.17022 0
M  V30 7887 H 778.687 -1.16874 -2.26302 0
M  V30 7888 H 779.47 -2.81371 -1.96686 0
M  V30 7889 N 781.915 1.24427 -0.967243 0
M  V30 7890 C 782.865 2.23143 -0.468106 0
M  V30 7891 C 783.849 1.5449 0.449633 0
M  V30 7892 O 785.041 1.74761 0.28063 0
M  V30 7893 C 782.17 3.42454 0.240867 0
M  V30 7894 C 781.256 4.18355 -0.695674 0
M  V30 7895 N 781.647 4.71428 -1.83273 0
M  V30 7896 C 779.945 4.43116 -0.506365 0
M  V30 7897 C 780.646 5.29041 -2.41849 0
M  V30 7898 N 779.622 5.16213 -1.70369 0
M  V30 7899 H 783.424 2.61795 -1.3357 0
M  V30 7900 H 780.938 1.39809 -0.826277 0
M  V30 7901 H 782.935 4.12329 0.615668 0
M  V30 7902 H 781.595 3.05323 1.10491 0
M  V30 7903 H 782.606 4.68177 -2.21428 0
M  V30 7904 H 779.283 4.16319 0.313747 0
M  V30 7905 H 780.673 5.80811 -3.37799 0
M  V30 7906 N 783.393 0.737304 1.3929 0
M  V30 7907 C 784.325 0.0592106 2.29124 0
M  V30 7908 C 785.338 -0.701026 1.46934 0
M  V30 7909 O 786.527 -0.544808 1.69983 0
M  V30 7910 C 783.627 -0.940358 3.25592 0
M  V30 7911 C 782.8 -0.241163 4.36735 0
M  V30 7912 C 781.859 -1.14916 5.13498 0
M  V30 7913 O 780.885 -0.625783 5.6575 0
M  V30 7914 N 782.087 -2.47869 5.2492 0
M  V30 7915 H 784.852 0.830647 2.87959 0
M  V30 7916 H 782.413 0.586718 1.50895 0
M  V30 7917 H 784.405 -1.55046 3.73822 0
M  V30 7918 H 782.975 -1.61299 2.67771 0
M  V30 7919 H 782.195 0.549441 3.90352 0
M  V30 7920 H 783.483 0.243299 5.08218 0
M  V30 7921 H 782.881 -2.92864 4.83991 0
M  V30 7922 H 781.438 -3.03969 5.76581 0
M  V30 7923 N 784.871 -1.49948 0.485112 0
M  V30 7924 C 785.801 -2.31675 -0.291364 0
M  V30 7925 C 786.782 -1.39216 -0.977383 0
M  V30 7926 O 787.967 -1.68133 -0.971855 0
M  V30 7927 C 785.097 -3.19326 -1.36558 0
M  V30 7928 C 784.051 -4.2045 -0.800359 0
M  V30 7929 C 783.377 -4.96931 -1.97391 0
M  V30 7930 C 784.677 -5.21925 0.197867 0
M  V30 7931 H 786.371 -2.96839 0.390775 0
M  V30 7932 H 783.917 -1.42749 0.189375 0
M  V30 7933 H 785.87 -3.75304 -1.91638 0
M  V30 7934 H 784.594 -2.52074 -2.07668 0
M  V30 7935 H 783.253 -3.65594 -0.271428 0
M  V30 7936 H 782.901 -4.26141 -2.67232 0
M  V30 7937 H 782.601 -5.65344 -1.60187 0
M  V30 7938 H 784.125 -5.55749 -2.52935 0
M  V30 7939 H 785.539 -5.72691 -0.264239 0
M  V30 7940 H 783.936 -5.98138 0.484908 0
M  V30 7941 H 785.006 -4.71809 1.11912 0
M  V30 7942 N 786.349 -0.21828 -1.56081 0
M  V30 7943 C 787.312 0.679633 -2.18892 0
M  V30 7944 C 788.312 1.12405 -1.14986 0
M  V30 7945 O 789.502 1.03339 -1.40238 0
M  V30 7946 C 786.634 1.93063 -2.80962 0
M  V30 7947 H 787.827 0.132066 -2.99609 0
M  V30 7948 H 785.38 0.0313374 -1.56269 0
M  V30 7949 H 786.115 2.52015 -2.04106 0
M  V30 7950 H 785.9 1.62046 -3.57048 0
M  V30 7951 H 787.39 2.57043 -3.29118 0
M  V30 7952 O 787.866 1.61292 -0.0819188 0
M  V30 7953 H 788.557 1.86513 0.522732 0
M  V30 END ATOM
M  V30 BEGIN BOND
M  V30 END BOND
M  V30 END CTAB
M  END
$$$$
