drugbank_target|P29559 Lantibiotic nisin-Z (DB07780)
 OpenBabel12092120463D

830833  0  0  0  0  0  0  0  0999 V2000
   -0.9080    1.9825   -0.1171 H   0  0  0  0  0 15  0  0  0  0  0  0
    0.0000    1.5760    0.0000 N   0  0  0  0  0 15  0  0  0  0  0  0
    0.9330    2.0387    1.0253 C   0  0  0  0  0 15  0  0  0  0  0  0
    1.9110    0.9285    1.3348 C   0  0  0  0  0 15  0  0  0  0  0  0
    3.0950    1.1967    1.4564 O   0  0  0  0  0 15  0  0  0  0  0  0
    0.2220    2.4363    2.3529 C   0  0  0  0  0 15  0  0  0  0  0  0
   -0.7320    3.6537    2.2001 C   0  0  0  0  0 15  0  0  0  0  0  0
    0.1010    5.1329    1.5261 S   0  0  0  0  0 15  0  0  0  0  0  0
    1.2570    5.5632    2.8680 C   0  0  0  0  0 15  0  0  0  0  0  0
    1.4900    2.9052    0.6314 H   0  0  0  0  0 15  0  0  0  0  0  0
   -0.9770    1.5295    0.2109 H   0  0  0  0  0 15  0  0  0  0  0  0
    0.9810    2.6720    3.1163 H   0  0  0  0  0 15  0  0  0  0  0  0
   -0.3580    1.5738    2.7183 H   0  0  0  0  0 15  0  0  0  0  0  0
   -1.1650    3.9094    3.1809 H   0  0  0  0  0 15  0  0  0  0  0  0
   -1.5630    3.4180    1.5182 H   0  0  0  0  0 15  0  0  0  0  0  0
    0.7290    5.5878    3.8310 H   0  0  0  0  0 15  0  0  0  0  0  0
    1.6720    6.5627    2.6593 H   0  0  0  0  0 15  0  0  0  0  0  0
    2.0800    4.8389    2.9071 H   0  0  0  0  0 15  0  0  0  0  0  0
    1.4781   -0.2728    1.5522 N   0  0  0  0  0 15  0  0  0  0  0  0
    2.7031   -1.0268    1.8020 C   0  0  0  0  0 15  0  0  0  0  0  0
    3.1281   -1.7914    0.5736 C   0  0  0  0  0 15  0  0  0  0  0  0
    2.4861   -1.7492   -0.4768 O   0  0  0  0  0 15  0  0  0  0  0  0
    2.5341   -1.9609    3.0262 C   0  0  0  0  0 15  0  0  0  0  0  0
    1.6381   -3.0486    2.7773 O   0  0  0  0  0 15  0  0  0  0  0  0
    0.9791   -0.2936    0.5956 H   0  0  0  0  0 15  0  0  0  0  0  0
    3.5091   -0.3016    2.0237 H   0  0  0  0  0 15  0  0  0  0  0  0
    3.5191   -2.3804    3.3136 H   0  0  0  0  0 15  0  0  0  0  0  0
    2.1941   -1.3985    3.9168 H   0  0  0  0  0 15  0  0  0  0  0  0
    0.7711   -2.6723    2.6008 H   0  0  0  0  0 15  0  0  0  0  0  0
    2.9562   -1.4816   -0.5373 N   0  0  0  0  0 15  0  0  0  0  0  0
    4.1842   -1.5945   -1.3184 C   0  0  0  0  0 15  0  0  0  0  0  0
    4.5992   -0.2521   -1.8711 C   0  0  0  0  0 15  0  0  0  0  0  0
    3.9562    0.7576   -1.6603 O   0  0  0  0  0 15  0  0  0  0  0  0
    4.0072   -2.6355   -2.4744 C   0  0  0  0  0 15  0  0  0  0  0  0
    3.7282   -3.9258   -1.9445 O   0  0  0  0  0 15  0  0  0  0  0  0
    5.2292   -2.8521   -3.3937 C   0  0  0  0  0 15  0  0  0  0  0  0
    2.4492   -0.5379   -0.4012 H   0  0  0  0  0 15  0  0  0  0  0  0
    4.9932   -1.9393   -0.6489 H   0  0  0  0  0 15  0  0  0  0  0  0
    3.1482   -2.3195   -3.1029 H   0  0  0  0  0 15  0  0  0  0  0  0
    3.5622   -4.4963   -2.7006 H   0  0  0  0  0 15  0  0  0  0  0  0
    5.0362   -3.6186   -4.1684 H   0  0  0  0  0 15  0  0  0  0  0  0
    5.5132   -1.9376   -3.9415 H   0  0  0  0  0 15  0  0  0  0  0  0
    6.1192   -3.1809   -2.8231 H   0  0  0  0  0 15  0  0  0  0  0  0
    4.4343    0.7856   -1.3662 N   0  0  0  0  0 15  0  0  0  0  0  0
    5.3813    1.8984   -1.3126 C   0  0  0  0  0 15  0  0  0  0  0  0
    6.3513    1.6511   -0.1806 C   0  0  0  0  0 15  0  0  0  0  0  0
    7.5363    1.8722   -0.3678 O   0  0  0  0  0 15  0  0  0  0  0  0
    4.6763    3.2671   -1.1116 C   0  0  0  0  0 15  0  0  0  0  0  0
    3.7893    3.6348   -2.3347 C   0  0  0  0  0 15  0  0  0  0  0  0
    2.9243    4.8948   -2.0635 C   0  0  0  0  0 15  0  0  0  0  0  0
    1.9633    5.1894   -3.2460 C   0  0  0  0  0 15  0  0  0  0  0  0
    1.1003    6.3613   -2.9712 N   0  0  0  0  0 15  0  0  0  0  0  0
    5.9403    1.9376   -2.2641 H   0  0  0  0  0 15  0  0  0  0  0  0
    3.4773    0.9475   -1.1252 H   0  0  0  0  0 15  0  0  0  0  0  0
    5.4353    4.0564   -0.9753 H   0  0  0  0  0 15  0  0  0  0  0  0
    4.0653    3.2220   -0.1967 H   0  0  0  0  0 15  0  0  0  0  0  0
    3.1173    2.7964   -2.5789 H   0  0  0  0  0 15  0  0  0  0  0  0
    4.4293    3.8119   -3.2170 H   0  0  0  0  0 15  0  0  0  0  0  0
    3.5833    5.7629   -1.8968 H   0  0  0  0  0 15  0  0  0  0  0  0
    2.3223    4.7384   -1.1544 H   0  0  0  0  0 15  0  0  0  0  0  0
    1.3273    4.3062   -3.4183 H   0  0  0  0  0 15  0  0  0  0  0  0
    2.5523    5.3650   -4.1635 H   0  0  0  0  0 15  0  0  0  0  0  0
    0.4983    6.2188   -2.0882 H   0  0  0  0  0 15  0  0  0  0  0  0
    0.4153    6.5420   -3.7889 H   0  0  0  0  0 15  0  0  0  0  0  0
    1.6833    7.2591   -2.8403 H   0  0  0  0  0 15  0  0  0  0  0  0
    5.9124    1.2097    1.0102 N   0  0  0  0  0 15  0  0  0  0  0  0
    7.1894    0.9326    1.7193 C   0  0  0  0  0 15  0  0  0  0  0  0
    7.5694   -0.5569    2.0362 C   0  0  0  0  0 15  0  0  0  0  0  0
    6.9174   -1.5204    1.7058 O   0  0  0  0  0 15  0  0  0  0  0  0
    7.1274    1.8123    2.9825 C   0  0  0  0  0 15  0  0  0  0  0  0
    8.4754    2.0580    3.7139 C   0  0  0  0  0 15  0  0  0  0  0  0
    9.4994    1.7854    3.0822 O   0  0  0  0  0 15  0  0  0  0  0  0
    8.3584    2.5189    4.8499 O   0  0  0  0  0 15  0  0  0  0  0  0
    5.4524    0.3493    0.7496 H   0  0  0  0  0 15  0  0  0  0  0  0
    7.9984    1.3187    1.0681 H   0  0  0  0  0 15  0  0  0  0  0  0
    6.7704    2.8207    2.7121 H   0  0  0  0  0 15  0  0  0  0  0  0
    6.3934    1.4267    3.7112 H   0  0  0  0  0 15  0  0  0  0  0  0
    7.3905   -1.2043    1.0166 N   0  0  0  0  0 15  0  0  0  0  0  0
    8.6375   -1.8980    0.7059 C   0  0  0  0  0 15  0  0  0  0  0  0
    8.9655   -1.7885   -0.7644 C   0  0  0  0  0 15  0  0  0  0  0  0
    8.2205   -1.1669   -1.5710 O   0  0  0  0  0 15  0  0  0  0  0  0
    8.5195   -3.4046    1.0871 C   0  0  0  0  0 15  0  0  0  0  0  0
    8.1855   -3.7161    2.5537 C   0  0  0  0  0 15  0  0  0  0  0  0
    6.8475   -3.7983    2.9544 C   0  0  0  0  0 15  0  0  0  0  0  0
    9.1995   -3.8592    3.5031 C   0  0  0  0  0 15  0  0  0  0  0  0
    6.5275   -3.9980    4.2939 C   0  0  0  0  0 15  0  0  0  0  0  0
    8.8795   -4.0740    4.8395 C   0  0  0  0  0 15  0  0  0  0  0  0
    7.5435   -4.1384    5.2373 C   0  0  0  0  0 15  0  0  0  0  0  0
    6.8135   -0.6945    0.2583 H   0  0  0  0  0 15  0  0  0  0  0  0
    9.4605   -1.4269    1.2772 H   0  0  0  0  0 15  0  0  0  0  0  0
    7.7655   -3.8939    0.4343 H   0  0  0  0  0 15  0  0  0  0  0  0
    9.4625   -3.9243    0.8245 H   0  0  0  0  0 15  0  0  0  0  0  0
    6.0525   -3.6582    2.2332 H   0  0  0  0  0 15  0  0  0  0  0  0
   10.2365   -3.7893    3.2051 H   0  0  0  0  0 15  0  0  0  0  0  0
    5.4925   -4.0302    4.5977 H   0  0  0  0  0 15  0  0  0  0  0  0
    9.6665   -4.1740    5.5745 H   0  0  0  0  0 15  0  0  0  0  0  0
    7.2935   -4.2906    6.2754 H   0  0  0  0  0 15  0  0  0  0  0  0
    8.8686   -0.7928   -1.3621 N   0  0  0  0  0 15  0  0  0  0  0  0
    9.8166   -0.1816   -2.3189 C   0  0  0  0  0 15  0  0  0  0  0  0
   10.8106    0.6610   -1.5597 C   0  0  0  0  0 15  0  0  0  0  0  0
   12.0166    0.5557   -1.7121 O   0  0  0  0  0 15  0  0  0  0  0  0
    8.3916   -0.0399   -0.7509 H   0  0  0  0  0 15  0  0  0  0  0  0
   10.3626   -1.0039   -2.8100 H   0  0  0  0  0 15  0  0  0  0  0  0
    9.1116    0.6664   -3.4125 C   0  0  0  0  0 15  0  0  0  0  0  0
    8.4346    0.0274   -3.9979 H   0  0  0  0  0 15  0  0  0  0  0  0
    9.8746    1.0608   -4.1052 H   0  0  0  0  0 15  0  0  0  0  0  0
    8.3336    1.8261   -2.8311 C   0  0  0  0  0 15  0  0  0  0  0  0
    8.8636    2.9229   -2.7555 O   0  0  0  0  0 15  0  0  0  0  0  0
    7.0696    1.6333   -2.4036 N   0  0  0  0  0 15  0  0  0  0  0  0
    6.6166    0.7412   -2.4671 H   0  0  0  0  0 15  0  0  0  0  0  0
    6.5746    2.4109   -2.0180 H   0  0  0  0  0 15  0  0  0  0  0  0
   10.3467    1.4787   -0.5451 N   0  0  0  0  0 15  0  0  0  0  0  0
   11.2767    2.3266    0.1978 C   0  0  0  0  0 15  0  0  0  0  0  0
   12.2577    1.4304    0.9205 C   0  0  0  0  0 15  0  0  0  0  0  0
   13.4427    1.7191    0.9033 O   0  0  0  0  0 15  0  0  0  0  0  0
   10.5727    3.2457    1.2358 C   0  0  0  0  0 15  0  0  0  0  0  0
    9.5267    4.2333    0.6303 C   0  0  0  0  0 15  0  0  0  0  0  0
    8.8527    5.0448    1.7721 C   0  0  0  0  0 15  0  0  0  0  0  0
   10.1527    5.2070   -0.4080 C   0  0  0  0  0 15  0  0  0  0  0  0
   11.8467    2.9502   -0.5100 H   0  0  0  0  0 15  0  0  0  0  0  0
    9.3927    1.4187   -0.2467 H   0  0  0  0  0 15  0  0  0  0  0  0
   11.3457    3.8272    1.7636 H   0  0  0  0  0 15  0  0  0  0  0  0
   10.0697    2.6024    1.9734 H   0  0  0  0  0 15  0  0  0  0  0  0
    8.7287    3.6639    0.1239 H   0  0  0  0  0 15  0  0  0  0  0  0
    8.3767    4.3656    2.4985 H   0  0  0  0  0 15  0  0  0  0  0  0
    8.0767    5.7134    1.3728 H   0  0  0  0  0 15  0  0  0  0  0  0
    9.6007    5.6549    2.3034 H   0  0  0  0  0 15  0  0  0  0  0  0
   11.0147    5.7329    0.0333 H   0  0  0  0  0 15  0  0  0  0  0  0
    9.4117    5.9570   -0.7255 H   0  0  0  0  0 15  0  0  0  0  0  0
   10.4817    4.6692   -1.3083 H   0  0  0  0  0 15  0  0  0  0  0  0
   11.8248    0.2810    1.5507 N   0  0  0  0  0 15  0  0  0  0  0  0
   13.1018   -0.3862    1.9175 C   0  0  0  0  0 15  0  0  0  0  0  0
   13.4818   -1.7326    1.2059 C   0  0  0  0  0 15  0  0  0  0  0  0
   12.8298   -2.2603    0.3348 O   0  0  0  0  0 15  0  0  0  0  0  0
   13.0398   -0.5207    3.4509 C   0  0  0  0  0 15  0  0  0  0  0  0
   14.3878   -0.8009    4.1698 C   0  0  0  0  0 15  0  0  0  0  0  0
   15.4118   -0.6053    3.5102 O   0  0  0  0  0 15  0  0  0  0  0  0
   14.2708   -1.1753    5.3371 O   0  0  0  0  0 15  0  0  0  0  0  0
   11.3648   -0.2124    0.7993 H   0  0  0  0  0 15  0  0  0  0  0  0
   13.9108    0.3276    1.6651 H   0  0  0  0  0 15  0  0  0  0  0  0
   12.6828    0.4266    3.8897 H   0  0  0  0  0 15  0  0  0  0  0  0
   12.3058   -1.2837    3.7631 H   0  0  0  0  0 15  0  0  0  0  0  0
   13.3029   -1.5760    0.0084 N   0  0  0  0  0 15  0  0  0  0  0  0
   14.2329   -2.1198   -0.9791 C   0  0  0  0  0 15  0  0  0  0  0  0
   15.2139   -1.0309   -1.3530 C   0  0  0  0  0 15  0  0  0  0  0  0
   16.3989   -1.3082   -1.4353 O   0  0  0  0  0 15  0  0  0  0  0  0
   13.5289   -2.6299   -2.2683 C   0  0  0  0  0 15  0  0  0  0  0  0
   12.4829   -3.7648   -2.0358 C   0  0  0  0  0 15  0  0  0  0  0  0
   11.8089   -4.1385   -3.3858 C   0  0  0  0  0 15  0  0  0  0  0  0
   13.1089   -5.0342   -1.3916 C   0  0  0  0  0 15  0  0  0  0  0  0
   14.8029   -2.9474   -0.5263 H   0  0  0  0  0 15  0  0  0  0  0  0
   12.3489   -1.4178   -0.2517 H   0  0  0  0  0 15  0  0  0  0  0  0
   14.3019   -2.9967   -2.9627 H   0  0  0  0  0 15  0  0  0  0  0  0
   13.0259   -1.7737   -2.7424 H   0  0  0  0  0 15  0  0  0  0  0  0
   11.6849   -3.4022   -1.3656 H   0  0  0  0  0 15  0  0  0  0  0  0
   11.3329   -3.2523   -3.8371 H   0  0  0  0  0 15  0  0  0  0  0  0
   11.0329   -4.9031   -3.2383 H   0  0  0  0  0 15  0  0  0  0  0  0
   12.5569   -4.5309   -4.0932 H   0  0  0  0  0 15  0  0  0  0  0  0
   13.9709   -5.3781   -1.9857 H   0  0  0  0  0 15  0  0  0  0  0  0
   12.3679   -5.8475   -1.3488 H   0  0  0  0  0 15  0  0  0  0  0  0
   13.4379   -4.8355   -0.3619 H   0  0  0  0  0 15  0  0  0  0  0  0
   14.7810    0.2645   -1.5536 N   0  0  0  0  0 15  0  0  0  0  0  0
   16.0270    0.9965   -1.7663 C   0  0  0  0  0 15  0  0  0  0  0  0
   16.3600    1.8563   -0.5705 C   0  0  0  0  0 15  0  0  0  0  0  0
   15.6350    1.8965    0.4317 O   0  0  0  0  0 15  0  0  0  0  0  0
   15.9180    1.8719   -3.0762 C   0  0  0  0  0 15  0  0  0  0  0  0
   15.7710    1.0414   -4.3758 C   0  0  0  0  0 15  0  0  0  0  0  0
   17.0900    2.8575   -3.3472 C   0  0  0  0  0 15  0  0  0  0  0  0
   14.2090    0.3608   -0.6426 H   0  0  0  0  0 15  0  0  0  0  0  0
   16.8510    0.2682   -1.8810 H   0  0  0  0  0 15  0  0  0  0  0  0
   15.0010    2.4928   -2.9798 H   0  0  0  0  0 15  0  0  0  0  0  0
   16.6730    0.4405   -4.5919 H   0  0  0  0  0 15  0  0  0  0  0  0
   14.9160    0.3451   -4.3243 H   0  0  0  0  0 15  0  0  0  0  0  0
   15.5870    1.6873   -5.2558 H   0  0  0  0  0 15  0  0  0  0  0  0
   18.0630    2.3379   -3.4421 H   0  0  0  0  0 15  0  0  0  0  0  0
   16.9390    3.4414   -4.2762 H   0  0  0  0  0 15  0  0  0  0  0  0
   17.2000    3.6131   -2.5477 H   0  0  0  0  0 15  0  0  0  0  0  0
   16.2591    1.4844    0.5294 N   0  0  0  0  0 15  0  0  0  0  0  0
   17.4841    1.6041    1.3147 C   0  0  0  0  0 15  0  0  0  0  0  0
   17.9091    0.2647    1.8623 C   0  0  0  0  0 15  0  0  0  0  0  0
   17.2671   -0.7637    1.6443 O   0  0  0  0  0 15  0  0  0  0  0  0
   17.3151    2.6542    2.4410 C   0  0  0  0  0 15  0  0  0  0  0  0
   16.4191    2.2262    3.4715 O   0  0  0  0  0 15  0  0  0  0  0  0
   15.7601    0.5379    0.3894 H   0  0  0  0  0 15  0  0  0  0  0  0
   18.2901    1.9443    0.6370 H   0  0  0  0  0 15  0  0  0  0  0  0
   18.3001    2.8671    2.9028 H   0  0  0  0  0 15  0  0  0  0  0  0
   16.9751    3.6265    2.0361 H   0  0  0  0  0 15  0  0  0  0  0  0
   15.5521    2.1154    3.0709 H   0  0  0  0  0 15  0  0  0  0  0  0
   17.7372   -0.7783    1.3704 N   0  0  0  0  0 15  0  0  0  0  0  0
   18.9832   -1.5389    1.3208 C   0  0  0  0  0 15  0  0  0  0  0  0
   19.3162   -1.9396   -0.0965 C   0  0  0  0  0 15  0  0  0  0  0  0
   18.5912   -1.6357   -1.0524 O   0  0  0  0  0 15  0  0  0  0  0  0
   18.8742   -2.8085    2.2538 C   0  0  0  0  0 15  0  0  0  0  0  0
   18.7272   -2.4708    3.7586 C   0  0  0  0  0 15  0  0  0  0  0  0
   20.0462   -3.8274    2.1725 C   0  0  0  0  0 15  0  0  0  0  0  0
   17.1652   -0.5583    0.4811 H   0  0  0  0  0 15  0  0  0  0  0  0
   19.8072   -0.8934    1.6769 H   0  0  0  0  0 15  0  0  0  0  0  0
   17.9572   -3.3593    1.9515 H   0  0  0  0  0 15  0  0  0  0  0  0
   19.6292   -1.9796    4.1667 H   0  0  0  0  0 15  0  0  0  0  0  0
   17.8722   -1.7986    3.9476 H   0  0  0  0  0 15  0  0  0  0  0  0
   18.5432   -3.3780    4.3657 H   0  0  0  0  0 15  0  0  0  0  0  0
   21.0192   -3.3713    2.4389 H   0  0  0  0  0 15  0  0  0  0  0  0
   19.8952   -4.6930    2.8469 H   0  0  0  0  0 15  0  0  0  0  0  0
   20.1562   -4.2652    1.1633 H   0  0  0  0  0 15  0  0  0  0  0  0
   19.2153   -1.2150   -1.0038 N   0  0  0  0  0 15  0  0  0  0  0  0
   20.4403   -1.0598   -1.7828 C   0  0  0  0  0 15  0  0  0  0  0  0
   20.8653    0.3860   -1.8410 C   0  0  0  0  0 15  0  0  0  0  0  0
   20.2233    1.2785   -1.2855 O   0  0  0  0  0 15  0  0  0  0  0  0
   20.2713   -1.6630   -3.1996 C   0  0  0  0  0 15  0  0  0  0  0  0
   19.3753   -0.9093   -4.0225 O   0  0  0  0  0 15  0  0  0  0  0  0
   18.7163   -0.3729   -0.5494 H   0  0  0  0  0 15  0  0  0  0  0  0
   21.2463   -1.6107   -1.2617 H   0  0  0  0  0 15  0  0  0  0  0  0
   21.2563   -1.7057   -3.7063 H   0  0  0  0  0 15  0  0  0  0  0  0
   19.9313   -2.7152   -3.1504 H   0  0  0  0  0 15  0  0  0  0  0  0
   18.5083   -0.9418   -3.6081 H   0  0  0  0  0 15  0  0  0  0  0  0
   20.6934    1.1989   -1.0230 N   0  0  0  0  0 15  0  0  0  0  0  0
   21.6404    2.2290   -0.5987 C   0  0  0  0  0 15  0  0  0  0  0  0
   22.6104    1.6159    0.3845 C   0  0  0  0  0 15  0  0  0  0  0  0
   23.7954    1.8870    0.2825 O   0  0  0  0  0 15  0  0  0  0  0  0
   20.9354    3.4506    0.0504 C   0  0  0  0  0 15  0  0  0  0  0  0
   20.0484    4.2078   -0.9781 C   0  0  0  0  0 15  0  0  0  0  0  0
   19.1834    5.3036   -0.2993 C   0  0  0  0  0 15  0  0  0  0  0  0
   18.2224    5.9783   -1.3142 C   0  0  0  0  0 15  0  0  0  0  0  0
   17.3594    6.9898   -0.6617 N   0  0  0  0  0 15  0  0  0  0  0  0
   22.1994    2.5855   -1.4817 H   0  0  0  0  0 15  0  0  0  0  0  0
   19.7364    1.2704   -0.7416 H   0  0  0  0  0 15  0  0  0  0  0  0
   21.6944    4.1483    0.4440 H   0  0  0  0  0 15  0  0  0  0  0  0
   20.3244    3.1008    0.8971 H   0  0  0  0  0 15  0  0  0  0  0  0
   19.3764    3.5002   -1.4897 H   0  0  0  0  0 15  0  0  0  0  0  0
   20.6884    4.6711   -1.7496 H   0  0  0  0  0 15  0  0  0  0  0  0
   19.8424    6.0652    0.1493 H   0  0  0  0  0 15  0  0  0  0  0  0
   18.5814    4.8508    0.5044 H   0  0  0  0  0 15  0  0  0  0  0  0
   17.5864    5.2042   -1.7732 H   0  0  0  0  0 15  0  0  0  0  0  0
   18.8114    6.4518   -2.1193 H   0  0  0  0  0 15  0  0  0  0  0  0
   16.7574    6.5589    0.1221 H   0  0  0  0  0 15  0  0  0  0  0  0
   16.6744    7.4346   -1.3712 H   0  0  0  0  0 15  0  0  0  0  0  0
   17.9424    7.7914   -0.2368 H   0  0  0  0  0 15  0  0  0  0  0  0
   22.1715    0.8000    1.3578 N   0  0  0  0  0 15  0  0  0  0  0  0
   23.1185    0.2038    2.2990 C   0  0  0  0  0 15  0  0  0  0  0  0
   24.0885   -0.6584    1.5249 C   0  0  0  0  0 15  0  0  0  0  0  0
   25.2735   -0.6048    1.8096 O   0  0  0  0  0 15  0  0  0  0  0  0
   22.4135   -0.6469    3.3898 C   0  0  0  0  0 15  0  0  0  0  0  0
   21.5265    0.2351    4.3136 C   0  0  0  0  0 15  0  0  0  0  0  0
   20.6615   -0.6231    5.2753 C   0  0  0  0  0 15  0  0  0  0  0  0
   19.7005    0.2597    6.1155 C   0  0  0  0  0 15  0  0  0  0  0  0
   18.8375   -0.5580    6.9988 N   0  0  0  0  0 15  0  0  0  0  0  0
   23.6775    1.0119    2.8030 H   0  0  0  0  0 15  0  0  0  0  0  0
   21.2145    0.5105    1.3796 H   0  0  0  0  0 15  0  0  0  0  0  0
   23.1725   -1.1552    4.0089 H   0  0  0  0  0 15  0  0  0  0  0  0
   21.8025   -1.4202    2.8988 H   0  0  0  0  0 15  0  0  0  0  0  0
   20.8545    0.8614    3.7052 H   0  0  0  0  0 15  0  0  0  0  0  0
   22.1665    0.9148    4.9034 H   0  0  0  0  0 15  0  0  0  0  0  0
   21.3205   -1.1968    5.9478 H   0  0  0  0  0 15  0  0  0  0  0  0
   20.0595   -1.3364    4.6903 H   0  0  0  0  0 15  0  0  0  0  0  0
   19.0645    0.8457    5.4326 H   0  0  0  0  0 15  0  0  0  0  0  0
   20.2895    0.9707    6.7213 H   0  0  0  0  0 15  0  0  0  0  0  0
   18.2355   -1.2554    6.4388 H   0  0  0  0  0 15  0  0  0  0  0  0
   18.1525    0.0638    7.5597 H   0  0  0  0  0 15  0  0  0  0  0  0
   19.4205   -1.1152    7.7148 H   0  0  0  0  0 15  0  0  0  0  0  0
   23.6496   -1.4758    0.5530 N   0  0  0  0  0 15  0  0  0  0  0  0
   24.9266   -1.9556   -0.0382 C   0  0  0  0  0 15  0  0  0  0  0  0
   25.3066   -1.4955   -1.4899 C   0  0  0  0  0 15  0  0  0  0  0  0
   24.6546   -0.7324   -2.1644 O   0  0  0  0  0 15  0  0  0  0  0  0
   24.8646   -3.4885    0.1029 C   0  0  0  0  0 15  0  0  0  0  0  0
   26.2126   -4.2458   -0.0446 C   0  0  0  0  0 15  0  0  0  0  0  0
   27.2366   -3.5619    0.0303 O   0  0  0  0  0 15  0  0  0  0  0  0
   26.0956   -5.4612   -0.2049 O   0  0  0  0  0 15  0  0  0  0  0  0
   23.1896   -0.8243   -0.0665 H   0  0  0  0  0 15  0  0  0  0  0  0
   25.7356   -1.5800    0.6192 H   0  0  0  0  0 15  0  0  0  0  0  0
   24.5076   -3.7513    1.1133 H   0  0  0  0  0 15  0  0  0  0  0  0
   24.1306   -3.9316   -0.5922 H   0  0  0  0  0 15  0  0  0  0  0  0
   25.1277   -0.2892   -1.5492 N   0  0  0  0  0 15  0  0  0  0  0  0
   26.3527    0.3293   -2.0477 C   0  0  0  0  0 15  0  0  0  0  0  0
   26.7777    1.4763   -1.1656 C   0  0  0  0  0 15  0  0  0  0  0  0
   26.1357    1.8053   -0.1672 O   0  0  0  0  0 15  0  0  0  0  0  0
   26.1837    0.7744   -3.5219 C   0  0  0  0  0 15  0  0  0  0  0  0
   25.2877    1.8804   -3.6704 O   0  0  0  0  0 15  0  0  0  0  0  0
   24.6287    0.0659   -0.6607 H   0  0  0  0  0 15  0  0  0  0  0  0
   27.1587   -0.4276   -2.0008 H   0  0  0  0  0 15  0  0  0  0  0  0
   27.1687    1.0664   -3.9382 H   0  0  0  0  0 15  0  0  0  0  0  0
   25.8437   -0.0647   -4.1585 H   0  0  0  0  0 15  0  0  0  0  0  0
   24.4207    1.5898   -3.3731 H   0  0  0  0  0 15  0  0  0  0  0  0
   26.6058    1.5759   -0.0167 N   0  0  0  0  0 15  0  0  0  0  0  0
   27.8538    1.9091    0.6633 C   0  0  0  0  0 15  0  0  0  0  0  0
   28.1748    0.8925    1.7338 C   0  0  0  0  0 15  0  0  0  0  0  0
   27.4448   -0.0678    1.9578 O   0  0  0  0  0 15  0  0  0  0  0  0
   26.0248    0.7046    0.2480 H   0  0  0  0  0 15  0  0  0  0  0  0
   28.6868    1.9480   -0.0616 H   0  0  0  0  0 15  0  0  0  0  0  0
   27.7828    2.9116    1.1239 H   0  0  0  0  0 15  0  0  0  0  0  0
   28.0839   -0.2563    1.5550 N   0  0  0  0  0 15  0  0  0  0  0  0
   29.0469   -1.3005    1.8873 C   0  0  0  0  0 15  0  0  0  0  0  0
   30.0469   -1.4154    0.7631 C   0  0  0  0  0 15  0  0  0  0  0  0
   31.2369   -1.4040    1.0312 O   0  0  0  0  0 15  0  0  0  0  0  0
   28.3689   -2.6795    2.1075 C   0  0  0  0  0 15  0  0  0  0  0  0
   29.5619   -1.0180    2.8209 H   0  0  0  0  0 15  0  0  0  0  0  0
   27.1149   -0.4951    1.4825 H   0  0  0  0  0 15  0  0  0  0  0  0
   27.8499   -3.0135    1.1983 H   0  0  0  0  0 15  0  0  0  0  0  0
   27.6349   -2.6099    2.9262 H   0  0  0  0  0 15  0  0  0  0  0  0
   29.1249   -3.4337    2.3767 H   0  0  0  0  0 15  0  0  0  0  0  0
   29.5620   -1.4872   -0.5215 N   0  0  0  0  0 15  0  0  0  0  0  0
   30.7870   -1.6110   -1.3062 C   0  0  0  0  0 15  0  0  0  0  0  0
   31.2120   -0.2746   -1.8608 C   0  0  0  0  0 15  0  0  0  0  0  0
   30.5700    0.7549   -1.6483 O   0  0  0  0  0 15  0  0  0  0  0  0
   30.6180   -2.6671   -2.4269 C   0  0  0  0  0 15  0  0  0  0  0  0
   29.7220   -2.2446   -3.4597 O   0  0  0  0  0 15  0  0  0  0  0  0
   29.0630   -0.5399   -0.3865 H   0  0  0  0  0 15  0  0  0  0  0  0
   31.5930   -1.9477   -0.6266 H   0  0  0  0  0 15  0  0  0  0  0  0
   31.6030   -2.8824   -2.8875 H   0  0  0  0  0 15  0  0  0  0  0  0
   30.2780   -3.6373   -2.0168 H   0  0  0  0  0 15  0  0  0  0  0  0
   28.8550   -2.1317   -3.0596 H   0  0  0  0  0 15  0  0  0  0  0  0
   31.0401    0.7711   -1.3745 N   0  0  0  0  0 15  0  0  0  0  0  0
   32.4511    1.3474   -1.2924 C   0  0  0  0  0 15  0  0  0  0  0  0
   32.8021    1.9611    0.0597 C   0  0  0  0  0 15  0  0  0  0  0  0
   31.9271    1.9386    0.9615 O   0  0  0  0  0 15  0  0  0  0  0  0
   32.5221    2.4497   -2.3404 C   0  0  0  0  0 15  0  0  0  0  0  0
   31.0811    2.9837   -2.2946 C   0  0  0  0  0 15  0  0  0  0  0  0
   30.2281    1.7160   -2.1783 C   0  0  0  0  0 15  0  0  0  0  0  0
   33.1791    0.5713   -1.4806 H   0  0  0  0  0 15  0  0  0  0  0  0
   33.2001    3.2447   -1.9874 H   0  0  0  0  0 15  0  0  0  0  0  0
   32.7121    2.0028   -3.3243 H   0  0  0  0  0 15  0  0  0  0  0  0
   30.8131    3.4744   -1.3459 H   0  0  0  0  0 15  0  0  0  0  0  0
   30.9261    3.5394   -3.2290 H   0  0  0  0  0 15  0  0  0  0  0  0
   29.2901    1.9455   -1.6439 H   0  0  0  0  0 15  0  0  0  0  0  0
   30.0731    1.2900   -3.1814 H   0  0  0  0  0 15  0  0  0  0  0  0
   32.5182    1.2203    0.9973 N   0  0  0  0  0 15  0  0  0  0  0  0
   33.9342    0.9793    1.2602 C   0  0  0  0  0 15  0  0  0  0  0  0
   34.1342   -0.3297    1.9878 C   0  0  0  0  0 15  0  0  0  0  0  0
   33.1902   -1.0535    2.2947 O   0  0  0  0  0 15  0  0  0  0  0  0
   34.5032    2.1751    2.0763 C   0  0  0  0  0 15  0  0  0  0  0  0
   36.0512    2.2182    2.2083 C   0  0  0  0  0 15  0  0  0  0  0  0
   36.5262    3.4093    3.0582 C   0  0  0  0  0 15  0  0  0  0  0  0
   38.0172    3.4107    3.1341 N   0  0  0  0  0 15  0  0  0  0  0  0
   38.7522    4.2989    3.7946 C   0  0  0  0  0 15  0  0  0  0  0  0
   38.2482    5.2891    4.4746 N   0  0  0  0  0 15  0  0  0  0  0  0
   40.0412    4.1767    3.7617 N   0  0  0  0  0 15  0  0  0  0  0  0
   32.1922    2.0620    0.5094 H   0  0  0  0  0 15  0  0  0  0  0  0
   34.4552    0.9033    0.2875 H   0  0  0  0  0 15  0  0  0  0  0  0
   34.1612    3.1241    1.6152 H   0  0  0  0  0 15  0  0  0  0  0  0
   34.0352    2.1721    3.0839 H   0  0  0  0  0 15  0  0  0  0  0  0
   36.4222    1.2746    2.6615 H   0  0  0  0  0 15  0  0  0  0  0  0
   36.5032    2.2616    1.1952 H   0  0  0  0  0 15  0  0  0  0  0  0
   36.1472    4.3559    2.6120 H   0  0  0  0  0 15  0  0  0  0  0  0
   36.0772    3.3383    4.0727 H   0  0  0  0  0 15  0  0  0  0  0  0
   38.5682    2.6941    2.6501 H   0  0  0  0  0 15  0  0  0  0  0  0
   38.8812    5.9297    4.9558 H   0  0  0  0  0 15  0  0  0  0  0  0
   37.2262    5.3283    4.4622 H   0  0  0  0  0 15  0  0  0  0  0  0
   40.4172    3.3956    3.2220 H   0  0  0  0  0 15  0  0  0  0  0  0
   40.5902    4.8710    4.2736 H   0  0  0  0  0 15  0  0  0  0  0  0
   33.9963   -1.1934    1.0293 N   0  0  0  0  0 15  0  0  0  0  0  0
   35.2453   -1.8836    0.7213 C   0  0  0  0  0 15  0  0  0  0  0  0
   35.5583   -1.8051   -0.7533 C   0  0  0  0  0 15  0  0  0  0  0  0
   36.7643   -2.4479   -1.1744 O   0  0  0  0  0 15  0  0  0  0  0  0
   35.2203   -3.3787    1.2398 C   0  0  0  0  0 15  0  0  0  0  0  0
   34.8283   -3.5428    2.7421 C   0  0  0  0  0 15  0  0  0  0  0  0
   36.5723   -4.1236    1.0077 C   0  0  0  0  0 15  0  0  0  0  0  0
   34.4793   -4.9768    3.1948 C   0  0  0  0  0 15  0  0  0  0  0  0
   33.4093   -0.7055    0.2661 H   0  0  0  0  0 15  0  0  0  0  0  0
   36.0603   -1.3493    1.2437 H   0  0  0  0  0 15  0  0  0  0  0  0
   34.4423   -3.9071    0.6453 H   0  0  0  0  0 15  0  0  0  0  0  0
   35.6163   -3.1177    3.3932 H   0  0  0  0  0 15  0  0  0  0  0  0
   33.9313   -2.9317    2.9570 H   0  0  0  0  0 15  0  0  0  0  0  0
   36.5283   -5.1812    1.3212 H   0  0  0  0  0 15  0  0  0  0  0  0
   36.8713   -4.1626   -0.0554 H   0  0  0  0  0 15  0  0  0  0  0  0
   37.4043   -3.6567    1.5663 H   0  0  0  0  0 15  0  0  0  0  0  0
   34.1433   -4.9895    4.2513 H   0  0  0  0  0 15  0  0  0  0  0  0
   33.6633   -5.4095    2.5910 H   0  0  0  0  0 15  0  0  0  0  0  0
   35.3423   -5.6634    3.1284 H   0  0  0  0  0 15  0  0  0  0  0  0
   35.4744   -0.8072   -1.3536 N   0  0  0  0  0 15  0  0  0  0  0  0
   36.7024   -0.4004   -2.0299 C   0  0  0  0  0 15  0  0  0  0  0  0
   37.1174    0.9889   -1.6083 C   0  0  0  0  0 15  0  0  0  0  0  0
   36.4744    1.6373   -0.8062 O   0  0  0  0  0 15  0  0  0  0  0  0
   36.5254   -0.4749   -3.5837 C   0  0  0  0  0 15  0  0  0  0  0  0
   36.2464   -1.8093   -3.9899 O   0  0  0  0  0 15  0  0  0  0  0  0
   37.7474   -0.0609   -4.4326 C   0  0  0  0  0 15  0  0  0  0  0  0
   34.9674   -0.1626   -0.6510 H   0  0  0  0  0 15  0  0  0  0  0  0
   37.5114   -1.0910   -1.7297 H   0  0  0  0  0 15  0  0  0  0  0  0
   35.6664    0.1675   -3.8704 H   0  0  0  0  0 15  0  0  0  0  0  0
   36.0804   -1.7726   -4.9364 H   0  0  0  0  0 15  0  0  0  0  0  0
   37.5544   -0.1641   -5.5176 H   0  0  0  0  0 15  0  0  0  0  0  0
   38.0314    0.9938   -4.2781 H   0  0  0  0  0 15  0  0  0  0  0  0
   38.6374   -0.6765   -4.1989 H   0  0  0  0  0 15  0  0  0  0  0  0
   36.9525    1.4729   -0.5608 N   0  0  0  0  0 15  0  0  0  0  0  0
   38.1775    2.0736   -0.0411 C   0  0  0  0  0 15  0  0  0  0  0  0
   38.6025    1.4102    1.2448 C   0  0  0  0  0 15  0  0  0  0  0  0
   37.9605    0.4864    1.7465 O   0  0  0  0  0 15  0  0  0  0  0  0
   38.0085    3.6035    0.1341 C   0  0  0  0  0 15  0  0  0  0  0  0
   37.1125    3.9468    1.1959 O   0  0  0  0  0 15  0  0  0  0  0  0
   36.4535    0.6619   -0.0529 H   0  0  0  0  0 15  0  0  0  0  0  0
   38.9835    1.8925   -0.7775 H   0  0  0  0  0 15  0  0  0  0  0  0
   38.9935    4.0652    0.3472 H   0  0  0  0  0 15  0  0  0  0  0  0
   37.6685    4.0803   -0.8050 H   0  0  0  0  0 15  0  0  0  0  0  0
   36.2455    3.6025    0.9630 H   0  0  0  0  0 15  0  0  0  0  0  0
   38.4306    0.2974    1.5477 N   0  0  0  0  0 15  0  0  0  0  0  0
   39.6796   -0.3137    1.9925 C   0  0  0  0  0 15  0  0  0  0  0  0
   39.9926   -1.5528    1.1894 C   0  0  0  0  0 15  0  0  0  0  0  0
   41.1986   -2.2383    1.5367 O   0  0  0  0  0 15  0  0  0  0  0  0
   39.6546   -0.6094    3.5470 C   0  0  0  0  0 15  0  0  0  0  0  0
   39.2626    0.6112    4.4381 C   0  0  0  0  0 15  0  0  0  0  0  0
   41.0066   -1.1819    4.0772 C   0  0  0  0  0 15  0  0  0  0  0  0
   38.9136    0.2888    5.9069 C   0  0  0  0  0 15  0  0  0  0  0  0
   37.8436   -0.1210    0.7442 H   0  0  0  0  0 15  0  0  0  0  0  0
   40.4946    0.4056    1.7896 H   0  0  0  0  0 15  0  0  0  0  0  0
   38.8766   -1.3881    3.7087 H   0  0  0  0  0 15  0  0  0  0  0  0
   40.0506    1.3875    4.3941 H   0  0  0  0  0 15  0  0  0  0  0  0
   38.3656    1.1021    4.0155 H   0  0  0  0  0 15  0  0  0  0  0  0
   40.9626   -1.4373    5.1502 H   0  0  0  0  0 15  0  0  0  0  0  0
   41.3056   -2.1230    3.5810 H   0  0  0  0  0 15  0  0  0  0  0  0
   41.8386   -0.4649    3.9507 H   0  0  0  0  0 15  0  0  0  0  0  0
   38.5776    1.1984    6.4445 H   0  0  0  0  0 15  0  0  0  0  0  0
   38.0976   -0.4503    5.9811 H   0  0  0  0  0 15  0  0  0  0  0  0
   39.7766   -0.1109    6.4690 H   0  0  0  0  0 15  0  0  0  0  0  0
   39.9087   -1.5758    0.0251 N   0  0  0  0  0 15  0  0  0  0  0  0
   41.1337   -1.9634   -0.6683 C   0  0  0  0  0 15  0  0  0  0  0  0
   41.5587   -0.9013   -1.6510 C   0  0  0  0  0 15  0  0  0  0  0  0
   40.9167    0.1382   -1.8077 O   0  0  0  0  0 15  0  0  0  0  0  0
   40.9647   -3.3419   -1.3546 C   0  0  0  0  0 15  0  0  0  0  0  0
   40.0687   -3.3027   -2.4697 O   0  0  0  0  0 15  0  0  0  0  0  0
   39.4097   -0.6403   -0.1759 H   0  0  0  0  0 15  0  0  0  0  0  0
   41.9397   -2.0442    0.0857 H   0  0  0  0  0 15  0  0  0  0  0  0
   41.9497   -3.7033   -1.7123 H   0  0  0  0  0 15  0  0  0  0  0  0
   40.6247   -4.1104   -0.6342 H   0  0  0  0  0 15  0  0  0  0  0  0
   39.2017   -3.0584   -2.1334 H   0  0  0  0  0 15  0  0  0  0  0  0
   41.3868    0.2480   -1.5564 N   0  0  0  0  0 15  0  0  0  0  0  0
   42.3168    1.3108   -1.9324 C   0  0  0  0  0 15  0  0  0  0  0  0
   43.2978    1.5026   -0.7972 C   0  0  0  0  0 15  0  0  0  0  0  0
   44.4828    1.6289   -1.0574 O   0  0  0  0  0 15  0  0  0  0  0  0
   41.6128    2.6658   -2.2261 C   0  0  0  0  0 15  0  0  0  0  0  0
   40.5668    2.6209   -3.3837 C   0  0  0  0  0 15  0  0  0  0  0  0
   39.8928    4.0137   -3.5328 C   0  0  0  0  0 15  0  0  0  0  0  0
   41.1928    2.1917   -4.7409 C   0  0  0  0  0 15  0  0  0  0  0  0
   42.8868    0.9986   -2.8226 H   0  0  0  0  0 15  0  0  0  0  0  0
   40.4328    0.4789   -1.3580 H   0  0  0  0  0 15  0  0  0  0  0  0
   42.3858    3.4106   -2.4750 H   0  0  0  0  0 15  0  0  0  0  0  0
   41.1098    2.9943   -1.3041 H   0  0  0  0  0 15  0  0  0  0  0  0
   39.7688    1.9006   -3.1348 H   0  0  0  0  0 15  0  0  0  0  0  0
   39.4168    4.3149   -2.5851 H   0  0  0  0  0 15  0  0  0  0  0  0
   39.1168    3.9925   -4.3113 H   0  0  0  0  0 15  0  0  0  0  0  0
   40.6408    4.7755   -3.8049 H   0  0  0  0  0 15  0  0  0  0  0  0
   42.0548    2.8338   -4.9836 H   0  0  0  0  0 15  0  0  0  0  0  0
   40.4518    2.2817   -5.5503 H   0  0  0  0  0 15  0  0  0  0  0  0
   41.5218    1.1434   -4.7123 H   0  0  0  0  0 15  0  0  0  0  0  0
   42.8649    1.4899    0.5136 N   0  0  0  0  0 15  0  0  0  0  0  0
   44.1049    1.5945    1.2788 C   0  0  0  0  0 15  0  0  0  0  0  0
   44.4689    0.2695    1.9010 C   0  0  0  0  0 15  0  0  0  0  0  0
   45.6699    0.2491    2.6764 O   0  0  0  0  0 15  0  0  0  0  0  0
   43.9409    2.7128    2.3269 C   0  0  0  0  0 15  0  0  0  0  0  0
   45.4999    3.0160    3.1872 S   0  0  0  0  0 15  0  0  0  0  0  0
   42.3179    0.5626    0.4348 H   0  0  0  0  0 15  0  0  0  0  0  0
   44.9199    1.8660    0.5833 H   0  0  0  0  0 15  0  0  0  0  0  0
   43.6239    3.6609    1.8549 H   0  0  0  0  0 15  0  0  0  0  0  0
   43.1549    2.4609    3.0693 H   0  0  0  0  0 15  0  0  0  0  0  0
   45.1699    2.4216    4.3310 H   0  0  0  0  0 15  0  0  0  0  0  0
   44.3430   -0.7638    1.3786 N   0  0  0  0  0 15  0  0  0  0  0  0
   45.5710   -1.5529    1.3672 C   0  0  0  0  0 15  0  0  0  0  0  0
   45.9860   -1.8875   -0.0455 C   0  0  0  0  0 15  0  0  0  0  0  0
   45.3430   -1.5204   -1.0095 O   0  0  0  0  0 15  0  0  0  0  0  0
   45.3940   -2.8583    2.2132 C   0  0  0  0  0 15  0  0  0  0  0  0
   45.1150   -2.5381    3.5709 O   0  0  0  0  0 15  0  0  0  0  0  0
   46.6160   -3.8002    2.2825 C   0  0  0  0  0 15  0  0  0  0  0  0
   43.8360   -0.4808    0.4680 H   0  0  0  0  0 15  0  0  0  0  0  0
   46.3800   -0.9460    1.8130 H   0  0  0  0  0 15  0  0  0  0  0  0
   44.5350   -3.4293    1.8022 H   0  0  0  0  0 15  0  0  0  0  0  0
   44.9490   -3.3746    4.0152 H   0  0  0  0  0 15  0  0  0  0  0  0
   46.4230   -4.6860    2.9175 H   0  0  0  0  0 15  0  0  0  0  0  0
   46.9000   -4.1973    1.2932 H   0  0  0  0  0 15  0  0  0  0  0  0
   47.5060   -3.2886    2.6969 H   0  0  0  0  0 15  0  0  0  0  0  0
   45.8211   -1.2256   -0.9908 N   0  0  0  0  0 15  0  0  0  0  0  0
   47.2321   -1.0479   -1.5452 C   0  0  0  0  0 15  0  0  0  0  0  0
   47.5831    0.3880   -1.9233 C   0  0  0  0  0 15  0  0  0  0  0  0
   46.7081    1.2733   -1.7498 O   0  0  0  0  0 15  0  0  0  0  0  0
   47.3031   -1.8960   -2.8078 C   0  0  0  0  0 15  0  0  0  0  0  0
   45.8621   -1.7612   -3.3265 C   0  0  0  0  0 15  0  0  0  0  0  0
   45.0091   -1.8594   -2.0572 C   0  0  0  0  0 15  0  0  0  0  0  0
   47.9601   -1.3637   -0.8117 H   0  0  0  0  0 15  0  0  0  0  0  0
   47.9811   -1.4146   -3.5323 H   0  0  0  0  0 15  0  0  0  0  0  0
   47.4931   -2.9410   -2.5323 H   0  0  0  0  0 15  0  0  0  0  0  0
   45.5941   -0.7436   -3.6510 H   0  0  0  0  0 15  0  0  0  0  0  0
   45.7071   -2.5891   -4.0311 H   0  0  0  0  0 15  0  0  0  0  0  0
   44.0711   -1.2940   -2.1938 H   0  0  0  0  0 15  0  0  0  0  0  0
   44.8541   -2.9198   -1.8057 H   0  0  0  0  0 15  0  0  0  0  0  0
   47.2992    1.1880   -1.0356 N   0  0  0  0  0 15  0  0  0  0  0  0
   48.5472    1.8828   -0.7346 C   0  0  0  0  0 15  0  0  0  0  0  0
   48.8682    1.8043    0.7396 C   0  0  0  0  0 15  0  0  0  0  0  0
   48.1382    1.2192    1.5333 O   0  0  0  0  0 15  0  0  0  0  0  0
   46.7182    0.6970   -0.2687 H   0  0  0  0  0 15  0  0  0  0  0  0
   49.3802    1.4419   -1.3113 H   0  0  0  0  0 15  0  0  0  0  0  0
   48.4762    2.9444   -1.0349 H   0  0  0  0  0 15  0  0  0  0  0  0
   48.7773    0.8144    1.3493 N   0  0  0  0  0 15  0  0  0  0  0  0
   50.0173    0.4042    2.0036 C   0  0  0  0  0 15  0  0  0  0  0  0
   50.3813   -1.0117    1.6319 C   0  0  0  0  0 15  0  0  0  0  0  0
   51.5823   -1.5243    2.2140 O   0  0  0  0  0 15  0  0  0  0  0  0
   49.8533    0.5907    3.5248 C   0  0  0  0  0 15  0  0  0  0  0  0
   51.4123    0.2721    4.3796 S   0  0  0  0  0 15  0  0  0  0  0  0
   48.2303    0.1531    0.6943 H   0  0  0  0  0 15  0  0  0  0  0  0
   50.8323    1.0583    1.6438 H   0  0  0  0  0 15  0  0  0  0  0  0
   49.5363    1.6210    3.7703 H   0  0  0  0  0 15  0  0  0  0  0  0
   49.0673   -0.0785    3.9332 H   0  0  0  0  0 15  0  0  0  0  0  0
   51.0823   -0.9174    4.8765 H   0  0  0  0  0 15  0  0  0  0  0  0
   50.2554   -1.4699    0.5686 N   0  0  0  0  0 15  0  0  0  0  0  0
   51.2024   -2.3015   -0.1727 C   0  0  0  0  0 15  0  0  0  0  0  0
   52.1724   -1.3976   -0.8976 C   0  0  0  0  0 15  0  0  0  0  0  0
   53.3574   -1.6872   -0.8910 O   0  0  0  0  0 15  0  0  0  0  0  0
   50.4974   -3.2395   -1.1895 C   0  0  0  0  0 15  0  0  0  0  0  0
   49.6104   -4.2944   -0.4695 C   0  0  0  0  0 15  0  0  0  0  0  0
   48.7454   -5.1038   -1.4726 C   0  0  0  0  0 15  0  0  0  0  0  0
   47.7844   -6.0763   -0.7382 C   0  0  0  0  0 15  0  0  0  0  0  0
   46.9214   -6.8149   -1.6887 N   0  0  0  0  0 15  0  0  0  0  0  0
   51.7614   -2.9302    0.5426 H   0  0  0  0  0 15  0  0  0  0  0  0
   49.2984   -1.4442    0.2794 H   0  0  0  0  0 15  0  0  0  0  0  0
   51.2564   -3.7677   -1.7917 H   0  0  0  0  0 15  0  0  0  0  0  0
   49.8864   -2.6293   -1.8727 H   0  0  0  0  0 15  0  0  0  0  0  0
   48.9384   -3.7959    0.2475 H   0  0  0  0  0 15  0  0  0  0  0  0
   50.2504   -4.9869    0.1052 H   0  0  0  0  0 15  0  0  0  0  0  0
   49.4044   -5.6740   -2.1480 H   0  0  0  0  0 15  0  0  0  0  0  0
   48.1434   -4.4106   -2.0813 H   0  0  0  0  0 15  0  0  0  0  0  0
   47.1484   -5.4978   -0.0489 H   0  0  0  0  0 15  0  0  0  0  0  0
   48.3734   -6.7897   -0.1351 H   0  0  0  0  0 15  0  0  0  0  0  0
   46.3194   -6.1489   -2.2857 H   0  0  0  0  0 15  0  0  0  0  0  0
   46.2364   -7.4695   -1.1664 H   0  0  0  0  0 15  0  0  0  0  0  0
   47.5044   -7.4308   -2.3549 H   0  0  0  0  0 15  0  0  0  0  0  0
   51.7335   -0.3056   -1.5461 N   0  0  0  0  0 15  0  0  0  0  0  0
   52.9615    0.3048   -2.0464 C   0  0  0  0  0 15  0  0  0  0  0  0
   53.3765    1.4717   -1.1827 C   0  0  0  0  0 15  0  0  0  0  0  0
   52.7335    1.8130   -0.2093 O   0  0  0  0  0 15  0  0  0  0  0  0
   52.7845    0.7566   -3.5349 C   0  0  0  0  0 15  0  0  0  0  0  0
   52.5055   -0.3639   -4.3659 O   0  0  0  0  0 15  0  0  0  0  0  0
   54.0065    1.4316   -4.1955 C   0  0  0  0  0 15  0  0  0  0  0  0
   51.2265    0.0655   -0.6678 H   0  0  0  0  0 15  0  0  0  0  0  0
   53.7705   -0.4466   -1.9956 H   0  0  0  0  0 15  0  0  0  0  0  0
   51.9255    1.4579   -3.5892 H   0  0  0  0  0 15  0  0  0  0  0  0
   52.3395   -0.0113   -5.2450 H   0  0  0  0  0 15  0  0  0  0  0  0
   53.8135    1.6989   -5.2521 H   0  0  0  0  0 15  0  0  0  0  0  0
   54.2905    2.3732   -3.6956 H   0  0  0  0  0 15  0  0  0  0  0  0
   54.8965    0.7733   -4.1821 H   0  0  0  0  0 15  0  0  0  0  0  0
   53.2116    1.5756   -0.0334 N   0  0  0  0  0 15  0  0  0  0  0  0
   54.4596    1.9160    0.6430 C   0  0  0  0  0 15  0  0  0  0  0  0
   54.7806    0.9108    1.7242 C   0  0  0  0  0 15  0  0  0  0  0  0
   54.0506   -0.0470    1.9584 O   0  0  0  0  0 15  0  0  0  0  0  0
   52.6306    0.7072    0.2405 H   0  0  0  0  0 15  0  0  0  0  0  0
   55.2926    1.9473   -0.0822 H   0  0  0  0  0 15  0  0  0  0  0  0
   54.3886    2.9234    1.0930 H   0  0  0  0  0 15  0  0  0  0  0  0
   54.6897   -0.2398    1.5577 N   0  0  0  0  0 15  0  0  0  0  0  0
   55.6527   -1.2804    1.9010 C   0  0  0  0  0 15  0  0  0  0  0  0
   56.6527   -1.4072    0.7781 C   0  0  0  0  0 15  0  0  0  0  0  0
   57.8427   -1.3930    1.0460 O   0  0  0  0  0 15  0  0  0  0  0  0
   54.9747   -2.6570    2.1358 C   0  0  0  0  0 15  0  0  0  0  0  0
   56.1677   -0.9880    2.8316 H   0  0  0  0  0 15  0  0  0  0  0  0
   53.7207   -0.4794    1.4877 H   0  0  0  0  0 15  0  0  0  0  0  0
   54.4557   -3.0006    1.2301 H   0  0  0  0  0 15  0  0  0  0  0  0
   54.2407   -2.5788    2.9537 H   0  0  0  0  0 15  0  0  0  0  0  0
   55.7307   -3.4083    2.4130 H   0  0  0  0  0 15  0  0  0  0  0  0
   56.1678   -1.4927   -0.5057 N   0  0  0  0  0 15  0  0  0  0  0  0
   57.0978   -1.6850   -1.6165 C   0  0  0  0  0 15  0  0  0  0  0  0
   58.0788   -0.5337   -1.6151 C   0  0  0  0  0 15  0  0  0  0  0  0
   59.2638   -0.7690   -1.7833 O   0  0  0  0  0 15  0  0  0  0  0  0
   56.3938   -1.7471   -3.0016 C   0  0  0  0  0 15  0  0  0  0  0  0
   55.3478   -2.8958   -3.1516 C   0  0  0  0  0 15  0  0  0  0  0  0
   54.6738   -2.8090   -4.5497 C   0  0  0  0  0 15  0  0  0  0  0  0
   55.9738   -4.3058   -2.9563 C   0  0  0  0  0 15  0  0  0  0  0  0
   57.6678   -2.6149   -1.4581 H   0  0  0  0  0 15  0  0  0  0  0  0
   55.2138   -1.2584   -0.7001 H   0  0  0  0  0 15  0  0  0  0  0  0
   57.1668   -1.8675   -3.7776 H   0  0  0  0  0 15  0  0  0  0  0  0
   55.8908   -0.7831   -3.1707 H   0  0  0  0  0 15  0  0  0  0  0  0
   54.5498   -2.7714   -2.3998 H   0  0  0  0  0 15  0  0  0  0  0  0
   54.1978   -1.8242   -4.6876 H   0  0  0  0  0 15  0  0  0  0  0  0
   53.8978   -3.5800   -4.6595 H   0  0  0  0  0 15  0  0  0  0  0  0
   55.4218   -2.9494   -5.3464 H   0  0  0  0  0 15  0  0  0  0  0  0
   56.8358   -4.4373   -3.6301 H   0  0  0  0  0 15  0  0  0  0  0  0
   55.2328   -5.0886   -3.1809 H   0  0  0  0  0 15  0  0  0  0  0  0
   56.3028   -4.4535   -1.9181 H   0  0  0  0  0 15  0  0  0  0  0  0
   57.6459    0.7564   -1.3826 N   0  0  0  0  0 15  0  0  0  0  0  0
   58.5789    1.8780   -1.2964 C   0  0  0  0  0 15  0  0  0  0  0  0
   59.5569    1.6167   -0.1739 C   0  0  0  0  0 15  0  0  0  0  0  0
   60.7409    1.8521   -0.3508 O   0  0  0  0  0 15  0  0  0  0  0  0
   57.8679    3.2335   -1.0080 C   0  0  0  0  0 15  0  0  0  0  0  0
   56.9139    3.6838   -2.1494 C   0  0  0  0  0 15  0  0  0  0  0  0
   57.7469    3.8025   -3.7705 S   0  0  0  0  0 15  0  0  0  0  0  0
   58.9029    5.1863   -3.5040 C   0  0  0  0  0 15  0  0  0  0  0  0
   59.1359    1.9483   -2.2456 H   0  0  0  0  0 15  0  0  0  0  0  0
   56.6689    0.9191   -1.2406 H   0  0  0  0  0 15  0  0  0  0  0  0
   58.6269    4.0164   -0.8484 H   0  0  0  0  0 15  0  0  0  0  0  0
   57.2879    3.1401   -0.0759 H   0  0  0  0  0 15  0  0  0  0  0  0
   56.4809    4.6669   -1.9030 H   0  0  0  0  0 15  0  0  0  0  0  0
   56.0829    2.9724   -2.2699 H   0  0  0  0  0 15  0  0  0  0  0  0
   58.3749    6.0429   -3.0633 H   0  0  0  0  0 15  0  0  0  0  0  0
   59.3179    5.4829   -4.4809 H   0  0  0  0  0 15  0  0  0  0  0  0
   59.7259    4.8729   -2.8497 H   0  0  0  0  0 15  0  0  0  0  0  0
   59.1240    1.2308    0.9843 N   0  0  0  0  0 15  0  0  0  0  0  0
   60.3720    1.0585    1.7216 C   0  0  0  0  0 15  0  0  0  0  0  0
   60.6930   -0.4060    1.9073 C   0  0  0  0  0 15  0  0  0  0  0  0
   59.9630   -1.2914    1.4731 O   0  0  0  0  0 15  0  0  0  0  0  0
   58.5430    0.3887    0.6379 H   0  0  0  0  0 15  0  0  0  0  0  0
   61.2050    1.5474    1.1850 H   0  0  0  0  0 15  0  0  0  0  0  0
   60.3010    1.5433    2.7127 H   0  0  0  0  0 15  0  0  0  0  0  0
   60.6021   -1.1825    1.0419 N   0  0  0  0  0 15  0  0  0  0  0  0
   61.8421   -1.8995    0.7549 C   0  0  0  0  0 15  0  0  0  0  0  0
   62.2061   -1.7861   -0.7045 C   0  0  0  0  0 15  0  0  0  0  0  0
   63.4071   -2.4503   -1.1052 O   0  0  0  0  0 15  0  0  0  0  0  0
   61.6781   -3.3631    1.2097 C   0  0  0  0  0 15  0  0  0  0  0  0
   63.2371   -4.2609    1.0485 S   0  0  0  0  0 15  0  0  0  0  0  0
   60.0551   -0.6559    0.2744 H   0  0  0  0  0 15  0  0  0  0  0  0
   62.6571   -1.4287    1.3344 H   0  0  0  0  0 15  0  0  0  0  0  0
   61.3611   -3.4209    2.2672 H   0  0  0  0  0 15  0  0  0  0  0  0
   60.8921   -3.8842    0.6240 H   0  0  0  0  0 15  0  0  0  0  0  0
   62.9071   -4.9619   -0.0333 H   0  0  0  0  0 15  0  0  0  0  0  0
   62.0802   -0.8215   -1.3449 N   0  0  0  0  0 15  0  0  0  0  0  0
   63.0282   -0.2307   -2.3145 C   0  0  0  0  0 15  0  0  0  0  0  0
   64.0222    0.6278   -1.5734 C   0  0  0  0  0 15  0  0  0  0  0  0
   65.2282    0.5193   -1.7235 O   0  0  0  0  0 15  0  0  0  0  0  0
   61.6032   -0.0559   -0.7499 H   0  0  0  0  0 15  0  0  0  0  0  0
   63.5742   -1.0633   -2.7881 H   0  0  0  0  0 15  0  0  0  0  0  0
   62.3232    0.5939   -3.4259 C   0  0  0  0  0 15  0  0  0  0  0  0
   61.6462   -0.0574   -3.9976 H   0  0  0  0  0 15  0  0  0  0  0  0
   63.0862    0.9734   -4.1267 H   0  0  0  0  0 15  0  0  0  0  0  0
   61.5452    1.7657   -2.8692 C   0  0  0  0  0 15  0  0  0  0  0  0
   62.0752    2.8638   -2.8169 O   0  0  0  0  0 15  0  0  0  0  0  0
   60.2812    1.5820   -2.4377 N   0  0  0  0  0 15  0  0  0  0  0  0
   59.8282    0.6887   -2.4822 H   0  0  0  0  0 15  0  0  0  0  0  0
   59.7862    2.3675   -2.0687 H   0  0  0  0  0 15  0  0  0  0  0  0
   63.5583    1.4668   -0.5764 N   0  0  0  0  0 15  0  0  0  0  0  0
   64.4913    2.2724    0.2087 C   0  0  0  0  0 15  0  0  0  0  0  0
   65.4693    1.3524    0.9027 C   0  0  0  0  0 15  0  0  0  0  0  0
   66.6533    1.6464    0.9179 O   0  0  0  0  0 15  0  0  0  0  0  0
   63.7803    3.1280    1.2990 C   0  0  0  0  0 15  0  0  0  0  0  0
   62.8263    4.2052    0.7115 C   0  0  0  0  0 15  0  0  0  0  0  0
   63.6593    5.3355   -0.4568 S   0  0  0  0  0 15  0  0  0  0  0  0
   64.8153    6.2267    0.6348 C   0  0  0  0  0 15  0  0  0  0  0  0
   65.0483    2.9348   -0.4748 H   0  0  0  0  0 15  0  0  0  0  0  0
   62.5813    1.5007   -0.3631 H   0  0  0  0  0 15  0  0  0  0  0  0
   64.5393    3.6266    1.9232 H   0  0  0  0  0 15  0  0  0  0  0  0
   63.2003    2.4589    1.9544 H   0  0  0  0  0 15  0  0  0  0  0  0
   62.3933    4.8019    1.5308 H   0  0  0  0  0 15  0  0  0  0  0  0
   61.9953    3.7364    0.1630 H   0  0  0  0  0 15  0  0  0  0  0  0
   64.2873    6.6018    1.5221 H   0  0  0  0  0 15  0  0  0  0  0  0
   65.2303    7.0806    0.0750 H   0  0  0  0  0 15  0  0  0  0  0  0
   65.6383    5.5668    0.9361 H   0  0  0  0  0 15  0  0  0  0  0  0
   65.0364    0.3138    1.5444 N   0  0  0  0  0 15  0  0  0  0  0  0
   65.9834   -0.5566    2.2399 C   0  0  0  0  0 15  0  0  0  0  0  0
   66.9534   -1.1194    1.2271 C   0  0  0  0  0 15  0  0  0  0  0  0
   68.1384   -1.1616    1.5137 O   0  0  0  0  0 15  0  0  0  0  0  0
   65.2784   -1.7164    2.9939 C   0  0  0  0  0 15  0  0  0  0  0  0
   64.3914   -1.1836    4.1547 C   0  0  0  0  0 15  0  0  0  0  0  0
   63.5264   -2.3083    4.7842 C   0  0  0  0  0 15  0  0  0  0  0  0
   62.5654   -1.7476    5.8662 C   0  0  0  0  0 15  0  0  0  0  0  0
   61.7024   -2.8085    6.4348 N   0  0  0  0  0 15  0  0  0  0  0  0
   66.5424    0.0431    2.9797 H   0  0  0  0  0 15  0  0  0  0  0  0
   64.0794    0.0330    1.4706 H   0  0  0  0  0 15  0  0  0  0  0  0
   66.0374   -2.3987    3.4135 H   0  0  0  0  0 15  0  0  0  0  0  0
   64.6674   -2.2874    2.2776 H   0  0  0  0  0 15  0  0  0  0  0  0
   63.7194   -0.3932    3.7836 H   0  0  0  0  0 15  0  0  0  0  0  0
   65.0314   -0.7333    4.9338 H   0  0  0  0  0 15  0  0  0  0  0  0
   64.1854   -3.0699    5.2330 H   0  0  0  0  0 15  0  0  0  0  0  0
   62.9244   -2.7920    3.9987 H   0  0  0  0  0 15  0  0  0  0  0  0
   61.9294   -0.9710    5.4116 H   0  0  0  0  0 15  0  0  0  0  0  0
   63.1544   -1.2728    6.6707 H   0  0  0  0  0 15  0  0  0  0  0  0
   61.1004   -3.2853    5.6780 H   0  0  0  0  0 15  0  0  0  0  0  0
   61.0174   -2.4035    7.1678 H   0  0  0  0  0 15  0  0  0  0  0  0
   62.2854   -3.5687    6.9301 H   0  0  0  0  0 15  0  0  0  0  0  0
   66.5145   -1.5754    0.0418 N   0  0  0  0  0 15  0  0  0  0  0  0
   67.7425   -1.9662   -0.6439 C   0  0  0  0  0 15  0  0  0  0  0  0
   68.1575   -0.9189   -1.6493 C   0  0  0  0  0 15  0  0  0  0  0  0
   67.5145    0.0979   -1.8224 O   0  0  0  0  0 15  0  0  0  0  0  0
   67.5655   -3.3578   -1.3391 C   0  0  0  0  0 15  0  0  0  0  0  0
   67.2865   -4.3650   -0.3740 O   0  0  0  0  0 15  0  0  0  0  0  0
   68.7875   -3.8957   -2.1155 C   0  0  0  0  0 15  0  0  0  0  0  0
   66.0075   -0.6473   -0.1767 H   0  0  0  0  0 15  0  0  0  0  0  0
   68.5515   -2.0423    0.1053 H   0  0  0  0  0 15  0  0  0  0  0  0
   66.7065   -3.2936   -2.0397 H   0  0  0  0  0 15  0  0  0  0  0  0
   67.1205   -5.1725   -0.8692 H   0  0  0  0  0 15  0  0  0  0  0  0
   68.5945   -4.8924   -2.5563 H   0  0  0  0  0 15  0  0  0  0  0  0
   69.0715   -3.2449   -2.9598 H   0  0  0  0  0 15  0  0  0  0  0  0
   69.6775   -3.9930   -1.4643 H   0  0  0  0  0 15  0  0  0  0  0  0
   67.9926    0.2315   -1.5589 N   0  0  0  0  0 15  0  0  0  0  0  0
   68.9556    1.2703   -1.9078 C   0  0  0  0  0 15  0  0  0  0  0  0
   69.9556    1.4031   -0.7855 C   0  0  0  0  0 15  0  0  0  0  0  0
   71.1456    1.3874   -1.0534 O   0  0  0  0  0 15  0  0  0  0  0  0
   68.2776    2.6457   -2.1498 C   0  0  0  0  0 15  0  0  0  0  0  0
   69.4706    0.9730   -2.8368 H   0  0  0  0  0 15  0  0  0  0  0  0
   67.0236    0.4715   -1.4902 H   0  0  0  0  0 15  0  0  0  0  0  0
   67.7586    2.9941   -1.2460 H   0  0  0  0  0 15  0  0  0  0  0  0
   67.5436    2.5631   -2.9673 H   0  0  0  0  0 15  0  0  0  0  0  0
   69.0336    3.3954   -2.4311 H   0  0  0  0  0 15  0  0  0  0  0  0
   69.4707    1.4953    0.4978 N   0  0  0  0  0 15  0  0  0  0  0  0
   70.6987    1.6289    1.2757 C   0  0  0  0  0 15  0  0  0  0  0  0
   71.1137    0.3016    1.8638 C   0  0  0  0  0 15  0  0  0  0  0  0
   70.4707   -0.7133    1.6798 O   0  0  0  0  0 15  0  0  0  0  0  0
   70.5217    2.7001    2.4036 C   0  0  0  0  0 15  0  0  0  0  0  0
   70.2427    3.9760    1.8397 O   0  0  0  0  0 15  0  0  0  0  0  0
   71.7437    2.9411    3.3168 C   0  0  0  0  0 15  0  0  0  0  0  0
   68.9637    0.5483    0.3868 H   0  0  0  0  0 15  0  0  0  0  0  0
   71.5077    1.9558    0.5972 H   0  0  0  0  0 15  0  0  0  0  0  0
   69.6627    2.4009    3.0403 H   0  0  0  0  0 15  0  0  0  0  0  0
   70.0767    4.5663    2.5805 H   0  0  0  0  0 15  0  0  0  0  0  0
   71.5507    3.7279    4.0710 H   0  0  0  0  0 15  0  0  0  0  0  0
   72.0277    2.0415    3.8887 H   0  0  0  0  0 15  0  0  0  0  0  0
   72.6337    3.2546    2.7378 H   0  0  0  0  0 15  0  0  0  0  0  0
   70.9488   -0.7491    1.3866 N   0  0  0  0  0 15  0  0  0  0  0  0
   72.1888   -1.5211    1.3653 C   0  0  0  0  0 15  0  0  0  0  0  0
   72.5528   -1.9195   -0.0432 C   0  0  0  0  0 15  0  0  0  0  0  0
   73.7538   -2.6813   -0.1894 O   0  0  0  0  0 15  0  0  0  0  0  0
   72.0248   -2.7370    2.2983 C   0  0  0  0  0 15  0  0  0  0  0  0
   73.5838   -3.6352    2.4576 S   0  0  0  0  0 15  0  0  0  0  0  0
   70.4018   -0.5205    0.4844 H   0  0  0  0  0 15  0  0  0  0  0  0
   73.0038   -0.8790    1.7463 H   0  0  0  0  0 15  0  0  0  0  0  0
   71.7078   -2.4255    3.3105 H   0  0  0  0  0 15  0  0  0  0  0  0
   71.2388   -3.4286    1.9290 H   0  0  0  0  0 15  0  0  0  0  0  0
   73.2538   -4.6671    1.6850 H   0  0  0  0  0 15  0  0  0  0  0  0
   72.4269   -1.2360   -0.9778 N   0  0  0  0  0 15  0  0  0  0  0  0
   73.3749   -1.0170   -2.0919 C   0  0  0  0  0 15  0  0  0  0  0  0
   74.3689    0.0448   -1.6934 C   0  0  0  0  0 15  0  0  0  0  0  0
   75.5749   -0.1089   -1.7967 O   0  0  0  0  0 15  0  0  0  0  0  0
   71.9499   -0.3118   -0.6843 H   0  0  0  0  0 15  0  0  0  0  0  0
   73.9209   -1.9621   -2.2482 H   0  0  0  0  0 15  0  0  0  0  0  0
   72.6699   -0.6277   -3.4199 C   0  0  0  0  0 15  0  0  0  0  0  0
   71.9929   -1.4366   -3.7310 H   0  0  0  0  0 15  0  0  0  0  0  0
   73.4329   -0.5141   -4.2087 H   0  0  0  0  0 15  0  0  0  0  0  0
   71.8919    0.6642   -3.3029 C   0  0  0  0  0 15  0  0  0  0  0  0
   72.4219    1.7127   -3.6336 O   0  0  0  0  0 15  0  0  0  0  0  0
   70.6279    0.6412   -2.8344 N   0  0  0  0  0 15  0  0  0  0  0  0
   70.1749   -0.2124   -2.5672 H   0  0  0  0  0 15  0  0  0  0  0  0
   70.1329    1.5058   -2.7599 H   0  0  0  0  0 15  0  0  0  0  0  0
   73.9050    1.1769   -1.0482 N   0  0  0  0  0 15  0  0  0  0  0  0
   75.1450    1.8955   -0.7650 C   0  0  0  0  0 15  0  0  0  0  0  0
   75.5090    1.7898    0.6950 C   0  0  0  0  0 15  0  0  0  0  0  0
   76.7100    2.4561    1.0921 O   0  0  0  0  0 15  0  0  0  0  0  0
   74.9810    3.3566   -1.2275 C   0  0  0  0  0 15  0  0  0  0  0  0
   76.5400    4.2553   -1.0711 S   0  0  0  0  0 15  0  0  0  0  0  0
   73.3580    0.6544   -0.2779 H   0  0  0  0  0 15  0  0  0  0  0  0
   75.9600    1.4216   -1.3420 H   0  0  0  0  0 15  0  0  0  0  0  0
   74.6640    3.4088   -2.2853 H   0  0  0  0  0 15  0  0  0  0  0  0
   74.1950    3.8808   -0.6446 H   0  0  0  0  0 15  0  0  0  0  0  0
   76.2100    4.9620    0.0070 H   0  0  0  0  0 15  0  0  0  0  0  0
   75.3831    0.8287    1.3406 N   0  0  0  0  0 15  0  0  0  0  0  0
   76.6081    0.4316    2.0286 C   0  0  0  0  0 15  0  0  0  0  0  0
   77.0331   -0.9563    1.6197 C   0  0  0  0  0 15  0  0  0  0  0  0
   76.3911   -1.6234    0.8072 O   0  0  0  0  0 15  0  0  0  0  0  0
   76.4391    0.5483    3.5641 C   0  0  0  0  0 15  0  0  0  0  0  0
   75.5431   -0.4296    4.1016 O   0  0  0  0  0 15  0  0  0  0  0  0
   74.8841    0.1769    0.6400 H   0  0  0  0  0 15  0  0  0  0  0  0
   77.4141    1.1207    1.7118 H   0  0  0  0  0 15  0  0  0  0  0  0
   77.4241    0.4262    4.0577 H   0  0  0  0  0 15  0  0  0  0  0  0
   76.0991    1.5606    3.8551 H   0  0  0  0  0 15  0  0  0  0  0  0
   74.6761   -0.2658    3.7195 H   0  0  0  0  0 15  0  0  0  0  0  0
   76.8612   -1.4637    0.5841 N   0  0  0  0  0 15  0  0  0  0  0  0
   78.1102   -2.0159    0.0680 C   0  0  0  0  0 15  0  0  0  0  0  0
   78.4232   -1.4611   -1.3004 C   0  0  0  0  0 15  0  0  0  0  0  0
   79.6292   -1.9315   -1.9080 O   0  0  0  0  0 15  0  0  0  0  0  0
   78.0852   -3.5983    0.0709 C   0  0  0  0  0 15  0  0  0  0  0  0
   77.6932   -4.2430    1.4377 C   0  0  0  0  0 15  0  0  0  0  0  0
   79.4372   -4.2269   -0.3912 C   0  0  0  0  0 15  0  0  0  0  0  0
   77.3442   -5.7463    1.3983 C   0  0  0  0  0 15  0  0  0  0  0  0
   76.2742   -0.7537    0.0216 H   0  0  0  0  0 15  0  0  0  0  0  0
   78.9252   -1.6809    0.7360 H   0  0  0  0  0 15  0  0  0  0  0  0
   77.3072   -3.9041   -0.6633 H   0  0  0  0  0 15  0  0  0  0  0  0
   78.4812   -4.0533    2.1918 H   0  0  0  0  0 15  0  0  0  0  0  0
   76.7962   -3.7354    1.8400 H   0  0  0  0  0 15  0  0  0  0  0  0
   79.3932   -5.3289   -0.4395 H   0  0  0  0  0 15  0  0  0  0  0  0
   79.7362   -3.9173   -1.4091 H   0  0  0  0  0 15  0  0  0  0  0  0
   80.2692   -3.9675    0.2890 H   0  0  0  0  0 15  0  0  0  0  0  0
   77.0082   -6.1026    2.3930 H   0  0  0  0  0 15  0  0  0  0  0  0
   76.5282   -5.9586    0.6865 H   0  0  0  0  0 15  0  0  0  0  0  0
   78.2072   -6.3737    1.1119 H   0  0  0  0  0 15  0  0  0  0  0  0
   78.3393   -0.3220   -1.5428 N   0  0  0  0  0 15  0  0  0  0  0  0
   79.2893    0.5602   -2.2101 C   0  0  0  0  0 15  0  0  0  0  0  0
   80.2733    1.0828   -1.1901 C   0  0  0  0  0 15  0  0  0  0  0  0
   81.4653    1.0201   -1.4465 O   0  0  0  0  0 15  0  0  0  0  0  0
   78.5943    1.7214   -2.9702 C   0  0  0  0  0 15  0  0  0  0  0  0
   77.6803    1.2137   -4.0636 C   0  0  0  0  0 15  0  0  0  0  0  0
   78.0713    0.4256   -5.0401 N   0  0  0  0  0 15  0  0  0  0  0  0
   76.3693    1.4926   -4.2028 C   0  0  0  0  0 15  0  0  0  0  0  0
   77.0703    0.1526   -5.8150 C   0  0  0  0  0 15  0  0  0  0  0  0
   76.0463    0.7383   -5.3856 N   0  0  0  0  0 15  0  0  0  0  0  0
   79.8483   -0.0493   -2.9386 H   0  0  0  0  0 15  0  0  0  0  0  0
   77.3623   -0.1278   -1.6190 H   0  0  0  0  0 15  0  0  0  0  0  0
   79.3593    2.3651   -3.4332 H   0  0  0  0  0 15  0  0  0  0  0  0
   78.0193    2.3343   -2.2570 H   0  0  0  0  0 15  0  0  0  0  0  0
   79.0303    0.0686   -5.1785 H   0  0  0  0  0 15  0  0  0  0  0  0
   75.7073    2.1115   -3.6017 H   0  0  0  0  0 15  0  0  0  0  0  0
   77.0973   -0.4818   -6.7017 H   0  0  0  0  0 15  0  0  0  0  0  0
   79.8174    1.5752   -0.0501 N   0  0  0  0  0 15  0  0  0  0  0  0
   81.0634    1.9294    0.6248 C   0  0  0  0  0 15  0  0  0  0  0  0
   81.3964    0.9287    1.7056 C   0  0  0  0  0 15  0  0  0  0  0  0
   80.6714   -0.0455    1.9445 O   0  0  0  0  0 15  0  0  0  0  0  0
   80.9544    3.3874    1.2218 C   0  0  0  0  0 15  0  0  0  0  0  0
   80.8074    4.4955    0.1492 C   0  0  0  0  0 15  0  0  0  0  0  0
   82.1264    3.8491    2.1338 C   0  0  0  0  0 15  0  0  0  0  0  0
   79.2454    0.7016    0.2257 H   0  0  0  0  0 15  0  0  0  0  0  0
   81.8874    1.8967   -0.1117 H   0  0  0  0  0 15  0  0  0  0  0  0
   80.0374    3.4165    1.8495 H   0  0  0  0  0 15  0  0  0  0  0  0
   81.7094    4.5877   -0.4826 H   0  0  0  0  0 15  0  0  0  0  0  0
   79.9524    4.3064   -0.5228 H   0  0  0  0  0 15  0  0  0  0  0  0
   80.6234    5.4865    0.6070 H   0  0  0  0  0 15  0  0  0  0  0  0
   83.0994    3.8387    1.6057 H   0  0  0  0  0 15  0  0  0  0  0  0
   81.9754    4.8758    2.5210 H   0  0  0  0  0 15  0  0  0  0  0  0
   82.2364    3.2161    3.0335 H   0  0  0  0  0 15  0  0  0  0  0  0
   81.2955   -0.2232    1.5601 N   0  0  0  0  0 15  0  0  0  0  0  0
   82.5205   -0.9690    1.8337 C   0  0  0  0  0 15  0  0  0  0  0  0
   82.9455   -1.7723    0.6303 C   0  0  0  0  0 15  0  0  0  0  0  0
   82.3035   -1.7635   -0.4210 O   0  0  0  0  0 15  0  0  0  0  0  0
   82.3515   -1.8636    3.0871 C   0  0  0  0  0 15  0  0  0  0  0  0
   81.4555   -2.9587    2.8729 O   0  0  0  0  0 15  0  0  0  0  0  0
   80.7965   -0.2745    0.6046 H   0  0  0  0  0 15  0  0  0  0  0  0
   83.3265   -0.2371    2.0322 H   0  0  0  0  0 15  0  0  0  0  0  0
   83.3365   -2.2738    3.3877 H   0  0  0  0  0 15  0  0  0  0  0  0
   82.0115   -1.2732    3.9593 H   0  0  0  0  0 15  0  0  0  0  0  0
   80.5885   -2.5882    2.6845 H   0  0  0  0  0 15  0  0  0  0  0  0
   82.7736   -1.4979   -0.4899 N   0  0  0  0  0 15  0  0  0  0  0  0
   83.7206   -1.6728   -1.5901 C   0  0  0  0  0 15  0  0  0  0  0  0
   84.6906   -0.5142   -1.5794 C   0  0  0  0  0 15  0  0  0  0  0  0
   85.8756   -0.7425   -1.7576 O   0  0  0  0  0 15  0  0  0  0  0  0
   83.0156   -1.7557   -2.9710 C   0  0  0  0  0 15  0  0  0  0  0  0
   82.1286   -3.0281   -3.0811 C   0  0  0  0  0 15  0  0  0  0  0  0
   81.2636   -3.0201   -4.3700 C   0  0  0  0  0 15  0  0  0  0  0  0
   80.3026   -4.2378   -4.4167 C   0  0  0  0  0 15  0  0  0  0  0  0
   79.4396   -4.2083   -5.6201 N   0  0  0  0  0 15  0  0  0  0  0  0
   84.2796   -2.6122   -1.4341 H   0  0  0  0  0 15  0  0  0  0  0  0
   81.8166   -1.2951   -0.6976 H   0  0  0  0  0 15  0  0  0  0  0  0
   83.7746   -1.7835   -3.7715 H   0  0  0  0  0 15  0  0  0  0  0  0
   82.4046   -0.8508   -3.1139 H   0  0  0  0  0 15  0  0  0  0  0  0
   81.4566   -3.0958   -2.2105 H   0  0  0  0  0 15  0  0  0  0  0  0
   82.7686   -3.9280   -3.0742 H   0  0  0  0  0 15  0  0  0  0  0  0
   81.9226   -3.0342   -5.2538 H   0  0  0  0  0 15  0  0  0  0  0  0
   80.6616   -2.0981   -4.4026 H   0  0  0  0  0 15  0  0  0  0  0  0
   79.6666   -4.2260   -3.5169 H   0  0  0  0  0 15  0  0  0  0  0  0
   80.8916   -5.1718   -4.4011 H   0  0  0  0  0 15  0  0  0  0  0  0
   78.8376   -3.3148   -5.6609 H   0  0  0  0  0 15  0  0  0  0  0  0
   78.7546   -5.0456   -5.6298 H   0  0  0  0  0 15  0  0  0  0  0  0
   80.0226   -4.2636   -6.5257 H   0  0  0  0  0 15  0  0  0  0  0  0
   84.2906    0.6353   -1.4848 O   0  0  0  0  0 15  0  0  0  0  0  0
   84.9816    1.2892   -1.4456 H   0  0  0  0  0 15  0  0  0  0  0  0
M  END
$$$$
