drugbank_target|P28838 Cytosol aminopeptidase (DB02386; DB07448; DB08766)
 OpenBabel12092120433D

  0  0  0     0  0            999 V3000
M  V30 BEGIN CTAB
M  V30 COUNTS 7918 7993 0 0 0
M  V30 BEGIN ATOM
M  V30 1 H -0.908 1.98254 -0.117106 0
M  V30 2 N 0 1.576 0 0
M  V30 3 C 0.933 2.03868 1.02534 0
M  V30 4 C 1.911 0.928543 1.3348 0
M  V30 5 O 3.095 1.19667 1.45644 0
M  V30 6 C 0.222 2.43627 2.35294 0
M  V30 7 C -0.732 3.65373 2.2001 0
M  V30 8 S 0.101 5.13292 1.52614 0
M  V30 9 C 1.257 5.56322 2.86805 0
M  V30 10 H 1.49 2.90518 0.631377 0
M  V30 11 H -0.977 1.52953 0.210867 0
M  V30 12 H 0.981 2.67203 3.11629 0
M  V30 13 H -0.358 1.57376 2.7183 0
M  V30 14 H -1.165 3.90944 3.18086 0
M  V30 15 H -1.563 3.418 1.51819 0
M  V30 16 H 0.729 5.58782 3.83104 0
M  V30 17 H 1.672 6.56266 2.65933 0
M  V30 18 H 2.08 4.83886 2.90714 0
M  V30 19 N 1.4781 -0.272755 1.55222 0
M  V30 20 C 2.7251 -1.00433 1.7584 0
M  V30 21 C 3.0531 -1.86275 0.559629 0
M  V30 22 O 2.3081 -1.90269 -0.457857 0
M  V30 23 C 2.6071 -1.91642 3.01675 0
M  V30 24 C 2.2731 -1.21548 4.34208 0
M  V30 25 C 0.9351 -1.02166 4.70229 0
M  V30 26 C 3.2871 -0.716684 5.16249 0
M  V30 27 C 0.6151 -0.316334 5.85847 0
M  V30 28 C 2.9671 -0.0249476 6.32595 0
M  V30 29 C 1.6311 0.180579 6.67256 0
M  V30 30 H 0.9011 -0.367509 0.643443 0
M  V30 31 H 3.5481 -0.276596 1.89492 0
M  V30 32 H 1.8531 -2.71037 2.82924 0
M  V30 33 H 3.5501 -2.48369 3.14824 0
M  V30 34 H 0.1401 -1.37645 4.05896 0
M  V30 35 H 4.3241 -0.854047 4.88896 0
M  V30 36 H -0.4199 -0.146378 6.11225 0
M  V30 37 H 3.7541 0.369311 6.9542 0
M  V30 38 H 1.3811 0.729098 7.56696 0
M  V30 39 N 2.9562 -1.48159 -0.537278 0
M  V30 40 C 3.8862 -1.65029 -1.6519 0
M  V30 41 C 4.8672 -0.499281 -1.62607 0
M  V30 42 O 6.0522 -0.730972 -1.79918 0
M  V30 43 C 3.1822 -1.68303 -3.03795 0
M  V30 44 C 2.1362 -2.8283 -3.21234 0
M  V30 45 C 1.4622 -2.71189 -4.60826 0
M  V30 46 C 2.7622 -4.24211 -3.04701 0
M  V30 47 H 4.4562 -2.58341 -1.51328 0
M  V30 48 H 2.0022 -1.24325 -0.726585 0
M  V30 49 H 3.9552 -1.78693 -3.81637 0
M  V30 50 H 2.6792 -0.715635 -3.18663 0
M  V30 51 H 1.3382 -2.71983 -2.45807 0
M  V30 52 H 0.9862 -1.72435 -4.7252 0
M  V30 53 H 0.6862 -3.48035 -4.7344 0
M  V30 54 H 2.2102 -2.83537 -5.40777 0
M  V30 55 H 3.6242 -4.3593 -3.72341 0
M  V30 56 H 2.0212 -5.01998 -3.28813 0
M  V30 57 H 3.0912 -4.41184 -2.01209 0
M  V30 58 N 4.4343 0.785586 -1.36625 0
M  V30 59 C 5.3643 1.91259 -1.33949 0
M  V30 60 C 6.3453 1.68795 -0.210325 0
M  V30 61 O 7.5303 1.89854 -0.408561 0
M  V30 62 C 4.6603 3.28339 -1.13186 0
M  V30 63 C 3.6143 3.65335 -2.22967 0
M  V30 64 C 2.9403 5.00806 -1.87342 0
M  V30 65 C 4.2403 3.7352 -3.65075 0
M  V30 66 H 5.9343 1.93755 -2.28253 0
M  V30 67 H 3.4803 0.930788 -1.09874 0
M  V30 68 H 5.4333 4.06804 -1.09948 0
M  V30 69 H 4.1573 3.2624 -0.153332 0
M  V30 70 H 2.8163 2.89169 -2.25337 0
M  V30 71 H 2.4643 4.95233 -0.880545 0
M  V30 72 H 2.1643 5.26529 -2.60846 0
M  V30 73 H 3.6883 5.81687 -1.85667 0
M  V30 74 H 5.1023 4.42168 -3.64911 0
M  V30 75 H 3.4993 4.10731 -4.37516 0
M  V30 76 H 4.5693 2.74527 -3.99703 0
M  V30 77 N 5.9124 1.20967 1.01018 0
M  V30 78 C 7.3234 1.02319 1.56165 0
M  V30 79 C 7.6744 -0.418546 1.91684 0
M  V30 80 O 6.7994 -1.30096 1.72928 0
M  V30 81 C 7.3944 1.85109 2.8376 0
M  V30 82 C 5.9534 1.70809 3.35412 0
M  V30 83 C 5.1004 1.82643 2.08655 0
M  V30 84 H 8.0514 1.35065 0.833255 0
M  V30 85 H 8.0724 1.35827 3.55431 0
M  V30 86 H 7.5844 2.90035 2.57878 0
M  V30 87 H 5.6854 0.685464 3.66241 0
M  V30 88 H 5.7984 2.52467 4.07182 0
M  V30 89 H 4.1624 1.25896 2.21409 0
M  V30 90 H 4.9454 2.89066 1.85191 0
M  V30 91 N 7.3905 -1.2043 1.01659 0
M  V30 92 C 8.3205 -2.25466 0.607226 0
M  V30 93 C 9.3015 -1.65853 -0.377716 0
M  V30 94 O 10.4865 -1.92409 -0.263149 0
M  V30 95 C 7.6165 -3.47256 -0.0552949 0
M  V30 96 C 6.5705 -4.19462 0.850632 0
M  V30 97 C 5.8965 -5.34673 0.0538859 0
M  V30 98 C 7.1965 -4.75603 2.15868 0
M  V30 99 H 8.8905 -2.59962 1.48526 0
M  V30 100 H 6.4365 -1.2496 0.715605 0
M  V30 101 H 8.3895 -4.19917 -0.353233 0
M  V30 102 H 7.1135 -3.11924 -0.968045 0
M  V30 103 H 5.7725 -3.48667 1.13257 0
M  V30 104 H 5.4205 -4.95585 -0.860514 0
M  V30 105 H 5.1205 -5.83913 0.657192 0
M  V30 106 H 6.6445 -6.10138 -0.237598 0
M  V30 107 H 8.0585 -5.40083 1.92311 0
M  V30 108 H 6.4555 -5.3528 2.71284 0
M  V30 109 H 7.5255 -3.94346 2.82169 0
M  V30 110 N 8.8686 -0.792821 -1.36206 0
M  V30 111 C 10.2796 -0.429513 -1.81692 0
M  V30 112 C 10.6306 1.04695 -1.65932 0
M  V30 113 O 9.7556 1.81256 -1.18218 0
M  V30 114 C 10.3506 -0.772831 -3.29868 0
M  V30 115 C 8.9096 -0.462307 -3.7355 0
M  V30 116 C 8.0566 -1.00569 -2.5842 0
M  V30 117 H 11.0076 -0.985672 -1.24379 0
M  V30 118 H 11.0286 -0.0651928 -3.80444 0
M  V30 119 H 10.5406 -1.84747 -3.41307 0
M  V30 120 H 8.6416 0.604158 -3.67669 0
M  V30 121 H 8.7546 -0.985299 -4.68859 0
M  V30 122 H 7.1186 -0.428734 -2.51066 0
M  V30 123 H 7.9016 -2.08616 -2.72643 0
M  V30 124 N 10.3467 1.47872 -0.545128 0
M  V30 125 C 11.3097 2.28337 0.198717 0
M  V30 126 C 12.3097 1.36255 0.853888 0
M  V30 127 O 13.4997 1.59003 0.711606 0
M  V30 128 C 10.6317 3.15585 1.28915 0
M  V30 129 H 11.8247 2.95567 -0.507941 0
M  V30 130 H 9.3777 1.53362 -0.301616 0
M  V30 131 H 10.1127 2.53019 2.02859 0
M  V30 132 H 9.8977 3.83337 0.824309 0
M  V30 133 H 11.3877 3.76243 1.81194 0
M  V30 134 N 11.8248 0.280983 1.55075 0
M  V30 135 C 12.7878 -0.590896 2.21452 0
M  V30 136 C 13.7878 -1.07682 1.19421 0
M  V30 137 O 14.9778 -0.97605 1.44288 0
M  V30 138 C 12.1098 -1.81587 2.88511 0
M  V30 139 H 13.3028 -0.0112554 2.99898 0
M  V30 140 H 10.8558 0.0316438 1.56268 0
M  V30 141 H 11.5908 -2.43587 2.14093 0
M  V30 142 H 11.3758 -1.4753 3.63287 0
M  V30 143 H 12.8658 -2.43575 3.39206 0
M  V30 144 N 13.3029 -1.57598 0.00835791 0
M  V30 145 C 14.5509 -1.90551 -0.6734 0
M  V30 146 C 14.8719 -0.883301 -1.73847 0
M  V30 147 O 14.1419 0.0781442 -1.95744 0
M  V30 148 H 12.7219 -0.703312 -0.251717 0
M  V30 149 H 15.3839 -1.94833 0.0512592 0
M  V30 150 H 14.4799 -2.9056 -1.13935 0
M  V30 151 N 14.781 0.264519 -1.55364 0
M  V30 152 C 16.197 0.61215 -1.47394 0
M  V30 153 C 16.397 1.89134 -0.695018 0
M  V30 154 O 15.453 2.51563 -0.217275 0
M  V30 155 C 16.766 0.731235 -2.91674 0
M  V30 156 C 18.314 0.82473 -3.01939 0
M  V30 157 C 18.789 0.975522 -4.4749 0
M  V30 158 N 20.28 1.04083 -4.51354 0
M  V30 159 C 21.015 1.17646 -5.61201 0
M  V30 160 N 20.511 1.27874 -6.80896 0
M  V30 161 N 22.304 1.20823 -5.48961 0
M  V30 162 H 14.455 -0.575456 -2.04456 0
M  V30 163 H 16.718 -0.196099 -0.927496 0
M  V30 164 H 16.424 -0.138392 -3.51428 0
M  V30 165 H 16.298 1.60883 -3.41169 0
M  V30 166 H 18.685 1.68482 -2.42276 0
M  V30 167 H 18.766 -0.0776479 -2.55682 0
M  V30 168 H 18.41 0.120058 -5.07758 0
M  V30 169 H 18.34 1.89268 -4.91412 0
M  V30 170 H 20.831 0.973846 -3.65136 0
M  V30 171 H 21.144 1.38081 -7.60364 0
M  V30 172 H 19.489 1.24863 -6.83692 0
M  V30 173 H 22.68 1.12469 -4.54388 0
M  V30 174 H 22.853 1.31049 -6.3461 0
M  V30 175 N 16.2591 1.48442 0.529413 0
M  V30 176 C 17.5051 1.5672 1.28711 0
M  V30 177 C 17.8381 0.2406 1.92704 0
M  V30 178 O 17.1131 -0.753454 1.79313 0
M  V30 179 C 17.3961 2.70587 2.37603 0
M  V30 180 C 17.2491 4.12953 1.78297 0
M  V30 181 C 18.5681 2.80212 3.39366 0
M  V30 182 H 15.6871 0.570474 0.466613 0
M  V30 183 H 18.3291 1.80617 0.589706 0
M  V30 184 H 16.4791 2.50342 2.97088 0
M  V30 185 H 18.1511 4.44639 1.22858 0
M  V30 186 H 16.3941 4.19927 1.0883 0
M  V30 187 H 17.0651 4.88448 2.57144 0
M  V30 188 H 19.5411 2.98553 2.89836 0
M  V30 189 H 18.4171 3.61611 4.12951 0
M  V30 190 H 18.6781 1.88393 3.99951 0
M  V30 191 N 17.7372 -0.778329 1.37039 0
M  V30 192 C 18.9832 -1.53892 1.32079 0
M  V30 193 C 19.3162 -1.9396 -0.0965386 0
M  V30 194 O 18.5912 -1.63568 -1.05242 0
M  V30 195 C 18.8742 -2.80847 2.25382 0
M  V30 196 C 18.7272 -2.47076 3.75864 0
M  V30 197 C 20.0462 -3.82741 2.1725 0
M  V30 198 H 17.1652 -0.558303 0.48111 0
M  V30 199 H 19.8072 -0.893397 1.67685 0
M  V30 200 H 17.9572 -3.35931 1.95148 0
M  V30 201 H 19.6292 -1.97957 4.16666 0
M  V30 202 H 17.8722 -1.79863 3.94755 0
M  V30 203 H 18.5432 -3.37798 4.36574 0
M  V30 204 H 21.0192 -3.37133 2.43887 0
M  V30 205 H 19.8952 -4.69303 2.84686 0
M  V30 206 H 20.1562 -4.2652 1.16331 0
M  V30 207 N 19.2153 -1.21501 -1.00376 0
M  V30 208 C 20.4613 -1.03452 -1.74429 0
M  V30 209 C 20.7943 0.430764 -1.89362 0
M  V30 210 O 20.0693 1.31962 -1.42886 0
M  V30 211 C 20.3523 -1.73375 -3.15615 0
M  V30 212 C 20.2053 -3.27431 -3.08397 0
M  V30 213 C 21.5243 -1.47732 -4.14564 0
M  V30 214 H 18.6433 -0.377226 -0.633143 0
M  V30 215 H 21.2853 -1.49693 -1.17013 0
M  V30 216 H 19.4353 -1.34064 -3.64636 0
M  V30 217 H 21.1073 -3.76119 -2.67081 0
M  V30 218 H 19.3503 -3.5767 -2.45468 0
M  V30 219 H 20.0213 -3.71524 -4.08258 0
M  V30 220 H 22.4973 -1.8186 -3.74254 0
M  V30 221 H 21.3733 -1.99169 -5.11491 0
M  V30 222 H 21.6343 -0.407589 -4.40217 0
M  V30 223 N 20.6934 1.19889 -1.02296 0
M  V30 224 C 22.1094 1.41462 -0.738954 0
M  V30 225 C 22.3094 1.89721 0.678846 0
M  V30 226 O 21.3654 2.07016 1.4457 0
M  V30 227 C 22.6784 2.43083 -1.77005 0
M  V30 228 C 24.2264 2.5684 -1.78892 0
M  V30 229 C 24.7014 3.61709 -2.80945 0
M  V30 230 N 26.1924 3.69199 -2.79725 0
M  V30 231 C 26.9274 4.50019 -3.55345 0
M  V30 232 N 26.4234 5.34592 -4.40662 0
M  V30 233 N 28.2164 4.44612 -3.43914 0
M  V30 234 H 20.3674 0.868827 -1.93817 0
M  V30 235 H 22.6304 0.44399 -0.837602 0
M  V30 236 H 22.3364 2.14636 -2.78612 0
M  V30 237 H 22.2104 3.4217 -1.58744 0
M  V30 238 H 24.5974 2.84614 -0.779674 0
M  V30 239 H 24.6784 1.57927 -2.01228 0
M  V30 240 H 24.3224 3.34678 -3.82038 0
M  V30 241 H 24.2524 4.60259 -2.5587 0
M  V30 242 H 26.7434 3.08794 -2.17842 0
M  V30 243 H 27.0564 5.93363 -4.95116 0
M  V30 244 H 25.4014 5.34073 -4.44737 0
M  V30 245 H 28.5924 3.7758 -2.76679 0
M  V30 246 H 28.7654 5.0736 -4.031 0
M  V30 247 N 22.1715 0.800033 1.35784 0
M  V30 248 C 23.5875 0.482977 1.52117 0
M  V30 249 C 23.7875 -0.996948 1.75109 0
M  V30 250 O 22.8435 -1.78216 1.78872 0
M  V30 251 C 24.1565 1.32264 2.70049 0
M  V30 252 C 25.7045 1.31742 2.83924 0
M  V30 253 C 26.1795 2.14106 4.04874 0
M  V30 254 N 27.6705 2.11607 4.12039 0
M  V30 255 C 28.4055 2.72099 5.04727 0
M  V30 256 N 27.9015 3.41492 6.02789 0
M  V30 257 N 29.6945 2.61776 4.97423 0
M  V30 258 H 21.8455 1.75856 1.19115 0
M  V30 259 H 24.1085 0.748122 0.582252 0
M  V30 260 H 23.8145 2.37261 2.59616 0
M  V30 261 H 23.6885 0.971303 3.6448 0
M  V30 262 H 26.0755 0.275333 2.93813 0
M  V30 263 H 26.1565 1.70859 1.9037 0
M  V30 264 H 25.8005 3.18351 3.95746 0
M  V30 265 H 25.7305 1.72353 4.97596 0
M  V30 266 H 28.2215 1.61112 3.41835 0
M  V30 267 H 28.5345 3.84953 6.70098 0
M  V30 268 H 26.8795 3.45596 6.02983 0
M  V30 269 H 30.0705 2.07157 4.19766 0
M  V30 270 H 30.2435 3.0921 5.69468 0
M  V30 271 N 23.6496 -1.47581 0.552962 0
M  V30 272 C 24.5796 -2.32762 -0.185451 0
M  V30 273 C 25.5606 -1.43527 -0.912905 0
M  V30 274 O 26.7456 -1.72388 -0.894201 0
M  V30 275 C 23.8756 -3.25219 -1.21859 0
M  V30 276 C 22.8296 -4.23661 -0.607864 0
M  V30 277 C 22.1556 -5.05413 -1.74533 0
M  V30 278 C 23.4556 -5.20481 0.435582 0
M  V30 279 H 25.1496 -2.94749 0.525684 0
M  V30 280 H 22.6956 -1.41738 0.254251 0
M  V30 281 H 24.6486 -3.8365 -1.7433 0
M  V30 282 H 23.3726 -2.61279 -1.95961 0
M  V30 283 H 22.0316 -3.66451 -0.104489 0
M  V30 284 H 21.6796 -4.3788 -2.47529 0
M  V30 285 H 21.3796 -5.72059 -1.34249 0
M  V30 286 H 22.9036 -5.66701 -2.27338 0
M  V30 287 H 24.3176 -5.733 -0.00290157 0
M  V30 288 H 22.7146 -5.95305 0.757067 0
M  V30 289 H 23.7846 -4.66217 1.33303 0
M  V30 290 N 25.1277 -0.289203 -1.54924 0
M  V30 291 C 26.0907 0.579144 -2.21762 0
M  V30 292 C 27.0907 1.07047 -1.1999 0
M  V30 293 O 28.2807 0.968384 -1.44803 0
M  V30 294 C 25.4127 1.80055 -2.8947 0
M  V30 295 H 26.6057 -0.00464908 -2.999 0
M  V30 296 H 24.1587 -0.0399306 -1.56249 0
M  V30 297 H 24.8937 2.42449 -2.15381 0
M  V30 298 H 24.6787 1.45602 -3.64064 0
M  V30 299 H 26.1687 2.41773 -3.40493 0
M  V30 300 N 26.6058 1.57591 -0.0167156 0
M  V30 301 C 27.8518 1.91567 0.665582 0
M  V30 302 C 28.1848 0.892298 1.72487 0
M  V30 303 O 27.4598 -0.0867127 1.94307 0
M  V30 304 C 27.7428 3.36069 1.29342 0
M  V30 305 C 27.5958 4.49135 0.244541 0
M  V30 306 C 28.9148 3.803 2.21495 0
M  V30 307 H 26.0338 0.69666 0.240488 0
M  V30 308 H 28.6758 1.89866 -0.0714356 0
M  V30 309 H 26.8258 3.3765 1.92158 0
M  V30 310 H 28.4978 4.59689 -0.385228 0
M  V30 311 H 26.7408 4.3165 -0.431379 0
M  V30 312 H 27.4118 5.47242 0.723207 0
M  V30 313 H 29.8878 3.80377 1.68678 0
M  V30 314 H 28.7638 4.82127 2.62382 0
M  V30 315 H 29.0248 3.15104 3.101 0
M  V30 316 N 28.0839 -0.256276 1.55502 0
M  V30 317 C 29.4999 -0.604325 1.47716 0
M  V30 318 C 29.6999 -1.88763 0.705039 0
M  V30 319 O 28.7559 -2.51445 0.230613 0
M  V30 320 C 30.0689 -0.715756 2.92057 0
M  V30 321 C 31.6169 -0.808706 3.02372 0
M  V30 322 C 32.0919 -0.951777 4.48001 0
M  V30 323 N 33.5829 -1.01688 4.519 0
M  V30 324 C 34.3179 -1.14668 5.61817 0
M  V30 325 N 33.8139 -1.24261 6.81565 0
M  V30 326 N 35.6069 -1.1791 5.49594 0
M  V30 327 H 27.7579 0.586291 2.04148 0
M  V30 328 H 30.0209 0.201015 0.926443 0
M  V30 329 H 29.7269 0.157027 3.51349 0
M  V30 330 H 29.6009 -1.59071 3.42018 0
M  V30 331 H 31.9879 -1.67195 2.43166 0
M  V30 332 H 32.0689 0.0912063 2.55637 0
M  V30 333 H 31.7129 -0.0931291 5.07815 0
M  V30 334 H 31.6429 -1.86659 4.92408 0
M  V30 335 H 34.1339 -0.954468 3.65648 0
M  V30 336 H 34.4469 -1.34046 7.61086 0
M  V30 337 H 32.7919 -1.21236 6.84344 0
M  V30 338 H 35.9829 -1.10057 4.54978 0
M  V30 339 H 36.1559 -1.27681 6.35296 0
M  V30 340 N 29.562 -1.4872 -0.521534 0
M  V30 341 C 30.978 -1.35028 -0.850855 0
M  V30 342 C 31.178 -0.367712 -1.98116 0
M  V30 343 O 30.234 0.208037 -2.51642 0
M  V30 344 C 31.547 -2.75263 -1.21041 0
M  V30 345 C 33.095 -2.83813 -1.31981 0
M  V30 346 C 33.57 -4.24769 -1.71276 0
M  V30 347 N 35.061 -4.27482 -1.78363 0
M  V30 348 C 35.796 -5.33494 -2.1017 0
M  V30 349 N 35.292 -6.49775 -2.40343 0
M  V30 350 N 37.085 -5.20894 -2.11248 0
M  V30 351 H 29.236 -2.11214 0.22413 0
M  V30 352 H 31.499 -0.947252 0.0376439 0
M  V30 353 H 31.205 -3.48765 -0.453415 0
M  V30 354 H 31.079 -3.09327 -2.15863 0
M  V30 355 H 33.466 -2.10561 -2.06756 0
M  V30 356 H 33.547 -2.53358 -0.352596 0
M  V30 357 H 33.191 -4.9854 -0.970588 0
M  V30 358 H 33.121 -4.52673 -2.69062 0
M  V30 359 H 35.612 -3.43611 -1.57288 0
M  V30 360 H 35.925 -7.26402 -2.63743 0
M  V30 361 H 34.27 -6.53035 -2.37844 0
M  V30 362 H 37.461 -4.29065 -1.87139 0
M  V30 363 H 37.634 -6.03612 -2.35704 0
M  V30 364 N 31.0401 0.771051 -1.3745 0
M  V30 365 C 32.2871 1.52963 -1.32697 0
M  V30 366 C 32.6151 1.94299 0.0883274 0
M  V30 367 O 31.8701 1.64397 1.0617 0
M  V30 368 C 32.1691 2.80676 -2.2126 0
M  V30 369 C 31.8351 2.58389 -3.69521 0
M  V30 370 C 30.4971 2.52019 -4.09927 0
M  V30 371 C 32.8491 2.38469 -4.63446 0
M  V30 372 C 30.1771 2.23721 -5.42371 0
M  V30 373 C 32.5291 2.11694 -5.96128 0
M  V30 374 C 31.1931 2.03769 -6.35637 0
M  V30 375 H 30.4631 0.559732 -0.485573 0
M  V30 376 H 33.1101 0.888083 -1.69662 0
M  V30 377 H 31.4151 3.49392 -1.77291 0
M  V30 378 H 33.1121 3.38557 -2.14895 0
M  V30 379 H 29.7021 2.6421 -3.37478 0
M  V30 380 H 33.8861 2.4238 -4.33089 0
M  V30 381 H 29.1421 2.16081 -5.71943 0
M  V30 382 H 33.3161 1.9528 -6.6846 0
M  V30 383 H 30.9431 1.81606 -7.38189 0
M  V30 384 N 32.5182 1.22032 0.997298 0
M  V30 385 C 33.7662 1.04016 1.73278 0
M  V30 386 C 34.0872 -0.426255 1.90284 0
M  V30 387 O 33.3572 -1.30694 1.45931 0
M  V30 388 H 31.9372 0.381897 0.642 0
M  V30 389 H 34.5992 1.5347 1.20137 0
M  V30 390 H 33.6952 1.51441 2.72896 0
M  V30 391 N 33.9963 -1.19345 1.0293 0
M  V30 392 C 35.2213 -1.93538 0.745511 0
M  V30 393 C 35.6463 -1.75007 -0.689511 0
M  V30 394 O 35.0043 -1.05265 -1.47611 0
M  V30 395 C 35.0523 -3.43336 1.10239 0
M  V30 396 O 34.1563 -4.11806 0.221289 0
M  V30 397 H 33.4973 -0.604193 0.275404 0
M  V30 398 H 36.0273 -1.5141 1.37609 0
M  V30 399 H 36.0373 -3.94004 1.05947 0
M  V30 400 H 34.7123 -3.56146 2.14786 0
M  V30 401 H 33.2893 -3.715 0.322842 0
M  V30 402 N 35.4744 -0.807222 -1.35358 0
M  V30 403 C 36.8904 -0.491038 -1.51858 0
M  V30 404 C 37.0904 0.987648 -1.75635 0
M  V30 405 O 36.1464 1.77265 -1.79815 0
M  V30 406 C 37.4594 -1.33695 -2.69344 0
M  V30 407 C 39.0074 -1.33246 -2.83222 0
M  V30 408 C 39.4824 -2.1625 -4.03733 0
M  V30 409 N 40.9734 -2.1379 -4.10911 0
M  V30 410 C 41.7084 -2.74772 -5.03277 0
M  V30 411 N 41.2044 -3.44684 -6.0097 0
M  V30 412 N 42.9974 -2.6441 -4.96028 0
M  V30 413 H 35.1484 -1.76485 -1.18181 0
M  V30 414 H 37.4114 -0.751199 -0.578276 0
M  V30 415 H 37.1174 -2.38634 -2.58354 0
M  V30 416 H 36.9914 -0.990618 -3.6396 0
M  V30 417 H 39.3784 -0.290911 -2.93663 0
M  V30 418 H 39.4594 -1.71866 -1.89461 0
M  V30 419 H 39.1034 -3.20445 -3.94052 0
M  V30 420 H 39.0334 -1.74989 -4.96675 0
M  V30 421 H 41.5244 -1.62923 -3.40976 0
M  V30 422 H 41.8374 -3.88501 -6.68047 0
M  V30 423 H 40.1824 -3.48788 -6.01142 0
M  V30 424 H 43.3734 -2.0938 -4.18662 0
M  V30 425 H 43.5464 -3.12225 -5.6782 0
M  V30 426 N 36.9525 1.47285 -0.560781 0
M  V30 427 C 38.1775 2.07359 -0.0410566 0
M  V30 428 C 38.6025 1.41017 1.24483 0
M  V30 429 O 37.9605 0.486368 1.74654 0
M  V30 430 C 38.0085 3.6035 0.134123 0
M  V30 431 O 37.1125 3.94681 1.19587 0
M  V30 432 H 36.4535 0.661887 -0.0529291 0
M  V30 433 H 38.9835 1.89252 -0.777482 0
M  V30 434 H 38.9935 4.0652 0.347207 0
M  V30 435 H 37.6685 4.08034 -0.805047 0
M  V30 436 H 36.2455 3.60251 0.962987 0
M  V30 437 N 38.4306 0.297415 1.54768 0
M  V30 438 C 39.3606 -0.573494 2.26348 0
M  V30 439 C 40.3416 -1.14085 1.26169 0
M  V30 440 O 41.5266 -1.17086 1.54934 0
M  V30 441 C 38.6566 -1.74716 3.00153 0
M  V30 442 C 37.6106 -1.31032 4.07449 0
M  V30 443 C 36.9366 -2.56887 4.68949 0
M  V30 444 C 38.2366 -0.444183 5.20408 0
M  V30 445 H 39.9306 0.0235131 2.99391 0
M  V30 446 H 37.4766 0.0127488 1.43994 0
M  V30 447 H 39.4296 -2.3625 3.48947 0
M  V30 448 H 38.1536 -2.37035 2.24682 0
M  V30 449 H 36.8126 -0.718066 3.59499 0
M  V30 450 H 36.4606 -3.17512 3.90122 0
M  V30 451 H 36.1606 -2.2836 5.41411 0
M  V30 452 H 37.6846 -3.19229 5.20505 0
M  V30 453 H 39.0986 -0.9651 5.65118 0
M  V30 454 H 37.4956 -0.252846 5.99567 0
M  V30 455 H 38.5656 0.531609 4.81977 0
M  V30 456 N 39.9087 -1.5758 0.0250728 0
M  V30 457 C 41.1337 -1.96337 -0.668317 0
M  V30 458 C 41.5587 -0.901314 -1.651 0
M  V30 459 O 40.9167 0.138187 -1.80773 0
M  V30 460 C 40.9647 -3.34191 -1.35457 0
M  V30 461 O 40.0687 -3.30269 -2.46974 0
M  V30 462 H 39.4097 -0.640281 -0.175887 0
M  V30 463 H 41.9397 -2.0442 0.0857224 0
M  V30 464 H 41.9497 -3.70331 -1.71228 0
M  V30 465 H 40.6247 -4.11036 -0.634218 0
M  V30 466 H 39.2017 -3.05841 -2.13344 0
M  V30 467 N 41.3868 0.248026 -1.55636 0
M  V30 468 C 42.6148 0.993808 -1.81469 0
M  V30 469 C 43.0298 1.78991 -0.60064 0
M  V30 470 O 42.3868 1.77345 0.430682 0
M  V30 471 C 42.4378 1.93258 -3.05506 0
M  V30 472 O 42.1588 1.16869 -4.22224 0
M  V30 473 C 43.6598 2.79444 -3.4413 0
M  V30 474 H 40.8798 0.292486 -0.603898 0
M  V30 475 H 43.4238 0.271253 -2.02693 0
M  V30 476 H 41.5788 2.60943 -2.86335 0
M  V30 477 H 41.9928 1.80359 -4.92515 0
M  V30 478 H 43.4668 3.41066 -4.34026 0
M  V30 479 H 43.9438 3.50499 -2.64665 0
M  V30 480 H 44.5498 2.17214 -3.65648 0
M  V30 481 N 42.8649 1.48995 0.513639 0
M  V30 482 C 43.8279 1.64229 1.59879 0
M  V30 483 C 44.8279 0.514696 1.5234 0
M  V30 484 O 46.0179 0.78087 1.55718 0
M  V30 485 C 43.1499 1.62783 2.99524 0
M  V30 486 H 44.3429 2.61004 1.47705 0
M  V30 487 H 41.8959 1.37837 0.736936 0
M  V30 488 H 42.6309 0.675461 3.17188 0
M  V30 489 H 42.4159 2.4466 3.06404 0
M  V30 490 H 43.9059 1.76669 3.78388 0
M  V30 491 N 44.343 -0.763751 1.37857 0
M  V30 492 C 45.62 -1.51244 1.24035 0
M  V30 493 C 46 -2.10472 -0.162649 0
M  V30 494 O 45.348 -1.96206 -1.17112 0
M  V30 495 C 45.558 -2.58694 2.34261 0
M  V30 496 C 46.906 -3.25878 2.72193 0
M  V30 497 O 47.93 -2.68993 2.33497 0
M  V30 498 O 46.789 -4.2874 3.38887 0
M  V30 499 H 43.883 -0.670243 0.484462 0
M  V30 500 H 46.429 -0.800031 1.49658 0
M  V30 501 H 45.201 -2.13105 3.2818 0
M  V30 502 H 44.824 -3.37527 2.10146 0
M  V30 503 N 45.8211 -1.22559 -0.990812 0
M  V30 504 C 46.7541 -0.940773 -2.07905 0
M  V30 505 C 47.7321 0.117082 -1.62178 0
M  V30 506 O 48.9161 -0.0149506 -1.88494 0
M  V30 507 C 46.0431 -0.415321 -3.36144 0
M  V30 508 C 45.0891 -1.45818 -4.00799 0
M  V30 509 S 45.9221 -3.03219 -4.41382 0
M  V30 510 C 47.0781 -2.52317 -5.72789 0
M  V30 511 H 47.3111 -1.8623 -2.31745 0
M  V30 512 H 44.8441 -1.05688 -1.12558 0
M  V30 513 H 46.8021 -0.118747 -4.10328 0
M  V30 514 H 45.4631 0.485121 -3.10331 0
M  V30 515 H 44.6561 -1.04044 -4.93144 0
M  V30 516 H 44.2581 -1.70356 -3.32949 0
M  V30 517 H 46.5501 -1.93688 -6.49224 0
M  V30 518 H 47.4931 -3.43161 -6.19392 0
M  V30 519 H 47.9011 -1.93529 -5.30289 0
M  V30 520 N 47.2992 1.18797 -1.03562 0
M  V30 521 C 48.5272 1.92599 -0.755869 0
M  V30 522 C 48.9422 1.75886 0.686271 0
M  V30 523 O 48.2992 1.08517 1.46732 0
M  V30 524 C 48.3502 3.44159 -1.10619 0
M  V30 525 O 48.0712 3.60341 -2.4917 0
M  V30 526 C 49.5722 4.3507 -0.850214 0
M  V30 527 H 46.7922 0.611587 -0.276048 0
M  V30 528 H 49.3362 1.50742 -1.38192 0
M  V30 529 H 47.4912 3.83823 -0.525194 0
M  V30 530 H 47.9052 4.54128 -2.62427 0
M  V30 531 H 49.3792 5.39989 -1.14523 0
M  V30 532 H 49.8562 4.38673 0.215176 0
M  V30 533 H 50.4622 4.01097 -1.41426 0
M  V30 534 N 48.7773 0.814389 1.34928 0
M  V30 535 C 49.7243 0.22822 2.29669 0
M  V30 536 C 50.6943 -0.642164 1.53184 0
M  V30 537 O 51.8793 -0.585605 1.81591 0
M  V30 538 C 49.0193 -0.61089 3.3965 0
M  V30 539 C 48.1323 0.280792 4.31086 0
M  V30 540 C 47.2673 -0.567067 5.28165 0
M  V30 541 C 46.3063 0.324531 6.11239 0
M  V30 542 N 45.4433 -0.483756 7.00431 0
M  V30 543 H 50.2833 1.04153 2.79206 0
M  V30 544 H 47.8203 0.525133 1.37407 0
M  V30 545 H 49.7783 -1.11263 4.0209 0
M  V30 546 H 48.4083 -1.38939 2.91369 0
M  V30 547 H 47.4603 0.900688 3.69583 0
M  V30 548 H 48.7723 0.966723 4.89342 0
M  V30 549 H 47.9263 -1.13363 5.96015 0
M  V30 550 H 46.6653 -1.28654 4.70425 0
M  V30 551 H 45.6703 0.903298 5.42329 0
M  V30 552 H 46.8953 1.04198 6.71059 0
M  V30 553 H 44.8413 -1.18706 6.45171 0
M  V30 554 H 44.7583 0.143965 7.55863 0
M  V30 555 H 46.0263 -1.03334 7.7262 0
M  V30 556 N 50.2554 -1.46986 0.568584 0
M  V30 557 C 51.5034 -2.02041 0.0487022 0
M  V30 558 C 51.8244 -1.44408 -1.31039 0
M  V30 559 O 51.0944 -0.623477 -1.85714 0
M  V30 560 H 49.6744 -0.746849 0.015014 0
M  V30 561 H 52.3364 -1.80257 0.741168 0
M  V30 562 H 51.4324 -3.12085 -0.0308961 0
M  V30 563 N 51.7335 -0.305618 -1.54608 0
M  V30 564 C 52.6635 0.561482 -2.26649 0
M  V30 565 C 53.6445 1.13415 -1.26772 0
M  V30 566 O 54.8295 1.16262 -1.55553 0
M  V30 567 C 51.9595 1.73122 -3.01075 0
M  V30 568 C 50.9135 1.2887 -4.08138 0
M  V30 569 C 50.2395 2.54396 -4.70305 0
M  V30 570 C 51.5395 0.416578 -5.20636 0
M  V30 571 H 53.2335 -0.0393902 -2.99374 0
M  V30 572 H 50.7795 -0.020385 -1.43986 0
M  V30 573 H 52.7325 2.34396 -3.50195 0
M  V30 574 H 51.4565 2.3584 -2.25936 0
M  V30 575 H 50.1155 0.698991 -3.59875 0
M  V30 576 H 49.7635 3.15439 -3.918 0
M  V30 577 H 49.4635 2.25486 -5.42614 0
M  V30 578 H 50.9875 3.16464 -5.2219 0
M  V30 579 H 52.4015 0.935116 -5.65622 0
M  V30 580 H 50.7985 0.221046 -5.99693 0
M  V30 581 H 51.8685 -0.557162 -4.81688 0
M  V30 582 N 53.2116 1.57565 -0.0334293 0
M  V30 583 C 54.4576 1.92262 0.645226 0
M  V30 584 C 54.7906 0.910543 1.71531 0
M  V30 585 O 54.0656 -0.066099 1.94388 0
M  V30 586 C 54.3486 3.37422 1.2577 0
M  V30 587 C 54.2016 4.49369 0.196891 0
M  V30 588 C 55.5206 3.82628 2.17449 0
M  V30 589 H 52.6396 0.699171 0.233085 0
M  V30 590 H 55.2816 1.89779 -0.0915694 0
M  V30 591 H 53.4316 3.39669 1.88566 0
M  V30 592 H 55.1036 4.59254 -0.433962 0
M  V30 593 H 53.3466 4.31168 -0.477137 0
M  V30 594 H 54.0176 5.47978 0.665124 0
M  V30 595 H 56.4936 3.82145 1.64634 0
M  V30 596 H 55.3696 4.84883 2.57254 0
M  V30 597 H 55.6306 3.18376 3.0674 0
M  V30 598 N 54.6897 -0.239769 1.55765 0
M  V30 599 C 55.6197 -1.30052 1.9393 0
M  V30 600 C 56.6007 -1.49839 0.805132 0
M  V30 601 O 57.7857 -1.62328 1.06599 0
M  V30 602 C 54.9157 -2.65391 2.2402 0
M  V30 603 C 53.8697 -2.60289 3.39755 0
M  V30 604 C 53.1957 -3.99489 3.55405 0
M  V30 605 C 54.4957 -2.16654 4.75246 0
M  V30 606 H 56.1897 -0.983573 2.82783 0
M  V30 607 H 53.7357 -0.471701 1.36055 0
M  V30 608 H 55.6887 -3.3974 2.49308 0
M  V30 609 H 54.4127 -2.98736 1.32 0
M  V30 610 H 53.0717 -1.88398 3.14487 0
M  V30 611 H 52.7197 -4.30112 2.60793 0
M  V30 612 H 52.4197 -3.96962 4.33238 0
M  V30 613 H 53.9437 -4.75528 3.83022 0
M  V30 614 H 55.3577 -2.80737 4.99859 0
M  V30 615 H 53.7547 -2.25223 5.56232 0
M  V30 616 H 54.8247 -1.11835 4.71827 0
M  V30 617 N 56.1678 -1.49265 -0.50573 0
M  V30 618 C 57.4158 -1.582 -1.25766 0
M  V30 619 C 57.7368 -0.268482 -1.93143 0
M  V30 620 O 57.0068 0.711833 -1.8251 0
M  V30 621 H 55.5868 -0.582873 -0.467191 0
M  V30 622 H 58.2488 -1.85865 -0.586525 0
M  V30 623 H 57.3448 -2.37563 -2.02412 0
M  V30 624 N 57.6459 0.756429 -1.3826 0
M  V30 625 C 58.8949 1.51082 -1.3363 0
M  V30 626 C 59.2079 1.95467 0.0720068 0
M  V30 627 O 60.4139 2.7043 0.240834 0
M  V30 628 C 58.8699 2.72893 -2.34644 0
M  V30 629 C 58.4779 2.35544 -3.81081 0
M  V30 630 C 60.2219 3.50791 -2.39052 0
M  V30 631 C 58.1289 3.53948 -4.73787 0
M  V30 632 H 57.0589 0.56727 -0.49671 0
M  V30 633 H 59.7099 0.827147 -1.638 0
M  V30 634 H 58.0919 3.43227 -1.97513 0
M  V30 635 H 59.2659 1.72894 -4.27135 0
M  V30 636 H 57.5809 1.70786 -3.79764 0
M  V30 637 H 60.1779 4.38823 -3.05513 0
M  V30 638 H 60.5209 3.91745 -1.40861 0
M  V30 639 H 61.0539 2.87467 -2.74968 0
M  V30 640 H 57.7929 3.18064 -5.73163 0
M  V30 641 H 57.3129 4.15651 -4.32428 0
M  V30 642 H 58.9919 4.20566 -4.91663 0
M  V30 643 N 59.124 1.23083 0.984299 0
M  V30 644 C 60.354 1.08556 1.75781 0
M  V30 645 C 60.762 -0.366171 1.85623 0
M  V30 646 O 60.105 -1.26524 1.33182 0
M  V30 647 C 60.167 1.63208 3.20318 0
M  V30 648 C 59.831 3.11922 3.33997 0
M  V30 649 C 60.828 4.09259 3.2063 0
M  V30 650 C 58.513 3.51552 3.58771 0
M  V30 651 C 60.507 5.4421 3.31835 0
M  V30 652 C 58.194 4.86649 3.69616 0
M  V30 653 C 59.192 5.82787 3.56157 0
M  V30 654 O 58.88 7.15431 3.66626 0
M  V30 655 H 58.612 0.380713 0.5586 0
M  V30 656 H 61.166 1.63321 1.2456 0
M  V30 657 H 59.396 1.0286 3.72769 0
M  V30 658 H 61.085 1.44216 3.79416 0
M  V30 659 H 61.851 3.79984 3.01392 0
M  V30 660 H 57.73 2.77239 3.6832 0
M  V30 661 H 61.274 6.1923 3.21247 0
M  V30 662 H 57.171 5.15601 3.88363 0
M  V30 663 H 57.939 7.23127 3.83445 0
M  V30 664 N 60.6021 -1.18246 1.0419 0
M  V30 665 C 61.8271 -1.92736 0.765996 0
M  V30 666 C 62.2521 -1.75728 -0.67091 0
M  V30 667 O 61.6101 -1.06825 -1.46486 0
M  V30 668 C 61.6581 -3.42148 1.13875 0
M  V30 669 O 60.7621 -4.11548 0.264954 0
M  V30 670 H 60.1031 -0.601238 0.281797 0
M  V30 671 H 62.6331 -1.49942 1.39207 0
M  V30 672 H 62.6431 -3.92858 1.1012 0
M  V30 673 H 61.3181 -3.53848 2.18551 0
M  V30 674 H 59.8951 -3.71137 0.362226 0
M  V30 675 N 62.0802 -0.821533 -1.34494 0
M  V30 676 C 63.0272 -0.240397 -2.29545 0
M  V30 677 C 63.9972 0.634031 -1.53523 0
M  V30 678 O 65.1822 0.575966 -1.81899 0
M  V30 679 C 62.3222 0.592869 -3.39969 0
M  V30 680 C 61.4352 -0.30365 -4.30932 0
M  V30 681 C 60.5702 0.539049 -5.28458 0
M  V30 682 C 59.6092 -0.356942 -6.11058 0
M  V30 683 N 58.7462 0.446603 -7.00678 0
M  V30 684 H 63.5862 -1.05632 -2.7865 0
M  V30 685 H 61.1232 -0.532413 -1.37127 0
M  V30 686 H 63.0812 1.09129 -4.02675 0
M  V30 687 H 61.7112 1.37392 -2.92102 0
M  V30 688 H 60.7632 -0.920276 -3.691 0
M  V30 689 H 62.0752 -0.992661 -4.88823 0
M  V30 690 H 61.2292 1.102 -5.96608 0
M  V30 691 H 59.9682 1.26157 -4.71101 0
M  V30 692 H 58.9732 -0.932047 -5.41842 0
M  V30 693 H 60.1982 -1.07755 -6.70497 0
M  V30 694 H 58.1442 1.15282 -6.45791 0
M  V30 695 H 58.0612 -0.184048 -7.55776 0
M  V30 696 H 59.3292 0.992352 -7.73158 0
M  V30 697 N 63.5583 1.46682 -0.576371 0
M  V30 698 C 64.4683 2.34032 0.163141 0
M  V30 699 C 65.4843 1.49367 0.892501 0
M  V30 700 O 66.6603 1.82252 0.857106 0
M  V30 701 C 63.7253 3.26435 1.16795 0
M  V30 702 C 62.7863 4.26998 0.443944 0
M  V30 703 C 62.0193 5.14986 1.40088 0
M  V30 704 O 62.2423 5.05785 2.637 0
M  V30 705 O 61.1763 5.94906 0.914917 0
M  V30 706 H 65.0023 2.98607 -0.55388 0
M  V30 707 H 62.5873 1.45554 -0.336821 0
M  V30 708 H 64.4693 3.83459 1.74748 0
M  V30 709 H 63.1443 2.64465 1.86655 0
M  V30 710 H 62.0513 3.7368 -0.177271 0
M  V30 711 H 63.3843 4.91736 -0.213566 0
M  V30 712 N 65.0364 0.313813 1.54444 0
M  V30 713 C 65.9834 -0.55655 2.23989 0
M  V30 714 C 66.9534 -1.11943 1.22711 0
M  V30 715 O 68.1384 -1.16158 1.51367 0
M  V30 716 C 65.2784 -1.71635 2.99392 0
M  V30 717 C 64.3914 -1.18364 4.15468 0
M  V30 718 C 63.5264 -2.30834 4.78424 0
M  V30 719 C 62.5654 -1.74762 5.86622 0
M  V30 720 N 61.7024 -2.80855 6.43479 0
M  V30 721 H 66.5424 0.0430893 2.97969 0
M  V30 722 H 64.0794 0.0330359 1.47063 0
M  V30 723 H 66.0374 -2.39868 3.41349 0
M  V30 724 H 64.6674 -2.28742 2.27765 0
M  V30 725 H 63.7194 -0.393163 3.78363 0
M  V30 726 H 65.0314 -0.733262 4.93381 0
M  V30 727 H 64.1854 -3.0699 5.23299 0
M  V30 728 H 62.9244 -2.79204 3.99871 0
M  V30 729 H 61.9294 -0.970995 5.41158 0
M  V30 730 H 63.1544 -1.2728 6.67066 0
M  V30 731 H 61.1004 -3.28535 5.67804 0
M  V30 732 H 61.0174 -2.40351 7.16776 0
M  V30 733 H 62.2854 -3.5687 6.93011 0
M  V30 734 N 66.5145 -1.57545 0.0417849 0
M  V30 735 C 67.4245 -2.14451 -0.951213 0
M  V30 736 C 68.4405 -1.09992 -1.34825 0
M  V30 737 O 69.6165 -1.42114 -1.42708 0
M  V30 738 C 66.6815 -2.67063 -2.21084 0
M  V30 739 C 65.7425 -3.86284 -1.87304 0
M  V30 740 C 64.9755 -4.36378 -3.07261 0
M  V30 741 O 65.1985 -3.85587 -4.20332 0
M  V30 742 O 64.1325 -5.28077 -2.88822 0
M  V30 743 H 67.9585 -2.99601 -0.497287 0
M  V30 744 H 65.5435 -1.48317 -0.179567 0
M  V30 745 H 67.4255 -3.00914 -2.95006 0
M  V30 746 H 66.1005 -1.84989 -2.65633 0
M  V30 747 H 65.0075 -3.57338 -1.10727 0
M  V30 748 H 66.3405 -4.6956 -1.47562 0
M  V30 749 N 67.9926 0.231505 -1.5589 0
M  V30 750 C 69.2696 0.981096 -1.69215 0
M  V30 751 C 69.6496 2.02799 -0.586164 0
M  V30 752 O 68.9976 2.24823 0.408253 0
M  V30 753 C 69.2076 1.60054 -3.10135 0
M  V30 754 C 70.5556 2.09658 -3.69227 0
M  V30 755 O 71.5796 1.69967 -3.13033 0
M  V30 756 O 70.4386 2.8258 -4.67772 0
M  V30 757 H 67.5326 0.457653 -0.688827 0
M  V30 758 H 70.0786 0.224073 -1.68214 0
M  V30 759 H 68.8506 0.844105 -3.82087 0
M  V30 760 H 68.4736 2.42336 -3.15212 0
M  V30 761 N 69.4707 1.49531 0.497807 0
M  V30 762 C 70.7477 1.49682 1.25915 0
M  V30 763 C 71.1277 0.226339 2.09883 0
M  V30 764 O 70.4757 -0.791189 2.14365 0
M  V30 765 C 70.6857 2.77755 2.11313 0
M  V30 766 C 72.0337 3.27371 2.70395 0
M  V30 767 O 73.0577 2.78894 2.21578 0
M  V30 768 O 71.9167 4.11808 3.59272 0
M  V30 769 H 69.0107 0.599228 0.56996 0
M  V30 770 H 71.5567 1.61798 0.511816 0
M  V30 771 H 70.3287 3.61713 1.49264 0
M  V30 772 H 69.9517 2.68515 2.93233 0
M  V30 773 N 70.9488 -0.749086 1.3866 0
M  V30 774 C 72.1948 -1.51056 1.35314 0
M  V30 775 C 72.5278 -1.94121 -0.0553751 0
M  V30 776 O 71.8028 -1.65763 -1.01749 0
M  V30 777 C 72.0858 -2.76003 2.31288 0
M  V30 778 C 71.9388 -2.39047 3.8102 0
M  V30 779 C 73.2578 -3.78046 2.2532 0
M  V30 780 H 70.3768 -0.547972 0.492844 0
M  V30 781 H 73.0188 -0.857628 1.69543 0
M  V30 782 H 71.1688 -3.31716 2.02229 0
M  V30 783 H 72.8408 -1.89074 4.20771 0
M  V30 784 H 71.0838 -1.71449 3.98482 0
M  V30 785 H 71.7548 -3.28462 4.4364 0
M  V30 786 H 74.2308 -3.31884 2.50983 0
M  V30 787 H 73.1068 -4.63159 2.94576 0
M  V30 788 H 73.3678 -4.23957 1.25352 0
M  V30 789 N 72.4269 -1.23603 -0.977757 0
M  V30 790 C 73.8379 -1.06424 -1.53398 0
M  V30 791 C 74.1889 0.367578 -1.92726 0
M  V30 792 O 73.3139 1.25465 -1.76316 0
M  V30 793 C 73.9089 -1.92568 -2.78753 0
M  V30 794 C 72.4679 -1.79642 -3.30765 0
M  V30 795 C 71.6149 -1.88111 -2.03739 0
M  V30 796 H 74.5659 -1.37227 -0.797152 0
M  V30 797 H 74.5869 -1.45203 -3.51705 0
M  V30 798 H 74.0989 -2.96771 -2.50098 0
M  V30 799 H 72.1999 -0.782325 -3.64294 0
M  V30 800 H 72.3129 -2.63174 -4.00345 0
M  V30 801 H 70.6769 -1.31723 -2.17994 0
M  V30 802 H 71.4599 -2.93875 -1.77461 0
M  V30 803 N 73.905 1.17692 -1.04816 0
M  V30 804 C 74.837 2.21103 -0.603822 0
M  V30 805 C 75.85 1.59411 0.33046 0
M  V30 806 O 77.039 1.7807 0.12379 0
M  V30 807 C 74.139 3.38623 0.136898 0
M  V30 808 C 73.312 4.29888 -0.807137 0
M  V30 809 C 72.371 5.26088 -0.10836 0
M  V30 810 O 71.397 5.64353 -0.741232 0
M  V30 811 N 72.599 5.68882 1.15558 0
M  V30 812 H 75.364 2.59848 -1.49329 0
M  V30 813 H 72.925 1.32553 -0.929587 0
M  V30 814 H 74.917 4.00009 0.614401 0
M  V30 815 H 73.487 2.98508 0.927993 0
M  V30 816 H 72.707 3.65993 -1.46434 0
M  V30 817 H 73.995 4.87759 -1.44807 0
M  V30 818 H 73.393 5.39861 1.69015 0
M  V30 819 H 71.95 6.32429 1.57722 0
M  V30 820 N 75.3831 0.828654 1.34056 0
M  V30 821 C 76.6301 0.419458 1.98108 0
M  V30 822 C 76.9581 -1.01886 1.65679 0
M  V30 823 O 76.2131 -1.72539 0.923512 0
M  V30 824 C 76.5121 0.575226 3.52741 0
M  V30 825 C 76.1781 1.98012 4.05095 0
M  V30 826 C 74.8401 2.36442 4.19104 0
M  V30 827 C 77.1921 2.89824 4.33188 0
M  V30 828 C 74.5201 3.66009 4.58535 0
M  V30 829 C 76.8721 4.1886 4.74066 0
M  V30 830 C 75.5361 4.5726 4.86281 0
M  V30 831 H 74.8061 0.153491 0.724929 0
M  V30 832 H 77.4531 1.05371 1.59904 0
M  V30 833 H 75.7581 -0.142385 3.91541 0
M  V30 834 H 77.4551 0.239057 4.00287 0
M  V30 835 H 74.0451 1.67162 3.94658 0
M  V30 836 H 78.2291 2.61375 4.21897 0
M  V30 837 H 73.4851 3.95579 4.66184 0
M  V30 838 H 77.6591 4.90086 4.94761 0
M  V30 839 H 75.2861 5.57707 5.16592 0
M  V30 840 N 76.8612 -1.46375 0.584142 0
M  V30 841 C 78.0892 -2.06761 0.0759296 0
M  V30 842 C 78.5042 -1.43266 -1.22965 0
M  V30 843 O 77.8612 -0.538458 -1.74376 0
M  V30 844 C 77.9122 -3.61375 -0.0950384 0
M  V30 845 O 77.6332 -4.22495 1.15887 0
M  V30 846 C 79.1342 -4.38693 -0.637434 0
M  V30 847 H 76.3542 -0.668479 0.0581075 0
M  V30 848 H 78.8982 -1.8798 0.805218 0
M  V30 849 H 77.0532 -3.79578 -0.774554 0
M  V30 850 H 77.4672 -5.15385 0.973598 0
M  V30 851 H 78.9412 -5.47464 -0.706237 0
M  V30 852 H 79.4182 -4.06836 -1.65472 0
M  V30 853 H 80.0242 -4.25299 0.00725967 0
M  V30 854 N 78.3393 -0.321999 -1.54275 0
M  V30 855 C 79.5643 0.285791 -2.05422 0
M  V30 856 C 79.9893 1.45124 -1.19669 0
M  V30 857 O 79.3473 1.80132 -0.205441 0
M  V30 858 C 79.3953 0.69956 -3.53749 0
M  V30 859 O 78.4993 1.8021 -3.70942 0
M  V30 860 H 77.8403 0.0518962 -0.661969 0
M  V30 861 H 80.3703 -0.469954 -1.9913 0
M  V30 862 H 80.3803 0.982649 -3.9599 0
M  V30 863 H 79.0553 -0.152864 -4.15619 0
M  V30 864 H 77.6323 1.51794 -3.40607 0
M  V30 865 N 79.8174 1.5752 -0.0501392 0
M  V30 866 C 80.7804 2.1037 0.909786 0
M  V30 867 C 81.7804 1.02308 1.24056 0
M  V30 868 O 82.9704 1.28385 1.17741 0
M  V30 869 C 80.1024 2.58708 2.21998 0
M  V30 870 H 81.2954 2.96479 0.451665 0
M  V30 871 H 78.8484 1.55038 0.198248 0
M  V30 872 H 79.5834 1.75989 2.72394 0
M  V30 873 H 79.3684 3.37675 1.99295 0
M  V30 874 H 80.8584 2.99747 2.9076 0
M  V30 875 N 81.2955 -0.223234 1.56011 0
M  V30 876 C 82.5435 -0.946003 1.78592 0
M  V30 877 C 82.8645 -1.84936 0.618349 0
M  V30 878 O 82.1345 -1.92473 -0.364833 0
M  V30 879 H 80.7145 -0.352298 0.658707 0
M  V30 880 H 83.3765 -0.235494 1.93472 0
M  V30 881 H 82.4725 -1.55381 2.70672 0
M  V30 882 N 82.7736 -1.49793 -0.48987 0
M  V30 883 C 83.6836 -1.70036 -1.61632 0
M  V30 884 C 84.6996 -0.583102 -1.63939 0
M  V30 885 O 85.8756 -0.859169 -1.82154 0
M  V30 886 C 82.9406 -1.77277 -2.97949 0
M  V30 887 C 82.0016 -3.00918 -3.06181 0
M  V30 888 C 81.2346 -3.07804 -4.35996 0
M  V30 889 O 81.4576 -2.21982 -5.25433 0
M  V30 890 O 80.3916 -4.00369 -4.49431 0
M  V30 891 H 84.2176 -2.65486 -1.47482 0
M  V30 892 H 81.8026 -1.33666 -0.667362 0
M  V30 893 H 83.6846 -1.84329 -3.78947 0
M  V30 894 H 82.3596 -0.850076 -3.12339 0
M  V30 895 H 81.2666 -2.99377 -2.2433 0
M  V30 896 H 82.5996 -3.92704 -2.96723 0
M  V30 897 N 84.2517 0.741722 -1.39055 0
M  V30 898 C 85.1997 1.87702 -1.3737 0
M  V30 899 C 86.1937 1.67427 -0.257812 0
M  V30 900 O 87.3997 1.7485 -0.427489 0
M  V30 901 H 83.7747 0.617757 -0.428812 0
M  V30 902 H 85.7457 1.86239 -2.33147 0
M  V30 903 C 84.4947 3.25315 -1.22741 0
M  V30 904 H 83.8177 3.41509 -2.07873 0
M  V30 905 H 85.2577 4.04964 -1.25618 0
M  V30 906 C 83.7167 3.36838 0.0647316 0
M  V30 907 O 84.2467 3.88073 1.03741 0
M  V30 908 N 82.4527 2.90329 0.125544 0
M  V30 909 H 81.9997 2.48823 -0.666682 0
M  V30 910 H 81.9577 2.98418 0.989639 0
M  V30 911 N 85.7298 1.2412 0.971189 0
M  V30 912 C 86.9768 1.07881 1.71371 0
M  V30 913 C 87.3048 -0.382901 1.90694 0
M  V30 914 O 86.5598 -1.29945 1.46331 0
M  V30 915 C 86.8588 1.75983 3.11071 0
M  V30 916 C 86.5248 3.25909 3.11599 0
M  V30 917 C 85.1868 3.66813 3.11451 0
M  V30 918 C 87.5388 4.21771 3.062 0
M  V30 919 C 84.8668 5.02021 3.03631 0
M  V30 920 C 87.2188 5.56982 2.99923 0
M  V30 921 C 85.8828 5.97237 2.98102 0
M  V30 922 H 85.1528 0.394764 0.62709 0
M  V30 923 H 87.7998 1.54176 1.13587 0
M  V30 924 H 86.1048 1.22072 3.72298 0
M  V30 925 H 87.8018 1.60887 3.6731 0
M  V30 926 H 84.3918 2.93353 3.12477 0
M  V30 927 H 88.5758 3.91172 3.05447 0
M  V30 928 H 83.8318 5.32411 3.0058 0
M  V30 929 H 88.0058 6.30969 2.94704 0
M  V30 930 H 85.6328 7.01967 2.91798 0
M  V30 931 N 87.2079 -1.17134 1.05439 0
M  V30 932 C 88.4849 -1.83411 0.679699 0
M  V30 933 C 88.8649 -1.9368 -0.839726 0
M  V30 934 O 88.2129 -1.47325 -1.74664 0
M  V30 935 C 88.4229 -3.20918 1.37159 0
M  V30 936 C 89.7709 -3.96796 1.51123 0
M  V30 937 O 90.7949 -3.30406 1.3308 0
M  V30 938 O 89.6539 -5.15778 1.80651 0
M  V30 939 H 86.7479 -0.79154 0.239569 0
M  V30 940 H 89.2939 -1.24411 1.15413 0
M  V30 941 H 88.0659 -3.08428 2.40807 0
M  V30 942 H 87.6889 -3.87587 0.886674 0
M  V30 943 N 88.686 -0.835752 -1.33615 0
M  V30 944 C 89.633 -0.26473 -2.29277 0
M  V30 945 C 90.603 0.617712 -1.54187 0
M  V30 946 O 91.788 0.556641 -1.825 0
M  V30 947 C 88.928 0.556777 -3.40579 0
M  V30 948 C 88.041 -0.349339 -4.30585 0
M  V30 949 C 87.176 0.482969 -5.29 0
M  V30 950 C 86.215 -0.421732 -6.10645 0
M  V30 951 N 85.352 0.372262 -7.01112 0
M  V30 952 H 90.192 -1.08582 -2.77514 0
M  V30 953 H 87.729 -0.546927 -1.36554 0
M  V30 954 H 89.687 1.04852 -4.03809 0
M  V30 955 H 88.317 1.34286 -2.93542 0
M  V30 956 H 87.369 -0.959372 -3.68104 0
M  V30 957 H 88.681 -1.04445 -4.87742 0
M  V30 958 H 87.835 1.03866 -5.97743 0
M  V30 959 H 86.574 1.21153 -4.72412 0
M  V30 960 H 85.579 -0.989464 -5.40823 0
M  V30 961 H 86.804 -1.14861 -6.69316 0
M  V30 962 H 84.75 1.08426 -6.46977 0
M  V30 963 H 84.667 -0.264198 -7.55538 0
M  V30 964 H 85.935 0.910293 -7.74167 0
M  V30 965 N 90.1641 1.46063 -0.591896 0
M  V30 966 C 91.0941 2.33172 0.123673 0
M  V30 967 C 92.0751 1.45897 0.87453 0
M  V30 968 O 93.2601 1.74698 0.848181 0
M  V30 969 C 90.3901 3.28336 1.13194 0
M  V30 970 C 89.3441 4.25124 0.495324 0
M  V30 971 C 88.6701 5.09863 1.61071 0
M  V30 972 C 89.9701 5.19143 -0.573425 0
M  V30 973 H 91.6641 2.93252 -0.603646 0
M  V30 974 H 89.2101 1.41014 -0.291741 0
M  V30 975 H 91.1631 3.88137 1.64097 0
M  V30 976 H 89.8871 2.66383 1.88965 0
M  V30 977 H 88.5461 3.66599 0.00729452 0
M  V30 978 H 88.1941 4.44288 2.35832 0
M  V30 979 H 87.8941 5.75417 1.19035 0
M  V30 980 H 89.4181 5.72529 2.12233 0
M  V30 981 H 90.8321 5.73106 -0.1491 0
M  V30 982 H 89.2291 5.93089 -0.914636 0
M  V30 983 H 90.2991 4.62519 -1.45617 0
M  V30 984 N 91.6422 0.330177 1.54103 0
M  V30 985 C 92.5722 -0.525353 2.27513 0
M  V30 986 C 93.5532 -1.11383 1.2856 0
M  V30 987 O 94.7382 -1.13773 1.57383 0
M  V30 988 C 91.8682 -1.6831 3.03791 0
M  V30 989 C 90.8222 -1.2236 4.10137 0
M  V30 990 C 90.1482 -2.46882 4.74293 0
M  V30 991 C 91.4482 -0.333697 5.21233 0
M  V30 992 H 93.1422 0.087013 2.99274 0
M  V30 993 H 90.6882 0.0432893 1.43935 0
M  V30 994 H 92.6412 -2.28795 3.5388 0
M  V30 995 H 91.3652 -2.32216 2.29659 0
M  V30 996 H 90.0242 -0.64165 3.60941 0
M  V30 997 H 89.6722 -3.09165 3.96769 0
M  V30 998 H 89.3722 -2.16825 5.46133 0
M  V30 999 H 90.8962 -3.08117 5.27159 0
M  V30 1000 H 92.3102 -0.845013 5.67038 0
M  V30 1001 H 90.7072 -0.125612 5.99969 0
M  V30 1002 H 91.7772 0.633724 4.80741 0
M  V30 1003 N 93.1203 -1.57491 0.0584922 0
M  V30 1004 C 94.0833 -2.1085 -0.898617 0
M  V30 1005 C 95.0833 -1.02964 -1.23511 0
M  V30 1006 O 96.2733 -1.29007 -1.17059 0
M  V30 1007 C 93.4053 -2.59881 -2.20623 0
M  V30 1008 H 94.5983 -2.96715 -0.435936 0
M  V30 1009 H 92.1513 -1.55141 -0.190023 0
M  V30 1010 H 92.8863 -1.77431 -2.71457 0
M  V30 1011 H 92.6713 -3.38727 -1.97501 0
M  V30 1012 H 94.1613 -3.01285 -2.89166 0
M  V30 1013 N 94.5984 0.214957 -1.56127 0
M  V30 1014 C 95.8464 0.936518 -1.79091 0
M  V30 1015 C 96.1674 1.84606 -0.628148 0
M  V30 1016 O 95.4374 1.92664 0.35462 0
M  V30 1017 H 94.0174 0.3488 -0.660566 0
M  V30 1018 H 96.6794 0.22523 -1.93594 0
M  V30 1019 H 95.7754 1.53943 -2.71492 0
M  V30 1020 N 96.0765 1.50051 0.48192 0
M  V30 1021 C 97.0235 1.68122 1.58125 0
M  V30 1022 C 97.9935 0.522545 1.57666 0
M  V30 1023 O 99.1785 0.751844 1.75362 0
M  V30 1024 C 96.3185 1.77142 2.96167 0
M  V30 1025 C 95.4315 3.0444 3.06497 0
M  V30 1026 C 94.5665 3.04321 4.35387 0
M  V30 1027 C 93.6055 4.26118 4.3942 0
M  V30 1028 N 92.7425 4.238 5.59766 0
M  V30 1029 H 97.5825 2.6198 1.42022 0
M  V30 1030 H 95.1195 1.29877 0.690687 0
M  V30 1031 H 97.0775 1.80352 3.76203 0
M  V30 1032 H 95.7075 0.867329 3.1093 0
M  V30 1033 H 94.7595 3.10752 2.19402 0
M  V30 1034 H 96.0715 3.94426 3.05336 0
M  V30 1035 H 95.2255 3.062 5.23762 0
M  V30 1036 H 93.9645 2.12147 4.39141 0
M  V30 1037 H 92.9695 4.24463 3.49444 0
M  V30 1038 H 94.1945 5.19507 4.37366 0
M  V30 1039 H 92.1405 3.34474 5.64326 0
M  V30 1040 H 92.0575 5.07542 5.60301 0
M  V30 1041 H 93.3255 4.2981 6.50295 0
M  V30 1042 N 97.5546 -0.734337 1.39446 0
M  V30 1043 C 98.4846 -1.86155 1.40955 0
M  V30 1044 C 99.4656 -1.67898 0.272827 0
M  V30 1045 O 100.651 -1.88207 0.478743 0
M  V30 1046 C 97.7806 -3.23912 1.25294 0
M  V30 1047 C 96.7346 -3.56808 2.36373 0
M  V30 1048 C 96.0606 -4.93508 2.058 0
M  V30 1049 C 97.3606 -3.59713 3.78687 0
M  V30 1050 H 99.0546 -1.8515 2.35287 0
M  V30 1051 H 96.6006 -0.889367 1.13253 0
M  V30 1052 H 98.5536 -4.02443 1.2497 0
M  V30 1053 H 97.2776 -3.25446 0.274308 0
M  V30 1054 H 95.9366 -2.80606 2.35914 0
M  V30 1055 H 95.5846 -4.91623 1.06374 0
M  V30 1056 H 95.2846 -5.16486 2.80208 0
M  V30 1057 H 96.8086 -5.74396 2.07128 0
M  V30 1058 H 98.2226 -4.2832 3.81071 0
M  V30 1059 H 96.6196 -3.94209 4.52459 0
M  V30 1060 H 97.6896 -2.59504 4.09617 0
M  V30 1061 N 99.0327 -1.24633 -0.964593 0
M  V30 1062 C 100.449 -1.01239 -1.2338 0
M  V30 1063 C 100.649 0.2769 -1.99588 0
M  V30 1064 O 99.7047 0.992241 -2.32187 0
M  V30 1065 C 101.018 -2.22937 -2.01791 0
M  V30 1066 C 102.566 -2.27594 -2.14872 0
M  V30 1067 C 103.041 -3.48921 -2.96678 0
M  V30 1068 N 104.532 -3.49257 -3.04259 0
M  V30 1069 C 105.267 -4.39795 -3.67924 0
M  V30 1070 N 104.763 -5.40591 -4.33281 0
M  V30 1071 N 106.556 -4.275 -3.64966 0
M  V30 1072 H 98.7067 -2.0748 -0.454502 0
M  V30 1073 H 100.97 -0.910647 -0.26349 0
M  V30 1074 H 100.676 -3.16587 -1.53184 0
M  V30 1075 H 100.55 -2.25306 -3.02518 0
M  V30 1076 H 102.937 -1.34473 -2.6268 0
M  V30 1077 H 103.018 -2.2925 -1.13482 0
M  V30 1078 H 102.662 -4.42359 -2.49562 0
M  V30 1079 H 102.592 -3.4451 -3.98272 0
M  V30 1080 H 105.083 -2.76337 -2.57771 0
M  V30 1081 H 105.396 -6.05904 -4.79687 0
M  V30 1082 H 103.741 -5.44475 -4.3194 0
M  V30 1083 H 106.932 -3.47987 -3.13086 0
M  V30 1084 H 107.105 -4.98258 -4.14298 0
M  V30 1085 N 100.511 1.16574 -1.06058 0
M  V30 1086 C 101.421 2.2452 -0.680282 0
M  V30 1087 C 102.437 1.71348 0.302604 0
M  V30 1088 O 103.613 2.00822 0.152513 0
M  V30 1089 C 100.678 3.46629 -0.0700315 0
M  V30 1090 C 99.7388 4.14849 -1.10448 0
M  V30 1091 C 98.9718 5.31129 -0.523256 0
M  V30 1092 O 99.1948 5.66514 0.664709 0
M  V30 1093 O 98.1288 5.88526 -1.26179 0
M  V30 1094 H 101.955 2.59355 -1.58015 0
M  V30 1095 H 99.5398 1.24043 -0.832694 0
M  V30 1096 H 101.422 4.20543 0.268667 0
M  V30 1097 H 100.097 3.13573 0.803353 0
M  V30 1098 H 99.0038 3.42916 -1.49532 0
M  V30 1099 H 100.337 4.51954 -1.94931 0
M  V30 1100 N 101.989 0.842826 1.3317 0
M  V30 1101 C 103.217 0.454055 2.01856 0
M  V30 1102 C 103.632 -0.94587 1.63397 0
M  V30 1103 O 102.989 -1.61534 0.849302 0
M  V30 1104 C 103.04 0.569715 3.56982 0
M  V30 1105 O 102.761 1.91448 3.94055 0
M  V30 1106 C 104.262 0.178412 4.42941 0
M  V30 1107 H 101.482 0.17979 0.646465 0
M  V30 1108 H 104.026 1.1365 1.70012 0
M  V30 1109 H 102.181 -0.0648587 3.87346 0
M  V30 1110 H 102.595 1.90282 4.88767 0
M  V30 1111 H 104.069 0.310376 5.51127 0
M  V30 1112 H 104.546 -0.880056 4.30293 0
M  V30 1113 H 105.152 0.787579 4.17944 0
M  V30 1114 N 103.467 -1.45747 0.599634 0
M  V30 1115 C 104.397 -2.33235 -0.111306 0
M  V30 1116 C 105.378 -1.46359 -0.866781 0
M  V30 1117 O 106.563 -1.75146 -0.838904 0
M  V30 1118 C 103.693 -3.28932 -1.11451 0
M  V30 1119 C 102.647 -4.25381 -0.472772 0
M  V30 1120 C 101.973 -5.1071 -1.58365 0
M  V30 1121 C 103.273 -5.18831 0.600948 0
M  V30 1122 H 104.967 -2.92927 0.61919 0
M  V30 1123 H 102.513 -1.40857 0.299215 0
M  V30 1124 H 104.466 -3.89002 -1.62036 0
M  V30 1125 H 103.19 -2.67381 -1.8755 0
M  V30 1126 H 101.849 -3.66598 0.0121472 0
M  V30 1127 H 101.497 -4.45533 -2.33473 0
M  V30 1128 H 101.197 -5.7604 -1.15982 0
M  V30 1129 H 102.721 -5.73647 -2.09194 0
M  V30 1130 H 104.135 -5.73019 0.179491 0
M  V30 1131 H 102.532 -5.92595 0.946076 0
M  V30 1132 H 103.602 -4.6174 1.48068 0
M  V30 1133 N 104.945 -0.338344 -1.53925 0
M  V30 1134 C 105.893 0.536231 -2.26335 0
M  V30 1135 C 106.887 1.1063 -1.28286 0
M  V30 1136 O 108.093 1.05264 -1.46012 0
M  V30 1137 H 104.468 0.191602 -0.727181 0
M  V30 1138 H 106.439 -0.0965747 -2.98244 0
M  V30 1139 C 105.188 1.67803 -3.04528 0
M  V30 1140 H 104.511 1.24864 -3.79801 0
M  V30 1141 H 105.951 2.26526 -3.58416 0
M  V30 1142 C 104.41 2.60439 -2.13712 0
M  V30 1143 O 104.94 3.6255 -1.72975 0
M  V30 1144 N 103.146 2.29006 -1.78898 0
M  V30 1145 H 102.693 1.46011 -2.12223 0
M  V30 1146 H 102.651 2.91248 -1.18416 0
M  V30 1147 N 106.423 1.57458 -0.0668435 0
M  V30 1148 C 107.672 1.92477 0.602947 0
M  V30 1149 C 107.985 0.948419 1.71068 0
M  V30 1150 O 109.191 1.19124 2.43971 0
M  V30 1151 C 107.647 3.41903 1.12383 0
M  V30 1152 C 107.255 4.47975 0.04737 0
M  V30 1153 C 108.999 3.85931 1.76797 0
M  V30 1154 C 106.906 5.88529 0.582022 0
M  V30 1155 H 105.836 0.718387 0.22899 0
M  V30 1156 H 108.487 1.82978 -0.138276 0
M  V30 1157 H 106.869 3.46459 1.91787 0
M  V30 1158 H 108.043 4.55029 -0.726978 0
M  V30 1159 H 106.358 4.13384 -0.500243 0
M  V30 1160 H 108.955 4.88322 2.17821 0
M  V30 1161 H 109.298 3.23029 2.62599 0
M  V30 1162 H 109.831 3.83958 1.04024 0
M  V30 1163 H 106.57 6.55065 -0.238721 0
M  V30 1164 H 106.09 5.85004 1.324 0
M  V30 1165 H 107.769 6.38258 1.05999 0
M  V30 1166 N 107.901 -0.206675 1.56239 0
M  V30 1167 C 109.126 -0.949474 1.8439 0
M  V30 1168 C 109.551 -1.76549 0.649016 0
M  V30 1169 O 108.909 -1.76782 -0.402231 0
M  V30 1170 C 108.957 -1.83078 3.10668 0
M  V30 1171 O 108.061 -2.9281 2.90407 0
M  V30 1172 H 107.402 -0.268033 0.607499 0
M  V30 1173 H 109.932 -0.215488 2.03462 0
M  V30 1174 H 109.942 -2.2377 3.41161 0
M  V30 1175 H 108.617 -1.23112 3.97261 0
M  V30 1176 H 107.194 -2.55956 2.71184 0
M  V30 1177 N 109.379 -1.50304 -0.473955 0
M  V30 1178 C 110.627 -1.60832 -1.22382 0
M  V30 1179 C 110.948 -0.30939 -1.9253 0
M  V30 1180 O 110.218 0.67296 -1.83978 0
M  V30 1181 H 108.798 -0.592652 -0.454723 0
M  V30 1182 H 111.46 -1.87068 -0.546968 0
M  V30 1183 H 110.556 -2.41803 -1.97327 0
M  V30 1184 N 110.857 0.726932 -1.39834 0
M  V30 1185 C 112.268 1.30558 -1.3346 0
M  V30 1186 C 112.619 1.962 -0.00273003 0
M  V30 1187 O 111.744 1.96826 0.899371 0
M  V30 1188 C 112.339 2.37404 -2.41713 0
M  V30 1189 C 110.898 2.90921 -2.38835 0
M  V30 1190 C 110.045 1.64578 -2.2318 0
M  V30 1191 H 112.996 0.523862 -1.49804 0
M  V30 1192 H 113.017 3.17984 -2.08966 0
M  V30 1193 H 112.529 1.89599 -3.38635 0
M  V30 1194 H 110.63 3.42985 -1.45575 0
M  V30 1195 H 110.743 3.43487 -3.33997 0
M  V30 1196 H 109.107 1.89219 -1.70494 0
M  V30 1197 H 109.89 1.18814 -3.22084 0
M  V30 1198 N 112.336 1.25143 0.95797 0
M  V30 1199 C 113.747 1.08851 1.51685 0
M  V30 1200 C 114.098 -0.33687 1.93286 0
M  V30 1201 O 113.223 -1.22644 1.7829 0
M  V30 1202 C 113.818 1.96978 2.75654 0
M  V30 1203 C 112.377 1.84881 3.27866 0
M  V30 1204 C 111.524 1.91329 2.0072 0
M  V30 1205 H 114.475 1.38478 0.77522 0
M  V30 1206 H 114.496 1.5078 3.4935 0
M  V30 1207 H 114.008 3.00712 2.45345 0
M  V30 1208 H 112.109 0.840182 3.63004 0
M  V30 1209 H 112.222 2.6951 3.96107 0
M  V30 1210 H 110.586 1.35174 2.15871 0
M  V30 1211 H 111.369 2.96661 1.72764 0
M  V30 1212 N 113.814 -1.1601 1.06675 0
M  V30 1213 C 114.744 -2.22688 0.702307 0
M  V30 1214 C 115.725 -1.67306 -0.307032 0
M  V30 1215 O 116.91 -1.93352 -0.181305 0
M  V30 1216 C 114.04 -3.47178 0.092038 0
M  V30 1217 C 112.994 -4.15477 1.02777 0
M  V30 1218 C 112.32 -5.33963 0.28061 0
M  V30 1219 C 113.62 -4.66019 2.35846 0
M  V30 1220 H 115.314 -2.53429 1.59419 0
M  V30 1221 H 112.86 -1.21813 0.767961 0
M  V30 1222 H 114.813 -4.21037 -0.174814 0
M  V30 1223 H 113.537 -3.15749 -0.834877 0
M  V30 1224 H 112.196 -3.43549 1.27944 0
M  V30 1225 H 111.844 -4.98788 -0.649545 0
M  V30 1226 H 111.544 -5.806 0.904258 0
M  V30 1227 H 113.068 -6.10596 0.021396 0
M  V30 1228 H 114.482 -5.3144 2.15045 0
M  V30 1229 H 112.879 -5.23293 2.93743 0
M  V30 1230 H 113.949 -3.82023 2.98641 0
M  V30 1231 N 115.292 -0.849877 -1.32721 0
M  V30 1232 C 116.239 -0.289033 -2.28983 0
M  V30 1233 C 117.209 0.601324 -1.54833 0
M  V30 1234 O 118.394 0.537253 -1.8308 0
M  V30 1235 C 115.534 0.520623 -3.4115 0
M  V30 1236 C 114.647 -0.394989 -4.3019 0
M  V30 1237 C 113.782 0.426834 -5.29482 0
M  V30 1238 C 112.821 -0.486476 -6.10164 0
M  V30 1239 N 111.958 0.297879 -7.01468 0
M  V30 1240 H 116.798 -1.11519 -2.76347 0
M  V30 1241 H 114.335 -0.56138 -1.35967 0
M  V30 1242 H 116.293 1.00563 -4.04899 0
M  V30 1243 H 114.923 1.31165 -2.9495 0
M  V30 1244 H 113.975 -0.99836 -3.67065 0
M  V30 1245 H 115.287 -1.09612 -4.86607 0
M  V30 1246 H 114.441 0.975205 -5.98811 0
M  V30 1247 H 113.18 1.16136 -4.73671 0
M  V30 1248 H 112.185 -1.04677 -5.39743 0
M  V30 1249 H 113.41 -1.21953 -6.6806 0
M  V30 1250 H 111.356 1.01558 -6.48091 0
M  V30 1251 H 111.273 -0.344318 -7.55216 0
M  V30 1252 H 112.541 0.828131 -7.75089 0
M  V30 1253 N 116.77 1.45427 -0.607355 0
M  V30 1254 C 117.733 2.28974 0.101693 0
M  V30 1255 C 118.733 1.39754 0.795329 0
M  V30 1256 O 119.923 1.61878 0.643527 0
M  V30 1257 C 117.055 3.20768 1.15414 0
M  V30 1258 H 118.248 2.93147 -0.632844 0
M  V30 1259 H 115.801 1.51945 -0.366391 0
M  V30 1260 H 116.536 2.61395 1.91945 0
M  V30 1261 H 116.321 3.86489 0.66098 0
M  V30 1262 H 117.811 3.83589 1.65073 0
M  V30 1263 N 118.248 0.346503 1.53744 0
M  V30 1264 C 119.496 -0.248612 2.00565 0
M  V30 1265 C 119.817 -1.5083 1.23593 0
M  V30 1266 O 119.087 -1.92858 0.343912 0
M  V30 1267 H 117.667 -0.0948564 0.740953 0
M  V30 1268 H 120.329 0.468341 1.89189 0
M  V30 1269 H 119.425 -0.488994 3.08245 0
M  V30 1270 N 119.726 -1.57421 0.075193 0
M  V30 1271 C 120.673 -2.12915 -0.890843 0
M  V30 1272 C 121.643 -1.04252 -1.29309 0
M  V30 1273 O 122.828 -1.31933 -1.37834 0
M  V30 1274 C 119.968 -2.69795 -2.15186 0
M  V30 1275 C 119.081 -3.92624 -1.80194 0
M  V30 1276 C 118.216 -4.37736 -3.00933 0
M  V30 1277 C 117.255 -5.53205 -2.61974 0
M  V30 1278 N 116.392 -5.9326 -3.75483 0
M  V30 1279 H 121.232 -2.95156 -0.410735 0
M  V30 1280 H 118.769 -1.45854 -0.191086 0
M  V30 1281 H 120.727 -3.00883 -2.89008 0
M  V30 1282 H 119.357 -1.90313 -2.60731 0
M  V30 1283 H 118.409 -3.67977 -0.964218 0
M  V30 1284 H 119.721 -4.76482 -1.47534 0
M  V30 1285 H 118.875 -4.70503 -3.8303 0
M  V30 1286 H 117.614 -3.52739 -3.36789 0
M  V30 1287 H 116.619 -5.20086 -1.783 0
M  V30 1288 H 117.844 -6.39936 -2.27284 0
M  V30 1289 H 115.79 -5.11212 -4.11094 0
M  V30 1290 H 115.707 -6.71865 -3.46602 0
M  V30 1291 H 116.975 -6.30651 -4.58148 0
M  V30 1292 N 121.204 0.198386 -1.56346 0
M  V30 1293 C 122.432 0.935572 -1.84539 0
M  V30 1294 C 122.847 1.76989 -0.657281 0
M  V30 1295 O 122.204 1.78626 0.374043 0
M  V30 1296 C 122.255 1.8344 -3.11499 0
M  V30 1297 O 121.976 1.03377 -4.25728 0
M  V30 1298 C 123.477 2.68355 -3.52846 0
M  V30 1299 H 120.697 0.273126 -0.612897 0
M  V30 1300 H 123.241 0.20663 -2.03453 0
M  V30 1301 H 121.396 2.51701 -2.94492 0
M  V30 1302 H 121.81 1.64599 -4.98003 0
M  V30 1303 H 123.284 3.27085 -4.44657 0
M  V30 1304 H 123.761 3.41901 -2.75681 0
M  V30 1305 H 124.367 2.05471 -3.72373 0
M  V30 1306 N 122.682 1.50554 0.465978 0
M  V30 1307 C 124.098 1.38093 0.800154 0
M  V30 1308 C 124.298 0.440988 1.96615 0
M  V30 1309 O 123.354 -0.114499 2.5224 0
M  V30 1310 C 124.667 2.79565 1.10742 0
M  V30 1311 C 126.215 2.88516 1.21357 0
M  V30 1312 C 126.69 4.30833 1.55393 0
M  V30 1313 N 128.181 4.33807 1.62375 0
M  V30 1314 C 128.916 5.40927 1.90225 0
M  V30 1315 N 128.412 6.58247 2.16062 0
M  V30 1316 N 130.205 5.28376 1.9177 0
M  V30 1317 H 122.356 2.10237 -0.302366 0
M  V30 1318 H 124.619 0.945203 -0.0727746 0
M  V30 1319 H 124.325 3.50208 0.323661 0
M  V30 1320 H 124.199 3.17125 2.04234 0
M  V30 1321 H 126.586 2.1809 1.98799 0
M  V30 1322 H 126.667 2.54492 0.258321 0
M  V30 1323 H 126.311 5.01799 0.784889 0
M  V30 1324 H 126.241 4.62347 2.52076 0
M  V30 1325 H 128.732 3.49212 1.44427 0
M  V30 1326 H 129.045 7.3569 2.36601 0
M  V30 1327 H 127.39 6.61413 2.13444 0
M  V30 1328 H 130.581 4.35715 1.71085 0
M  V30 1329 H 130.754 6.11944 2.13139 0
M  V30 1330 N 124.16 -0.719506 1.40217 0
M  V30 1331 C 125.388 -1.50864 1.41589 0
M  V30 1332 C 125.803 -1.88794 0.0145275 0
M  V30 1333 O 125.16 -1.55174 -0.960594 0
M  V30 1334 C 125.211 -2.78646 2.30302 0
M  V30 1335 O 124.932 -2.42321 3.64983 0
M  V30 1336 C 126.433 -3.72569 2.40224 0
M  V30 1337 H 123.653 -0.465709 0.48307 0
M  V30 1338 H 126.197 -0.88785 1.84221 0
M  V30 1339 H 124.352 -3.37019 1.91042 0
M  V30 1340 H 124.766 -3.24514 4.12057 0
M  V30 1341 H 126.24 -4.5908 3.06512 0
M  V30 1342 H 126.717 -4.15403 1.42608 0
M  V30 1343 H 127.323 -3.20109 2.80019 0
M  V30 1344 N 125.638 -1.25649 -0.95132 0
M  V30 1345 C 126.885 -1.10594 -1.69633 0
M  V30 1346 C 127.213 0.352515 -1.91279 0
M  V30 1347 O 126.468 1.27601 -1.4838 0
M  V30 1348 C 126.767 -1.80909 -3.08231 0
M  V30 1349 C 126.433 -3.30825 -3.06375 0
M  V30 1350 C 125.095 -3.71722 -3.05576 0
M  V30 1351 C 127.447 -4.26589 -2.99452 0
M  V30 1352 C 124.775 -5.06788 -2.95606 0
M  V30 1353 C 127.127 -5.61683 -2.91024 0
M  V30 1354 C 125.791 -6.01904 -2.88562 0
M  V30 1355 H 125.061 -0.404691 -0.620731 0
M  V30 1356 H 127.708 -1.55964 -1.11119 0
M  V30 1357 H 126.013 -1.27979 -3.70309 0
M  V30 1358 H 127.71 -1.6671 -3.64704 0
M  V30 1359 H 124.3 -2.98287 -3.07771 0
M  V30 1360 H 128.484 -3.95982 -2.99185 0
M  V30 1361 H 123.74 -5.37126 -2.92071 0
M  V30 1362 H 127.914 -6.35578 -2.84629 0
M  V30 1363 H 125.541 -7.06521 -2.80593 0
M  V30 1364 N 127.117 1.15442 -1.07289 0
M  V30 1365 C 128.347 1.89821 -0.815576 0
M  V30 1366 C 128.755 1.7823 0.634867 0
M  V30 1367 O 128.098 1.13152 1.44715 0
M  V30 1368 C 128.16 3.40817 -1.14385 0
M  V30 1369 C 127.824 3.76193 -2.59476 0
M  V30 1370 C 128.821 3.77269 -3.57721 0
M  V30 1371 C 126.506 4.0652 -2.95037 0
M  V30 1372 C 128.5 4.08176 -4.89562 0
M  V30 1373 C 126.187 4.37092 -4.27076 0
M  V30 1374 C 127.185 4.37902 -5.24148 0
M  V30 1375 O 126.873 4.67741 -6.53815 0
M  V30 1376 H 126.605 0.608465 -0.294528 0
M  V30 1377 H 129.159 1.472 -1.43252 0
M  V30 1378 H 127.389 3.83835 -0.469865 0
M  V30 1379 H 129.078 3.96485 -0.869179 0
M  V30 1380 H 129.844 3.5394 -3.3159 0
M  V30 1381 H 125.723 4.05049 -2.20128 0
M  V30 1382 H 129.267 4.08723 -5.65324 0
M  V30 1383 H 125.164 4.59889 -4.5296 0
M  V30 1384 H 125.932 4.85509 -6.58957 0
M  V30 1385 N 128.595 0.856903 1.32268 0
M  V30 1386 C 129.843 0.460474 1.96784 0
M  V30 1387 C 130.164 -0.987701 1.68135 0
M  V30 1388 O 129.434 -1.69058 0.989765 0
M  V30 1389 H 128.014 0.167289 0.728027 0
M  V30 1390 H 130.676 1.09383 1.61312 0
M  V30 1391 H 129.772 0.60739 3.06133 0
M  V30 1392 N 130.073 -1.45103 0.615059 0
M  V30 1393 C 131.003 -2.33339 -0.0865619 0
M  V30 1394 C 131.984 -1.4727 -0.851209 0
M  V30 1395 O 133.169 -1.76026 -0.820281 0
M  V30 1396 C 130.299 -3.30095 -1.07956 0
M  V30 1397 C 129.253 -4.25858 -0.427628 0
M  V30 1398 C 128.579 -5.12361 -1.5294 0
M  V30 1399 C 129.879 -5.18165 0.655944 0
M  V30 1400 H 131.573 -2.92254 0.650224 0
M  V30 1401 H 129.119 -1.40532 0.314138 0
M  V30 1402 H 131.072 -3.90698 -1.57901 0
M  V30 1403 H 129.796 -2.69355 -1.84703 0
M  V30 1404 H 128.455 -3.66564 0.0510292 0
M  V30 1405 H 128.103 -4.47984 -2.28734 0
M  V30 1406 H 127.803 -5.77238 -1.09865 0
M  V30 1407 H 129.327 -5.75833 -2.03098 0
M  V30 1408 H 130.741 -5.72796 0.240257 0
M  V30 1409 H 129.138 -5.91559 1.00888 0
M  V30 1410 H 130.208 -4.60144 1.52957 0
M  V30 1411 N 131.551 -0.354651 -1.53558 0
M  V30 1412 C 132.501 0.513179 -2.2215 0
M  V30 1413 C 133.485 1.05734 -1.21281 0
M  V30 1414 O 134.677 0.989202 -1.46778 0
M  V30 1415 C 131.806 1.65798 -3.00609 0
M  V30 1416 C 130.892 1.12722 -4.08845 0
M  V30 1417 N 131.283 0.318563 -5.04796 0
M  V30 1418 C 129.581 1.40307 -4.23356 0
M  V30 1419 C 130.282 0.0292224 -5.81693 0
M  V30 1420 N 129.258 0.623891 -5.40008 0
M  V30 1421 H 133.06 -0.111586 -2.93688 0
M  V30 1422 H 130.574 -0.162091 -1.61589 0
M  V30 1423 H 132.571 2.29176 -3.48258 0
M  V30 1424 H 131.231 2.28591 -2.306 0
M  V30 1425 H 132.242 -0.0413091 -5.17884 0
M  V30 1426 H 128.919 2.03458 -3.6457 0
M  V30 1427 H 130.309 -0.623808 -6.68998 0
M  V30 1428 N 133.029 1.57378 -0.0835403 0
M  V30 1429 C 133.961 2.10389 0.909338 0
M  V30 1430 C 134.974 1.03858 1.25369 0
M  V30 1431 O 136.163 1.31338 1.20882 0
M  V30 1432 C 133.263 2.55908 2.2218 0
M  V30 1433 C 132.436 3.86145 2.05453 0
M  V30 1434 C 131.495 4.17633 3.20108 0
M  V30 1435 O 130.521 4.87043 2.94581 0
M  V30 1436 N 131.723 3.72113 4.45547 0
M  V30 1437 H 134.488 2.962 0.456657 0
M  V30 1438 H 132.049 1.61579 0.101877 0
M  V30 1439 H 134.041 2.74027 2.97811 0
M  V30 1440 H 132.611 1.75171 2.58909 0
M  V30 1441 H 131.831 3.7729 1.1422 0
M  V30 1442 H 133.119 4.7137 1.91541 0
M  V30 1443 H 132.517 3.16062 4.69171 0
M  V30 1444 H 131.074 3.95409 5.18165 0
M  V30 1445 N 134.507 -0.190092 1.56449 0
M  V30 1446 C 135.784 -0.935886 1.71757 0
M  V30 1447 C 136.164 -2.01173 0.639726 0
M  V30 1448 O 135.512 -2.25827 -0.348502 0
M  V30 1449 C 135.722 -1.51775 3.1427 0
M  V30 1450 C 137.07 -1.99794 3.74656 0
M  V30 1451 O 138.094 -1.61607 3.1743 0
M  V30 1452 O 136.953 -2.70079 4.751 0
M  V30 1453 H 134.047 -0.439229 0.700719 0
M  V30 1454 H 136.593 -0.179395 1.68749 0
M  V30 1455 H 135.365 -0.742505 3.84191 0
M  V30 1456 H 134.988 -2.33894 3.21527 0
M  V30 1457 N 135.985 -1.50799 -0.457987 0
M  V30 1458 C 137.232 -1.62442 -1.20908 0
M  V30 1459 C 137.56 -0.330865 -1.91665 0
M  V30 1460 O 136.815 0.68401 -1.83357 0
M  V30 1461 C 137.114 -2.76358 -2.2663 0
M  V30 1462 C 136.78 -4.16378 -1.73033 0
M  V30 1463 C 135.442 -4.54473 -1.58138 0
M  V30 1464 C 137.794 -5.03836 -1.33413 0
M  V30 1465 C 135.122 -5.77754 -1.02065 0
M  V30 1466 C 137.474 -6.27676 -0.78778 0
M  V30 1467 C 136.138 -6.64562 -0.625561 0
M  V30 1468 H 135.408 -0.594417 -0.442435 0
M  V30 1469 H 138.055 -1.84772 -0.503136 0
M  V30 1470 H 136.36 -2.48167 -3.03184 0
M  V30 1471 H 138.057 -2.82568 -2.84528 0
M  V30 1472 H 134.647 -3.86331 -1.85598 0
M  V30 1473 H 138.831 -4.75026 -1.4375 0
M  V30 1474 H 134.087 -6.04997 -0.882547 0
M  V30 1475 H 138.261 -6.94797 -0.472177 0
M  V30 1476 H 135.888 -7.59965 -0.188926 0
M  V30 1477 N 137.463 0.71206 -1.40597 0
M  V30 1478 C 138.874 1.29135 -1.34837 0
M  V30 1479 C 139.225 1.96186 -0.0235395 0
M  V30 1480 O 138.35 1.97768 0.878444 0
M  V30 1481 C 138.945 2.34827 -2.44217 0
M  V30 1482 C 137.504 2.88371 -2.41907 0
M  V30 1483 C 136.651 1.62202 -2.24913 0
M  V30 1484 H 139.602 0.507944 -1.50352 0
M  V30 1485 H 139.623 3.15749 -2.12327 0
M  V30 1486 H 139.135 1.85996 -3.40627 0
M  V30 1487 H 137.236 3.41422 -1.49204 0
M  V30 1488 H 137.349 3.39925 -3.37621 0
M  V30 1489 H 135.713 1.874 -1.72492 0
M  V30 1490 H 136.496 1.15391 -3.23326 0
M  V30 1491 N 138.941 1.26152 0.944643 0
M  V30 1492 C 140.166 1.14363 1.7302 0
M  V30 1493 C 140.591 -0.29772 1.85729 0
M  V30 1494 O 139.949 -1.2157 1.34501 0
M  V30 1495 C 139.997 1.81378 3.11664 0
M  V30 1496 O 139.101 1.10022 3.97453 0
M  V30 1497 H 138.442 0.398694 0.53098 0
M  V30 1498 H 140.972 1.66906 1.18337 0
M  V30 1499 H 140.982 1.88064 3.62072 0
M  V30 1500 H 139.657 2.86237 3.0173 0
M  V30 1501 H 138.234 1.11287 3.55907 0
M  V30 1502 N 140.419 -1.14872 1.07899 0
M  V30 1503 C 141.665 -1.86064 0.806725 0
M  V30 1504 C 141.998 -1.82434 -0.665706 0
M  V30 1505 O 141.273 -1.25138 -1.48899 0
M  V30 1506 C 141.556 -3.34929 1.32267 0
M  V30 1507 C 141.409 -3.47161 2.86006 0
M  V30 1508 C 142.728 -4.29863 0.943717 0
M  V30 1509 H 139.847 -0.675591 0.294526 0
M  V30 1510 H 142.489 -1.34925 1.33773 0
M  V30 1511 H 140.639 -3.78611 0.870974 0
M  V30 1512 H 142.311 -3.12302 3.39507 0
M  V30 1513 H 140.554 -2.88539 3.23925 0
M  V30 1514 H 141.225 -4.51777 3.17177 0
M  V30 1515 H 143.701 -3.9417 1.33302 0
M  V30 1516 H 142.577 -5.32494 1.33198 0
M  V30 1517 H 142.838 -4.41846 -0.149796 0
M  V30 1518 N 141.898 -0.863906 -1.31812 0
M  V30 1519 C 143.144 -0.472535 -1.97218 0
M  V30 1520 C 143.477 0.971394 -1.68159 0
M  V30 1521 O 142.752 1.68309 -0.974798 0
M  V30 1522 C 143.035 -0.723054 -3.52766 0
M  V30 1523 C 142.888 -2.21608 -3.91421 0
M  V30 1524 C 144.207 -0.185522 -4.39709 0
M  V30 1525 H 141.326 -0.173158 -0.71637 0
M  V30 1526 H 143.968 -1.08403 -1.56041 0
M  V30 1527 H 142.118 -0.202577 -3.87971 0
M  V30 1528 H 143.79 -2.80334 -3.66347 0
M  V30 1529 H 142.033 -2.691 -3.40246 0
M  V30 1530 H 142.704 -2.34203 -4.99853 0
M  V30 1531 H 145.18 -0.630726 -4.11292 0
M  V30 1532 H 144.056 -0.390306 -5.47511 0
M  V30 1533 H 144.317 0.912229 -4.32586 0
M  V30 1534 N 143.376 1.44774 -0.622745 0
M  V30 1535 C 144.306 2.33382 0.0741861 0
M  V30 1536 C 145.287 1.47719 0.843387 0
M  V30 1537 O 146.472 1.76458 0.810934 0
M  V30 1538 C 143.602 3.30663 1.06204 0
M  V30 1539 C 142.556 4.26079 0.405037 0
M  V30 1540 C 141.882 5.13165 1.5022 0
M  V30 1541 C 143.182 5.1781 -0.683414 0
M  V30 1542 H 144.876 2.91905 -0.665713 0
M  V30 1543 H 142.422 1.40363 -0.321587 0
M  V30 1544 H 144.375 3.9153 1.55827 0
M  V30 1545 H 143.099 2.70331 1.83272 0
M  V30 1546 H 141.758 3.66532 -0.0704683 0
M  V30 1547 H 141.406 4.49191 2.26355 0
M  V30 1548 H 141.106 5.77812 1.06803 0
M  V30 1549 H 142.63 5.76902 2.00041 0
M  V30 1550 H 144.044 5.72661 -0.270631 0
M  V30 1551 H 142.441 5.91015 -1.04023 0
M  V30 1552 H 143.511 4.59326 -1.55395 0
M  V30 1553 N 144.854 0.36279 1.53368 0
M  V30 1554 C 146.1 -0.228113 2.01513 0
M  V30 1555 C 146.433 -1.48648 1.2497 0
M  V30 1556 O 145.708 -1.91459 0.342616 0
M  V30 1557 C 145.991 -0.522884 3.56284 0
M  V30 1558 C 145.844 0.74892 4.43521 0
M  V30 1559 C 147.163 -1.32461 4.19693 0
M  V30 1560 H 144.282 -0.0814343 0.732487 0
M  V30 1561 H 146.924 0.48713 1.83649 0
M  V30 1562 H 145.074 -1.1322 3.71636 0
M  V30 1563 H 146.746 1.38648 4.39971 0
M  V30 1564 H 144.989 1.36986 4.11603 0
M  V30 1565 H 145.66 0.497667 5.49752 0
M  V30 1566 H 148.136 -0.809203 4.08156 0
M  V30 1567 H 147.012 -1.49961 5.28018 0
M  V30 1568 H 147.273 -2.33232 3.75573 0
M  V30 1569 N 146.332 -1.57332 0.0918853 0
M  V30 1570 C 147.58 -1.93853 -0.571446 0
M  V30 1571 C 147.901 -0.974212 -1.6892 0
M  V30 1572 O 147.171 -0.0257254 -1.95883 0
M  V30 1573 H 145.751 -0.715666 -0.214082 0
M  V30 1574 H 148.413 -1.94287 0.154464 0
M  V30 1575 H 147.509 -2.96191 -0.983729 0
M  V30 1576 N 147.81 0.181792 -1.56548 0
M  V30 1577 C 148.74 1.22765 -1.98623 0
M  V30 1578 C 149.721 1.46747 -0.860189 0
M  V30 1579 O 150.906 1.58259 -1.12551 0
M  V30 1580 C 148.036 2.56894 -2.33715 0
M  V30 1581 C 146.99 2.475 -3.49182 0
M  V30 1582 C 146.316 3.86023 -3.69986 0
M  V30 1583 C 147.616 1.98866 -4.82959 0
M  V30 1584 H 149.31 0.877942 -2.86239 0
M  V30 1585 H 146.856 0.42088 -1.37712 0
M  V30 1586 H 148.809 3.30253 -2.61746 0
M  V30 1587 H 147.533 2.93632 -1.42997 0
M  V30 1588 H 146.192 1.76596 -3.21262 0
M  V30 1589 H 145.84 4.20136 -2.76576 0
M  V30 1590 H 145.54 3.80609 -4.47672 0
M  V30 1591 H 147.064 4.60984 -4.00407 0
M  V30 1592 H 148.478 2.61992 -5.09934 0
M  V30 1593 H 146.875 2.04424 -5.64208 0
M  V30 1594 H 147.945 0.942465 -4.75653 0
M  V30 1595 N 149.288 1.51039 0.449983 0
M  V30 1596 C 150.536 1.62759 1.19808 0
M  V30 1597 C 150.857 0.339981 1.92013 0
M  V30 1598 O 150.127 -0.643606 1.85026 0
M  V30 1599 H 148.707 0.599811 0.445237 0
M  V30 1600 H 151.369 1.87914 0.517138 0
M  V30 1601 H 150.465 2.44911 1.93455 0
M  V30 1602 N 150.766 -0.704594 1.40972 0
M  V30 1603 C 151.713 -1.81862 1.42109 0
M  V30 1604 C 152.683 -1.63781 0.276593 0
M  V30 1605 O 153.868 -1.84759 0.4763 0
M  V30 1606 C 151.008 -3.19669 1.30022 0
M  V30 1607 C 150.121 -3.49246 2.54267 0
M  V30 1608 C 149.256 -4.76618 2.3454 0
M  V30 1609 C 148.295 -4.99133 3.54306 0
M  V30 1610 N 147.432 -6.17726 3.33706 0
M  V30 1611 H 152.272 -1.80226 2.37324 0
M  V30 1612 H 149.809 -0.880238 1.17857 0
M  V30 1613 H 151.767 -3.99263 1.21018 0
M  V30 1614 H 150.397 -3.20506 0.384192 0
M  V30 1615 H 149.449 -2.64125 2.73756 0
M  V30 1616 H 150.761 -3.61788 3.43381 0
M  V30 1617 H 149.915 -5.64249 2.22952 0
M  V30 1618 H 148.654 -4.66305 1.42867 0
M  V30 1619 H 147.659 -4.09953 3.66359 0
M  V30 1620 H 148.884 -5.11311 4.4692 0
M  V30 1621 H 146.83 -6.08642 2.44725 0
M  V30 1622 H 146.747 -6.30995 4.16391 0
M  V30 1623 H 148.015 -7.08115 3.25873 0
M  V30 1624 N 152.244 -1.26651 -0.937939 0
M  V30 1625 C 153.191 -1.0849 -2.03712 0
M  V30 1626 C 154.161 0.011033 -1.66096 0
M  V30 1627 O 155.346 -0.149353 -1.90215 0
M  V30 1628 C 152.486 -0.72735 -3.37348 0
M  V30 1629 C 151.599 -1.89986 -3.87981 0
M  V30 1630 C 150.734 -1.48513 -5.10017 0
M  V30 1631 C 149.773 -2.62575 -5.5292 0
M  V30 1632 N 148.91 -2.21762 -6.66158 0
M  V30 1633 H 153.75 -2.02551 -2.18579 0
M  V30 1634 H 151.287 -1.00844 -1.07093 0
M  V30 1635 H 153.245 -0.50092 -4.14182 0
M  V30 1636 H 151.875 0.176298 -3.22318 0
M  V30 1637 H 150.927 -2.23913 -3.07518 0
M  V30 1638 H 152.239 -2.75586 -4.15757 0
M  V30 1639 H 151.393 -1.21934 -5.94321 0
M  V30 1640 H 150.132 -0.60009 -4.83994 0
M  V30 1641 H 149.137 -2.8988 -4.67172 0
M  V30 1642 H 150.362 -3.51685 -5.80943 0
M  V30 1643 H 148.308 -1.35696 -6.41812 0
M  V30 1644 H 148.225 -3.00903 -6.93537 0
M  V30 1645 H 149.493 -1.98403 -7.53828 0
M  V30 1646 N 153.722 1.14298 -1.08507 0
M  V30 1647 C 154.685 2.17607 -0.719711 0
M  V30 1648 C 155.685 1.58907 0.245997 0
M  V30 1649 O 156.875 1.74181 0.0254081 0
M  V30 1650 C 154.007 3.40842 -0.0627695 0
M  V30 1651 H 155.2 2.51443 -1.63452 0
M  V30 1652 H 152.753 1.28963 -0.88307 0
M  V30 1653 H 153.488 3.12587 0.863716 0
M  V30 1654 H 153.273 3.84713 -0.757504 0
M  V30 1655 H 154.763 4.17221 0.177786 0
M  V30 1656 N 155.201 0.870884 1.31352 0
M  V30 1657 C 156.164 0.332243 2.26779 0
M  V30 1658 C 157.164 -0.517302 1.52252 0
M  V30 1659 O 158.354 -0.326477 1.71113 0
M  V30 1660 C 155.486 -0.528066 3.36785 0
M  V30 1661 H 156.679 1.17469 2.75937 0
M  V30 1662 H 154.232 0.64655 1.423 0
M  V30 1663 H 154.967 -1.39167 2.92922 0
M  V30 1664 H 154.752 0.0802582 3.92018 0
M  V30 1665 H 156.242 -0.897179 4.07849 0
M  V30 1666 N 156.679 -1.44442 0.630414 0
M  V30 1667 C 157.927 -2.01653 0.134351 0
M  V30 1668 C 158.248 -1.49836 -1.24796 0
M  V30 1669 O 157.518 -0.701684 -1.82902 0
M  V30 1670 H 156.098 -0.74554 0.0466769 0
M  V30 1671 H 158.76 -1.76952 0.816955 0
M  V30 1672 H 157.856 -3.11935 0.101498 0
M  V30 1673 N 158.157 -0.370918 -1.53173 0
M  V30 1674 C 159.406 0.218249 -2.00516 0
M  V30 1675 C 159.719 1.49429 -1.26215 0
M  V30 1676 O 160.925 2.16239 -1.64174 0
M  V30 1677 C 159.381 0.43948 -3.57207 0
M  V30 1678 C 158.989 -0.822244 -4.4039 0
M  V30 1679 C 160.733 0.986012 -4.1289 0
M  V30 1680 C 158.64 -0.570304 -5.88644 0
M  V30 1681 H 157.57 0.0853333 -0.749156 0
M  V30 1682 H 160.221 -0.490483 -1.76823 0
M  V30 1683 H 158.603 1.20961 -3.77074 0
M  V30 1684 H 159.777 -1.59557 -4.32294 0
M  V30 1685 H 158.092 -1.29238 -3.95836 0
M  V30 1686 H 160.689 1.18991 -5.21292 0
M  V30 1687 H 161.032 1.94972 -3.6782 0
M  V30 1688 H 161.565 0.27592 -3.96842 0
M  V30 1689 H 158.304 -1.50449 -6.38001 0
M  V30 1690 H 157.824 0.164427 -5.99575 0
M  V30 1691 H 159.503 -0.19784 -6.46697 0
M  V30 1692 N 159.635 1.57281 -0.100228 0
M  V30 1693 C 160.912 1.86014 0.604812 0
M  V30 1694 C 161.292 0.998025 1.86018 0
M  V30 1695 O 160.64 0.0718184 2.28387 0
M  V30 1696 C 160.85 3.36784 0.915278 0
M  V30 1697 C 162.198 4.04957 1.27651 0
M  V30 1698 O 163.222 3.41695 1.00613 0
M  V30 1699 O 162.081 5.16593 1.7831 0
M  V30 1700 H 159.175 0.76942 0.303185 0
M  V30 1701 H 161.721 1.69176 -0.133313 0
M  V30 1702 H 160.493 3.91292 0.0248896 0
M  V30 1703 H 160.116 3.58987 1.70921 0
M  V30 1704 N 161.113 -0.173488 1.56642 0
M  V30 1705 C 162.023 -1.23482 1.99473 0
M  V30 1706 C 163.039 -1.48567 0.905752 0
M  V30 1707 O 164.215 -1.60758 1.21321 0
M  V30 1708 C 161.28 -2.55444 2.34413 0
M  V30 1709 C 160.341 -2.38241 3.57127 0
M  V30 1710 C 159.574 -3.63909 3.90392 0
M  V30 1711 O 159.797 -4.68996 3.24653 0
M  V30 1712 O 158.731 -3.58149 4.83749 0
M  V30 1713 H 162.557 -0.901279 2.90018 0
M  V30 1714 H 160.142 -0.380185 1.44482 0
M  V30 1715 H 162.024 -3.33292 2.57865 0
M  V30 1716 H 160.699 -2.88382 1.4703 0
M  V30 1717 H 159.606 -1.58431 3.38896 0
M  V30 1718 H 160.939 -2.10228 4.45045 0
M  V30 1719 N 162.591 -1.51276 -0.441967 0
M  V30 1720 C 163.523 -1.68444 -1.55433 0
M  V30 1721 C 164.536 -0.565187 -1.52674 0
M  V30 1722 O 165.725 -0.839356 -1.57534 0
M  V30 1723 C 162.825 -1.67966 -2.94348 0
M  V30 1724 C 161.998 -2.964 -3.21661 0
M  V30 1725 C 161.057 -2.88171 -4.40277 0
M  V30 1726 O 160.083 -3.62119 -4.39157 0
M  V30 1727 N 161.285 -2.03706 -5.43584 0
M  V30 1728 H 164.05 -2.644 -1.41112 0
M  V30 1729 H 161.611 -1.49104 -0.630838 0
M  V30 1730 H 163.603 -1.60035 -3.71713 0
M  V30 1731 H 162.173 -0.796225 -3.0229 0
M  V30 1732 H 161.393 -3.18234 -2.32638 0
M  V30 1733 H 162.681 -3.81427 -3.36736 0
M  V30 1734 H 162.079 -1.42995 -5.47329 0
M  V30 1735 H 160.636 -2.01658 -6.1982 0
M  V30 1736 N 164.069 0.697108 -1.41344 0
M  V30 1737 C 164.979 1.84088 -1.45427 0
M  V30 1738 C 165.995 1.70545 -0.34501 0
M  V30 1739 O 167.171 1.92488 -0.592492 0
M  V30 1740 C 164.236 3.20056 -1.33286 0
M  V30 1741 C 163.297 3.45718 -2.54514 0
M  V30 1742 C 162.53 4.75199 -2.42944 0
M  V30 1743 O 162.753 5.51579 -1.45318 0
M  V30 1744 O 161.687 5.0161 -3.32672 0
M  V30 1745 H 165.513 1.836 -2.41919 0
M  V30 1746 H 163.098 0.849966 -1.22866 0
M  V30 1747 H 164.98 4.01236 -1.28794 0
M  V30 1748 H 163.655 3.2123 -0.39909 0
M  V30 1749 H 162.562 2.64474 -2.64583 0
M  V30 1750 H 163.895 3.49356 -3.46715 0
M  V30 1751 N 165.547 1.27147 0.931209 0
M  V30 1752 C 166.495 1.09398 2.05268 0
M  V30 1753 C 167.489 0.0180591 1.6939 0
M  V30 1754 O 168.695 0.17551 1.79142 0
M  V30 1755 H 165.07 0.336986 0.672268 0
M  V30 1756 H 167.041 2.04416 2.17386 0
M  V30 1757 C 165.79 0.75424 3.39421 0
M  V30 1758 H 165.113 1.57404 3.67511 0
M  V30 1759 H 166.553 0.669903 4.18674 0
M  V30 1760 C 165.012 -0.541197 3.32525 0
M  V30 1761 O 165.542 -1.57664 3.69466 0
M  V30 1762 N 163.748 -0.535517 2.85623 0
M  V30 1763 H 163.295 0.307511 2.55758 0
M  V30 1764 H 163.253 -1.40236 2.81392 0
M  V30 1765 N 167.025 -1.13721 1.09112 0
M  V30 1766 C 168.271 -1.85413 0.836283 0
M  V30 1767 C 168.626 -1.8175 -0.631249 0
M  V30 1768 O 167.919 -1.24238 -1.45861 0
M  V30 1769 C 168.113 -3.32861 1.30146 0
M  V30 1770 C 167.942 -3.50882 2.81268 0
M  V30 1771 C 166.712 -3.65312 3.49106 0
M  V30 1772 C 168.91 -3.47196 3.7942 0
M  V30 1773 N 166.892 -3.71563 4.88686 0
M  V30 1774 C 168.263 -3.59777 5.04936 0
M  V30 1775 C 170.318 -3.30577 3.72321 0
M  V30 1776 C 169.021 -3.57455 6.24194 0
M  V30 1777 C 171.047 -3.29562 4.91063 0
M  V30 1778 C 170.409 -3.42691 6.15421 0
M  V30 1779 H 166.508 -0.694812 0.358832 0
M  V30 1780 H 169.092 -1.36246 1.39087 0
M  V30 1781 H 167.263 -3.80602 0.774361 0
M  V30 1782 H 168.995 -3.92346 0.99229 0
M  V30 1783 H 165.75 -3.6685 2.9953 0
M  V30 1784 H 166.174 -3.78387 5.61384 0
M  V30 1785 H 170.816 -3.19332 2.77105 0
M  V30 1786 H 168.534 -3.67475 7.19714 0
M  V30 1787 H 172.12 -3.17905 4.87266 0
M  V30 1788 H 171 -3.41862 7.05762 0
M  V30 1789 N 168.503 -0.877838 -1.30888 0
M  V30 1790 C 169.453 -0.310872 -2.25871 0
M  V30 1791 C 170.437 0.556596 -1.50966 0
M  V30 1792 O 171.629 0.402187 -1.7237 0
M  V30 1793 C 168.758 0.479821 -3.3993 0
M  V30 1794 C 167.844 -0.401333 -4.22197 0
M  V30 1795 N 168.235 -1.49848 -4.83093 0
M  V30 1796 C 166.533 -0.195167 -4.45573 0
M  V30 1797 C 167.234 -2.0425 -5.44662 0
M  V30 1798 N 166.21 -1.33843 -5.26865 0
M  V30 1799 H 170.012 -1.1493 -2.70496 0
M  V30 1800 H 167.526 -0.726458 -1.45246 0
M  V30 1801 H 169.523 0.902582 -4.07012 0
M  V30 1802 H 168.183 1.31577 -2.96846 0
M  V30 1803 H 169.194 -1.88137 -4.82519 0
M  V30 1804 H 165.871 0.604192 -4.13105 0
M  V30 1805 H 167.261 -2.96345 -6.03017 0
M  V30 1806 N 169.982 1.44106 -0.638065 0
M  V30 1807 C 170.892 2.34513 0.0637334 0
M  V30 1808 C 171.908 1.53018 0.828346 0
M  V30 1809 O 173.084 1.85723 0.779036 0
M  V30 1810 C 170.149 3.31095 1.02844 0
M  V30 1811 C 169.21 4.28497 0.26244 0
M  V30 1812 C 168.443 5.20465 1.1812 0
M  V30 1813 O 168.666 5.16514 2.42011 0
M  V30 1814 O 167.6 5.98251 0.661774 0
M  V30 1815 H 171.426 2.95989 -0.68003 0
M  V30 1816 H 169.011 1.43994 -0.398252 0
M  V30 1817 H 170.893 3.90526 1.58327 0
M  V30 1818 H 169.568 2.72144 1.7527 0
M  V30 1819 H 168.475 3.72592 -0.335602 0
M  V30 1820 H 169.808 4.90388 -0.421936 0
M  V30 1821 N 171.46 0.379036 1.52974 0
M  V30 1822 C 172.708 -0.206014 2.01047 0
M  V30 1823 C 173.029 -1.48175 1.26765 0
M  V30 1824 O 172.299 -1.92085 0.384743 0
M  V30 1825 H 170.879 -0.0791184 0.742798 0
M  V30 1826 H 173.541 0.508366 1.88153 0
M  V30 1827 H 172.637 -0.423501 3.09213 0
M  V30 1828 N 172.938 -1.57226 0.108567 0
M  V30 1829 C 173.885 -2.14756 -0.845481 0
M  V30 1830 C 174.855 -1.06971 -1.27068 0
M  V30 1831 O 176.04 -1.34827 -1.35005 0
M  V30 1832 C 173.18 -2.74298 -2.09415 0
M  V30 1833 C 172.293 -3.96358 -1.71826 0
M  V30 1834 C 171.428 -4.44021 -2.9158 0
M  V30 1835 C 170.467 -5.58637 -2.50181 0
M  V30 1836 N 169.604 -6.01091 -3.62814 0
M  V30 1837 H 174.444 -2.95961 -0.348035 0
M  V30 1838 H 171.981 -1.46226 -0.160106 0
M  V30 1839 H 173.939 -3.06945 -2.82561 0
M  V30 1840 H 172.569 -1.95801 -2.56636 0
M  V30 1841 H 171.621 -3.69939 -0.885947 0
M  V30 1842 H 172.933 -4.79504 -1.37394 0
M  V30 1843 H 172.087 -4.78522 -3.72963 0
M  V30 1844 H 170.826 -3.59803 -3.29231 0
M  V30 1845 H 169.831 -5.23751 -1.67228 0
M  V30 1846 H 171.056 -6.44613 -2.13659 0
M  V30 1847 H 169.002 -5.19817 -4.00158 0
M  V30 1848 H 168.919 -6.79066 -3.32273 0
M  V30 1849 H 170.187 -6.40227 -4.44668 0
M  V30 1850 N 174.416 0.165178 -1.56732 0
M  V30 1851 C 175.326 1.22423 -2.00125 0
M  V30 1852 C 176.342 1.48084 -0.913619 0
M  V30 1853 O 177.518 1.60112 -1.22172 0
M  V30 1854 C 174.583 2.54197 -2.35764 0
M  V30 1855 C 173.644 2.36343 -3.58386 0
M  V30 1856 C 172.877 3.61834 -3.92316 0
M  V30 1857 O 173.1 4.67267 -3.27135 0
M  V30 1858 O 172.034 3.55579 -4.85641 0
M  V30 1859 H 175.86 0.885886 -2.90492 0
M  V30 1860 H 173.445 0.372518 -1.44681 0
M  V30 1861 H 175.327 3.3192 -2.59629 0
M  V30 1862 H 174.002 2.87598 -1.48557 0
M  V30 1863 H 172.909 1.56632 -3.39731 0
M  V30 1864 H 174.242 2.07865 -4.46154 0
M  V30 1865 N 175.894 1.51508 0.433938 0
M  V30 1866 C 176.842 1.73646 1.54757 0
M  V30 1867 C 177.836 0.602854 1.5831 0
M  V30 1868 O 179.042 0.784318 1.62014 0
M  V30 1869 H 175.417 0.548718 0.51421 0
M  V30 1870 H 177.388 2.66991 1.33261 0
M  V30 1871 C 176.137 1.88172 2.92381 0
M  V30 1872 H 175.46 2.74808 2.90381 0
M  V30 1873 H 176.9 2.07672 3.6966 0
M  V30 1874 C 175.359 0.64239 3.30719 0
M  V30 1875 O 175.889 -0.201362 4.01195 0
M  V30 1876 N 174.095 0.485489 2.86516 0
M  V30 1877 H 173.642 1.17318 2.29334 0
M  V30 1878 H 173.6 -0.342482 3.12529 0
M  V30 1879 N 177.372 -0.689602 1.41712 0
M  V30 1880 C 178.621 -1.44534 1.40686 0
M  V30 1881 C 178.934 -1.95588 0.0213352 0
M  V30 1882 O 180.14 -2.71271 -0.111534 0
M  V30 1883 C 178.596 -2.61387 2.47396 0
M  V30 1884 C 178.204 -2.17094 3.91885 0
M  V30 1885 C 179.948 -3.38986 2.55517 0
M  V30 1886 C 177.855 -3.3094 4.90135 0
M  V30 1887 H 176.785 -0.542925 0.52321 0
M  V30 1888 H 179.436 -0.748054 1.6756 0
M  V30 1889 H 177.818 -3.33412 2.13664 0
M  V30 1890 H 178.992 -1.52318 4.34897 0
M  V30 1891 H 177.307 -1.52473 3.8748 0
M  V30 1892 H 179.904 -4.23747 3.26102 0
M  V30 1893 H 180.247 -3.84578 1.59391 0
M  V30 1894 H 180.78 -2.74021 2.8837 0
M  V30 1895 H 177.519 -2.90355 5.87685 0
M  V30 1896 H 177.039 -3.94546 4.51767 0
M  V30 1897 H 178.718 -3.9663 5.11169 0
M  V30 1898 N 178.85 -1.27639 -0.924453 0
M  V30 1899 C 180.266 -1.05113 -1.20097 0
M  V30 1900 C 180.466 0.213262 -2.00368 0
M  V30 1901 O 179.522 0.91787 -2.35226 0
M  V30 1902 C 180.835 -2.29244 -1.94596 0
M  V30 1903 C 182.383 -2.34315 -2.07522 0
M  V30 1904 C 182.858 -3.58183 -2.85427 0
M  V30 1905 N 184.349 -3.5876 -2.92994 0
M  V30 1906 C 185.084 -4.51277 -3.53746 0
M  V30 1907 N 184.58 -5.54102 -4.15863 0
M  V30 1908 N 186.373 -4.38894 -3.51181 0
M  V30 1909 H 178.524 -2.08821 -0.388264 0
M  V30 1910 H 180.787 -0.918568 -0.234385 0
M  V30 1911 H 180.493 -3.21301 -1.43034 0
M  V30 1912 H 180.367 -2.34816 -2.95197 0
M  V30 1913 H 182.754 -1.42762 -2.58269 0
M  V30 1914 H 182.835 -2.32744 -1.06131 0
M  V30 1915 H 182.479 -4.50074 -2.35363 0
M  V30 1916 H 182.409 -3.57006 -3.8711 0
M  V30 1917 H 184.9 -2.84398 -2.4885 0
M  V30 1918 H 185.213 -6.20859 -4.60168 0
M  V30 1919 H 183.558 -5.57941 -4.144 0
M  V30 1920 H 186.749 -3.57772 -3.01856 0
M  V30 1921 H 186.922 -5.11186 -3.98237 0
M  V30 1922 N 180.328 1.1314 -1.09713 0
M  V30 1923 C 181.291 2.16831 -0.742751 0
M  V30 1924 C 182.291 1.59159 0.229129 0
M  V30 1925 O 183.481 1.74199 0.00693237 0
M  V30 1926 C 180.613 3.40756 -0.0989168 0
M  V30 1927 H 181.806 2.49695 -1.66109 0
M  V30 1928 H 179.359 1.2802 -0.896699 0
M  V30 1929 H 180.094 3.13485 0.830514 0
M  V30 1930 H 179.879 3.83888 -0.798265 0
M  V30 1931 H 181.369 4.17386 0.133524 0
M  V30 1932 N 181.806 0.884767 1.30421 0
M  V30 1933 C 182.769 0.356277 2.26414 0
M  V30 1934 C 183.769 -0.501124 1.52792 0
M  V30 1935 O 184.959 -0.30831 1.7145 0
M  V30 1936 C 182.091 -0.492316 3.37326 0
M  V30 1937 H 183.284 1.20389 2.74675 0
M  V30 1938 H 180.837 0.661607 1.41607 0
M  V30 1939 H 181.572 -1.36052 2.94381 0
M  V30 1940 H 181.357 0.121832 3.91911 0
M  V30 1941 H 182.847 -0.853871 4.08777 0
M  V30 1942 N 183.284 -1.43765 0.645699 0
M  V30 1943 C 184.53 -2.02197 0.156271 0
M  V30 1944 C 184.863 -1.50776 -1.22393 0
M  V30 1945 O 184.138 -0.697771 -1.81553 0
M  V30 1946 C 184.421 -3.59749 0.158872 0
M  V30 1947 C 184.274 -4.21419 1.57245 0
M  V30 1948 C 185.593 -4.37149 -0.50879 0
M  V30 1949 H 182.712 -0.734694 0.0582602 0
M  V30 1950 H 185.354 -1.71157 0.824951 0
M  V30 1951 H 183.504 -3.86325 -0.410525 0
M  V30 1952 H 185.176 -4.059 2.19186 0
M  V30 1953 H 183.419 -3.78356 2.122 0
M  V30 1954 H 184.09 -5.30482 1.52619 0
M  V30 1955 H 186.566 -4.16093 -0.024412 0
M  V30 1956 H 185.442 -5.4683 -0.476213 0
M  V30 1957 H 185.703 -4.12839 -1.58165 0
M  V30 1958 N 184.763 -0.387143 -1.52771 0
M  V30 1959 C 185.726 0.436939 -2.24997 0
M  V30 1960 C 186.726 0.991991 -1.26555 0
M  V30 1961 O 187.916 0.874335 -1.50669 0
M  V30 1962 C 185.048 1.61281 -3.00335 0
M  V30 1963 H 186.241 -0.195365 -2.99263 0
M  V30 1964 H 183.794 -0.139218 -1.55679 0
M  V30 1965 H 184.529 2.2826 -2.30364 0
M  V30 1966 H 184.314 1.22154 -3.72587 0
M  V30 1967 H 185.804 2.19629 -3.5518 0
M  V30 1968 N 186.241 1.57166 -0.116904 0
M  V30 1969 C 187.204 2.14039 0.819742 0
M  V30 1970 C 188.204 1.07477 1.19605 0
M  V30 1971 O 189.394 1.33263 1.1219 0
M  V30 1972 C 186.526 2.67891 2.10826 0
M  V30 1973 H 187.719 2.98128 0.325511 0
M  V30 1974 H 185.272 1.55739 0.132312 0
M  V30 1975 H 186.007 1.87384 2.64685 0
M  V30 1976 H 185.792 3.45823 1.84793 0
M  V30 1977 H 187.282 3.11809 2.77785 0
M  V30 1978 N 187.719 -0.156864 1.56817 0
M  V30 1979 C 188.967 -0.869404 1.82444 0
M  V30 1980 C 189.288 -1.82147 0.69623 0
M  V30 1981 O 188.558 -1.93847 -0.28287 0
M  V30 1982 H 187.138 -0.324043 0.673056 0
M  V30 1983 H 189.8 -0.153224 1.94297 0
M  V30 1984 H 188.896 -1.43761 2.77019 0
M  V30 1985 N 189.197 -1.51736 -0.425897 0
M  V30 1986 C 190.437 -1.66636 -1.18371 0
M  V30 1987 C 190.801 -0.379854 -1.88205 0
M  V30 1988 O 192.002 -0.404758 -2.65735 0
M  V30 1989 C 190.273 -2.84382 -2.16476 0
M  V30 1990 S 191.832 -3.19673 -3.0059 0
M  V30 1991 H 188.65 -0.586957 -0.40125 0
M  V30 1992 H 191.252 -1.89679 -0.473518 0
M  V30 1993 H 189.956 -3.76281 -1.63831 0
M  V30 1994 H 189.487 -2.63562 -2.92059 0
M  V30 1995 H 191.502 -2.66994 -4.18245 0
M  V30 1996 N 190.675 0.682077 -1.42076 0
M  V30 1997 C 192.091 0.994324 -1.24841 0
M  V30 1998 C 192.291 2.0096 -0.147389 0
M  V30 1999 O 191.347 2.47822 0.483782 0
M  V30 2000 C 192.66 1.50607 -2.60265 0
M  V30 2001 C 194.208 1.62421 -2.6756 0
M  V30 2002 C 194.683 2.16994 -4.03333 0
M  V30 2003 N 196.174 2.24337 -4.0525 0
M  V30 2004 C 196.909 2.67621 -5.07116 0
M  V30 2005 N 196.405 3.1041 -6.19368 0
M  V30 2006 N 198.198 2.67305 -4.94474 0
M  V30 2007 H 190.349 0.00973908 -2.12398 0
M  V30 2008 H 192.612 0.0668593 -0.945639 0
M  V30 2009 H 192.318 0.834583 -3.41654 0
M  V30 2010 H 192.192 2.48602 -2.83684 0
M  V30 2011 H 194.579 2.28678 -1.86521 0
M  V30 2012 H 194.66 0.629352 -2.47937 0
M  V30 2013 H 194.304 1.51349 -4.84826 0
M  V30 2014 H 194.234 3.17258 -4.20304 0
M  V30 2015 H 196.725 1.94158 -3.24209 0
M  V30 2016 H 197.038 3.42103 -6.92954 0
M  V30 2017 H 195.383 3.08286 -6.22884 0
M  V30 2018 H 198.574 2.33233 -4.05857 0
M  V30 2019 H 198.747 3.00718 -5.73997 0
M  V30 2020 N 192.153 1.28127 0.917671 0
M  V30 2021 C 193.085 1.07517 2.02417 0
M  V30 2022 C 194.098 0.0281099 1.62776 0
M  V30 2023 O 195.287 0.270748 1.76435 0
M  V30 2024 C 192.387 0.610957 3.33347 0
M  V30 2025 C 191.56 1.73255 4.01624 0
M  V30 2026 C 190.619 1.26238 5.10833 0
M  V30 2027 O 189.645 1.96389 5.34247 0
M  V30 2028 N 190.847 0.123448 5.80369 0
M  V30 2029 H 193.612 2.02806 2.20658 0
M  V30 2030 H 191.173 1.19827 1.08871 0
M  V30 2031 H 193.165 0.280101 4.0373 0
M  V30 2032 H 191.735 -0.24898 3.11607 0
M  V30 2033 H 190.955 2.23319 3.24842 0
M  V30 2034 H 192.243 2.48503 4.43986 0
M  V30 2035 H 191.641 -0.461847 5.63812 0
M  V30 2036 H 190.198 -0.148158 6.51632 0
M  V30 2037 N 193.631 -1.12557 1.10312 0
M  V30 2038 C 194.88 -1.83395 0.839588 0
M  V30 2039 C 195.193 -1.84939 -0.636929 0
M  V30 2040 O 196.399 -2.51761 -1.01631 0
M  V30 2041 C 194.855 -3.29303 1.45215 0
M  V30 2042 C 194.463 -3.36122 2.96186 0
M  V30 2043 C 196.207 -4.05121 1.26796 0
M  V30 2044 C 194.114 -4.76357 3.50483 0
M  V30 2045 H 193.044 -0.687133 0.310425 0
M  V30 2046 H 195.695 -1.26746 1.32694 0
M  V30 2047 H 194.077 -3.85812 0.892469 0
M  V30 2048 H 195.251 -2.89559 3.58458 0
M  V30 2049 H 193.566 -2.73776 3.13745 0
M  V30 2050 H 196.163 -5.08668 1.64806 0
M  V30 2051 H 196.506 -4.15773 0.209409 0
M  V30 2052 H 197.039 -3.54967 1.79563 0
M  V30 2053 H 193.778 -4.70899 4.55998 0
M  V30 2054 H 193.298 -5.23377 2.92978 0
M  V30 2055 H 194.977 -5.45294 3.48228 0
M  V30 2056 N 195.109 -0.891671 -1.2995 0
M  V30 2057 C 196.041 -0.320695 -2.26945 0
M  V30 2058 C 197.054 0.528497 -1.53983 0
M  V30 2059 O 198.243 0.346959 -1.75096 0
M  V30 2060 C 195.343 0.562066 -3.34207 0
M  V30 2061 C 194.516 -0.259576 -4.36629 0
M  V30 2062 C 193.575 0.554739 -5.23268 0
M  V30 2063 O 192.601 -0.0249311 -5.69195 0
M  V30 2064 N 193.803 1.8625 -5.4981 0
M  V30 2065 H 196.568 -1.15432 -2.76578 0
M  V30 2066 H 194.129 -0.755336 -1.432 0
M  V30 2067 H 196.121 1.11304 -3.89093 0
M  V30 2068 H 194.691 1.29637 -2.84452 0
M  V30 2069 H 193.911 -0.991986 -3.81514 0
M  V30 2070 H 195.199 -0.822564 -5.02107 0
M  V30 2071 H 194.597 2.35628 -5.14292 0
M  V30 2072 H 193.154 2.36078 -6.07545 0
M  V30 2073 N 196.587 1.43421 -0.653314 0
M  V30 2074 C 197.864 1.95361 -0.0966581 0
M  V30 2075 C 198.244 1.59461 1.38331 0
M  V30 2076 O 197.592 0.879777 2.10884 0
M  V30 2077 C 197.802 3.47311 -0.342988 0
M  V30 2078 C 199.15 4.23875 -0.24798 0
M  V30 2079 O 200.174 3.55133 -0.275553 0
M  V30 2080 O 199.033 5.4623 -0.171771 0
M  V30 2081 H 196.127 0.826945 0.00956291 0
M  V30 2082 H 198.673 1.5336 -0.726558 0
M  V30 2083 H 197.445 3.66569 -1.36906 0
M  V30 2084 H 197.068 3.9631 0.319975 0
M  V30 2085 N 198.065 0.39524 1.52563 0
M  V30 2086 C 198.995 -0.428384 2.29537 0
M  V30 2087 C 199.976 -1.05831 1.33169 0
M  V30 2088 O 201.161 -1.06995 1.62067 0
M  V30 2089 C 198.291 -1.55274 3.10656 0
M  V30 2090 C 197.245 -1.04855 4.14957 0
M  V30 2091 C 196.571 -2.26543 4.84337 0
M  V30 2092 C 197.871 -0.112324 5.22179 0
M  V30 2093 H 199.565 0.213867 2.98635 0
M  V30 2094 H 197.111 0.104298 1.43622 0
M  V30 2095 H 199.064 -2.1358 3.63265 0
M  V30 2096 H 197.788 -2.22266 2.39302 0
M  V30 2097 H 196.447 -0.487985 3.63338 0
M  V30 2098 H 196.095 -2.92059 4.09525 0
M  V30 2099 H 195.795 -1.93466 5.54837 0
M  V30 2100 H 197.319 -2.85481 5.39753 0
M  V30 2101 H 198.733 -0.603752 5.70112 0
M  V30 2102 H 197.13 0.128968 5.99961 0
M  V30 2103 H 198.2 0.837052 4.77621 0
M  V30 2104 N 199.544 -1.57102 0.125237 0
M  V30 2105 C 200.454 -2.19191 -0.8362 0
M  V30 2106 C 201.47 -1.16985 -1.28805 0
M  V30 2107 O 202.646 -1.49479 -1.34974 0
M  V30 2108 C 199.711 -2.78407 -2.06617 0
M  V30 2109 C 198.772 -3.9567 -1.66565 0
M  V30 2110 C 198.005 -4.52052 -2.83698 0
M  V30 2111 O 198.228 -4.07326 -3.99302 0
M  V30 2112 O 197.162 -5.42645 -2.60423 0
M  V30 2113 H 200.988 -3.01816 -0.337776 0
M  V30 2114 H 198.573 -1.4906 -0.100695 0
M  V30 2115 H 200.455 -3.16129 -2.7864 0
M  V30 2116 H 199.13 -1.9881 -2.55453 0
M  V30 2117 H 198.037 -3.62705 -0.916296 0
M  V30 2118 H 199.37 -4.76722 -1.22464 0
M  V30 2119 N 201.022 0.148545 -1.56898 0
M  V30 2120 C 201.952 1.18524 -2.01182 0
M  V30 2121 C 202.933 1.4489 -0.891123 0
M  V30 2122 O 204.118 1.55836 -1.15882 0
M  V30 2123 C 201.248 2.51879 -2.39112 0
M  V30 2124 C 200.202 2.40038 -3.54353 0
M  V30 2125 C 199.528 3.78089 -3.78091 0
M  V30 2126 C 200.828 1.88577 -4.87069 0
M  V30 2127 H 202.522 0.817029 -2.88036 0
M  V30 2128 H 200.068 0.391575 -1.38574 0
M  V30 2129 H 202.021 3.24627 -2.68692 0
M  V30 2130 H 200.745 2.90532 -1.49193 0
M  V30 2131 H 199.404 1.69742 -3.24936 0
M  V30 2132 H 199.052 4.14175 -2.85426 0
M  V30 2133 H 198.752 3.71028 -4.55645 0
M  V30 2134 H 200.276 4.52387 -4.10095 0
M  V30 2135 H 201.69 2.51117 -5.15377 0
M  V30 2136 H 200.087 1.9241 -5.68417 0
M  V30 2137 H 201.157 0.84136 -4.77545 0
M  V30 2138 N 202.5 1.5196 0.417844 0
M  V30 2139 C 203.725 1.69717 1.1921 0
M  V30 2140 C 204.15 0.402148 1.83751 0
M  V30 2141 O 203.508 -0.639593 1.69643 0
M  V30 2142 C 203.556 2.82794 2.2374 0
M  V30 2143 O 202.66 2.47756 3.29683 0
M  V30 2144 H 202.001 0.565263 0.348387 0
M  V30 2145 H 204.531 1.98621 0.490985 0
M  V30 2146 H 204.541 3.07452 2.68212 0
M  V30 2147 H 203.216 3.76756 1.76146 0
M  V30 2148 H 201.793 2.33739 2.90552 0
M  V30 2149 N 203.978 -0.674533 1.42435 0
M  V30 2150 C 205.203 -1.46784 1.46524 0
M  V30 2151 C 205.628 -1.87938 0.078066 0
M  V30 2152 O 204.986 -1.56014 -0.92354 0
M  V30 2153 C 205.034 -2.69307 2.39805 0
M  V30 2154 O 204.138 -3.67587 1.86959 0
M  V30 2155 H 203.479 -0.440959 0.496439 0
M  V30 2156 H 206.009 -0.827326 1.87127 0
M  V30 2157 H 206.019 -3.17374 2.56393 0
M  V30 2158 H 204.694 -2.38692 3.40586 0
M  V30 2159 H 203.271 -3.2662 1.79927 0
M  V30 2160 N 205.456 -1.28612 -0.910864 0
M  V30 2161 C 206.702 -1.16106 -1.66274 0
M  V30 2162 C 207.035 0.289113 -1.92036 0
M  V30 2163 O 206.31 1.21 -1.52281 0
M  V30 2164 C 206.593 -1.96309 -3.01885 0
M  V30 2165 C 206.446 -3.49405 -2.8326 0
M  V30 2166 C 207.765 -1.78076 -4.02463 0
M  V30 2167 H 204.884 -0.423152 -0.603417 0
M  V30 2168 H 207.526 -1.57961 -1.05586 0
M  V30 2169 H 205.676 -1.60742 -3.53687 0
M  V30 2170 H 207.348 -3.94894 -2.38446 0
M  V30 2171 H 205.591 -3.74893 -2.18261 0
M  V30 2172 H 206.262 -4.00784 -3.79574 0
M  V30 2173 H 208.738 -2.0912 -3.59733 0
M  V30 2174 H 207.614 -2.36561 -4.95308 0
M  V30 2175 H 207.875 -0.733008 -4.35981 0
M  V30 2176 N 206.934 1.1197 -1.10907 0
M  V30 2177 C 207.844 2.21433 -0.774896 0
M  V30 2178 C 208.86 1.72478 0.229657 0
M  V30 2179 O 210.036 2.01288 0.0672008 0
M  V30 2180 C 207.101 3.4602 -0.216986 0
M  V30 2181 C 206.162 4.09791 -1.27944 0
M  V30 2182 C 205.395 5.28431 -0.748055 0
M  V30 2183 O 205.618 5.68823 0.423833 0
M  V30 2184 O 204.552 5.82644 -1.51027 0
M  V30 2185 H 208.378 2.5242 -1.68873 0
M  V30 2186 H 205.963 1.20399 -0.884555 0
M  V30 2187 H 207.845 4.21304 0.090059 0
M  V30 2188 H 206.52 3.16698 0.669633 0
M  V30 2189 H 205.427 3.36265 -1.63941 0
M  V30 2190 H 206.76 4.4328 -2.13925 0
M  V30 2191 N 208.412 0.89855 1.29475 0
M  V30 2192 C 209.658 0.524658 1.95896 0
M  V30 2193 C 209.991 -0.926468 1.70676 0
M  V30 2194 O 209.266 -1.65665 1.01908 0
M  V30 2195 C 209.549 0.81633 3.50725 0
M  V30 2196 C 209.402 2.31907 3.85408 0
M  V30 2197 C 210.721 0.302038 4.39062 0
M  V30 2198 H 207.84 0.19209 0.711527 0
M  V30 2199 H 210.482 1.12502 1.53112 0
M  V30 2200 H 208.632 0.305369 3.87298 0
M  V30 2201 H 210.304 2.89949 3.58786 0
M  V30 2202 H 208.547 2.78027 3.32992 0
M  V30 2203 H 209.218 2.47373 4.93468 0
M  V30 2204 H 211.694 0.739551 4.09475 0
M  V30 2205 H 210.57 0.535331 5.46283 0
M  V30 2206 H 210.831 -0.797216 4.34853 0
M  V30 2207 N 209.89 -1.43072 0.660911 0
M  V30 2208 C 211.167 -1.95307 0.107017 0
M  V30 2209 C 211.547 -1.60192 -1.37484 0
M  V30 2210 O 210.895 -0.890949 -2.10415 0
M  V30 2211 C 211.105 -3.47124 0.361402 0
M  V30 2212 C 212.453 -4.23738 0.270455 0
M  V30 2213 O 213.477 -3.54981 0.294382 0
M  V30 2214 O 212.336 -5.46131 0.200737 0
M  V30 2215 H 209.43 -0.826984 -0.00517729 0
M  V30 2216 H 211.976 -1.52972 0.734681 0
M  V30 2217 H 210.748 -3.65837 1.38848 0
M  V30 2218 H 210.371 -3.96475 -0.298953 0
M  V30 2219 N 211.368 -0.403325 -1.52352 0
M  V30 2220 C 212.779 0.0675782 -1.86578 0
M  V30 2221 C 213.13 1.44941 -1.32236 0
M  V30 2222 O 212.255 2.06112 -0.659307 0
M  V30 2223 C 212.85 0.129404 -3.38553 0
M  V30 2224 C 211.409 0.544629 -3.72439 0
M  V30 2225 C 210.556 -0.284551 -2.75836 0
M  V30 2226 H 213.507 -0.620631 -1.46061 0
M  V30 2227 H 213.528 0.94581 -3.68558 0
M  V30 2228 H 213.04 -0.87645 -3.78074 0
M  V30 2229 H 211.141 1.55734 -3.38493 0
M  V30 2230 H 211.254 0.293046 -4.78203 0
M  V30 2231 H 209.618 0.252258 -2.53448 0
M  V30 2232 H 210.401 -1.28865 -3.18196 0
M  V30 2233 N 212.846 1.57033 -0.133567 0
M  V30 2234 C 214.086 1.97575 0.523789 0
M  V30 2235 C 214.45 1.01605 1.62912 0
M  V30 2236 O 215.651 1.3114 2.3464 0
M  V30 2237 C 213.922 3.42256 1.02935 0
M  V30 2238 S 215.481 4.04817 1.69319 0
M  V30 2239 H 212.299 0.690427 0.169799 0
M  V30 2240 H 214.901 1.94234 -0.222101 0
M  V30 2241 H 213.605 4.09842 0.213917 0
M  V30 2242 H 213.136 3.4928 1.81017 0
M  V30 2243 H 215.151 3.96767 2.97977 0
M  V30 2244 N 214.325 -0.140222 1.56975 0
M  V30 2245 C 215.573 -0.850005 1.83356 0
M  V30 2246 C 215.894 -1.81399 0.71551 0
M  V30 2247 O 215.164 -1.94136 -0.262294 0
M  V30 2248 H 213.744 -0.316886 0.676456 0
M  V30 2249 H 216.406 -0.132608 1.94448 0
M  V30 2250 H 215.502 -1.40814 2.78528 0
M  V30 2251 N 215.803 -1.52179 -0.40978 0
M  V30 2252 C 217.08 -1.56769 -1.16974 0
M  V30 2253 C 217.46 -0.348322 -2.08206 0
M  V30 2254 O 216.808 0.664862 -2.18613 0
M  V30 2255 C 217.018 -2.89603 -1.9476 0
M  V30 2256 C 218.366 -3.42579 -2.50849 0
M  V30 2257 O 219.39 -2.91338 -2.04941 0
M  V30 2258 O 218.249 -4.32054 -3.34652 0
M  V30 2259 H 215.343 -0.631439 -0.534054 0
M  V30 2260 H 217.889 -1.64507 -0.416613 0
M  V30 2261 H 216.661 -3.698 -1.27921 0
M  V30 2262 H 216.284 -2.85155 -2.77079 0
M  V30 2263 N 217.281 0.66697 -1.42791 0
M  V30 2264 C 218.244 1.76211 -1.46568 0
M  V30 2265 C 219.244 1.56896 -0.352196 0
M  V30 2266 O 220.434 1.63044 -0.613364 0
M  V30 2267 C 217.566 3.14935 -1.30494 0
M  V30 2268 H 218.759 1.74247 -2.44086 0
M  V30 2269 H 216.312 0.877342 -1.29354 0
M  V30 2270 H 217.047 3.2252 -0.339301 0
M  V30 2271 H 216.832 3.30359 -2.11199 0
M  V30 2272 H 218.322 3.94821 -1.36038 0
M  V30 2273 N 218.759 1.29093 0.90403 0
M  V30 2274 C 219.691 1.09658 2.01266 0
M  V30 2275 C 220.704 0.0453729 1.62737 0
M  V30 2276 O 221.893 0.289446 1.76138 0
M  V30 2277 C 218.993 0.646278 3.32681 0
M  V30 2278 C 218.166 1.77505 3.99763 0
M  V30 2279 C 217.225 1.31649 5.09465 0
M  V30 2280 O 216.251 2.02045 5.32134 0
M  V30 2281 N 217.453 0.184997 5.80205 0
M  V30 2282 H 220.218 2.05135 2.18494 0
M  V30 2283 H 217.779 1.20975 1.07594 0
M  V30 2284 H 219.771 0.322906 4.0341 0
M  V30 2285 H 218.341 -0.215916 3.11853 0
M  V30 2286 H 217.561 2.26752 3.22455 0
M  V30 2287 H 218.849 2.53198 4.41325 0
M  V30 2288 H 218.247 -0.402021 5.6427 0
M  V30 2289 H 216.804 -0.0790358 6.51752 0
M  V30 2290 N 220.237 -1.11381 1.11499 0
M  V30 2291 C 221.2 -2.15622 0.777153 0
M  V30 2292 C 222.2 -1.59504 -0.203779 0
M  V30 2293 O 223.39 -1.74188 0.020782 0
M  V30 2294 C 220.522 -3.40556 0.153116 0
M  V30 2295 H 221.715 -2.47021 1.70061 0
M  V30 2296 H 219.268 -1.26577 0.916952 0
M  V30 2297 H 220.003 -3.14767 -0.780536 0
M  V30 2298 H 219.788 -3.8257 0.859238 0
M  V30 2299 H 221.278 -4.17546 -0.0671044 0
M  V30 2300 N 221.715 -0.905404 -1.28997 0
M  V30 2301 C 222.678 -0.392253 -2.25819 0
M  V30 2302 C 223.678 0.476753 -1.5357 0
M  V30 2303 O 224.868 0.280994 -1.71919 0
M  V30 2304 C 222 0.438588 -3.38067 0
M  V30 2305 H 223.193 -1.24743 -2.72725 0
M  V30 2306 H 220.746 -0.684051 -1.40536 0
M  V30 2307 H 221.481 1.31352 -2.96508 0
M  V30 2308 H 221.266 -0.184167 -3.91667 0
M  V30 2309 H 222.756 0.78873 -4.10084 0
M  V30 2310 N 223.193 1.4272 -0.668489 0
M  V30 2311 C 224.156 2.292 0.00448567 0
M  V30 2312 C 225.156 1.43001 0.735339 0
M  V30 2313 O 226.346 1.64461 0.57429 0
M  V30 2314 C 223.478 3.25375 1.01705 0
M  V30 2315 H 224.671 2.90199 -0.756608 0
M  V30 2316 H 222.224 1.50254 -0.430506 0
M  V30 2317 H 222.959 2.69301 1.80686 0
M  V30 2318 H 222.744 3.88944 0.496463 0
M  V30 2319 H 224.234 3.90245 1.48655 0
M  V30 2320 N 224.671 0.411399 1.52136 0
M  V30 2321 C 225.581 -0.419774 2.30814 0
M  V30 2322 C 226.597 -1.0515 1.38634 0
M  V30 2323 O 227.773 -1.05252 1.71709 0
M  V30 2324 C 224.838 -1.52019 3.11594 0
M  V30 2325 C 223.899 -0.91129 4.19516 0
M  V30 2326 C 223.132 -1.95927 4.96436 0
M  V30 2327 O 223.355 -3.17775 4.73683 0
M  V30 2328 O 222.289 -1.56423 5.81219 0
M  V30 2329 H 226.115 0.221805 3.02889 0
M  V30 2330 H 223.7 0.174547 1.48377 0
M  V30 2331 H 225.582 -2.15898 3.61892 0
M  V30 2332 H 224.257 -2.14633 2.42311 0
M  V30 2333 H 223.164 -0.235157 3.7336 0
M  V30 2334 H 224.497 -0.32904 4.91099 0
M  V30 2335 N 226.149 -1.5696 0.141893 0
M  V30 2336 C 227.397 -1.95573 -0.509484 0
M  V30 2337 C 227.718 -1.02746 -1.65736 0
M  V30 2338 O 226.988 -0.0880311 -1.95702 0
M  V30 2339 H 225.568 -0.722115 -0.191205 0
M  V30 2340 H 228.23 -1.93697 0.216196 0
M  V30 2341 H 227.326 -2.99171 -0.889 0
M  V30 2342 N 227.627 0.131896 -1.57047 0
M  V30 2343 C 228.59 1.14638 -1.98471 0
M  V30 2344 C 229.59 1.35029 -0.873148 0
M  V30 2345 O 230.78 1.31764 -1.13946 0
M  V30 2346 C 227.912 2.50358 -2.31373 0
M  V30 2347 H 229.105 0.79064 -2.8929 0
M  V30 2348 H 226.658 0.375761 -1.51716 0
M  V30 2349 H 227.393 2.90876 -1.43393 0
M  V30 2350 H 227.178 2.36915 -3.12432 0
M  V30 2351 H 228.668 3.23395 -2.64207 0
M  V30 2352 N 229.106 1.52395 0.401703 0
M  V30 2353 C 230.352 1.67065 1.14966 0
M  V30 2354 C 230.685 0.403052 1.89971 0
M  V30 2355 O 229.96 -0.598774 1.85054 0
M  V30 2356 C 230.243 2.8975 2.13815 0
M  V30 2357 C 230.096 4.26578 1.42658 0
M  V30 2358 C 231.415 3.07965 3.14397 0
M  V30 2359 H 228.534 0.607968 0.416587 0
M  V30 2360 H 231.176 1.84965 0.434511 0
M  V30 2361 H 229.326 2.74619 2.74803 0
M  V30 2362 H 230.998 4.53451 0.847329 0
M  V30 2363 H 229.241 4.27639 0.72849 0
M  V30 2364 H 229.912 5.08483 2.14823 0
M  V30 2365 H 232.388 3.22043 2.63491 0
M  V30 2366 H 231.264 3.95308 3.80819 0
M  V30 2367 H 231.525 2.21611 3.82545 0
M  V30 2368 N 230.584 -0.659388 1.43143 0
M  V30 2369 C 231.514 -1.78422 1.50625 0
M  V30 2370 C 232.495 -1.66216 0.361443 0
M  V30 2371 O 233.68 -1.85404 0.577834 0
M  V30 2372 C 230.81 -3.16815 1.42287 0
M  V30 2373 C 229.764 -3.43777 2.54954 0
M  V30 2374 C 229.09 -4.81905 2.31671 0
M  V30 2375 C 230.39 -3.39134 3.97222 0
M  V30 2376 H 232.084 -1.72417 2.44771 0
M  V30 2377 H 229.63 -0.828084 1.17808 0
M  V30 2378 H 231.583 -3.95253 1.46127 0
M  V30 2379 H 230.307 -3.23534 0.446435 0
M  V30 2380 H 228.966 -2.67707 2.50457 0
M  V30 2381 H 228.614 -4.85294 1.32284 0
M  V30 2382 H 228.314 -5.00906 3.07192 0
M  V30 2383 H 229.838 -5.62609 2.37284 0
M  V30 2384 H 231.252 -4.07518 4.03239 0
M  V30 2385 H 229.649 -3.69671 4.72719 0
M  V30 2386 H 230.719 -2.37426 4.22797 0
M  V30 2387 N 232.062 -1.29571 -0.897171 0
M  V30 2388 C 233.31 -1.17456 -1.64464 0
M  V30 2389 C 233.631 0.273698 -1.9307 0
M  V30 2390 O 232.901 1.18684 -1.55855 0
M  V30 2391 H 231.481 -0.431706 -0.609622 0
M  V30 2392 H 234.143 -1.62531 -1.07562 0
M  V30 2393 H 233.239 -1.72648 -2.59998 0
M  V30 2394 N 233.54 1.10788 -1.12088 0
M  V30 2395 C 234.47 2.19083 -0.807755 0
M  V30 2396 C 235.451 1.6858 0.226859 0
M  V30 2397 O 236.636 1.93997 0.0888475 0
M  V30 2398 C 233.766 3.46344 -0.257576 0
M  V30 2399 C 232.72 4.101 -1.22483 0
M  V30 2400 C 232.046 5.32016 -0.535052 0
M  V30 2401 C 233.346 4.54236 -2.57811 0
M  V30 2402 H 235.04 2.45534 -1.71328 0
M  V30 2403 H 232.586 1.1801 -0.825205 0
M  V30 2404 H 234.539 4.21392 -0.0262679 0
M  V30 2405 H 233.263 3.19373 0.683278 0
M  V30 2406 H 231.922 3.37054 -1.44189 0
M  V30 2407 H 231.57 5.01319 0.410827 0
M  V30 2408 H 231.27 5.75625 -1.18024 0
M  V30 2409 H 232.794 6.09799 -0.312695 0
M  V30 2410 H 234.208 5.20575 -2.40155 0
M  V30 2411 H 232.605 5.08682 -3.18375 0
M  V30 2412 H 233.675 3.6734 -3.16528 0
M  V30 2413 N 235.018 0.912232 1.28515 0
M  V30 2414 C 236.248 0.559604 1.98877 0
M  V30 2415 C 236.656 -0.863113 1.68366 0
M  V30 2416 O 235.999 -1.58304 0.931969 0
M  V30 2417 C 236.061 0.68703 3.52874 0
M  V30 2418 C 235.725 2.07901 4.06972 0
M  V30 2419 C 236.722 3.05157 4.20922 0
M  V30 2420 C 234.407 2.39178 4.417 0
M  V30 2421 C 236.401 4.31806 4.68852 0
M  V30 2422 C 234.088 3.66068 4.89324 0
M  V30 2423 C 235.086 4.62195 5.02856 0
M  V30 2424 O 234.774 5.86829 5.49442 0
M  V30 2425 H 234.506 0.212191 0.641834 0
M  V30 2426 H 237.06 1.22712 1.64715 0
M  V30 2427 H 235.29 -0.0375486 3.86682 0
M  V30 2428 H 236.979 0.341727 4.04459 0
M  V30 2429 H 237.745 2.82311 3.94367 0
M  V30 2430 H 233.624 1.65109 4.30418 0
M  V30 2431 H 237.168 5.06842 4.79329 0
M  V30 2432 H 233.065 3.88739 5.15318 0
M  V30 2433 H 233.833 5.89597 5.6773 0
M  V30 2434 N 236.496 -1.42363 0.676048 0
M  V30 2435 C 237.406 -2.346 -0.00153389 0
M  V30 2436 C 238.422 -1.5516 -0.787485 0
M  V30 2437 O 239.598 -1.87723 -0.729521 0
M  V30 2438 C 236.663 -3.33705 -0.940298 0
M  V30 2439 C 235.724 -4.29042 -0.148739 0
M  V30 2440 C 234.957 -5.23413 -1.04279 0
M  V30 2441 O 235.18 -5.22749 -2.28232 0
M  V30 2442 O 234.114 -5.99795 -0.502925 0
M  V30 2443 H 237.94 -2.94082 0.758268 0
M  V30 2444 H 235.525 -1.42888 0.436289 0
M  V30 2445 H 237.407 -3.94586 -1.47917 0
M  V30 2446 H 236.082 -2.76695 -1.67993 0
M  V30 2447 H 234.989 -3.71571 0.43427 0
M  V30 2448 H 236.322 -4.89097 0.551805 0
M  V30 2449 N 237.974 -0.419461 -1.51915 0
M  V30 2450 C 239.204 0.151915 -2.06041 0
M  V30 2451 C 239.612 1.38539 -1.28855 0
M  V30 2452 O 238.955 1.80592 -0.336463 0
M  V30 2453 C 239.017 0.557119 -3.55157 0
M  V30 2454 C 238.681 -0.567054 -4.53468 0
M  V30 2455 C 239.678 -1.43379 -4.99738 0
M  V30 2456 C 237.363 -0.742693 -4.96779 0
M  V30 2457 C 239.357 -2.46102 -5.87973 0
M  V30 2458 C 237.044 -1.77322 -5.84808 0
M  V30 2459 C 238.042 -2.63078 -6.30301 0
M  V30 2460 O 237.73 -3.64364 -7.16585 0
M  V30 2461 H 237.462 0.0193293 -0.675724 0
M  V30 2462 H 240.016 -0.592073 -1.96682 0
M  V30 2463 H 238.246 1.35355 -3.62238 0
M  V30 2464 H 239.935 1.05759 -3.9188 0
M  V30 2465 H 240.701 -1.30954 -4.66986 0
M  V30 2466 H 236.58 -0.0848307 -4.60922 0
M  V30 2467 H 240.124 -3.13071 -6.23404 0
M  V30 2468 H 236.021 -1.89773 -6.16974 0
M  V30 2469 H 236.789 -3.60731 -7.34721 0
M  V30 2470 N 239.452 1.56882 -0.150215 0
M  V30 2471 C 240.729 1.87844 0.545327 0
M  V30 2472 C 241.109 1.0567 1.82749 0
M  V30 2473 O 240.457 0.144442 2.28043 0
M  V30 2474 C 240.667 3.39526 0.80767 0
M  V30 2475 C 242.015 4.08814 1.14703 0
M  V30 2476 O 243.039 3.44723 0.896917 0
M  V30 2477 O 241.898 5.22004 1.61784 0
M  V30 2478 H 238.992 0.778677 0.278553 0
M  V30 2479 H 241.538 1.68666 -0.187068 0
M  V30 2480 H 240.31 3.91173 -0.0996096 0
M  V30 2481 H 239.933 3.64243 1.59413 0
M  V30 2482 N 240.93 -0.123565 1.57115 0
M  V30 2483 C 242.207 -0.862196 1.75572 0
M  V30 2484 C 242.587 -1.98279 0.724475 0
M  V30 2485 O 241.935 -2.27102 -0.252407 0
M  V30 2486 C 242.145 -1.38309 3.20424 0
M  V30 2487 C 243.493 -1.83724 3.82793 0
M  V30 2488 O 244.517 -1.47999 3.23998 0
M  V30 2489 O 243.376 -2.49685 4.86127 0
M  V30 2490 H 240.47 -0.409113 0.718718 0
M  V30 2491 H 243.016 -0.107661 1.69358 0
M  V30 2492 H 241.788 -0.578889 3.86994 0
M  V30 2493 H 241.411 -2.20046 3.31158 0
M  V30 2494 N 242.408 -1.52605 -0.393616 0
M  V30 2495 C 243.338 -1.80022 -1.48709 0
M  V30 2496 C 244.319 -0.651995 -1.57108 0
M  V30 2497 O 245.504 -0.89913 -1.72132 0
M  V30 2498 C 242.634 -1.96492 -2.86371 0
M  V30 2499 C 241.588 -3.12161 -2.92813 0
M  V30 2500 C 240.914 -3.13877 -4.3288 0
M  V30 2501 C 242.214 -4.51322 -2.6288 0
M  V30 2502 H 243.908 -2.71589 -1.26015 0
M  V30 2503 H 241.454 -1.30684 -0.604778 0
M  V30 2504 H 243.407 -2.14255 -3.62867 0
M  V30 2505 H 242.131 -1.01611 -3.10391 0
M  V30 2506 H 240.79 -2.94173 -2.18764 0
M  V30 2507 H 240.438 -2.16687 -4.53933 0
M  V30 2508 H 240.138 -3.91576 -4.38112 0
M  V30 2509 H 241.662 -3.33789 -5.1129 0
M  V30 2510 H 243.076 -4.69435 -3.29096 0
M  V30 2511 H 241.473 -5.31053 -2.79468 0
M  V30 2512 H 242.543 -4.58353 -1.58242 0
M  V30 2513 N 243.887 0.651787 -1.4349 0
M  V30 2514 C 244.834 1.76462 -1.4876 0
M  V30 2515 C 245.804 1.62641 -0.337189 0
M  V30 2516 O 246.989 1.82864 -0.544544 0
M  V30 2517 C 244.129 3.14623 -1.41796 0
M  V30 2518 C 243.242 3.39568 -2.67053 0
M  V30 2519 C 242.377 4.67585 -2.52068 0
M  V30 2520 C 241.416 4.85639 -3.72587 0
M  V30 2521 N 240.553 6.04915 -3.56402 0
M  V30 2522 H 245.393 1.71293 -2.43849 0
M  V30 2523 H 242.93 0.835889 -1.21043 0
M  V30 2524 H 244.888 3.94496 -1.35753 0
M  V30 2525 H 243.518 3.18859 -0.50288 0
M  V30 2526 H 242.57 2.53783 -2.8337 0
M  V30 2527 H 243.882 3.48795 -3.56572 0
M  V30 2528 H 243.036 5.55586 -2.4374 0
M  V30 2529 H 241.775 4.60681 -1.60075 0
M  V30 2530 H 240.78 3.96073 -3.81321 0
M  V30 2531 H 242.005 4.94372 -4.65589 0
M  V30 2532 H 239.951 5.9914 -2.67146 0
M  V30 2533 H 239.868 6.15106 -4.39524 0
M  V30 2534 H 241.136 6.95533 -3.51929 0
M  V30 2535 N 245.365 1.30045 0.890287 0
M  V30 2536 C 246.297 1.11786 2.00091 0
M  V30 2537 C 247.31 0.0626307 1.62679 0
M  V30 2538 O 248.499 0.308112 1.75821 0
M  V30 2539 C 245.599 0.681527 3.31977 0
M  V30 2540 C 244.772 1.81735 3.97858 0
M  V30 2541 C 243.831 1.37045 5.08041 0
M  V30 2542 O 242.857 2.07677 5.29961 0
M  V30 2543 N 244.059 0.246525 5.79976 0
M  V30 2544 H 246.824 2.07441 2.16306 0
M  V30 2545 H 244.385 1.2211 1.06305 0
M  V30 2546 H 246.377 0.365675 4.03045 0
M  V30 2547 H 244.947 -0.182828 3.12065 0
M  V30 2548 H 244.167 2.30159 3.20032 0
M  V30 2549 H 245.455 2.57865 4.38615 0
M  V30 2550 H 244.853 -0.34215 5.64664 0
M  V30 2551 H 243.41 -0.00990438 6.51799 0
M  V30 2552 N 246.843 -1.10192 1.12674 0
M  V30 2553 C 247.79 -2.16606 0.796906 0
M  V30 2554 C 248.76 -1.64394 -0.237476 0
M  V30 2555 O 249.945 -1.90474 -0.111484 0
M  V30 2556 C 247.085 -3.44116 0.26043 0
M  V30 2557 C 246.198 -4.10268 1.35293 0
M  V30 2558 C 245.333 -5.25507 0.775621 0
M  V30 2559 C 244.372 -5.83567 1.84706 0
M  V30 2560 N 243.509 -6.90179 1.28829 0
M  V30 2561 H 248.349 -2.44163 1.70846 0
M  V30 2562 H 245.886 -1.19846 0.85295 0
M  V30 2563 H 247.844 -4.17143 -0.0686814 0
M  V30 2564 H 246.474 -3.16901 -0.614274 0
M  V30 2565 H 245.526 -3.35184 1.79877 0
M  V30 2566 H 246.838 -4.4946 2.16303 0
M  V30 2567 H 245.992 -6.05398 0.397327 0
M  V30 2568 H 244.731 -4.87656 -0.0656581 0
M  V30 2569 H 243.736 -5.02344 2.23452 0
M  V30 2570 H 244.961 -6.23482 2.69161 0
M  V30 2571 H 242.907 -6.54322 0.468881 0
M  V30 2572 H 242.824 -7.28097 2.03497 0
M  V30 2573 H 244.092 -7.73844 0.937311 0
M  V30 2574 N 248.321 -0.919034 -1.28029 0
M  V30 2575 C 249.268 -0.410005 -2.27129 0
M  V30 2576 C 250.238 0.518405 -1.57803 0
M  V30 2577 O 251.423 0.439451 -1.8567 0
M  V30 2578 C 248.563 0.339054 -3.4343 0
M  V30 2579 C 247.676 -0.622468 -4.27492 0
M  V30 2580 C 246.811 0.145567 -5.31001 0
M  V30 2581 C 245.85 -0.809226 -6.06727 0
M  V30 2582 N 244.987 -0.0743728 -7.02061 0
M  V30 2583 H 249.827 -1.26011 -2.70047 0
M  V30 2584 H 247.364 -0.632663 -1.328 0
M  V30 2585 H 249.322 0.789586 -4.0966 0
M  V30 2586 H 247.952 1.15346 -3.01488 0
M  V30 2587 H 247.004 -1.19153 -3.61257 0
M  V30 2588 H 248.316 -1.35252 -4.80113 0
M  V30 2589 H 247.47 0.656417 -6.03139 0
M  V30 2590 H 246.209 0.908643 -4.79161 0
M  V30 2591 H 245.214 -1.3314 -5.33436 0
M  V30 2592 H 246.439 -1.57194 -6.60656 0
M  V30 2593 H 244.385 0.670616 -6.52563 0
M  V30 2594 H 244.302 -0.744157 -7.52329 0
M  V30 2595 H 245.57 0.416109 -7.78389 0
M  V30 2596 N 249.799 1.42003 -0.683588 0
M  V30 2597 C 250.746 2.30798 -0.0107309 0
M  V30 2598 C 251.716 1.4645 0.783688 0
M  V30 2599 O 252.901 1.75263 0.754156 0
M  V30 2600 C 250.041 3.3238 0.928306 0
M  V30 2601 C 249.154 4.31814 0.126776 0
M  V30 2602 C 248.289 5.20468 1.06236 0
M  V30 2603 C 247.328 6.11577 0.253035 0
M  V30 2604 N 246.465 6.92754 1.14179 0
M  V30 2605 H 251.305 2.8778 -0.773727 0
M  V30 2606 H 248.842 1.41745 -0.393283 0
M  V30 2607 H 250.8 3.89813 1.48666 0
M  V30 2608 H 249.43 2.76976 1.65783 0
M  V30 2609 H 248.482 3.76427 -0.54833 0
M  V30 2610 H 249.794 4.96276 -0.501192 0
M  V30 2611 H 248.948 5.82677 1.69035 0
M  V30 2612 H 247.687 4.56204 1.7242 0
M  V30 2613 H 246.692 5.48428 -0.388108 0
M  V30 2614 H 247.917 6.77892 -0.404839 0
M  V30 2615 H 245.863 6.3111 1.78987 0
M  V30 2616 H 245.78 7.53855 0.569111 0
M  V30 2617 H 247.048 7.59441 1.75697 0
M  V30 2618 N 251.277 0.427512 1.51691 0
M  V30 2619 C 252.21 -0.433876 2.24037 0
M  V30 2620 C 253.188 -1.03287 1.25581 0
M  V30 2621 O 254.372 -1.07722 1.54688 0
M  V30 2622 C 251.499 -1.60385 2.98319 0
M  V30 2623 C 250.545 -1.12648 4.11355 0
M  V30 2624 S 251.378 -0.076543 5.35445 0
M  V30 2625 C 252.534 -1.25141 6.13262 0
M  V30 2626 H 252.767 0.180367 2.96752 0
M  V30 2627 H 250.3 0.211946 1.52938 0
M  V30 2628 H 252.258 -2.27462 3.41718 0
M  V30 2629 H 250.919 -2.18948 2.25213 0
M  V30 2630 H 250.112 -2.0011 4.62571 0
M  V30 2631 H 249.714 -0.534088 3.70167 0
M  V30 2632 H 252.006 -2.17162 6.41753 0
M  V30 2633 H 252.949 -0.779411 7.03797 0
M  V30 2634 H 253.357 -1.48553 5.44603 0
M  V30 2635 N 252.755 -1.56801 0.158532 0
M  V30 2636 C 253.718 -2.16138 -0.762705 0
M  V30 2637 C 254.718 -1.1061 -1.16713 0
M  V30 2638 O 255.908 -1.36191 -1.08617 0
M  V30 2639 C 253.04 -2.73386 -2.03649 0
M  V30 2640 H 254.233 -2.98886 -0.246354 0
M  V30 2641 H 251.786 -1.56035 -0.0909744 0
M  V30 2642 H 252.521 -1.94335 -2.59623 0
M  V30 2643 H 252.306 -3.50601 -1.75559 0
M  V30 2644 H 253.796 -3.19065 -2.6942 0
M  V30 2645 N 254.233 0.115231 -1.57178 0
M  V30 2646 C 255.479 0.82357 -1.85325 0
M  V30 2647 C 255.812 1.79349 -0.744814 0
M  V30 2648 O 255.087 1.92899 0.249024 0
M  V30 2649 C 255.37 1.57014 -3.24066 0
M  V30 2650 C 255.223 0.619565 -4.45513 0
M  V30 2651 C 256.542 2.52545 -3.60429 0
M  V30 2652 H 253.661 0.297948 -0.674089 0
M  V30 2653 H 256.303 0.0877138 -1.89797 0
M  V30 2654 H 254.453 2.19742 -3.20383 0
M  V30 2655 H 256.125 0.000837639 -4.613 0
M  V30 2656 H 254.368 -0.0686174 -4.33746 0
M  V30 2657 H 255.039 1.17866 -5.3927 0
M  V30 2658 H 257.515 1.9992 -3.64926 0
M  V30 2659 H 256.391 3.01811 -4.58477 0
M  V30 2660 H 256.652 3.35383 -2.88047 0
M  V30 2661 N 255.711 1.52812 0.385517 0
M  V30 2662 C 256.936 1.72207 1.15583 0
M  V30 2663 C 257.361 0.441034 1.82857 0
M  V30 2664 O 256.719 -0.603465 1.70962 0
M  V30 2665 C 256.767 2.87476 2.17692 0
M  V30 2666 O 255.871 2.54693 3.24354 0
M  V30 2667 H 255.212 0.572526 0.336319 0
M  V30 2668 H 257.742 1.99618 0.448744 0
M  V30 2669 H 257.752 3.13072 2.6163 0
M  V30 2670 H 256.427 3.80408 1.68115 0
M  V30 2671 H 255.004 2.3985 2.85529 0
M  V30 2672 N 257.189 -0.644168 1.43834 0
M  V30 2673 C 258.152 -1.73857 1.49353 0
M  V30 2674 C 259.152 -1.56315 0.377112 0
M  V30 2675 O 260.342 -1.62048 0.639226 0
M  V30 2676 C 257.474 -3.12819 1.35488 0
M  V30 2677 H 258.667 -1.70342 2.46827 0
M  V30 2678 H 256.22 -0.856652 1.30733 0
M  V30 2679 H 256.955 -3.2194 0.390569 0
M  V30 2680 H 256.74 -3.26958 2.16428 0
M  V30 2681 H 258.23 -3.92606 1.42302 0
M  V30 2682 N 258.668 -1.30515 -0.883378 0
M  V30 2683 C 259.615 -1.17032 -1.98927 0
M  V30 2684 C 260.585 -0.0594241 -1.65994 0
M  V30 2685 O 261.77 -0.229895 -1.8941 0
M  V30 2686 C 258.91 -0.869777 -3.33959 0
M  V30 2687 C 258.023 -2.06271 -3.79574 0
M  V30 2688 C 257.158 -1.70011 -5.03259 0
M  V30 2689 C 256.197 -2.8579 -5.41286 0
M  V30 2690 N 255.334 -2.49816 -6.56153 0
M  V30 2691 H 260.174 -2.1164 -2.09792 0
M  V30 2692 H 257.711 -1.05296 -1.02719 0
M  V30 2693 H 259.669 -0.676138 -4.11685 0
M  V30 2694 H 258.299 0.0394332 -3.22776 0
M  V30 2695 H 257.351 -2.36755 -2.97744 0
M  V30 2696 H 258.663 -2.92971 -4.03694 0
M  V30 2697 H 257.817 -1.47032 -5.88614 0
M  V30 2698 H 256.556 -0.804829 -4.81013 0
M  V30 2699 H 255.561 -3.09434 -4.54456 0
M  V30 2700 H 256.786 -3.76008 -5.65504 0
M  V30 2701 H 254.732 -1.62795 -6.35479 0
M  V30 2702 H 254.649 -3.30048 -6.8015 0
M  V30 2703 H 255.917 -2.30197 -7.44735 0
M  V30 2704 N 260.146 1.09593 -1.13257 0
M  V30 2705 C 261.076 2.18214 -0.830946 0
M  V30 2706 C 262.057 1.68812 0.208966 0
M  V30 2707 O 263.242 1.9408 0.0682666 0
M  V30 2708 C 260.372 3.46051 -0.294296 0
M  V30 2709 C 259.326 4.08778 -1.26826 0
M  V30 2710 C 258.652 5.31419 -0.591449 0
M  V30 2711 C 259.952 4.51476 -2.62615 0
M  V30 2712 H 261.646 2.43703 -1.73923 0
M  V30 2713 H 259.192 1.17128 -0.837675 0
M  V30 2714 H 261.145 4.2134 -0.0709606 0
M  V30 2715 H 259.869 3.20079 0.649366 0
M  V30 2716 H 258.528 3.35505 -1.47756 0
M  V30 2717 H 258.176 5.01727 0.357633 0
M  V30 2718 H 257.876 5.74341 -1.24123 0
M  V30 2719 H 259.4 6.09433 -0.377355 0
M  V30 2720 H 260.814 5.17999 -2.45663 0
M  V30 2721 H 259.211 5.05277 -3.23752 0
M  V30 2722 H 260.281 3.63962 -3.20406 0
M  V30 2723 N 261.624 0.925811 1.2754 0
M  V30 2724 C 262.854 0.580666 1.98272 0
M  V30 2725 C 263.262 -0.845207 1.69272 0
M  V30 2726 O 262.605 -1.57306 0.948707 0
M  V30 2727 C 262.667 0.724418 3.52126 0
M  V30 2728 C 262.331 2.12206 4.04744 0
M  V30 2729 C 263.328 3.09604 4.17662 0
M  V30 2730 C 261.013 2.4385 4.39138 0
M  V30 2731 C 263.007 4.36755 4.64246 0
M  V30 2732 C 260.694 3.71237 4.85414 0
M  V30 2733 C 261.692 4.67503 4.97926 0
M  V30 2734 O 261.38 5.92624 5.43187 0
M  V30 2735 H 261.112 0.218987 0.639547 0
M  V30 2736 H 263.666 1.24452 1.63404 0
M  V30 2737 H 261.896 0.0034663 3.867 0
M  V30 2738 H 263.585 0.384607 4.04074 0
M  V30 2739 H 264.351 2.86478 3.91351 0
M  V30 2740 H 260.23 1.69665 4.28643 0
M  V30 2741 H 263.774 5.11898 4.73927 0
M  V30 2742 H 259.671 3.94182 5.11166 0
M  V30 2743 H 260.439 5.95585 5.61445 0
M  V30 2744 N 263.102 -1.41638 0.69111 0
M  V30 2745 C 264.35 -2.00902 0.219758 0
M  V30 2746 C 264.671 -1.54994 -1.18329 0
M  V30 2747 O 263.941 -0.778628 -1.79762 0
M  V30 2748 H 262.521 -0.74289 0.0782558 0
M  V30 2749 H 265.183 -1.73327 0.891271 0
M  V30 2750 H 264.279 -3.11224 0.233708 0
M  V30 2751 N 264.58 -0.43555 -1.51462 0
M  V30 2752 C 265.805 0.132627 -2.06976 0
M  V30 2753 C 266.23 1.35848 -1.30104 0
M  V30 2754 O 265.588 1.78112 -0.338493 0
M  V30 2755 C 265.636 0.43523 -3.57964 0
M  V30 2756 O 264.74 1.52198 -3.83288 0
M  V30 2757 H 264.081 0.00265 -0.663995 0
M  V30 2758 H 266.611 -0.616369 -1.95095 0
M  V30 2759 H 266.621 0.686206 -4.02188 0
M  V30 2760 H 265.296 -0.460739 -4.1334 0
M  V30 2761 H 263.873 1.2611 -3.50928 0
M  V30 2762 N 266.058 1.56714 -0.166846 0
M  V30 2763 C 267.306 1.96358 0.478305 0
M  V30 2764 C 267.627 1.0537 1.6408 0
M  V30 2765 O 266.897 0.119154 1.95537 0
M  V30 2766 H 265.477 0.725065 0.179692 0
M  V30 2767 H 268.139 1.93329 -0.246985 0
M  V30 2768 H 267.235 3.00547 0.841292 0
M  V30 2769 N 267.536 -0.106894 1.57237 0
M  V30 2770 C 268.813 -0.843526 1.76477 0
M  V30 2771 C 269.193 -1.97499 0.745464 0
M  V30 2772 O 268.541 -2.27357 -0.228306 0
M  V30 2773 C 268.751 -1.34903 3.21873 0
M  V30 2774 C 270.099 -1.79654 3.8472 0
M  V30 2775 O 271.123 -1.44554 3.2555 0
M  V30 2776 O 269.982 -2.44515 4.88748 0
M  V30 2777 H 267.076 -0.401468 0.723016 0
M  V30 2778 H 269.622 -0.0896927 1.69463 0
M  V30 2779 H 268.394 -0.53781 3.87586 0
M  V30 2780 H 268.017 -2.16522 3.33473 0
M  V30 2781 N 269.014 -1.53014 -0.377408 0
M  V30 2782 C 269.946 -1.74884 -1.48149 0
M  V30 2783 C 270.959 -0.629433 -1.5014 0
M  V30 2784 O 272.148 -0.905416 -1.53833 0
M  V30 2785 C 269.248 -1.80299 -2.86959 0
M  V30 2786 C 268.421 -3.09776 -3.08801 0
M  V30 2787 C 267.48 -3.06586 -4.27658 0
M  V30 2788 O 266.506 -3.80419 -4.23403 0
M  V30 2789 N 267.708 -2.26578 -5.34455 0
M  V30 2790 H 270.473 -2.70147 -1.29771 0
M  V30 2791 H 268.034 -1.51646 -0.56703 0
M  V30 2792 H 270.026 -1.75657 -3.64591 0
M  V30 2793 H 268.596 -0.92372 -2.98641 0
M  V30 2794 H 267.816 -3.27815 -2.18931 0
M  V30 2795 H 269.104 -3.95366 -3.20255 0
M  V30 2796 H 268.502 -1.66081 -5.40771 0
M  V30 2797 H 267.059 -2.27766 -6.10709 0
M  V30 2798 N 270.492 0.636531 -1.44174 0
M  V30 2799 C 271.402 1.77754 -1.53103 0
M  V30 2800 C 272.418 1.68928 -0.417034 0
M  V30 2801 O 273.594 1.89801 -0.6736 0
M  V30 2802 C 270.659 3.14115 -1.46741 0
M  V30 2803 C 269.72 3.34612 -2.68948 0
M  V30 2804 C 268.953 4.64467 -2.6288 0
M  V30 2805 O 269.176 5.44919 -1.68581 0
M  V30 2806 O 268.11 4.87049 -3.53648 0
M  V30 2807 H 271.936 1.73174 -2.49489 0
M  V30 2808 H 269.521 0.79709 -1.2636 0
M  V30 2809 H 271.403 3.95412 -1.45696 0
M  V30 2810 H 270.078 3.19249 -0.534975 0
M  V30 2811 H 268.985 2.53014 -2.75562 0
M  V30 2812 H 270.318 3.34336 -3.61221 0
M  V30 2813 N 271.97 1.30982 0.876444 0
M  V30 2814 C 272.933 1.18054 1.96459 0
M  V30 2815 C 273.933 0.109399 1.60427 0
M  V30 2816 O 275.123 0.358173 1.70478 0
M  V30 2817 C 272.255 0.810616 3.31122 0
M  V30 2818 H 273.448 2.14735 2.09354 0
M  V30 2819 H 271.001 1.145 1.06392 0
M  V30 2820 H 271.736 -0.155322 3.23928 0
M  V30 2821 H 271.521 1.58481 3.58645 0
M  V30 2822 H 273.011 0.743876 4.10921 0
M  V30 2823 N 273.449 -1.08991 1.13837 0
M  V30 2824 C 274.695 -1.81699 0.91417 0
M  V30 2825 C 275.05 -1.84264 -0.553594 0
M  V30 2826 O 274.343 -1.30313 -1.4046 0
M  V30 2827 C 274.537 -3.27042 1.44147 0
M  V30 2828 C 274.366 -3.38637 2.95897 0
M  V30 2829 C 273.136 -3.50177 3.64286 0
M  V30 2830 C 275.334 -3.30791 3.93804 0
M  V30 2831 N 273.316 -3.50501 5.04006 0
M  V30 2832 C 274.687 -3.38037 5.19741 0
M  V30 2833 C 276.742 -3.14488 3.86007 0
M  V30 2834 C 275.445 -3.30659 6.38793 0
M  V30 2835 C 277.471 -3.08438 5.04599 0
M  V30 2836 C 276.833 -3.1628 6.29402 0
M  V30 2837 H 272.932 -0.678967 0.387979 0
M  V30 2838 H 275.516 -1.30224 1.4474 0
M  V30 2839 H 273.687 -3.76976 0.935091 0
M  V30 2840 H 275.419 -3.87785 1.1578 0
M  V30 2841 H 272.174 -3.53815 3.1482 0
M  V30 2842 H 272.598 -3.54236 5.76928 0
M  V30 2843 H 277.24 -3.07291 2.90399 0
M  V30 2844 H 274.958 -3.36618 7.34652 0
M  V30 2845 H 278.544 -2.96952 5.0031 0
M  V30 2846 H 277.424 -3.1162 7.19627 0
M  V30 2847 N 274.927 -0.932562 -1.27047 0
M  V30 2848 C 275.859 -0.392734 -2.2581 0
M  V30 2849 C 276.872 0.479241 -1.55586 0
M  V30 2850 O 278.061 0.291078 -1.76111 0
M  V30 2851 C 275.161 0.455456 -3.35826 0
M  V30 2852 C 274.334 -0.398355 -4.35582 0
M  V30 2853 C 273.393 0.387985 -5.24768 0
M  V30 2854 O 272.419 -0.206003 -5.68827 0
M  V30 2855 N 273.621 1.68664 -5.55457 0
M  V30 2856 H 276.386 -1.24173 -2.72766 0
M  V30 2857 H 273.947 -0.800511 -1.40725 0
M  V30 2858 H 275.939 0.988692 -3.92437 0
M  V30 2859 H 274.509 1.20522 -2.88432 0
M  V30 2860 H 273.729 -1.11286 -3.78165 0
M  V30 2861 H 275.017 -0.981889 -4.99236 0
M  V30 2862 H 274.415 2.19147 -5.21528 0
M  V30 2863 H 272.972 2.1663 -6.14748 0
M  V30 2864 N 276.405 1.4127 -0.698611 0
M  V30 2865 C 277.352 2.30773 -0.0352094 0
M  V30 2866 C 278.322 1.47273 0.768111 0
M  V30 2867 O 279.507 1.76053 0.735524 0
M  V30 2868 C 276.647 3.33346 0.893 0
M  V30 2869 C 275.76 4.31924 0.0809695 0
M  V30 2870 C 274.895 5.21566 1.0071 0
M  V30 2871 C 273.934 6.11811 0.188155 0
M  V30 2872 N 273.071 6.93926 1.06825 0
M  V30 2873 H 277.911 2.86943 -0.804207 0
M  V30 2874 H 275.448 1.4132 -0.408294 0
M  V30 2875 H 277.406 3.91368 1.44523 0
M  V30 2876 H 276.036 2.78719 1.62836 0
M  V30 2877 H 275.088 3.75825 -0.588224 0
M  V30 2878 H 276.4 4.95716 -0.553801 0
M  V30 2879 H 275.554 5.84437 1.62845 0
M  V30 2880 H 274.293 4.58008 1.67572 0
M  V30 2881 H 273.298 5.47986 -0.446254 0
M  V30 2882 H 274.523 6.77425 -0.476716 0
M  V30 2883 H 272.469 6.32973 1.72283 0
M  V30 2884 H 272.386 7.54416 0.489123 0
M  V30 2885 H 273.654 7.61262 1.67632 0
M  V30 2886 N 277.883 0.443576 1.51229 0
M  V30 2887 C 279.131 -0.120557 2.0174 0
M  V30 2888 C 279.452 -1.42665 1.32935 0
M  V30 2889 O 278.722 -1.9028 0.465866 0
M  V30 2890 H 277.302 -0.0475426 0.745486 0
M  V30 2891 H 279.964 0.587711 1.85828 0
M  V30 2892 H 279.06 -0.291972 3.10731 0
M  V30 2893 N 279.361 -1.56624 0.175154 0
M  V30 2894 C 280.607 -1.9729 -0.469506 0
M  V30 2895 C 280.94 -1.06128 -1.62636 0
M  V30 2896 O 280.215 -0.109183 -1.94193 0
M  V30 2897 C 280.498 -3.47375 -0.948804 0
M  V30 2898 C 280.351 -4.49317 0.208491 0
M  V30 2899 C 281.67 -4.00652 -1.82116 0
M  V30 2900 H 278.789 -0.717317 -0.16919 0
M  V30 2901 H 281.431 -1.88184 0.262062 0
M  V30 2902 H 279.581 -3.55267 -1.57219 0
M  V30 2903 H 281.253 -4.53482 0.845682 0
M  V30 2904 H 279.496 -4.25121 0.863395 0
M  V30 2905 H 280.167 -5.51741 -0.169059 0
M  V30 2906 H 282.643 -3.95416 -1.2956 0
M  V30 2907 H 281.519 -5.06075 -2.12554 0
M  V30 2908 H 281.78 -3.44699 -2.7683 0
M  V30 2909 N 280.839 0.0985539 -1.57292 0
M  V30 2910 C 281.769 1.12064 -2.04851 0
M  V30 2911 C 282.75 1.41981 -0.936767 0
M  V30 2912 O 283.935 1.52071 -1.20781 0
M  V30 2913 C 281.065 2.44144 -2.47004 0
M  V30 2914 C 280.019 2.28643 -3.6181 0
M  V30 2915 C 279.345 3.65869 -3.89929 0
M  V30 2916 C 280.645 1.72986 -4.92822 0
M  V30 2917 H 282.339 0.724979 -2.9049 0
M  V30 2918 H 279.885 0.34729 -1.39749 0
M  V30 2919 H 281.838 3.15914 -2.78884 0
M  V30 2920 H 280.562 2.85639 -1.5836 0
M  V30 2921 H 279.221 1.59318 -3.30172 0
M  V30 2922 H 278.869 4.04885 -2.98458 0
M  V30 2923 H 278.569 3.56344 -4.67218 0
M  V30 2924 H 280.093 4.39112 -4.2428 0
M  V30 2925 H 281.507 2.34593 -5.23105 0
M  V30 2926 H 279.904 1.74229 -5.74251 0
M  V30 2927 H 280.974 0.689007 -4.7998 0
M  V30 2928 N 282.317 1.53212 0.369288 0
M  V30 2929 C 283.564 1.69215 1.11232 0
M  V30 2930 C 283.892 0.442048 1.8941 0
M  V30 2931 O 283.147 -0.575944 1.87033 0
M  V30 2932 C 283.446 2.89101 2.10132 0
M  V30 2933 C 283.112 4.25758 1.48463 0
M  V30 2934 C 281.774 4.6292 1.31372 0
M  V30 2935 C 284.126 5.10757 1.03811 0
M  V30 2936 C 281.454 5.82722 0.68207 0
M  V30 2937 C 283.806 6.31201 0.420487 0
M  V30 2938 C 282.47 6.67079 0.237038 0
M  V30 2939 H 281.74 0.619201 0.407027 0
M  V30 2940 H 284.387 1.87391 0.394552 0
M  V30 2941 H 282.692 2.65421 2.88199 0
M  V30 2942 H 284.389 2.98676 2.6757 0
M  V30 2943 H 280.979 3.96494 1.62758 0
M  V30 2944 H 285.163 4.82599 1.1581 0
M  V30 2945 H 280.419 6.09113 0.528316 0
M  V30 2946 H 284.593 6.96368 0.0662874 0
M  V30 2947 H 282.22 7.59774 -0.254477 0
M  V30 2948 N 283.795 -0.628877 1.44509 0
M  V30 2949 C 284.758 -1.72263 1.51188 0
M  V30 2950 C 285.758 -1.55907 0.39367 0
M  V30 2951 O 286.948 -1.61361 0.656377 0
M  V30 2952 C 284.08 -3.11365 1.38798 0
M  V30 2953 H 285.273 -1.67714 2.4862 0
M  V30 2954 H 282.826 -0.842737 1.31634 0
M  V30 2955 H 283.561 -3.21507 0.424693 0
M  V30 2956 H 283.346 -3.24644 2.19884 0
M  V30 2957 H 284.836 -3.91075 1.46458 0
M  V30 2958 N 285.273 -1.31445 -0.869486 0
M  V30 2959 C 286.498 -1.24256 -1.66058 0
M  V30 2960 C 286.923 0.188928 -1.87149 0
M  V30 2961 O 286.281 1.13522 -1.4136 0
M  V30 2962 C 286.329 -1.9924 -3.00559 0
M  V30 2963 O 285.433 -1.33007 -3.90362 0
M  V30 2964 H 284.774 -0.428973 -0.506831 0
M  V30 2965 H 287.304 -1.73521 -1.08404 0
M  V30 2966 H 287.314 -2.08854 -3.50491 0
M  V30 2967 H 285.989 -3.03342 -2.84528 0
M  V30 2968 H 284.566 -1.31848 -3.48813 0
M  V30 2969 N 286.751 1.08385 -1.14413 0
M  V30 2970 C 287.999 1.80419 -0.910679 0
M  V30 2971 C 288.32 1.86658 0.564243 0
M  V30 2972 O 287.59 1.35985 1.41014 0
M  V30 2973 H 286.17 0.668204 -0.333934 0
M  V30 2974 H 288.832 1.31037 -1.44275 0
M  V30 2975 H 287.928 2.83238 -1.31082 0
M  V30 2976 N 288.23 0.939286 1.26551 0
M  V30 2977 C 289.162 0.404704 2.25599 0
M  V30 2978 C 290.175 -0.470983 1.55838 0
M  V30 2979 O 291.364 -0.281734 1.76263 0
M  V30 2980 C 288.464 -0.43764 3.36062 0
M  V30 2981 C 287.637 0.421449 4.35365 0
M  V30 2982 C 286.696 -0.36015 5.24966 0
M  V30 2983 O 285.722 0.236167 5.6871 0
M  V30 2984 N 286.924 -1.65715 5.56344 0
M  V30 2985 H 289.689 1.25618 2.72103 0
M  V30 2986 H 287.25 0.807963 1.40298 0
M  V30 2987 H 289.242 -0.967866 3.92956 0
M  V30 2988 H 287.812 -1.18991 2.89067 0
M  V30 2989 H 287.032 1.1329 3.7757 0
M  V30 2990 H 288.32 1.00835 4.98708 0
M  V30 2991 H 287.718 -2.16378 5.22682 0
M  V30 2992 H 286.275 -2.13366 6.15888 0
M  V30 2993 N 289.708 -1.40897 0.706093 0
M  V30 2994 C 290.656 -2.32572 0.0361893 0
M  V30 2995 C 291.65 -1.51532 -0.757266 0
M  V30 2996 O 292.856 -1.67396 -0.661703 0
M  V30 2997 H 289.231 -0.751966 -0.00709935 0
M  V30 2998 H 291.202 -2.86733 0.826249 0
M  V30 2999 C 289.951 -3.36418 -0.87854 0
M  V30 3000 H 289.274 -3.98836 -0.277401 0
M  V30 3001 H 290.714 -4.0308 -1.3154 0
M  V30 3002 C 289.173 -2.71141 -1.99961 0
M  V30 3003 O 289.703 -2.56735 -3.0895 0
M  V30 3004 N 287.909 -2.29671 -1.78043 0
M  V30 3005 H 287.456 -2.41588 -0.894042 0
M  V30 3006 H 287.414 -1.86332 -2.53235 0
M  V30 3007 N 291.186 -0.45159 -1.50991 0
M  V30 3008 C 292.116 0.342898 -2.30969 0
M  V30 3009 C 293.097 1.00815 -1.37005 0
M  V30 3010 O 294.282 1.00907 -1.65926 0
M  V30 3011 C 291.412 1.43637 -3.16205 0
M  V30 3012 C 290.366 0.893818 -4.18563 0
M  V30 3013 C 289.692 2.08411 -4.92411 0
M  V30 3014 C 290.992 -0.0815568 -5.22236 0
M  V30 3015 H 292.686 -0.324556 -2.97636 0
M  V30 3016 H 290.232 -0.157531 -1.43136 0
M  V30 3017 H 292.185 1.9995 -3.70942 0
M  V30 3018 H 290.909 2.13232 -2.47386 0
M  V30 3019 H 289.568 0.352798 -3.64898 0
M  V30 3020 H 289.216 2.76658 -4.20082 0
M  V30 3021 H 288.916 1.72741 -5.61636 0
M  V30 3022 H 290.44 2.65251 -5.49976 0
M  V30 3023 H 291.854 0.391742 -5.7196 0
M  V30 3024 H 290.251 -0.351551 -5.99069 0
M  V30 3025 H 291.321 -1.01374 -4.74185 0
M  V30 3026 N 292.664 1.56529 -0.183458 0
M  V30 3027 C 293.627 2.17324 0.728223 0
M  V30 3028 C 294.627 1.12453 1.14939 0
M  V30 3029 O 295.817 1.37902 1.06437 0
M  V30 3030 C 292.949 2.76591 1.99274 0
M  V30 3031 H 294.142 2.99241 0.198772 0
M  V30 3032 H 291.695 1.5616 0.0661391 0
M  V30 3033 H 292.43 1.98441 2.56499 0
M  V30 3034 H 292.215 3.5335 1.69959 0
M  V30 3035 H 293.705 3.23311 2.6431 0
M  V30 3036 N 294.142 -0.090211 1.57342 0
M  V30 3037 C 295.558 -0.444547 1.53284 0
M  V30 3038 C 295.758 -1.80238 0.900914 0
M  V30 3039 O 294.814 -2.4759 0.495513 0
M  V30 3040 C 296.127 -0.402543 2.97993 0
M  V30 3041 C 297.675 -0.48405 3.09234 0
M  V30 3042 C 298.15 -0.472144 4.5556 0
M  V30 3043 N 299.641 -0.532757 4.60126 0
M  V30 3044 C 300.376 -0.545462 5.708 0
M  V30 3045 N 299.872 -0.514082 6.9089 0
M  V30 3046 N 301.665 -0.59064 5.58988 0
M  V30 3047 H 293.816 0.799121 1.96794 0
M  V30 3048 H 296.079 0.297965 0.899956 0
M  V30 3049 H 295.785 0.528106 3.47712 0
M  V30 3050 H 295.659 -1.21969 3.56936 0
M  V30 3051 H 298.046 -1.40512 2.595 0
M  V30 3052 H 298.127 0.361328 2.53235 0
M  V30 3053 H 297.771 0.445 5.05947 0
M  V30 3054 H 297.701 -1.3348 5.09402 0
M  V30 3055 H 300.192 -0.562006 3.73698 0
M  V30 3056 H 300.505 -0.527195 7.71 0
M  V30 3057 H 298.85 -0.481054 6.93333 0
M  V30 3058 H 302.041 -0.61272 4.64073 0
M  V30 3059 H 302.214 -0.597073 6.45243 0
M  V30 3060 N 295.62 -1.53406 -0.361157 0
M  V30 3061 C 296.552 -1.76446 -1.46286 0
M  V30 3062 C 297.565 -0.645322 -1.49464 0
M  V30 3063 O 298.754 -0.921681 -1.52864 0
M  V30 3064 C 295.854 -1.83332 -2.85031 0
M  V30 3065 C 295.027 -3.13033 -3.05498 0
M  V30 3066 C 294.086 -3.11104 -4.24383 0
M  V30 3067 O 293.112 -3.84888 -4.19344 0
M  V30 3068 N 294.314 -2.32234 -5.32022 0
M  V30 3069 H 297.079 -2.71508 -1.26899 0
M  V30 3070 H 294.64 -1.52238 -0.550915 0
M  V30 3071 H 296.632 -1.79514 -3.62708 0
M  V30 3072 H 295.202 -0.955342 -2.97644 0
M  V30 3073 H 294.422 -3.30119 -2.15442 0
M  V30 3074 H 295.71 -3.9874 -3.16044 0
M  V30 3075 H 295.108 -1.71807 -5.38979 0
M  V30 3076 H 293.665 -2.3423 -6.08259 0
M  V30 3077 N 297.098 0.621204 -1.44841 0
M  V30 3078 C 298.028 1.74366 -1.55303 0
M  V30 3079 C 299.009 1.65199 -0.405385 0
M  V30 3080 O 300.194 1.83807 -0.626787 0
M  V30 3081 C 297.324 3.12931 -1.50637 0
M  V30 3082 C 296.278 3.36896 -2.63979 0
M  V30 3083 C 295.604 4.75594 -2.44366 0
M  V30 3084 C 296.904 3.28483 -4.06074 0
M  V30 3085 H 298.598 1.65867 -2.49256 0
M  V30 3086 H 296.144 0.796558 -1.19962 0
M  V30 3087 H 298.097 3.9124 -1.56555 0
M  V30 3088 H 296.821 3.22237 -0.532057 0
M  V30 3089 H 295.48 2.60972 -2.57467 0
M  V30 3090 H 295.128 4.81616 -1.45105 0
M  V30 3091 H 294.828 4.92586 -3.20364 0
M  V30 3092 H 296.352 5.5612 -2.52117 0
M  V30 3093 H 297.766 3.96684 -4.13902 0
M  V30 3094 H 296.163 3.57008 -4.82354 0
M  V30 3095 H 297.233 2.26133 -4.28943 0
M  V30 3096 N 298.576 1.31904 0.862503 0
M  V30 3097 C 299.509 1.14514 1.97388 0
M  V30 3098 C 300.487 0.0466493 1.62533 0
M  V30 3099 O 301.671 0.204484 1.87388 0
M  V30 3100 C 298.798 0.751347 3.30261 0
M  V30 3101 C 297.844 1.85395 3.84098 0
M  V30 3102 S 298.677 3.46081 4.08642 0
M  V30 3103 C 299.833 3.08655 5.44502 0
M  V30 3104 H 300.066 2.08597 2.11836 0
M  V30 3105 H 297.599 1.16475 1.01356 0
M  V30 3106 H 299.557 0.530901 4.07052 0
M  V30 3107 H 298.218 -0.170493 3.13637 0
M  V30 3108 H 297.411 1.53122 4.80177 0
M  V30 3109 H 297.013 2.02984 3.14123 0
M  V30 3110 H 299.305 2.58012 6.26447 0
M  V30 3111 H 300.248 4.03726 5.81731 0
M  V30 3112 H 300.656 2.45891 5.08132 0
M  V30 3113 N 300.054 -1.07777 1.14986 0
M  V30 3114 C 300.964 -2.18404 0.856546 0
M  V30 3115 C 301.98 -1.73211 -0.165485 0
M  V30 3116 O 303.156 -2.01399 0.00755219 0
M  V30 3117 C 300.221 -3.44977 0.34526 0
M  V30 3118 C 299.282 -4.0476 1.43065 0
M  V30 3119 C 298.515 -5.25291 0.943663 0
M  V30 3120 O 298.738 -5.70004 -0.212426 0
M  V30 3121 O 297.672 -5.76638 1.72547 0
M  V30 3122 H 301.498 -2.45978 1.78125 0
M  V30 3123 H 299.083 -1.17033 0.928631 0
M  V30 3124 H 300.965 -4.21348 0.0663671 0
M  V30 3125 H 299.64 -3.18965 -0.551631 0
M  V30 3126 H 298.547 -3.29949 1.76309 0
M  V30 3127 H 299.88 -4.35035 2.30229 0
M  V30 3128 N 301.532 -0.945985 -1.26051 0
M  V30 3129 C 302.76 -0.613025 -1.9761 0
M  V30 3130 C 303.175 0.813035 -1.70397 0
M  V30 3131 O 302.532 1.54274 -0.974979 0
M  V30 3132 C 302.583 -0.85159 -3.51326 0
M  V30 3133 O 302.304 -2.22157 -3.77595 0
M  V30 3134 C 303.805 -0.529831 -4.40122 0
M  V30 3135 H 301.025 -0.230593 -0.630133 0
M  V30 3136 H 303.569 -1.268 -1.60443 0
M  V30 3137 H 301.724 -0.243151 -3.86636 0
M  V30 3138 H 302.138 -2.2852 -4.721 0
M  V30 3139 H 303.612 -0.747348 -5.46917 0
M  V30 3140 H 304.089 0.535341 -4.35925 0
M  V30 3141 H 304.695 -1.11721 -4.10364 0
M  V30 3142 N 303.011 1.40521 -0.713556 0
M  V30 3143 C 304.422 1.83853 -0.324807 0
M  V30 3144 C 304.773 1.59667 1.14021 0
M  V30 3145 O 303.898 1.07649 1.87725 0
M  V30 3146 C 304.493 3.33751 -0.582746 0
M  V30 3147 C 303.052 3.75584 -0.247727 0
M  V30 3148 C 302.199 2.63753 -0.856121 0
M  V30 3149 H 305.15 1.29817 -0.91286 0
M  V30 3150 H 305.171 3.80194 0.152682 0
M  V30 3151 H 304.683 3.51322 -1.64908 0
M  V30 3152 H 302.784 3.63608 0.813624 0
M  V30 3153 H 302.897 4.7373 -0.715307 0
M  V30 3154 H 301.261 2.53108 -0.28432 0
M  V30 3155 H 302.044 2.84137 -1.92668 0
M  V30 3156 N 304.489 0.459591 1.5075 0
M  V30 3157 C 305.452 -0.329093 2.26825 0
M  V30 3158 C 306.452 -0.930481 1.31144 0
M  V30 3159 O 307.642 -0.801453 1.54669 0
M  V30 3160 C 304.774 -1.46768 3.07688 0
M  V30 3161 H 305.967 0.337924 2.9799 0
M  V30 3162 H 303.52 0.213336 1.54837 0
M  V30 3163 H 304.255 -2.17009 2.40993 0
M  V30 3164 H 304.04 -1.04238 3.77991 0
M  V30 3165 H 305.53 -2.02433 3.65254 0
M  V30 3166 N 305.967 -1.56429 0.191757 0
M  V30 3167 C 306.915 -2.20273 -0.747174 0
M  V30 3168 C 307.909 -1.17288 -1.22229 0
M  V30 3169 O 309.115 -1.35441 -1.18557 0
M  V30 3170 H 305.49 -0.705885 -0.259289 0
M  V30 3171 H 307.461 -2.97826 -0.184963 0
M  V30 3172 C 306.21 -2.87356 -1.95759 0
M  V30 3173 H 305.533 -3.66341 -1.60106 0
M  V30 3174 H 306.973 -3.3547 -2.59299 0
M  V30 3175 C 305.432 -1.88213 -2.79423 0
M  V30 3176 O 305.962 -1.38033 -3.7724 0
M  V30 3177 N 304.168 -1.56516 -2.44849 0
M  V30 3178 H 303.715 -1.97516 -1.65364 0
M  V30 3179 H 303.673 -0.904369 -3.01112 0
M  V30 3180 N 307.445 0.0818655 -1.57387 0
M  V30 3181 C 308.355 1.11642 -2.06333 0
M  V30 3182 C 309.371 1.43033 -0.99083 0
M  V30 3183 O 310.547 1.53411 -1.30488 0
M  V30 3184 C 307.612 2.41342 -2.48907 0
M  V30 3185 C 306.673 2.17014 -3.7041 0
M  V30 3186 C 305.906 3.4053 -4.10944 0
M  V30 3187 O 306.129 4.4927 -3.51444 0
M  V30 3188 O 305.063 3.29336 -5.03807 0
M  V30 3189 H 308.889 0.730657 -2.9478 0
M  V30 3190 H 306.474 0.295301 -1.46452 0
M  V30 3191 H 308.356 3.17691 -2.76858 0
M  V30 3192 H 307.031 2.79319 -1.63593 0
M  V30 3193 H 305.938 1.38403 -3.47556 0
M  V30 3194 H 307.271 1.83923 -4.56545 0
M  V30 3195 N 308.923 1.53595 0.353017 0
M  V30 3196 C 309.856 1.7572 1.45594 0
M  V30 3197 C 310.834 0.605961 1.50887 0
M  V30 3198 O 312.018 0.840023 1.68748 0
M  V30 3199 C 309.145 1.84732 2.83887 0
M  V30 3200 C 308.191 3.06808 2.96262 0
M  V30 3201 S 309.024 4.66065 2.63711 0
M  V30 3202 C 310.18 4.77943 4.04131 0
M  V30 3203 H 310.413 2.68994 1.26608 0
M  V30 3204 H 307.946 1.44343 0.548117 0
M  V30 3205 H 309.904 1.9061 3.63563 0
M  V30 3206 H 308.565 0.92488 3.00175 0
M  V30 3207 H 307.758 3.09761 3.97573 0
M  V30 3208 H 307.36 2.99108 2.24523 0
M  V30 3209 H 309.652 4.5877 4.98534 0
M  V30 3210 H 310.595 5.80022 4.06177 0
M  V30 3211 H 311.003 4.06472 3.91715 0
M  V30 3212 N 310.401 -0.613514 1.45168 0
M  V30 3213 C 311.629 -1.39946 1.5239 0
M  V30 3214 C 312.044 -1.88167 0.154531 0
M  V30 3215 O 311.401 -1.61872 -0.842843 0
M  V30 3216 C 311.452 -2.60795 2.50337 0
M  V30 3217 O 311.173 -2.1458 3.81952 0
M  V30 3218 C 312.674 -3.53723 2.67198 0
M  V30 3219 H 309.894 -0.428593 0.516284 0
M  V30 3220 H 312.438 -0.748753 1.903 0
M  V30 3221 H 310.593 -3.21919 2.15515 0
M  V30 3222 H 311.007 -2.93055 4.34993 0
M  V30 3223 H 312.481 -4.35079 3.39721 0
M  V30 3224 H 312.958 -4.0368 1.73029 0
M  V30 3225 H 313.564 -2.98456 3.02992 0
M  V30 3226 N 311.879 -1.3236 -0.855495 0
M  V30 3227 C 313.29 -1.2056 -1.42556 0
M  V30 3228 C 313.641 0.182209 -1.95352 0
M  V30 3229 O 312.766 1.08088 -1.87472 0
M  V30 3230 C 313.361 -2.1826 -2.59129 0
M  V30 3231 C 311.92 -2.10351 -3.12137 0
M  V30 3232 C 311.067 -2.06674 -1.84882 0
M  V30 3233 H 314.018 -1.442 -0.662727 0
M  V30 3234 H 314.039 -1.78064 -3.36264 0
M  V30 3235 H 313.551 -3.19257 -2.20673 0
M  V30 3236 H 311.652 -1.12599 -3.55179 0
M  V30 3237 H 311.765 -3.00135 -3.73438 0
M  V30 3238 H 310.129 -1.51901 -2.04446 0
M  V30 3239 H 310.912 -3.09451 -1.48643 0
M  V30 3240 N 313.357 1.07166 -1.15556 0
M  V30 3241 C 314.585 1.83514 -0.955519 0
M  V30 3242 C 315 1.82163 0.49621 0
M  V30 3243 O 314.357 1.23441 1.34419 0
M  V30 3244 C 314.408 3.30515 -1.46432 0
M  V30 3245 O 314.129 3.31937 -2.85918 0
M  V30 3246 C 315.63 4.23625 -1.30603 0
M  V30 3247 H 312.85 0.578926 -0.339244 0
M  V30 3248 H 315.394 1.35265 -1.53374 0
M  V30 3249 H 313.549 3.76106 -0.928584 0
M  V30 3250 H 313.963 4.23794 -3.09029 0
M  V30 3251 H 315.437 5.24831 -1.71047 0
M  V30 3252 H 315.914 4.38485 -0.250441 0
M  V30 3253 H 316.52 3.83871 -1.83094 0
M  V30 3254 N 314.835 0.952656 1.25548 0
M  V30 3255 C 316.251 0.656769 1.4546 0
M  V30 3256 C 316.451 -0.78633 1.85524 0
M  V30 3257 O 315.507 -1.56183 1.98402 0
M  V30 3258 C 316.82 1.62801 2.52817 0
M  V30 3259 C 318.368 1.63897 2.66659 0
M  V30 3260 C 318.843 2.5978 3.77198 0
M  V30 3261 N 320.334 2.58133 3.84606 0
M  V30 3262 C 321.069 3.29003 4.69621 0
M  V30 3263 N 320.565 4.09339 5.58939 0
M  V30 3264 N 322.358 3.179 4.63569 0
M  V30 3265 H 314.509 1.88526 0.978344 0
M  V30 3266 H 316.772 0.810815 0.491206 0
M  V30 3267 H 316.478 2.65869 2.30232 0
M  V30 3268 H 316.352 1.38898 3.50695 0
M  V30 3269 H 318.739 0.615481 2.8861 0
M  V30 3270 H 318.82 1.91858 1.69187 0
M  V30 3271 H 318.464 3.62254 3.55997 0
M  V30 3272 H 318.394 2.29105 4.7415 0
M  V30 3273 H 320.885 1.99809 3.20757 0
M  V30 3274 H 321.198 4.6034 6.20731 0
M  V30 3275 H 319.543 4.13438 5.58654 0
M  V30 3276 H 322.734 2.54612 3.92798 0
M  V30 3277 H 322.907 3.73398 5.29602 0
M  V30 3278 N 316.313 -1.40141 0.720998 0
M  V30 3279 C 317.56 -2.00787 0.262842 0
M  V30 3280 C 317.888 -1.5718 -1.14563 0
M  V30 3281 O 317.143 -0.785391 -1.79249 0
M  V30 3282 C 317.442 -3.56165 0.296892 0
M  V30 3283 C 317.108 -4.19373 1.65641 0
M  V30 3284 C 315.77 -4.36352 2.02855 0
M  V30 3285 C 318.122 -4.54578 2.54968 0
M  V30 3286 C 315.45 -4.8582 3.28931 0
M  V30 3287 C 317.802 -5.05447 3.80402 0
M  V30 3288 C 316.466 -5.20635 4.17726 0
M  V30 3289 H 315.736 -0.734731 0.0961807 0
M  V30 3290 H 318.383 -1.67673 0.925093 0
M  V30 3291 H 316.688 -3.8922 -0.448932 0
M  V30 3292 H 318.385 -4.00929 -0.0755208 0
M  V30 3293 H 314.975 -4.06549 1.35704 0
M  V30 3294 H 319.159 -4.41091 2.27491 0
M  V30 3295 H 314.415 -4.95764 3.57811 0
M  V30 3296 H 318.589 -5.31663 4.49786 0
M  V30 3297 H 316.216 -5.58728 5.15487 0
M  V30 3298 N 317.792 -0.46758 -1.50504 0
M  V30 3299 C 318.755 0.317059 -2.26996 0
M  V30 3300 C 319.755 0.923513 -1.31635 0
M  V30 3301 O 320.945 0.793239 -1.55091 0
M  V30 3302 C 318.077 1.45134 -3.08462 0
M  V30 3303 H 319.27 -0.353723 -2.97807 0
M  V30 3304 H 316.823 -0.221545 -1.54722 0
M  V30 3305 H 317.558 2.15728 -2.4214 0
M  V30 3306 H 317.343 1.02232 -3.78538 0
M  V30 3307 H 318.833 2.00493 -3.66323 0
M  V30 3308 N 319.27 1.56325 -0.20005 0
M  V30 3309 C 320.18 2.22931 0.730668 0
M  V30 3310 C 321.196 1.22997 1.23076 0
M  V30 3311 O 322.372 1.55748 1.27689 0
M  V30 3312 C 319.437 2.87948 1.93098 0
M  V30 3313 C 318.498 4.03166 1.47497 0
M  V30 3314 C 317.731 4.65073 2.61807 0
M  V30 3315 O 317.954 4.25913 3.79413 0
M  V30 3316 O 316.888 5.54452 2.34237 0
M  V30 3317 H 320.714 3.03084 0.193391 0
M  V30 3318 H 318.299 1.49371 0.0294621 0
M  V30 3319 H 320.181 3.29063 2.6324 0
M  V30 3320 H 318.856 2.10771 2.45677 0
M  V30 3321 H 317.763 3.66664 0.742201 0
M  V30 3322 H 319.096 4.82022 0.995796 0
M  V30 3323 N 320.748 -0.0735177 1.57428 0
M  V30 3324 C 321.997 -0.771809 1.86349 0
M  V30 3325 C 322.31 -1.78828 0.792452 0
M  V30 3326 O 323.516 -2.53602 0.96945 0
M  V30 3327 C 321.972 -1.42358 3.30548 0
M  V30 3328 C 321.58 -0.445761 4.45777 0
M  V30 3329 C 323.324 -2.10434 3.6867 0
M  V30 3330 C 321.231 -1.10335 5.81016 0
M  V30 3331 H 320.161 -0.291999 0.695164 0
M  V30 3332 H 322.812 -0.0250749 1.83483 0
M  V30 3333 H 321.194 -2.21852 3.28021 0
M  V30 3334 H 322.368 0.319239 4.59693 0
M  V30 3335 H 320.683 0.130457 4.16196 0
M  V30 3336 H 323.28 -2.60405 4.67004 0
M  V30 3337 H 323.623 -2.90298 2.98383 0
M  V30 3338 H 324.156 -1.37773 3.7318 0
M  V30 3339 H 320.895 -0.345061 6.54591 0
M  V30 3340 H 320.415 -1.83925 5.70904 0
M  V30 3341 H 322.094 -1.62367 6.26295 0
M  V30 3342 N 322.226 -1.5378 -0.344866 0
M  V30 3343 C 323.475 -1.7018 -1.08267 0
M  V30 3344 C 323.788 -0.471 -1.89845 0
M  V30 3345 O 324.994 -0.515917 -2.66553 0
M  V30 3346 C 323.45 -3.00923 -1.97417 0
M  V30 3347 C 323.058 -4.31335 -1.21053 0
M  V30 3348 C 324.802 -3.26688 -2.71063 0
M  V30 3349 C 322.709 -5.53153 -2.09225 0
M  V30 3350 H 321.639 -0.634138 -0.407903 0
M  V30 3351 H 324.29 -1.8028 -0.342246 0
M  V30 3352 H 322.672 -2.84676 -2.75274 0
M  V30 3353 H 323.846 -4.58281 -0.481159 0
M  V30 3354 H 322.161 -4.12173 -0.591813 0
M  V30 3355 H 324.758 -4.1489 -3.37299 0
M  V30 3356 H 325.101 -2.43639 -3.37558 0
M  V30 3357 H 325.634 -3.43705 -2.0028 0
M  V30 3358 H 322.373 -6.38741 -1.47274 0
M  V30 3359 H 321.893 -5.30458 -2.79955 0
M  V30 3360 H 323.572 -5.88744 -2.68308 0
M  V30 3361 N 323.704 0.605807 -1.45491 0
M  V30 3362 C 324.614 1.74466 -1.56839 0
M  V30 3363 C 325.63 1.68006 -0.452772 0
M  V30 3364 O 326.806 1.8833 -0.713708 0
M  V30 3365 C 323.871 3.10931 -1.53371 0
M  V30 3366 C 322.932 3.28832 -2.75986 0
M  V30 3367 C 322.165 4.58787 -2.72673 0
M  V30 3368 O 322.388 5.4122 -1.80102 0
M  V30 3369 O 321.322 4.79438 -3.63899 0
M  V30 3370 H 325.148 1.67843 -2.53106 0
M  V30 3371 H 322.733 0.770108 -1.28022 0
M  V30 3372 H 324.615 3.92233 -1.54051 0
M  V30 3373 H 323.29 3.18042 -0.602572 0
M  V30 3374 H 322.197 2.47112 -2.80867 0
M  V30 3375 H 323.53 3.26599 -3.68231 0
M  V30 3376 N 325.182 1.32811 0.848464 0
M  V30 3377 C 326.129 1.22265 1.95755 0
M  V30 3378 C 327.099 0.103413 1.65778 0
M  V30 3379 O 328.284 0.280033 1.88734 0
M  V30 3380 C 325.424 0.958014 3.31536 0
M  V30 3381 C 324.537 2.16262 3.73971 0
M  V30 3382 C 323.672 1.83295 4.98575 0
M  V30 3383 C 322.711 3.00041 5.33518 0
M  V30 3384 N 321.848 2.67125 6.49299 0
M  V30 3385 H 326.688 2.17128 2.04107 0
M  V30 3386 H 324.225 1.07982 0.998913 0
M  V30 3387 H 326.183 0.785052 4.09747 0
M  V30 3388 H 324.813 0.046159 3.22767 0
M  V30 3389 H 323.865 2.44565 2.91362 0
M  V30 3390 H 325.177 3.03572 3.95785 0
M  V30 3391 H 324.331 1.62586 5.84509 0
M  V30 3392 H 323.07 0.932078 4.7871 0
M  V30 3393 H 322.075 3.21374 4.46093 0
M  V30 3394 H 323.3 3.90869 5.55336 0
M  V30 3395 H 321.246 1.79586 6.3094 0
M  V30 3396 H 321.163 3.47965 6.71161 0
M  V30 3397 H 322.431 2.49861 7.3837 0
M  V30 3398 N 326.66 -1.06551 1.16123 0
M  V30 3399 C 327.608 -2.16063 0.861371 0
M  V30 3400 C 328.602 -1.6856 -0.168517 0
M  V30 3401 O 329.808 -1.79986 -0.0227579 0
M  V30 3402 H 326.183 -0.705278 0.260934 0
M  V30 3403 H 328.154 -2.38567 1.79244 0
M  V30 3404 C 326.903 -3.45661 0.376018 0
M  V30 3405 H 326.226 -3.82604 1.15992 0
M  V30 3406 H 327.666 -4.23504 0.204951 0
M  V30 3407 C 326.125 -3.24546 -0.903954 0
M  V30 3408 O 326.655 -3.49865 -1.97377 0
M  V30 3409 N 324.861 -2.77992 -0.846679 0
M  V30 3410 H 324.408 -2.57589 0.0241017 0
M  V30 3411 H 324.366 -2.64244 -1.70359 0
M  V30 3412 N 328.138 -0.959301 -1.25041 0
M  V30 3413 C 329.068 -0.501388 -2.28053 0
M  V30 3414 C 330.049 0.454673 -1.63911 0
M  V30 3415 O 331.234 0.352618 -1.90972 0
M  V30 3416 C 328.364 0.217224 -3.4662 0
M  V30 3417 C 327.318 -0.654034 -4.22973 0
M  V30 3418 C 326.644 0.195589 -5.34342 0
M  V30 3419 C 327.944 -1.93447 -4.85155 0
M  V30 3420 H 329.638 -1.36238 -2.66608 0
M  V30 3421 H 327.184 -0.656534 -1.28163 0
M  V30 3422 H 329.137 0.548732 -4.17812 0
M  V30 3423 H 327.861 1.1125 -3.07068 0
M  V30 3424 H 326.52 -0.968693 -3.5357 0
M  V30 3425 H 326.168 1.09076 -4.91031 0
M  V30 3426 H 325.868 -0.384091 -5.86343 0
M  V30 3427 H 327.392 0.521958 -6.08365 0
M  V30 3428 H 328.806 -1.66908 -5.48466 0
M  V30 3429 H 327.203 -2.46018 -5.47353 0
M  V30 3430 H 328.273 -2.63466 -4.07079 0
M  V30 3431 N 329.616 1.39756 -0.72842 0
M  V30 3432 C 330.563 2.30647 -0.0841519 0
M  V30 3433 C 331.533 1.48869 0.7367 0
M  V30 3434 O 332.718 1.77574 0.698015 0
M  V30 3435 C 329.858 3.35165 0.822091 0
M  V30 3436 C 328.971 4.31999 -0.0106663 0
M  V30 3437 C 328.106 5.23585 0.896241 0
M  V30 3438 C 327.145 6.12072 0.0583381 0
M  V30 3439 N 326.282 6.96035 0.920818 0
M  V30 3440 H 331.122 2.85173 -0.864891 0
M  V30 3441 H 328.659 1.40422 -0.438179 0
M  V30 3442 H 330.617 3.94345 1.36189 0
M  V30 3443 H 329.247 2.8211 1.56888 0
M  V30 3444 H 328.299 3.74492 -0.66781 0
M  V30 3445 H 329.611 4.9443 -0.658825 0
M  V30 3446 H 328.765 5.87759 1.50412 0
M  V30 3447 H 327.504 4.61459 1.57819 0
M  V30 3448 H 326.509 5.46916 -0.562389 0
M  V30 3449 H 327.734 6.76261 -0.6203 0
M  V30 3450 H 325.68 6.36485 1.58818 0
M  V30 3451 H 325.597 7.55284 0.32899 0
M  V30 3452 H 326.865 7.64646 1.51447 0
M  V30 3453 N 331.094 0.475555 1.50254 0
M  V30 3454 C 332.319 -0.0777042 2.07254 0
M  V30 3455 C 332.744 -1.3235 1.3366 0
M  V30 3456 O 332.102 -1.77152 0.385597 0
M  V30 3457 C 332.15 -0.340169 3.58992 0
M  V30 3458 O 331.254 -1.41982 3.87188 0
M  V30 3459 H 330.595 0.0149556 0.663832 0
M  V30 3460 H 333.125 0.667878 1.93392 0
M  V30 3461 H 333.135 -0.579332 4.03866 0
M  V30 3462 H 331.81 0.570167 4.11973 0
M  V30 3463 H 330.387 -1.16762 3.54148 0
M  V30 3464 N 332.573 -1.56217 0.208337 0
M  V30 3465 C 333.536 -2.18455 -0.693557 0
M  V30 3466 C 334.536 -1.14268 -1.13135 0
M  V30 3467 O 335.726 -1.39577 -1.0423 0
M  V30 3468 C 332.858 -2.79727 -1.94848 0
M  V30 3469 H 334.051 -2.99519 -0.15114 0
M  V30 3470 H 331.604 -1.56245 -0.041287 0
M  V30 3471 H 332.339 -2.02497 -2.53309 0
M  V30 3472 H 332.124 -3.56009 -1.64316 0
M  V30 3473 H 333.614 -3.27475 -2.59133 0
M  V30 3474 N 334.051 0.0651679 -1.57465 0
M  V30 3475 C 335.276 0.779605 -1.9219 0
M  V30 3476 C 335.701 1.69988 -0.805333 0
M  V30 3477 O 335.059 1.79685 0.241435 0
M  V30 3478 C 335.107 1.54364 -3.2589 0
M  V30 3479 O 334.211 2.65474 -3.1559 0
M  V30 3480 H 333.552 0.212249 -0.629163 0
M  V30 3481 H 336.082 0.0314294 -2.04576 0
M  V30 3482 H 336.092 1.92146 -3.59922 0
M  V30 3483 H 334.767 0.868457 -4.06732 0
M  V30 3484 H 333.344 2.30501 -2.93128 0
M  V30 3485 N 335.529 1.53961 0.336706 0
M  V30 3486 C 336.754 1.75797 1.10046 0
M  V30 3487 C 337.179 0.498985 1.81361 0
M  V30 3488 O 336.537 -0.548769 1.72795 0
M  V30 3489 C 336.585 2.94257 2.08436 0
M  V30 3490 O 335.689 2.64883 3.16087 0
M  V30 3491 H 335.03 0.582936 0.317934 0
M  V30 3492 H 337.56 2.00945 0.38501 0
M  V30 3493 H 337.57 3.21237 2.51537 0
M  V30 3494 H 336.245 3.85564 1.55927 0
M  V30 3495 H 334.822 2.48812 2.77753 0
M  V30 3496 N 337.007 -0.598083 1.45811 0
M  V30 3497 C 337.954 -1.7082 1.55207 0
M  V30 3498 C 338.924 -1.61278 0.39732 0
M  V30 3499 O 340.109 -1.80717 0.612038 0
M  V30 3500 C 337.249 -3.09144 1.53376 0
M  V30 3501 C 336.362 -3.29423 2.79472 0
M  V30 3502 C 335.497 -4.57907 2.69248 0
M  V30 3503 C 334.536 -4.71476 3.90354 0
M  V30 3504 N 333.673 -5.9127 3.78608 0
M  V30 3505 H 338.513 -1.62125 2.50039 0
M  V30 3506 H 336.05 -0.790389 1.24062 0
M  V30 3507 H 338.008 -3.89186 1.50301 0
M  V30 3508 H 336.638 -3.16773 0.620876 0
M  V30 3509 H 335.69 -2.43091 2.92594 0
M  V30 3510 H 337.002 -3.3532 3.69272 0
M  V30 3511 H 336.156 -5.46157 2.64192 0
M  V30 3512 H 334.895 -4.54423 1.77063 0
M  V30 3513 H 333.9 -3.81648 3.95759 0
M  V30 3514 H 335.125 -4.76751 4.83617 0
M  V30 3515 H 333.071 -5.88813 2.89199 0
M  V30 3516 H 332.988 -5.98369 4.6205 0
M  V30 3517 H 334.256 -6.81992 3.77501 0
M  V30 3518 N 338.485 -1.33259 -0.841409 0
M  V30 3519 C 339.713 -1.27605 -1.62864 0
M  V30 3520 C 340.128 0.153507 -1.88175 0
M  V30 3521 O 339.485 1.09485 -1.46011 0
M  V30 3522 C 339.536 -2.04596 -2.98031 0
M  V30 3523 O 339.257 -3.41975 -2.73834 0
M  V30 3524 C 340.758 -2.06122 -3.92465 0
M  V30 3525 H 337.978 -0.439718 -0.506842 0
M  V30 3526 H 340.522 -1.75591 -1.04824 0
M  V30 3527 H 338.677 -1.60299 -3.5268 0
M  V30 3528 H 339.091 -3.81549 -3.59889 0
M  V30 3529 H 340.565 -2.64451 -4.84531 0
M  V30 3530 H 341.042 -1.05083 -4.26444 0
M  V30 3531 H 341.648 -2.50427 -3.43753 0
M  V30 3532 N 339.963 1.05934 -1.16686 0
M  V30 3533 C 340.873 2.17014 -0.891183 0
M  V30 3534 C 341.889 1.73453 0.137907 0
M  V30 3535 O 343.065 2.01361 -0.039592 0
M  V30 3536 C 340.13 3.44384 -0.400099 0
M  V30 3537 C 339.191 4.02433 -1.49486 0
M  V30 3538 C 338.424 5.23723 -1.02711 0
M  V30 3539 O 338.647 5.7027 0.121716 0
M  V30 3540 O 337.581 5.7382 -1.81699 0
M  V30 3541 H 341.407 2.43113 -1.82015 0
M  V30 3542 H 338.992 1.15541 -0.947132 0
M  V30 3543 H 340.874 4.21189 -0.133392 0
M  V30 3544 H 339.549 3.19802 0.500817 0
M  V30 3545 H 338.456 3.27102 -1.81535 0
M  V30 3546 H 339.789 4.31317 -2.37121 0
M  V30 3547 N 341.441 0.965919 1.2453 0
M  V30 3548 C 342.687 0.62776 1.92839 0
M  V30 3549 C 343.02 -0.834694 1.75347 0
M  V30 3550 O 342.295 -1.60031 1.10546 0
M  V30 3551 C 342.578 1.00109 3.45905 0
M  V30 3552 C 342.431 2.52011 3.72573 0
M  V30 3553 C 343.75 0.53435 4.36844 0
M  V30 3554 H 340.869 0.229537 0.700344 0
M  V30 3555 H 343.511 1.2046 1.46933 0
M  V30 3556 H 341.661 0.510238 3.85135 0
M  V30 3557 H 343.333 3.08559 3.42912 0
M  V30 3558 H 341.576 2.95287 3.17786 0
M  V30 3559 H 342.247 2.73183 4.79661 0
M  V30 3560 H 344.723 0.955565 4.04979 0
M  V30 3561 H 343.599 0.824152 5.42678 0
M  V30 3562 H 343.86 -0.565589 4.38467 0
M  V30 3563 N 342.919 -1.39368 0.735821 0
M  V30 3564 C 343.869 -2.27885 0.0724287 0
M  V30 3565 C 344.853 -1.44301 -0.711756 0
M  V30 3566 O 346.045 -1.67206 -0.58063 0
M  V30 3567 C 343.174 -3.33029 -0.833454 0
M  V30 3568 C 342.26 -4.24078 -0.0433749 0
M  V30 3569 N 342.651 -4.96138 0.983903 0
M  V30 3570 C 340.949 -4.45164 -0.272905 0
M  V30 3571 C 341.65 -5.63069 1.4604 0
M  V30 3572 N 340.626 -5.37991 0.778857 0
M  V30 3573 H 344.428 -2.81052 0.859467 0
M  V30 3574 H 341.942 -1.5206 0.570227 0
M  V30 3575 H 343.939 -3.95311 -1.32419 0
M  V30 3576 H 342.599 -2.81421 -1.61964 0
M  V30 3577 H 343.61 -4.9958 1.36528 0
M  V30 3578 H 340.287 -4.04497 -1.03383 0
M  V30 3579 H 341.677 -6.30755 2.31511 0
M  V30 3580 N 344.397 -0.483516 -1.5 0
M  V30 3581 C 345.646 0.0689102 -2.01582 0
M  V30 3582 C 345.959 1.39655 -1.36952 0
M  V30 3583 O 347.165 2.03465 -1.79762 0
M  V30 3584 C 345.621 0.173302 -3.59483 0
M  V30 3585 C 345.229 -1.14665 -4.33077 0
M  V30 3586 C 346.973 0.677024 -4.19066 0
M  V30 3587 C 344.88 -1.00537 -5.82792 0
M  V30 3588 H 343.81 0.0295277 -0.753422 0
M  V30 3589 H 346.461 -0.620295 -1.72698 0
M  V30 3590 H 344.843 0.926569 -3.85007 0
M  V30 3591 H 346.017 -1.91184 -4.19268 0
M  V30 3592 H 344.332 -1.58244 -3.85159 0
M  V30 3593 H 346.929 0.799952 -5.28682 0
M  V30 3594 H 347.272 1.67151 -3.81269 0
M  V30 3595 H 347.805 -0.0192083 -3.97795 0
M  V30 3596 H 344.544 -1.9736 -6.25083 0
M  V30 3597 H 344.064 -0.280776 -5.99142 0
M  V30 3598 H 345.743 -0.677 -6.43448 0
M  V30 3599 N 345.875 1.56104 -0.216619 0
M  V30 3600 C 347.291 1.58995 0.13886 0
M  V30 3601 C 347.491 1.23333 1.59346 0
M  V30 3602 O 346.547 0.966234 2.33281 0
M  V30 3603 C 347.86 3.00143 -0.182968 0
M  V30 3604 C 349.408 3.12751 -0.124807 0
M  V30 3605 C 349.883 4.56068 -0.420241 0
M  V30 3606 N 351.374 4.61723 -0.369634 0
M  V30 3607 C 352.109 5.70542 -0.571789 0
M  V30 3608 N 351.605 6.87744 -0.835453 0
M  V30 3609 N 353.398 5.59831 -0.504563 0
M  V30 3610 H 345.549 1.77562 -1.16557 0
M  V30 3611 H 347.812 0.825091 -0.466828 0
M  V30 3612 H 347.518 3.30871 -1.19237 0
M  V30 3613 H 347.392 3.73813 0.504367 0
M  V30 3614 H 349.779 2.81822 0.875223 0
M  V30 3615 H 349.86 2.41421 -0.845544 0
M  V30 3616 H 349.504 4.87713 -1.41769 0
M  V30 3617 H 349.434 5.25617 0.321631 0
M  V30 3618 H 351.925 3.77502 -0.173338 0
M  V30 3619 H 352.238 7.66587 -0.977938 0
M  V30 3620 H 350.583 6.895 -0.872592 0
M  V30 3621 H 353.774 4.67145 -0.298842 0
M  V30 3622 H 353.947 6.44573 -0.665519 0
M  V30 3623 N 347.353 -0.0568162 1.57498 0
M  V30 3624 C 348.764 -0.606858 1.76562 0
M  V30 3625 C 349.115 -1.77114 0.844094 0
M  V30 3626 O 348.24 -2.16376 0.0318911 0
M  V30 3627 C 348.835 -1.10766 3.20182 0
M  V30 3628 C 347.394 -1.60344 3.40539 0
M  V30 3629 C 346.541 -0.529311 2.72201 0
M  V30 3630 H 349.492 0.169393 1.57793 0
M  V30 3631 H 349.513 -1.97602 3.25167 0
M  V30 3632 H 349.025 -0.26006 3.87228 0
M  V30 3633 H 347.126 -2.47379 2.78629 0
M  V30 3634 H 347.239 -1.67006 4.4905 0
M  V30 3635 H 345.603 -0.977893 2.35179 0
M  V30 3636 H 346.386 0.308352 3.41912 0
M  V30 3637 N 348.832 -1.54138 -0.328536 0
M  V30 3638 C 349.779 -1.83176 -1.40411 0
M  V30 3639 C 350.749 -0.678494 -1.5161 0
M  V30 3640 O 351.934 -0.92443 -1.6691 0
M  V30 3641 C 349.074 -2.06035 -2.76846 0
M  V30 3642 C 348.187 -3.33727 -2.74318 0
M  V30 3643 C 347.322 -3.46574 -4.02567 0
M  V30 3644 C 346.361 -4.68159 -3.94327 0
M  V30 3645 N 345.498 -4.77959 -5.14296 0
M  V30 3646 H 350.338 -2.74938 -1.14948 0
M  V30 3647 H 347.875 -1.36166 -0.556538 0
M  V30 3648 H 349.833 -2.1728 -3.56153 0
M  V30 3649 H 348.463 -1.1757 -3.00628 0
M  V30 3650 H 347.515 -3.31246 -1.8703 0
M  V30 3651 H 348.827 -4.23139 -2.64111 0
M  V30 3652 H 347.981 -3.57333 -4.90304 0
M  V30 3653 H 346.72 -2.55245 -4.15574 0
M  V30 3654 H 345.725 -4.57461 -3.04974 0
M  V30 3655 H 346.95 -5.60868 -3.82889 0
M  V30 3656 H 344.896 -3.89544 -5.27818 0
M  V30 3657 H 344.813 -5.6133 -5.06404 0
M  V30 3658 H 346.081 -4.93044 -6.03761 0
M  V30 3659 N 350.31 0.590341 -1.46126 0
M  V30 3660 C 351.535 1.37991 -1.54833 0
M  V30 3661 C 351.96 1.87163 -0.187506 0
M  V30 3662 O 351.318 1.61133 0.831008 0
M  V30 3663 C 351.366 2.54867 -2.55098 0
M  V30 3664 O 350.47 3.56061 -2.08073 0
M  V30 3665 H 349.811 0.411265 -0.521303 0
M  V30 3666 H 352.341 0.716819 -1.91632 0
M  V30 3667 H 352.351 3.01886 -2.74461 0
M  V30 3668 H 351.026 2.18429 -3.53923 0
M  V30 3669 H 349.603 3.15574 -1.98664 0
M  V30 3670 N 351.788 1.33704 0.83433 0
M  V30 3671 C 353.034 1.26612 1.59188 0
M  V30 3672 C 353.389 -0.165439 1.91687 0
M  V30 3673 O 352.682 -1.10873 1.56262 0
M  V30 3674 C 352.876 2.07926 2.90692 0
M  V30 3675 C 352.705 3.58844 2.71038 0
M  V30 3676 C 351.475 4.28148 2.68361 0
M  V30 3677 C 353.673 4.53082 2.43353 0
M  V30 3678 N 351.655 5.64987 2.40132 0
M  V30 3679 C 353.026 5.77843 2.24716 0
M  V30 3680 C 355.081 4.42119 2.28987 0
M  V30 3681 C 353.784 6.92877 1.9317 0
M  V30 3682 C 355.81 5.56973 1.98835 0
M  V30 3683 C 355.172 6.80745 1.81012 0
M  V30 3684 H 351.271 0.518517 0.585375 0
M  V30 3685 H 353.855 1.68294 0.979044 0
M  V30 3686 H 352.026 1.68558 3.49918 0
M  V30 3687 H 353.758 1.92568 3.55949 0
M  V30 3688 H 350.513 3.80469 2.82029 0
M  V30 3689 H 350.937 6.37133 2.28889 0
M  V30 3690 H 355.579 3.47058 2.41477 0
M  V30 3691 H 353.297 7.87931 1.79418 0
M  V30 3692 H 356.883 5.50428 1.88468 0
M  V30 3693 H 355.763 7.68115 1.58017 0
M  V30 3694 N 353.266 -1.05314 1.17247 0
M  V30 3695 C 354.515 -1.77685 0.954521 0
M  V30 3696 C 354.828 -1.88616 -0.518025 0
M  V30 3697 O 356.034 -2.57714 -0.854144 0
M  V30 3698 C 354.49 -3.19402 1.65863 0
M  V30 3699 C 354.098 -3.16605 3.16963 0
M  V30 3700 C 355.842 -3.96237 1.52303 0
M  V30 3701 C 353.749 -4.53103 3.80068 0
M  V30 3702 H 352.679 -0.666 0.353496 0
M  V30 3703 H 355.33 -1.1805 1.40486 0
M  V30 3704 H 353.712 -3.79355 1.13602 0
M  V30 3705 H 354.886 -2.66176 3.76148 0
M  V30 3706 H 353.201 -2.53268 3.30521 0
M  V30 3707 H 355.798 -4.97157 1.96822 0
M  V30 3708 H 356.141 -4.136 0.473401 0
M  V30 3709 H 356.674 -3.42829 2.01775 0
M  V30 3710 H 353.413 -4.40946 4.85023 0
M  V30 3711 H 352.933 -5.03686 3.2567 0
M  V30 3712 H 354.612 -5.22045 3.82202 0
M  V30 3713 N 354.744 -0.972509 -1.24016 0
M  V30 3714 C 355.654 -0.5143 -2.28893 0
M  V30 3715 C 356.67 0.427078 -1.68677 0
M  V30 3716 O 357.846 0.298939 -1.99169 0
M  V30 3717 C 354.911 0.183598 -3.46214 0
M  V30 3718 C 353.972 -0.798202 -4.21814 0
M  V30 3719 C 353.205 -0.133514 -5.33533 0
M  V30 3720 O 353.428 1.07714 -5.60137 0
M  V30 3721 O 352.362 -0.828103 -5.96176 0
M  V30 3722 H 356.188 -1.38629 -2.70214 0
M  V30 3723 H 353.773 -0.739769 -1.29799 0
M  V30 3724 H 355.655 0.575433 -4.17453 0
M  V30 3725 H 354.33 1.03048 -3.0686 0
M  V30 3726 H 353.237 -1.24059 -3.52931 0
M  V30 3727 H 354.57 -1.61364 -4.64997 0
M  V30 3728 N 356.222 1.38976 -0.743202 0
M  V30 3729 C 357.132 2.3434 -0.110399 0
M  V30 3730 C 358.148 1.58741 0.712559 0
M  V30 3731 O 359.324 1.9099 0.639125 0
M  V30 3732 C 356.389 3.37812 0.780012 0
M  V30 3733 C 355.45 4.29263 -0.0561319 0
M  V30 3734 C 354.683 5.27793 0.791875 0
M  V30 3735 O 354.906 5.33043 2.03031 0
M  V30 3736 O 353.84 6.01512 0.216183 0
M  V30 3737 H 357.666 2.90129 -0.897714 0
M  V30 3738 H 355.251 1.40643 -0.503966 0
M  V30 3739 H 357.133 4.01194 1.28923 0
M  V30 3740 H 355.808 2.84395 1.546 0
M  V30 3741 H 354.715 3.69076 -0.611056 0
M  V30 3742 H 356.048 4.85907 -0.784531 0
M  V30 3743 N 357.7 0.491464 1.49741 0
M  V30 3744 C 358.632 -0.328609 2.26832 0
M  V30 3745 C 359.645 -0.939113 1.32983 0
M  V30 3746 O 360.834 -0.824067 1.58339 0
M  V30 3747 C 357.934 -1.47675 3.05033 0
M  V30 3748 C 357.107 -0.975305 4.26388 0
M  V30 3749 C 356.166 -1.99991 4.86714 0
M  V30 3750 O 355.192 -1.57229 5.47054 0
M  V30 3751 N 356.394 -3.32962 4.75517 0
M  V30 3752 H 359.159 0.332377 2.97851 0
M  V30 3753 H 356.72 0.323441 1.58636 0
M  V30 3754 H 358.712 -2.15954 3.42266 0
M  V30 3755 H 357.282 -2.04206 2.36683 0
M  V30 3756 H 356.502 -0.117723 3.94024 0
M  V30 3757 H 357.79 -0.618531 5.05026 0
M  V30 3758 H 357.188 -3.70399 4.27576 0
M  V30 3759 H 355.745 -3.96982 5.16961 0
M  V30 3760 N 359.178 -1.55987 0.224894 0
M  V30 3761 C 360.141 -2.19178 -0.670348 0
M  V30 3762 C 361.141 -1.15461 -1.11917 0
M  V30 3763 O 362.331 -1.40675 -1.02743 0
M  V30 3764 C 359.463 -2.81777 -1.9187 0
M  V30 3765 H 360.656 -2.99662 -0.119364 0
M  V30 3766 H 358.209 -1.5628 -0.0247128 0
M  V30 3767 H 358.944 -2.05172 -2.51147 0
M  V30 3768 H 358.729 -3.57732 -1.60531 0
M  V30 3769 H 360.219 -3.30205 -2.55645 0
M  V30 3770 N 360.656 0.0484629 -1.57525 0
M  V30 3771 C 361.589 1.08755 -2.00618 0
M  V30 3772 C 362.567 1.36272 -0.887058 0
M  V30 3773 O 363.751 1.49255 -1.15131 0
M  V30 3774 C 360.878 2.42675 -2.36277 0
M  V30 3775 C 359.924 2.31142 -3.58435 0
M  V30 3776 S 360.757 1.68326 -5.08357 0
M  V30 3777 C 361.913 3.03776 -5.47239 0
M  V30 3778 H 362.146 0.720415 -2.88439 0
M  V30 3779 H 359.679 0.257801 -1.52233 0
M  V30 3780 H 361.637 3.19699 -2.57494 0
M  V30 3781 H 360.298 2.76541 -1.48942 0
M  V30 3782 H 359.491 3.29957 -3.80978 0
M  V30 3783 H 359.093 1.62258 -3.36969 0
M  V30 3784 H 361.385 4.00106 -5.46737 0
M  V30 3785 H 362.328 2.85988 -6.47778 0
M  V30 3786 H 362.736 3.05456 -4.74718 0
M  V30 3787 N 362.134 1.5431 0.320358 0
M  V30 3788 C 363.382 1.72327 1.05583 0
M  V30 3789 C 363.703 0.50149 1.88441 0
M  V30 3790 O 362.973 -0.48448 1.89815 0
M  V30 3791 H 361.553 0.635387 0.3928 0
M  V30 3792 H 364.215 1.91621 0.356019 0
M  V30 3793 H 363.311 2.60426 1.72003 0
M  V30 3794 N 363.613 -0.582584 1.46437 0
M  V30 3795 C 364.838 -1.37168 1.55563 0
M  V30 3796 C 365.263 -1.87061 0.19743 0
M  V30 3797 O 364.621 -1.61572 -0.822451 0
M  V30 3798 C 364.669 -2.53511 2.56446 0
M  V30 3799 O 363.773 -3.54953 2.09958 0
M  V30 3800 H 363.114 -0.408494 0.523477 0
M  V30 3801 H 365.644 -0.706646 1.9201 0
M  V30 3802 H 365.654 -3.00426 2.76058 0
M  V30 3803 H 364.329 -2.16549 3.55076 0
M  V30 3804 H 362.906 -3.14516 2.00334 0
M  V30 3805 N 365.091 -1.34144 -0.827227 0
M  V30 3806 C 366.338 -1.26258 -1.58319 0
M  V30 3807 C 366.666 0.168595 -1.93768 0
M  V30 3808 O 365.921 1.12877 -1.59866 0
M  V30 3809 C 366.22 -2.09464 -2.89585 0
M  V30 3810 C 365.886 -3.58521 -2.73448 0
M  V30 3811 C 364.548 -3.99155 -2.68754 0
M  V30 3812 C 366.9 -4.53189 -2.57428 0
M  V30 3813 C 364.228 -5.32656 -2.45957 0
M  V30 3814 C 366.58 -5.86864 -2.36163 0
M  V30 3815 C 365.244 -6.26667 -2.29879 0
M  V30 3816 H 364.514 -0.462013 -0.579332 0
M  V30 3817 H 367.161 -1.65845 -0.95748 0
M  V30 3818 H 365.466 -1.62692 -3.56425 0
M  V30 3819 H 367.163 -2.00712 -3.47154 0
M  V30 3820 H 363.753 -3.26264 -2.77939 0
M  V30 3821 H 367.937 -4.22696 -2.60081 0
M  V30 3822 H 363.193 -5.62519 -2.39546 0
M  V30 3823 H 367.367 -6.59813 -2.22754 0
M  V30 3824 H 364.994 -7.30049 -2.11975 0
M  V30 3825 N 366.569 1.04691 -1.17803 0
M  V30 3826 C 367.499 2.14494 -0.92275 0
M  V30 3827 C 368.48 1.69546 0.137179 0
M  V30 3828 O 369.665 1.94195 -0.0141108 0
M  V30 3829 C 366.795 3.44491 -0.440803 0
M  V30 3830 C 365.749 4.03031 -1.4405 0
M  V30 3831 C 365.075 5.28432 -0.81631 0
M  V30 3832 C 366.375 4.39932 -2.81527 0
M  V30 3833 H 368.069 2.36107 -1.84103 0
M  V30 3834 H 365.615 1.1347 -0.886599 0
M  V30 3835 H 367.568 4.2066 -0.249602 0
M  V30 3836 H 366.292 3.22546 0.513025 0
M  V30 3837 H 364.951 3.28937 -1.61853 0
M  V30 3838 H 364.599 5.02792 0.144511 0
M  V30 3839 H 364.299 5.68559 -1.48371 0
M  V30 3840 H 365.823 6.07284 -0.635496 0
M  V30 3841 H 367.237 5.07113 -2.67412 0
M  V30 3842 H 365.634 4.9109 -3.44892 0
M  V30 3843 H 366.704 3.50045 -3.35554 0
M  V30 3844 N 368.047 0.979072 1.23499 0
M  V30 3845 C 369.272 0.664845 1.96455 0
M  V30 3846 C 369.697 -0.761287 1.72006 0
M  V30 3847 O 369.055 -1.51837 0.990713 0
M  V30 3848 C 369.103 0.959479 3.47601 0
M  V30 3849 O 368.207 0.0508168 4.12369 0
M  V30 3850 H 367.548 0.250185 0.615064 0
M  V30 3851 H 370.078 1.31231 1.5697 0
M  V30 3852 H 370.088 0.895642 3.98048 0
M  V30 3853 H 368.763 1.99876 3.64723 0
M  V30 3854 H 367.34 0.16895 3.72517 0
M  V30 3855 N 369.525 -1.3858 0.750561 0
M  V30 3856 C 370.771 -2.00481 0.305825 0
M  V30 3857 C 371.104 -1.5944 -1.10872 0
M  V30 3858 O 370.379 -0.83052 -1.75877 0
M  V30 3859 C 370.662 -3.5758 0.425287 0
M  V30 3860 C 370.515 -4.08594 1.88072 0
M  V30 3861 C 371.834 -4.39719 -0.183122 0
M  V30 3862 H 368.953 -0.728348 0.112598 0
M  V30 3863 H 371.595 -1.64566 0.949638 0
M  V30 3864 H 369.745 -3.88306 -0.122828 0
M  V30 3865 H 371.417 -3.88523 2.48691 0
M  V30 3866 H 369.66 -3.61574 2.39681 0
M  V30 3867 H 370.331 -5.177 1.91548 0
M  V30 3868 H 372.807 -4.15128 0.284303 0
M  V30 3869 H 371.683 -5.48856 -0.0692757 0
M  V30 3870 H 371.944 -4.23434 -1.27106 0
M  V30 3871 N 371.003 -0.499398 -1.49478 0
M  V30 3872 C 371.966 0.268838 -2.27618 0
M  V30 3873 C 372.966 0.895383 -1.33565 0
M  V30 3874 O 374.156 0.760164 -1.56739 0
M  V30 3875 C 371.288 1.38559 -3.11471 0
M  V30 3876 H 372.481 -0.416812 -2.96989 0
M  V30 3877 H 370.034 -0.254313 -1.54217 0
M  V30 3878 H 370.769 2.10544 -2.46661 0
M  V30 3879 H 370.554 0.941797 -3.80621 0
M  V30 3880 H 372.044 1.92678 -3.70493 0
M  V30 3881 N 372.481 1.55866 -0.233164 0
M  V30 3882 C 373.428 2.20796 0.67215 0
M  V30 3883 C 374.398 1.16731 1.18166 0
M  V30 3884 O 375.583 1.45129 1.23864 0
M  V30 3885 C 372.723 2.90072 1.86955 0
M  V30 3886 C 371.836 4.08759 1.39786 0
M  V30 3887 C 370.971 4.65787 2.55374 0
M  V30 3888 C 370.01 5.76752 2.04998 0
M  V30 3889 N 369.147 6.28021 3.13901 0
M  V30 3890 H 373.987 2.9779 0.111749 0
M  V30 3891 H 371.524 1.47036 0.0434007 0
M  V30 3892 H 373.482 3.28428 2.57276 0
M  V30 3893 H 372.112 2.15575 2.40265 0
M  V30 3894 H 371.164 3.7581 0.589173 0
M  V30 3895 H 372.476 4.88906 0.98856 0
M  V30 3896 H 371.63 5.06646 3.33758 0
M  V30 3897 H 370.369 3.84828 2.99598 0
M  V30 3898 H 369.374 5.35383 1.25079 0
M  V30 3899 H 370.599 6.59553 1.61759 0
M  V30 3900 H 368.545 5.49971 3.57586 0
M  V30 3901 H 368.462 7.03323 2.7726 0
M  V30 3902 H 369.73 6.73538 3.92386 0
M  V30 3903 N 373.959 -0.0401083 1.57549 0
M  V30 3904 C 375.207 -0.731677 1.8839 0
M  V30 3905 C 375.528 -1.76481 0.829425 0
M  V30 3906 O 374.798 -1.95411 -0.1383 0
M  V30 3907 H 373.378 -0.273225 0.695239 0
M  V30 3908 H 376.04 -0.00867725 1.94898 0
M  V30 3909 H 375.136 -1.22816 2.86919 0
M  V30 3910 N 375.437 -1.54477 -0.31217 0
M  V30 3911 C 376.662 -1.77526 -1.07235 0
M  V30 3912 C 377.087 -0.527775 -1.80544 0
M  V30 3913 O 376.445 0.52121 -1.73646 0
M  V30 3914 C 376.493 -2.97535 -2.03728 0
M  V30 3915 O 375.597 -2.69878 -3.11833 0
M  V30 3916 H 374.938 -0.58792 -0.30862 0
M  V30 3917 H 377.468 -2.01532 -0.352993 0
M  V30 3918 H 377.478 -3.25198 -2.46395 0
M  V30 3919 H 376.153 -3.87996 -1.49774 0
M  V30 3920 H 374.73 -2.53199 -2.7376 0
M  V30 3921 N 376.915 0.57481 -1.46744 0
M  V30 3922 C 378.192 1.3352 -1.4294 0
M  V30 3923 C 378.572 2.10775 -0.117009 0
M  V30 3924 O 377.92 2.09966 0.901474 0
M  V30 3925 C 378.13 2.25456 -2.66403 0
M  V30 3926 C 379.478 2.87035 -3.12883 0
M  V30 3927 O 380.502 2.35766 -2.67007 0
M  V30 3928 O 379.361 3.80179 -3.92589 0
M  V30 3929 H 376.455 0.600318 -0.568812 0
M  V30 3930 H 379.001 0.595171 -1.58921 0
M  V30 3931 H 377.773 1.67851 -3.53471 0
M  V30 3932 H 377.396 3.06785 -2.52921 0
M  V30 3933 N 378.394 1.34581 0.820102 0
M  V30 3934 C 379.304 1.28471 1.96297 0
M  V30 3935 C 380.32 0.191902 1.72939 0
M  V30 3936 O 381.496 0.418879 1.96996 0
M  V30 3937 C 378.561 1.04281 3.30645 0
M  V30 3938 C 377.622 2.22745 3.66992 0
M  V30 3939 C 376.855 1.997 4.9493 0
M  V30 3940 O 377.078 0.956656 5.6232 0
M  V30 3941 O 376.012 2.86723 5.2922 0
M  V30 3942 H 379.838 2.24624 2.04396 0
M  V30 3943 H 377.423 1.14816 0.955913 0
M  V30 3944 H 379.305 0.925841 4.11104 0
M  V30 3945 H 377.98 0.111697 3.23507 0
M  V30 3946 H 376.887 2.40003 2.86966 0
M  V30 3947 H 378.22 3.14257 3.78819 0
M  V30 3948 N 379.872 -1.04064 1.18357 0
M  V30 3949 C 381.283 -1.58719 0.98312 0
M  V30 3950 C 381.634 -1.90556 -0.467193 0
M  V30 3951 O 380.759 -1.69561 -1.34454 0
M  V30 3952 C 381.354 -2.88379 1.77828 0
M  V30 3953 C 379.913 -3.3965 1.62218 0
M  V30 3954 C 379.06 -2.13235 1.77274 0
M  V30 3955 H 382.011 -0.867359 1.32901 0
M  V30 3956 H 382.032 -3.58773 1.26737 0
M  V30 3957 H 381.544 -2.65176 2.83379 0
M  V30 3958 H 379.645 -3.67866 0.592036 0
M  V30 3959 H 379.758 -4.13475 2.42023 0
M  V30 3960 H 378.122 -2.24542 1.20221 0
M  V30 3961 H 378.905 -1.92487 2.8426 0
M  V30 3962 N 381.35 -0.985608 -1.22978 0
M  V30 3963 C 382.761 -0.693593 -1.73338 0
M  V30 3964 C 383.112 0.789935 -1.79595 0
M  V30 3965 O 382.237 1.61771 -1.43733 0
M  V30 3966 C 382.832 -1.25235 -3.14804 0
M  V30 3967 C 381.391 -1.00987 -3.626 0
M  V30 3968 C 380.538 -1.37695 -2.40698 0
M  V30 3969 H 383.489 -1.15884 -1.08428 0
M  V30 3970 H 383.51 -0.627329 -3.75293 0
M  V30 3971 H 383.022 -2.33209 -3.10218 0
M  V30 3972 H 381.123 0.0535565 -3.72562 0
M  V30 3973 H 381.236 -1.66812 -4.49122 0
M  V30 3974 H 379.6 -0.795459 -2.4196 0
M  V30 3975 H 380.383 -2.46657 -2.38779 0
M  V30 3976 N 382.828 1.3818 -0.7579 0
M  V30 3977 C 384.074 2.00316 -0.316453 0
M  V30 3978 C 384.407 1.60026 1.10025 0
M  V30 3979 O 383.682 0.839835 1.75434 0
M  V30 3980 C 383.965 3.57349 -0.444245 0
M  V30 3981 C 383.818 4.07591 -1.90236 0
M  V30 3982 C 385.137 4.3981 0.1598 0
M  V30 3983 H 382.256 0.727741 -0.116459 0
M  V30 3984 H 384.898 1.6406 -0.958352 0
M  V30 3985 H 383.048 3.88365 0.102233 0
M  V30 3986 H 384.72 3.87199 -2.50748 0
M  V30 3987 H 382.963 3.60297 -2.41595 0
M  V30 3988 H 383.634 5.16677 -1.94291 0
M  V30 3989 H 386.11 4.14971 -0.306314 0
M  V30 3990 H 384.986 5.48885 0.0401675 0
M  V30 3991 H 385.247 4.24102 1.24859 0
M  V30 3992 N 384.306 0.507319 1.49211 0
M  V30 3993 C 385.553 -0.0349529 2.0247 0
M  V30 3994 C 385.881 -1.36409 1.38647 0
M  V30 3995 O 385.136 -1.88841 0.513566 0
M  V30 3996 C 385.435 -0.229513 3.56662 0
M  V30 3997 C 385.101 1.02241 4.39156 0
M  V30 3998 C 383.763 1.36557 4.61417 0
M  V30 3999 C 386.115 1.85428 4.871 0
M  V30 4000 C 383.443 2.53999 5.28868 0
M  V30 4001 C 385.795 3.02028 5.55843 0
M  V30 4002 C 384.459 3.36717 5.76349 0
M  V30 4003 H 383.729 -0.0127902 0.74089 0
M  V30 4004 H 386.376 0.668756 1.79443 0
M  V30 4005 H 384.681 -1.0158 3.78403 0
M  V30 4006 H 386.378 -0.663641 3.9547 0
M  V30 4007 H 382.968 0.745124 4.22073 0
M  V30 4008 H 387.152 1.6023 4.69723 0
M  V30 4009 H 382.408 2.81105 5.42946 0
M  V30 4010 H 386.582 3.66808 5.91967 0
M  V30 4011 H 384.209 4.27821 6.28389 0
M  V30 4012 N 385.784 -1.5574 0.241426 0
M  V30 4013 C 386.714 -2.24133 -0.654722 0
M  V30 4014 C 387.695 -1.21974 -1.1856 0
M  V30 4015 O 388.88 -1.50612 -1.22595 0
M  V30 4016 C 386.01 -2.93659 -1.85423 0
M  V30 4017 C 384.964 -4.0246 -1.45636 0
M  V30 4018 C 384.29 -4.59383 -2.73626 0
M  V30 4019 C 385.59 -5.18468 -0.631506 0
M  V30 4020 H 387.284 -2.99281 -0.0844353 0
M  V30 4021 H 384.83 -1.43947 -0.0391707 0
M  V30 4022 H 386.783 -3.40203 -2.48676 0
M  V30 4023 H 385.507 -2.15991 -2.44981 0
M  V30 4024 H 384.166 -3.56676 -0.847202 0
M  V30 4025 H 383.814 -3.78422 -3.3137 0
M  V30 4026 H 383.514 -5.32826 -2.4773 0
M  V30 4027 H 385.038 -5.08658 -3.37786 0
M  V30 4028 H 386.452 -5.61272 -1.1682 0
M  V30 4029 H 384.849 -5.98266 -0.468831 0
M  V30 4030 H 385.919 -4.8358 0.357506 0
M  V30 4031 N 387.262 0.0317525 -1.57568 0
M  V30 4032 C 388.172 1.05021 -2.0978 0
M  V30 4033 C 389.188 1.39809 -1.03583 0
M  V30 4034 O 390.364 1.49182 -1.35302 0
M  V30 4035 C 387.429 2.33301 -2.56459 0
M  V30 4036 C 386.49 2.0512 -3.77127 0
M  V30 4037 C 385.723 3.27283 -4.2157 0
M  V30 4038 O 385.946 4.37861 -3.65559 0
M  V30 4039 O 384.88 3.13141 -5.14029 0
M  V30 4040 H 388.706 0.636505 -2.96955 0
M  V30 4041 H 386.291 0.248559 -1.47318 0
M  V30 4042 H 388.173 3.08722 -2.86825 0
M  V30 4043 H 386.848 2.73973 -1.72397 0
M  V30 4044 H 385.755 1.27276 -3.51784 0
M  V30 4045 H 387.088 1.69305 -4.62165 0
M  V30 4046 N 388.74 1.54641 0.303973 0
M  V30 4047 C 389.989 1.7299 1.03717 0
M  V30 4048 C 390.302 0.521168 1.88529 0
M  V30 4049 O 391.508 0.586408 2.65092 0
M  V30 4050 C 389.964 3.06051 1.89369 0
M  V30 4051 C 389.572 4.34393 1.09574 0
M  V30 4052 C 391.316 3.3376 2.62306 0
M  V30 4053 C 389.223 5.58506 1.94486 0
M  V30 4054 H 388.153 0.64473 0.390947 0
M  V30 4055 H 390.804 1.81124 0.294328 0
M  V30 4056 H 389.186 2.91874 2.67629 0
M  V30 4057 H 390.36 4.59396 0.359485 0
M  V30 4058 H 388.675 4.13597 0.482324 0
M  V30 4059 H 391.272 4.23687 3.26181 0
M  V30 4060 H 391.615 2.52503 3.3098 0
M  V30 4061 H 392.148 3.48894 1.91097 0
M  V30 4062 H 388.887 6.42422 1.30287 0
M  V30 4063 H 388.407 5.37694 2.65792 0
M  V30 4064 H 390.086 5.95651 2.52605 0
M  V30 4065 N 390.218 -0.567019 1.47046 0
M  V30 4066 C 391.168 -1.67018 1.55207 0
M  V30 4067 C 392.152 -1.55543 0.411714 0
M  V30 4068 O 393.344 -1.64192 0.661064 0
M  V30 4069 C 390.473 -3.05801 1.56014 0
M  V30 4070 C 389.559 -3.22515 2.75399 0
M  V30 4071 N 389.95 -3.09329 4.00186 0
M  V30 4072 C 388.248 -3.53493 2.71954 0
M  V30 4073 C 388.949 -3.2847 4.80086 0
M  V30 4074 N 387.925 -3.54352 4.12233 0
M  V30 4075 H 391.727 -1.55377 2.4947 0
M  V30 4076 H 389.241 -0.771503 1.42904 0
M  V30 4077 H 391.238 -3.84996 1.59949 0
M  V30 4078 H 389.898 -3.18561 0.628396 0
M  V30 4079 H 390.909 -2.86863 4.31196 0
M  V30 4080 H 387.586 -3.7284 1.87873 0
M  V30 4081 H 388.976 -3.23326 5.88991 0
M  V30 4082 N 391.696 -1.35014 -0.812953 0
M  V30 4083 C 392.926 -1.30841 -1.59888 0
M  V30 4084 C 393.334 0.117576 -1.88834 0
M  V30 4085 O 392.677 1.07807 -1.48739 0
M  V30 4086 C 392.739 -2.0412 -2.95931 0
M  V30 4087 C 392.403 -3.53336 -2.89832 0
M  V30 4088 C 393.4 -4.48052 -2.63714 0
M  V30 4089 C 391.085 -3.95894 -3.0915 0
M  V30 4090 C 393.079 -5.833 -2.56982 0
M  V30 4091 C 390.766 -5.31239 -3.0204 0
M  V30 4092 C 391.764 -6.24754 -2.75991 0
M  V30 4093 O 391.452 -7.57617 -2.68833 0
M  V30 4094 H 391.184 -0.451215 -0.50337 0
M  V30 4095 H 393.738 -1.78354 -1.01877 0
M  V30 4096 H 391.968 -1.51235 -3.559 0
M  V30 4097 H 393.657 -1.93107 -3.57022 0
M  V30 4098 H 394.423 -4.16492 -2.48515 0
M  V30 4099 H 390.302 -3.23495 -3.28438 0
M  V30 4100 H 393.846 -6.56263 -2.36569 0
M  V30 4101 H 389.743 -5.62415 -3.16796 0
M  V30 4102 H 390.511 -7.67469 -2.84487 0
M  V30 4103 N 393.175 1.03435 -1.18907 0
M  V30 4104 C 394.122 2.11591 -0.921837 0
M  V30 4105 C 395.092 1.65499 0.141226 0
M  V30 4106 O 396.277 1.908 0.000242829 0
M  V30 4107 C 393.417 3.42012 -0.460616 0
M  V30 4108 C 392.53 4.01682 -1.58982 0
M  V30 4109 C 391.665 5.20091 -1.08069 0
M  V30 4110 C 390.704 5.71805 -2.18416 0
M  V30 4111 N 389.841 6.81494 -1.68849 0
M  V30 4112 H 394.681 2.33787 -1.8479 0
M  V30 4113 H 392.218 1.1467 -0.921373 0
M  V30 4114 H 394.176 4.16834 -0.174642 0
M  V30 4115 H 392.806 3.19944 0.428467 0
M  V30 4116 H 391.858 3.24127 -1.99113 0
M  V30 4117 H 393.17 4.36084 -2.4214 0
M  V30 4118 H 392.324 6.02051 -0.749615 0
M  V30 4119 H 391.063 4.87209 -0.218771 0
M  V30 4120 H 390.068 4.88461 -2.5236 0
M  V30 4121 H 391.293 6.06728 -3.05054 0
M  V30 4122 H 389.239 6.50475 -0.849572 0
M  V30 4123 H 389.156 7.14994 -2.45601 0
M  V30 4124 H 390.424 7.67063 -1.38689 0
M  V30 4125 N 394.653 0.992116 1.22453 0
M  V30 4126 C 395.901 0.666215 1.90804 0
M  V30 4127 C 396.222 -0.804152 1.77647 0
M  V30 4128 O 395.492 -1.57629 1.16318 0
M  V30 4129 H 394.072 0.243423 0.706225 0
M  V30 4130 H 396.734 1.25845 1.48825 0
M  V30 4131 H 395.83 0.928069 2.97982 0
M  V30 4132 N 396.131 -1.37776 0.765217 0
M  V30 4133 C 397.356 -2.04651 0.336537 0
M  V30 4134 C 397.781 -1.57337 -1.03086 0
M  V30 4135 O 397.139 -0.730621 -1.65927 0
M  V30 4136 C 397.187 -3.58577 0.381468 0
M  V30 4137 O 396.291 -4.07706 -0.62042 0
M  V30 4138 H 395.632 -0.64756 0.146838 0
M  V30 4139 H 398.162 -1.76221 1.03959 0
M  V30 4140 H 398.172 -4.07314 0.236448 0
M  V30 4141 H 396.847 -3.9237 1.37907 0
M  V30 4142 H 395.424 -3.70306 -0.439056 0
M  V30 4143 N 397.609 -0.515225 -1.4894 0
M  V30 4144 C 399.02 -0.0710067 -1.86565 0
M  V30 4145 C 399.371 1.34733 -1.42623 0
M  V30 4146 O 398.496 2.00653 -0.810379 0
M  V30 4147 C 399.091 -0.122083 -3.3858 0
M  V30 4148 C 397.65 0.266863 -3.75453 0
M  V30 4149 C 396.797 -0.488376 -2.72966 0
M  V30 4150 H 399.748 -0.727266 -1.41055 0
M  V30 4151 H 399.769 0.669818 -3.74558 0
M  V30 4152 H 399.281 -1.15448 -3.70531 0
M  V30 4153 H 397.382 1.30196 -3.49113 0
M  V30 4154 H 397.495 -0.0624811 -4.79059 0
M  V30 4155 H 395.859 0.0635622 -2.54621 0
M  V30 4156 H 396.642 -1.52113 -3.07761 0
M  V30 4157 N 399.087 1.5561 -0.249682 0
M  V30 4158 C 400.035 2.22894 0.664906 0
M  V30 4159 C 401.029 1.21743 1.17792 0
M  V30 4160 O 402.235 1.39748 1.13449 0
M  V30 4161 H 398.61 0.715022 0.232912 0
M  V30 4162 H 400.581 2.98307 0.0742998 0
M  V30 4163 C 399.33 2.94424 1.84959 0
M  V30 4164 H 398.653 3.72031 1.46399 0
M  V30 4165 H 400.093 3.44862 2.4667 0
M  V30 4166 C 398.552 1.98454 2.72245 0
M  V30 4167 O 399.082 1.51939 3.71857 0
M  V30 4168 N 397.288 1.65496 2.38871 0
M  V30 4169 H 396.835 2.03517 1.57919 0
M  V30 4170 H 396.793 1.0155 2.97548 0
M  V30 4171 N 400.565 -0.0233959 1.57583 0
M  V30 4172 C 401.528 -1.00693 2.05897 0
M  V30 4173 C 402.528 -1.28693 0.964092 0
M  V30 4174 O 403.718 -1.23602 1.22753 0
M  V30 4175 C 400.85 -2.33825 2.4807 0
M  V30 4176 H 402.043 -0.589476 2.9405 0
M  V30 4177 H 399.596 -0.270354 1.53944 0
M  V30 4178 H 400.331 -2.80307 1.6309 0
M  V30 4179 H 400.116 -2.1483 3.2801 0
M  V30 4180 H 401.606 -3.04426 2.85857 0
M  V30 4181 N 402.043 -1.548 -0.295768 0
M  V30 4182 C 402.991 -1.86874 -1.38495 0
M  V30 4183 C 403.985 -0.742938 -1.52239 0
M  V30 4184 O 405.191 -0.926999 -1.54294 0
M  V30 4185 H 401.566 -0.592786 -0.462719 0
M  V30 4186 H 403.537 -2.77904 -1.08682 0
M  V30 4187 C 402.286 -2.13732 -2.74252 0
M  V30 4188 H 401.609 -2.99835 -2.64459 0
M  V30 4189 H 403.049 -2.4011 -3.49461 0
M  V30 4190 C 401.508 -0.937539 -3.23592 0
M  V30 4191 O 402.038 -0.160665 -4.01379 0
M  V30 4192 N 400.244 -0.741478 -2.80981 0
M  V30 4193 H 399.791 -1.37489 -2.1784 0
M  V30 4194 H 399.749 0.0597103 -3.14343 0
M  V30 4195 N 403.521 0.559213 -1.47345 0
M  V30 4196 C 404.431 1.69388 -1.62311 0
M  V30 4197 C 405.447 1.6648 -0.505993 0
M  V30 4198 O 406.623 1.85964 -0.773262 0
M  V30 4199 C 403.688 3.05894 -1.63185 0
M  V30 4200 C 402.749 3.19885 -2.86307 0
M  V30 4201 C 401.982 4.49879 -2.87131 0
M  V30 4202 O 402.205 5.35217 -1.97229 0
M  V30 4203 O 401.139 4.67618 -3.78968 0
M  V30 4204 H 404.965 1.59706 -2.58317 0
M  V30 4205 H 402.55 0.728989 -1.30407 0
M  V30 4206 H 404.432 3.87133 -1.66451 0
M  V30 4207 H 403.107 3.15964 -0.70345 0
M  V30 4208 H 402.014 2.38052 -2.88587 0
M  V30 4209 H 403.347 3.14718 -3.78435 0
M  V30 4210 N 404.999 1.35443 0.805782 0
M  V30 4211 C 406.41 1.25768 1.37983 0
M  V30 4212 C 406.761 -0.10958 1.95894 0
M  V30 4213 O 405.886 -1.01056 1.91355 0
M  V30 4214 C 406.481 2.27727 2.5085 0
M  V30 4215 C 405.04 2.2179 3.04115 0
M  V30 4216 C 404.187 2.13393 1.77084 0
M  V30 4217 H 407.138 1.4656 0.608752 0
M  V30 4218 H 407.159 1.90422 3.29424 0
M  V30 4219 H 406.671 3.27227 2.08671 0
M  V30 4220 H 404.772 1.25703 3.50756 0
M  V30 4221 H 404.885 3.13788 3.62042 0
M  V30 4222 H 403.249 1.59384 1.98668 0
M  V30 4223 H 404.032 3.14755 1.37056 0
M  V30 4224 N 406.477 -1.02803 1.19454 0
M  V30 4225 C 407.888 -1.57667 0.999899 0
M  V30 4226 C 408.239 -1.91041 -0.446956 0
M  V30 4227 O 407.364 -1.70978 -1.32648 0
M  V30 4228 C 407.959 -2.86477 1.80877 0
M  V30 4229 C 406.518 -3.37911 1.65811 0
M  V30 4230 C 405.665 -2.11343 1.79526 0
M  V30 4231 H 408.616 -0.853214 1.33813 0
M  V30 4232 H 408.637 -3.57408 1.30536 0
M  V30 4233 H 408.149 -2.62155 2.86175 0
M  V30 4234 H 406.25 -3.67218 0.63102 0
M  V30 4235 H 406.363 -4.10885 2.46395 0
M  V30 4236 H 404.727 -2.23254 1.22596 0
M  V30 4237 H 405.51 -1.89461 2.86285 0
M  V30 4238 N 407.956 -0.998596 -1.21925 0
M  V30 4239 C 408.886 -0.573688 -2.26343 0
M  V30 4240 C 409.867 0.402296 -1.65274 0
M  V30 4241 O 411.052 0.291683 -1.91997 0
M  V30 4242 C 408.182 0.106839 -3.47136 0
M  V30 4243 C 407.136 -0.788269 -4.20678 0
M  V30 4244 C 406.462 0.0254927 -5.34694 0
M  V30 4245 C 407.762 -2.08784 -4.78755 0
M  V30 4246 H 409.456 -1.44651 -2.62138 0
M  V30 4247 H 407.002 -0.696975 -1.26009 0
M  V30 4248 H 408.955 0.415531 -4.19346 0
M  V30 4249 H 407.679 1.01424 -3.10452 0
M  V30 4250 H 406.338 -1.08069 -3.50309 0
M  V30 4251 H 405.986 0.933989 -4.94253 0
M  V30 4252 H 405.686 -0.570437 -5.84825 0
M  V30 4253 H 407.21 0.328147 -6.09718 0
M  V30 4254 H 408.624 -1.84272 -5.42878 0
M  V30 4255 H 407.021 -2.63307 -5.39249 0
M  V30 4256 H 408.091 -2.76284 -3.98491 0
M  V30 4257 N 409.434 1.37368 -0.772513 0
M  V30 4258 C 410.68 1.99969 -0.337681 0
M  V30 4259 C 411.013 1.61184 1.08321 0
M  V30 4260 O 410.288 0.858395 1.74533 0
M  V30 4261 C 410.571 3.56858 -0.482121 0
M  V30 4262 C 410.424 4.0555 -1.94549 0
M  V30 4263 C 411.743 4.39955 0.113143 0
M  V30 4264 H 408.862 0.726464 -0.124171 0
M  V30 4265 H 411.504 1.63034 -0.975699 0
M  V30 4266 H 409.654 3.88452 0.0610361 0
M  V30 4267 H 411.326 3.84518 -2.54841 0
M  V30 4268 H 409.569 3.57715 -2.45403 0
M  V30 4269 H 410.24 5.14587 -1.9976 0
M  V30 4270 H 412.716 4.14623 -0.35031 0
M  V30 4271 H 411.592 5.48897 -0.0180514 0
M  V30 4272 H 411.853 4.25403 1.20354 0
M  V30 4273 N 410.912 0.523116 1.48665 0
M  V30 4274 C 412.159 -0.0134763 2.02496 0
M  V30 4275 C 412.487 -1.3493 1.40086 0
M  V30 4276 O 411.742 -1.88286 0.533567 0
M  V30 4277 C 412.041 -0.191671 3.56886 0
M  V30 4278 C 411.707 1.06893 4.38046 0
M  V30 4279 C 410.369 1.41443 4.59943 0
M  V30 4280 C 412.721 1.90584 4.85106 0
M  V30 4281 C 410.049 2.59594 5.26144 0
M  V30 4282 C 412.401 3.07907 5.52609 0
M  V30 4283 C 411.065 3.42811 5.72745 0
M  V30 4284 H 410.335 -0.00493133 0.740984 0
M  V30 4285 H 412.982 0.687751 1.78724 0
M  V30 4286 H 411.287 -0.97561 3.79459 0
M  V30 4287 H 412.984 -0.621659 3.96152 0
M  V30 4288 H 409.574 0.789848 4.21259 0
M  V30 4289 H 413.758 1.65203 4.67997 0
M  V30 4290 H 409.014 2.86847 5.39934 0
M  V30 4291 H 413.188 3.73066 5.88043 0
M  V30 4292 H 410.815 4.34462 6.23816 0
M  V30 4293 N 412.39 -1.55475 0.257931 0
M  V30 4294 C 413.636 -1.99502 -0.364266 0
M  V30 4295 C 413.969 -1.146 -1.56782 0
M  V30 4296 O 413.244 -0.211968 -1.93342 0
M  V30 4297 C 413.527 -3.51917 -0.763333 0
M  V30 4298 C 413.38 -4.4758 0.446371 0
M  V30 4299 C 414.699 -4.09742 -1.60623 0
M  V30 4300 H 411.818 -0.725277 -0.130929 0
M  V30 4301 H 414.46 -1.8653 0.361446 0
M  V30 4302 H 412.61 -3.63101 -1.38166 0
M  V30 4303 H 414.282 -4.48362 1.08487 0
M  V30 4304 H 412.525 -4.19947 1.08753 0
M  V30 4305 H 413.196 -5.51862 0.123645 0
M  V30 4306 H 415.672 -4.01727 -1.08418 0
M  V30 4307 H 414.548 -5.16631 -1.85429 0
M  V30 4308 H 414.809 -3.58889 -2.58169 0
M  V30 4309 N 413.868 0.0150385 -1.57593 0
M  V30 4310 C 415.116 0.701613 -1.8953 0
M  V30 4311 C 415.437 1.75139 -0.857396 0
M  V30 4312 O 414.707 1.95607 0.107194 0
M  V30 4313 H 413.287 0.26213 -0.699498 0
M  V30 4314 H 415.949 -0.0223304 -1.94887 0
M  V30 4315 H 415.045 1.18236 -2.88837 0
M  V30 4316 N 415.346 1.54954 0.287554 0
M  V30 4317 C 416.293 1.86834 1.35505 0
M  V30 4318 C 417.263 0.718452 1.49758 0
M  V30 4319 O 418.448 0.968358 1.644 0
M  V30 4320 C 415.588 2.13303 2.71286 0
M  V30 4321 C 414.701 3.40883 2.65373 0
M  V30 4322 C 413.836 3.57125 3.93236 0
M  V30 4323 C 412.875 4.78449 3.81776 0
M  V30 4324 N 412.012 4.91426 5.01443 0
M  V30 4325 H 416.852 2.77889 1.07619 0
M  V30 4326 H 414.389 1.37593 0.520241 0
M  V30 4327 H 416.347 2.26646 3.50267 0
M  V30 4328 H 414.977 1.25499 2.97405 0
M  V30 4329 H 414.029 3.36088 1.78182 0
M  V30 4330 H 415.341 4.29993 2.52799 0
M  V30 4331 H 414.495 3.70207 4.80658 0
M  V30 4332 H 413.234 2.66173 4.0866 0
M  V30 4333 H 412.239 4.65386 2.92738 0
M  V30 4334 H 413.464 5.70822 3.67884 0
M  V30 4335 H 411.41 4.03401 5.17304 0
M  V30 4336 H 411.327 5.74559 4.91343 0
M  V30 4337 H 412.595 5.08879 5.90477 0
M  V30 4338 N 416.824 -0.551391 1.4764 0
M  V30 4339 C 418.072 -1.30572 1.54258 0
M  V30 4340 C 418.393 -1.93877 0.208963 0
M  V30 4341 O 417.663 -1.80234 -0.767619 0
M  V30 4342 H 416.243 -0.484894 0.568231 0
M  V30 4343 H 418.905 -0.643402 1.83974 0
M  V30 4344 H 418.001 -2.09621 2.31226 0
M  V30 4345 N 418.302 -1.35869 -0.798587 0
M  V30 4346 C 419.551 -1.28921 -1.5512 0
M  V30 4347 C 419.864 0.13208 -1.95154 0
M  V30 4348 O 421.07 0.323879 -2.69561 0
M  V30 4349 C 419.526 -2.26141 -2.79979 0
M  V30 4350 C 419.134 -3.73658 -2.47151 0
M  V30 4351 C 420.878 -2.28152 -3.57976 0
M  V30 4352 C 418.785 -4.62679 -3.6835 0
M  V30 4353 H 417.715 -0.479031 -0.582276 0
M  V30 4354 H 420.366 -1.61179 -0.877125 0
M  V30 4355 H 418.748 -1.86865 -3.49138 0
M  V30 4356 H 419.922 -4.21616 -1.85947 0
M  V30 4357 H 418.237 -3.74333 -1.82383 0
M  V30 4358 H 420.834 -2.91875 -4.4801 0
M  V30 4359 H 421.177 -1.28748 -3.95891 0
M  V30 4360 H 421.71 -2.65998 -2.95787 0
M  V30 4361 H 418.449 -5.63111 -3.35538 0
M  V30 4362 H 417.969 -4.19442 -4.28752 0
M  V30 4363 H 419.648 -4.78498 -4.35487 0
M  V30 4364 N 419.78 1.02168 -1.19998 0
M  V30 4365 C 421.008 1.79296 -1.03249 0
M  V30 4366 C 421.423 1.84103 0.418502 0
M  V30 4367 O 420.78 1.29031 1.29063 0
M  V30 4368 C 420.831 3.24007 -1.60319 0
M  V30 4369 O 420.552 3.19512 -2.99739 0
M  V30 4370 C 422.053 4.17704 -1.48453 0
M  V30 4371 H 419.273 0.564016 -0.363493 0
M  V30 4372 H 421.817 1.28639 -1.58973 0
M  V30 4373 H 419.972 3.7183 -1.08727 0
M  V30 4374 H 420.386 4.10306 -3.26725 0
M  V30 4375 H 421.86 5.17104 -1.93153 0
M  V30 4376 H 422.337 4.37029 -0.436193 0
M  V30 4377 H 422.943 3.7576 -1.99211 0
M  V30 4378 N 421.258 1.00505 1.21394 0
M  V30 4379 C 422.505 0.687774 1.90462 0
M  V30 4380 C 422.833 -0.78147 1.7811 0
M  V30 4381 O 422.088 -1.58208 1.1519 0
M  V30 4382 C 422.387 1.0546 3.41486 0
M  V30 4383 C 422.053 2.51812 3.74034 0
M  V30 4384 C 420.715 2.91804 3.82628 0
M  V30 4385 C 423.067 3.46614 3.8924 0
M  V30 4386 C 420.395 4.2556 4.03876 0
M  V30 4387 C 422.747 4.80044 4.11995 0
M  V30 4388 C 421.411 5.19759 4.18816 0
M  V30 4389 H 420.681 0.251674 0.696951 0
M  V30 4390 H 423.328 1.26349 1.43903 0
M  V30 4391 H 421.633 0.397133 3.89782 0
M  V30 4392 H 423.33 0.786976 3.93202 0
M  V30 4393 H 419.92 2.1982 3.67936 0
M  V30 4394 H 424.104 3.16883 3.81967 0
M  V30 4395 H 419.36 4.55901 4.07387 0
M  V30 4396 H 423.534 5.53439 4.22704 0
M  V30 4397 H 421.161 6.23418 4.35033 0
M  V30 4398 N 422.737 -1.36956 0.779787 0
M  V30 4399 C 424.014 -1.93697 0.272156 0
M  V30 4400 C 424.394 -1.71267 -1.23413 0
M  V30 4401 O 423.742 -1.06607 -2.02107 0
M  V30 4402 C 423.952 -3.42812 0.654291 0
M  V30 4403 C 425.3 -4.19921 0.628602 0
M  V30 4404 O 426.324 -3.51209 0.594172 0
M  V30 4405 O 425.183 -5.42465 0.662864 0
M  V30 4406 H 422.277 -0.824447 0.0649286 0
M  V30 4407 H 424.823 -1.46196 0.861682 0
M  V30 4408 H 423.595 -3.52754 1.69353 0
M  V30 4409 H 423.218 -3.97582 0.0381369 0
M  V30 4410 N 424.215 -0.530993 -1.48385 0
M  V30 4411 C 425.44 0.000729535 -2.074 0
M  V30 4412 C 425.865 1.27298 -1.3848 0
M  V30 4413 O 425.223 1.75599 -0.451081 0
M  V30 4414 C 425.271 0.206697 -3.60007 0
M  V30 4415 O 424.375 1.27514 -3.92191 0
M  V30 4416 H 423.716 -0.039583 -0.662819 0
M  V30 4417 H 426.246 -0.739194 -1.9078 0
M  V30 4418 H 426.256 0.42904 -4.05738 0
M  V30 4419 H 424.931 -0.722675 -4.09573 0
M  V30 4420 H 423.508 1.03537 -3.58238 0
M  V30 4421 N 425.693 1.55336 -0.266172 0
M  V30 4422 C 426.941 1.99003 0.35246 0
M  V30 4423 C 427.262 1.15591 1.57047 0
M  V30 4424 O 426.532 0.243268 1.94384 0
M  V30 4425 H 425.112 0.735025 0.133217 0
M  V30 4426 H 427.774 1.91367 -0.369434 0
M  V30 4427 H 426.87 3.05289 0.648453 0
M  V30 4428 N 427.171 -0.0066808 1.57599 0
M  V30 4429 C 428.419 -0.691552 1.899 0
M  V30 4430 C 428.74 -1.74682 0.866672 0
M  V30 4431 O 428.01 -1.95661 -0.0968189 0
M  V30 4432 H 426.59 -0.258416 0.700878 0
M  V30 4433 H 429.252 0.0326655 1.94873 0
M  V30 4434 H 428.348 -1.16702 2.8946 0
M  V30 4435 N 428.649 -1.55105 -0.279332 0
M  V30 4436 C 429.898 -1.74618 -1.00952 0
M  V30 4437 C 430.211 -0.551096 -1.87676 0
M  V30 4438 O 431.417 -0.628507 -2.64125 0
M  V30 4439 C 429.873 -3.09025 -1.84476 0
M  V30 4440 C 429.481 -4.36081 -1.0265 0
M  V30 4441 C 431.225 -3.37891 -2.56963 0
M  V30 4442 C 429.132 -5.6153 -1.85576 0
M  V30 4443 H 428.062 -0.650868 -0.38064 0
M  V30 4444 H 430.713 -1.81569 -0.265475 0
M  V30 4445 H 429.095 -2.96095 -2.62952 0
M  V30 4446 H 430.269 -4.59909 -0.286354 0
M  V30 4447 H 428.584 -4.14312 -0.416464 0
M  V30 4448 H 431.181 -4.28822 -3.19399 0
M  V30 4449 H 431.524 -2.57737 -3.26921 0
M  V30 4450 H 432.057 -3.5189 -1.85522 0
M  V30 4451 H 428.796 -6.44413 -1.2005 0
M  V30 4452 H 428.316 -5.41854 -2.57204 0
M  V30 4453 H 429.995 -5.99594 -2.43096 0
M  V30 4454 N 430.127 0.543554 -1.4793 0
M  V30 4455 C 431.352 1.32995 -1.59145 0
M  V30 4456 C 431.777 1.86472 -0.246956 0
M  V30 4457 O 431.135 1.63696 0.779324 0
M  V30 4458 C 431.183 2.46623 -2.63077 0
M  V30 4459 O 430.287 3.49261 -2.19295 0
M  V30 4460 H 429.628 0.394472 -0.534124 0
M  V30 4461 H 432.158 0.655489 -1.93816 0
M  V30 4462 H 432.168 2.93001 -2.83926 0
M  V30 4463 H 430.843 2.07059 -3.60693 0
M  V30 4464 H 429.42 3.09094 -2.08603 0
M  V30 4465 N 431.605 1.3629 0.791371 0
M  V30 4466 C 432.854 1.29742 1.54434 0
M  V30 4467 C 433.167 -0.121729 1.95221 0
M  V30 4468 O 434.373 -0.309579 2.69729 0
M  V30 4469 C 432.829 2.27623 2.78776 0
M  V30 4470 C 432.437 3.74963 2.45166 0
M  V30 4471 C 434.181 2.30047 3.56761 0
M  V30 4472 C 432.088 4.64626 3.65891 0
M  V30 4473 H 431.018 0.482113 0.579727 0
M  V30 4474 H 433.669 1.61642 0.868565 0
M  V30 4475 H 432.051 1.88714 3.48142 0
M  V30 4476 H 433.225 4.22596 1.83709 0
M  V30 4477 H 431.54 3.75295 1.80396 0
M  V30 4478 H 434.137 2.94247 4.46456 0
M  V30 4479 H 434.48 1.30846 3.95203 0
M  V30 4480 H 435.013 2.67563 2.94372 0
M  V30 4481 H 431.752 5.64883 3.32547 0
M  V30 4482 H 431.272 4.2171 4.26521 0
M  V30 4483 H 432.951 4.80801 4.32943 0
M  V30 4484 N 433.083 -1.0153 1.20538 0
M  V30 4485 C 434.03 -2.10098 0.955383 0
M  V30 4486 C 435 -1.65702 -0.114878 0
M  V30 4487 O 436.185 -1.90776 0.0301118 0
M  V30 4488 C 433.325 -3.41236 0.514969 0
M  V30 4489 C 432.438 -3.99102 1.65353 0
M  V30 4490 C 431.573 -5.18306 1.16329 0
M  V30 4491 C 430.612 -5.68258 2.27485 0
M  V30 4492 N 429.749 -6.78722 1.7967 0
M  V30 4493 H 434.589 -2.30818 1.88486 0
M  V30 4494 H 432.126 -1.13189 0.939499 0
M  V30 4495 H 434.084 -4.16504 0.240935 0
M  V30 4496 H 432.714 -3.20585 -0.377512 0
M  V30 4497 H 431.766 -3.20918 2.04245 0
M  V30 4498 H 433.078 -4.32177 2.49047 0
M  V30 4499 H 432.232 -6.00782 0.845302 0
M  V30 4500 H 430.971 -4.86799 0.296254 0
M  V30 4501 H 429.976 -4.84385 2.60099 0
M  V30 4502 H 431.201 -6.01798 3.14667 0
M  V30 4503 H 429.147 -6.49042 0.95295 0
M  V30 4504 H 429.064 -7.10996 2.56944 0
M  V30 4505 H 430.332 -7.64759 1.50875 0
M  V30 4506 N 434.561 -1.01147 -1.20859 0
M  V30 4507 C 435.524 -0.582224 -2.21682 0
M  V30 4508 C 436.524 0.344887 -1.57058 0
M  V30 4509 O 437.714 0.134281 -1.73682 0
M  V30 4510 C 434.846 0.150496 -3.40568 0
M  V30 4511 H 436.039 -1.47408 -2.61172 0
M  V30 4512 H 433.592 -0.800695 -1.34233 0
M  V30 4513 H 434.327 1.0575 -3.06574 0
M  V30 4514 H 434.112 -0.515444 -3.88697 0
M  V30 4515 H 435.602 0.438344 -4.15293 0
M  V30 4516 N 436.039 1.36541 -0.78704 0
M  V30 4517 C 437.264 2.0409 -0.369053 0
M  V30 4518 C 437.689 1.58957 1.00569 0
M  V30 4519 O 437.047 0.756926 1.64743 0
M  V30 4520 C 437.095 3.57924 -0.438466 0
M  V30 4521 O 436.199 4.08642 0.555479 0
M  V30 4522 H 435.54 0.645142 -0.157122 0
M  V30 4523 H 438.07 1.74545 -1.06749 0
M  V30 4524 H 438.08 4.06887 -0.301218 0
M  V30 4525 H 436.755 3.90127 -1.44132 0
M  V30 4526 H 435.332 3.70958 0.380088 0
M  V30 4527 N 437.518 0.538854 1.48102 0
M  V30 4528 C 438.481 -0.208395 2.28251 0
M  V30 4529 C 439.481 -0.859656 1.35892 0
M  V30 4530 O 440.671 -0.71834 1.58699 0
M  V30 4531 C 437.803 -1.30252 3.15035 0
M  V30 4532 H 438.996 0.495407 2.9578 0
M  V30 4533 H 436.549 0.295112 1.53489 0
M  V30 4534 H 437.284 -2.0393 2.52157 0
M  V30 4535 H 437.069 -0.840551 3.82985 0
M  V30 4536 H 438.559 -1.82787 3.75471 0
M  V30 4537 N 438.996 -1.55193 0.274407 0
M  V30 4538 C 439.944 -2.23924 -0.629362 0
M  V30 4539 C 440.938 -1.23602 -1.1584 0
M  V30 4540 O 442.144 -1.41535 -1.11211 0
M  V30 4541 H 438.519 -0.718637 -0.221507 0
M  V30 4542 H 440.49 -2.98388 -0.0268322 0
M  V30 4543 C 439.239 -2.97329 -1.80252 0
M  V30 4544 H 438.562 -3.74313 -1.40462 0
M  V30 4545 H 440.002 -3.48743 -2.41152 0
M  V30 4546 C 438.461 -2.0276 -2.69054 0
M  V30 4547 O 438.991 -1.57836 -3.69392 0
M  V30 4548 N 437.197 -1.69275 -2.36208 0
M  V30 4549 H 436.744 -2.06004 -1.54661 0
M  V30 4550 H 436.702 -1.06271 -2.95895 0
M  V30 4551 N 440.474 -0.00167713 -1.576 0
M  V30 4552 C 441.407 1.02317 -2.03977 0
M  V30 4553 C 442.385 1.33381 -0.929963 0
M  V30 4554 O 443.569 1.45517 -1.19822 0
M  V30 4555 C 440.696 2.35035 -2.43878 0
M  V30 4556 C 439.742 2.19621 -3.65607 0
M  V30 4557 S 440.575 1.52068 -5.13455 0
M  V30 4558 C 441.731 2.86212 -5.56627 0
M  V30 4559 H 441.964 0.628285 -2.90585 0
M  V30 4560 H 439.497 0.209239 -1.52976 0
M  V30 4561 H 441.455 3.11345 -2.67534 0
M  V30 4562 H 440.116 2.71663 -1.57665 0
M  V30 4563 H 439.309 3.1767 -3.91282 0
M  V30 4564 H 438.911 1.51455 -3.41961 0
M  V30 4565 H 441.203 3.82509 -5.59189 0
M  V30 4566 H 442.146 2.65235 -6.56549 0
M  V30 4567 H 442.554 2.90199 -4.84195 0
M  V30 4568 N 441.952 1.55251 0.271103 0
M  V30 4569 C 443.229 1.66664 1.02384 0
M  V30 4570 C 443.609 0.534363 2.04225 0
M  V30 4571 O 442.957 -0.465337 2.23712 0
M  V30 4572 C 443.167 3.05961 1.67895 0
M  V30 4573 C 444.515 3.63772 2.18986 0
M  V30 4574 O 445.539 3.08606 1.77878 0
M  V30 4575 O 444.398 4.60429 2.94393 0
M  V30 4576 H 441.492 0.676957 0.475035 0
M  V30 4577 H 444.038 1.67589 0.26681 0
M  V30 4578 H 442.81 3.79815 0.941071 0
M  V30 4579 H 442.433 3.08943 2.5028 0
M  V30 4580 N 443.43 -0.535701 1.48216 0
M  V30 4581 C 444.36 -1.65014 1.65204 0
M  V30 4582 C 445.341 -1.62554 0.501011 0
M  V30 4583 O 446.526 -1.7984 0.732886 0
M  V30 4584 C 443.656 -3.03616 1.68626 0
M  V30 4585 C 442.61 -3.20932 2.83172 0
M  V30 4586 C 441.936 -4.60537 2.71679 0
M  V30 4587 C 443.236 -3.04249 4.24535 0
M  V30 4588 H 444.93 -1.51053 2.58502 0
M  V30 4589 H 442.476 -0.725262 1.24402 0
M  V30 4590 H 444.429 -3.81446 1.79099 0
M  V30 4591 H 443.153 -3.18587 0.719026 0
M  V30 4592 H 441.812 -2.45517 2.72244 0
M  V30 4593 H 441.46 -4.72336 1.72937 0
M  V30 4594 H 441.16 -4.73069 3.48538 0
M  V30 4595 H 442.684 -5.40475 2.84112 0
M  V30 4596 H 444.098 -3.71877 4.36326 0
M  V30 4597 H 442.495 -3.28278 5.02348 0
M  V30 4598 H 443.565 -2.00739 4.41397 0
M  V30 4599 N 444.908 -1.36708 -0.784132 0
M  V30 4600 C 445.841 -1.25827 -1.90375 0
M  V30 4601 C 446.819 -0.141331 -1.61985 0
M  V30 4602 O 448.003 -0.313389 -1.85877 0
M  V30 4603 C 445.13 -0.942621 -3.25319 0
M  V30 4604 C 444.176 -2.07474 -3.72635 0
M  V30 4605 S 445.009 -3.69317 -3.8777 0
M  V30 4606 C 446.165 -3.39876 -5.25581 0
M  V30 4607 H 446.398 -2.20593 -1.99314 0
M  V30 4608 H 443.931 -1.22186 -0.943926 0
M  V30 4609 H 445.889 -0.767321 -4.03265 0
M  V30 4610 H 444.55 -0.0126566 -3.14097 0
M  V30 4611 H 443.743 -1.80858 -4.70432 0
M  V30 4612 H 443.345 -2.20953 -3.01754 0
M  V30 4613 H 445.637 -2.94097 -6.10339 0
M  V30 4614 H 446.58 -4.36956 -5.57203 0
M  V30 4615 H 446.988 -2.75098 -4.92931 0
M  V30 4616 N 446.386 1.0089 -1.21074 0
M  V30 4617 C 447.802 1.2695 -0.967257 0
M  V30 4618 C 448.002 1.9846 0.348673 0
M  V30 4619 O 447.058 2.28459 1.0753 0
M  V30 4620 C 448.371 2.09697 -2.15517 0
M  V30 4621 C 449.919 2.22937 -2.197 0
M  V30 4622 C 450.394 3.09064 -3.37999 0
M  V30 4623 N 451.885 3.16653 -3.38061 0
M  V30 4624 C 452.62 3.8354 -4.26245 0
M  V30 4625 N 452.116 4.52488 -5.2462 0
M  V30 4626 N 453.909 3.80141 -4.14064 0
M  V30 4627 H 446.06 0.529005 -2.05707 0
M  V30 4628 H 448.323 0.296148 -0.900556 0
M  V30 4629 H 448.029 1.64497 -3.10859 0
M  V30 4630 H 447.903 3.10444 -2.14253 0
M  V30 4631 H 450.29 2.67357 -1.24916 0
M  V30 4632 H 450.371 1.21673 -2.2501 0
M  V30 4633 H 450.015 2.65347 -4.33074 0
M  V30 4634 H 449.945 4.10433 -3.29928 0
M  V30 4635 H 452.436 2.67566 -2.66865 0
M  V30 4636 H 452.749 5.01219 -5.88217 0
M  V30 4637 H 451.094 4.51288 -5.28549 0
M  V30 4638 H 454.285 3.25427 -3.36474 0
M  V30 4639 H 454.458 4.31992 -4.82998 0
M  V30 4640 N 447.864 1.01787 1.20321 0
M  V30 4641 C 448.827 0.593972 2.2137 0
M  V30 4642 C 449.827 -0.336553 1.57239 0
M  V30 4643 O 451.017 -0.125069 1.7375 0
M  V30 4644 C 448.149 -0.132433 3.40643 0
M  V30 4645 H 449.342 1.48791 2.60387 0
M  V30 4646 H 446.895 0.807803 1.33807 0
M  V30 4647 H 447.63 -1.04123 3.0713 0
M  V30 4648 H 447.415 0.53605 3.88418 0
M  V30 4649 H 448.905 -0.416314 4.1552 0
M  V30 4650 N 449.342 -1.36122 0.79427 0
M  V30 4651 C 450.619 -1.93398 0.292685 0
M  V30 4652 C 450.999 -1.72567 -1.21589 0
M  V30 4653 O 450.347 -1.08745 -2.00965 0
M  V30 4654 C 450.557 -3.42099 0.690614 0
M  V30 4655 C 451.905 -4.19231 0.673105 0
M  V30 4656 O 452.929 -3.50559 0.631389 0
M  V30 4657 O 451.788 -5.41732 0.720362 0
M  V30 4658 H 448.882 -0.823712 0.0736693 0
M  V30 4659 H 451.428 -1.45273 0.87714 0
M  V30 4660 H 450.2 -3.50938 1.73085 0
M  V30 4661 H 449.823 -3.97519 0.0803036 0
M  V30 4662 N 450.82 -0.546701 -1.47814 0
M  V30 4663 C 451.753 0.254472 -2.26777 0
M  V30 4664 C 452.731 0.929809 -1.33392 0
M  V30 4665 O 453.915 0.950889 -1.62759 0
M  V30 4666 C 451.042 1.36171 -3.10121 0
M  V30 4667 C 450.088 0.796038 -4.19005 0
M  V30 4668 S 450.921 -0.349191 -5.3436 0
M  V30 4669 C 452.077 0.760122 -6.21267 0
M  V30 4670 H 452.31 -0.415612 -2.94381 0
M  V30 4671 H 449.843 -0.332809 -1.5077 0
M  V30 4672 H 451.801 1.99588 -3.58713 0
M  V30 4673 H 450.462 2.00359 -2.41899 0
M  V30 4674 H 449.655 1.62719 -4.7701 0
M  V30 4675 H 449.257 0.238246 -3.7324 0
M  V30 4676 H 451.549 1.65479 -6.5698 0
M  V30 4677 H 452.492 0.217673 -7.07765 0
M  V30 4678 H 452.9 1.04806 -5.54685 0
M  V30 4679 N 452.299 1.55045 -0.282633 0
M  V30 4680 C 453.547 1.99365 0.331334 0
M  V30 4681 C 453.868 1.1725 1.55812 0
M  V30 4682 O 453.138 0.263871 1.94115 0
M  V30 4683 H 451.718 0.736397 0.125414 0
M  V30 4684 H 454.38 1.90964 -0.389711 0
M  V30 4685 H 453.476 3.0596 0.616036 0
M  V30 4686 N 453.777 0.010035 1.57597 0
M  V30 4687 C 455.025 -0.671371 1.90623 0
M  V30 4688 C 455.346 -1.73753 0.885151 0
M  V30 4689 O 454.616 -1.95752 -0.0760611 0
M  V30 4690 H 453.196 -0.250968 0.703579 0
M  V30 4691 H 455.858 0.0533325 1.94827 0
M  V30 4692 H 454.954 -1.13626 2.90681 0
M  V30 4693 N 455.255 -1.55392 -0.262866 0
M  V30 4694 C 456.218 -1.88181 -1.30846 0
M  V30 4695 C 457.218 -0.757079 -1.41862 0
M  V30 4696 O 458.408 -1.02519 -1.40838 0
M  V30 4697 C 455.54 -2.09609 -2.68844 0
M  V30 4698 H 456.733 -2.81659 -1.02997 0
M  V30 4699 H 454.286 -1.48039 -0.501414 0
M  V30 4700 H 455.021 -1.18547 -3.01856 0
M  V30 4701 H 454.806 -2.91508 -2.62231 0
M  V30 4702 H 456.296 -2.36215 -3.44372 0
M  V30 4703 N 456.733 0.527833 -1.48498 0
M  V30 4704 C 457.696 1.61439 -1.62696 0
M  V30 4705 C 458.696 1.52824 -0.500136 0
M  V30 4706 O 459.886 1.56456 -0.765976 0
M  V30 4707 C 457.018 3.01063 -1.59918 0
M  V30 4708 H 458.211 1.50189 -2.59583 0
M  V30 4709 H 455.764 0.750055 -1.37127 0
M  V30 4710 H 456.499 3.17818 -0.645163 0
M  V30 4711 H 456.284 3.08725 -2.41726 0
M  V30 4712 H 457.774 3.80057 -1.73051 0
M  V30 4713 N 458.211 1.37122 0.776871 0
M  V30 4714 C 459.439 1.3523 1.5659 0
M  V30 4715 C 459.854 -0.0635518 1.88693 0
M  V30 4716 O 459.211 -1.02394 1.51069 0
M  V30 4717 C 459.262 2.18583 2.8793 0
M  V30 4718 O 458.983 3.5465 2.57206 0
M  V30 4719 C 460.484 2.24612 3.82183 0
M  V30 4720 H 457.704 0.4634 0.485285 0
M  V30 4721 H 460.248 1.80392 0.963266 0
M  V30 4722 H 458.403 1.76943 3.4463 0
M  V30 4723 H 458.817 3.98286 3.41275 0
M  V30 4724 H 460.291 2.87267 4.71361 0
M  V30 4725 H 460.768 1.25309 4.20944 0
M  V30 4726 H 461.374 2.66543 3.31414 0
M  V30 4727 N 459.689 -1.00246 1.21608 0
M  V30 4728 C 460.938 -1.73476 1.02902 0
M  V30 4729 C 461.251 -1.90643 -0.437561 0
M  V30 4730 O 462.457 -2.61105 -0.74407 0
M  V30 4731 C 460.913 -3.12079 1.79261 0
M  V30 4732 C 460.521 -3.02877 3.30106 0
M  V30 4733 C 462.265 -3.89421 1.68972 0
M  V30 4734 C 460.172 -4.36575 3.98944 0
M  V30 4735 H 459.102 -0.650408 0.381425 0
M  V30 4736 H 461.753 -1.11985 1.45367 0
M  V30 4737 H 460.135 -3.74196 1.2959 0
M  V30 4738 H 461.309 -2.49983 3.87098 0
M  V30 4739 H 459.624 -2.39022 3.40965 0
M  V30 4740 H 462.221 -4.88362 2.17731 0
M  V30 4741 H 462.564 -4.1122 0.648397 0
M  V30 4742 H 463.097 -3.33963 2.16133 0
M  V30 4743 H 459.836 -4.19978 5.03288 0
M  V30 4744 H 459.356 -4.8942 3.4674 0
M  V30 4745 H 461.035 -5.05364 4.04 0
M  V30 4746 N 461.167 -1.02423 -1.1978 0
M  V30 4747 C 462.407 -0.726635 -1.91048 0
M  V30 4748 C 462.771 0.730947 -1.77542 0
M  V30 4749 O 463.972 1.14141 -2.43362 0
M  V30 4750 C 462.243 -1.15964 -3.38064 0
M  V30 4751 S 463.802 -0.985172 -4.27598 0
M  V30 4752 H 460.62 -0.264679 -0.659899 0
M  V30 4753 H 463.222 -1.31309 -1.44838 0
M  V30 4754 H 461.926 -2.21619 -3.45417 0
M  V30 4755 H 461.457 -0.566274 -3.89303 0
M  V30 4756 H 463.472 0.106946 -4.96085 0
M  V30 4757 N 462.645 1.35699 -0.801477 0
M  V30 4758 C 463.87 2.03687 -0.390678 0
M  V30 4759 C 464.295 1.60015 0.988778 0
M  V30 4760 O 463.653 0.774357 1.63931 0
M  V30 4761 C 463.701 3.57439 -0.476404 0
M  V30 4762 O 462.805 4.09208 0.512106 0
M  V30 4763 H 462.146 0.64344 -0.163956 0
M  V30 4764 H 464.676 1.73403 -1.08594 0
M  V30 4765 H 464.686 4.06544 -0.344357 0
M  V30 4766 H 463.361 3.88576 -1.48262 0
M  V30 4767 H 461.938 3.7134 0.340721 0
M  V30 4768 N 464.123 0.554532 1.47522 0
M  V30 4769 C 465.086 -0.184174 2.28459 0
M  V30 4770 C 466.086 -0.845195 1.36796 0
M  V30 4771 O 467.276 -0.701467 1.59452 0
M  V30 4772 C 464.408 -1.26903 3.16399 0
M  V30 4773 H 465.601 0.526751 2.95238 0
M  V30 4774 H 463.154 0.311375 1.53167 0
M  V30 4775 H 463.889 -2.01244 2.54306 0
M  V30 4776 H 463.674 -0.799883 3.83854 0
M  V30 4777 H 465.164 -1.78794 3.77389 0
M  V30 4778 N 465.601 -1.54893 0.290851 0
M  V30 4779 C 466.85 -1.99111 -0.322113 0
M  V30 4780 C 467.163 -1.18283 -1.55784 0
M  V30 4781 O 468.369 -1.5272 -2.24475 0
M  V30 4782 C 466.825 -3.54442 -0.624438 0
M  V30 4783 C 466.433 -4.44066 0.592373 0
M  V30 4784 C 468.177 -4.07211 -1.19916 0
M  V30 4785 C 466.084 -5.90812 0.263762 0
M  V30 4786 H 465.014 -0.743712 -0.124133 0
M  V30 4787 H 467.665 -1.79132 0.39797 0
M  V30 4788 H 466.047 -3.70281 -1.40384 0
M  V30 4789 H 467.221 -4.39999 1.36886 0
M  V30 4790 H 465.536 -4.02015 1.08502 0
M  V30 4791 H 468.133 -5.14407 -1.45909 0
M  V30 4792 H 468.476 -3.57196 -2.13815 0
M  V30 4793 H 469.009 -3.94873 -0.481687 0
M  V30 4794 H 465.748 -6.44955 1.17105 0
M  V30 4795 H 465.268 -5.97911 -0.475655 0
M  V30 4796 H 466.947 -6.46852 -0.138354 0
M  V30 4797 N 467.08 -0.0183926 -1.57589 0
M  V30 4798 C 468.326 0.663543 -1.91638 0
M  V30 4799 C 468.659 1.72392 -0.894134 0
M  V30 4800 O 467.934 1.94316 0.0846449 0
M  V30 4801 C 468.217 1.28984 -3.36207 0
M  V30 4802 C 468.07 0.239761 -4.49161 0
M  V30 4803 C 469.389 2.2109 -3.80536 0
M  V30 4804 H 466.508 0.239746 -0.696915 0
M  V30 4805 H 469.15 -0.073456 -1.89858 0
M  V30 4806 H 467.3 1.91799 -3.37854 0
M  V30 4807 H 468.972 -0.390119 -4.59647 0
M  V30 4808 H 467.215 -0.435972 -4.31604 0
M  V30 4809 H 467.886 0.717383 -5.47319 0
M  V30 4810 H 470.362 1.68273 -3.80557 0
M  V30 4811 H 469.238 2.61869 -4.82406 0
M  V30 4812 H 469.499 3.09764 -3.15434 0
M  V30 4813 N 468.558 1.5553 0.254621 0
M  V30 4814 C 469.783 1.81383 1.00573 0
M  V30 4815 C 470.208 0.594419 1.78461 0
M  V30 4816 O 469.566 -0.456403 1.75461 0
M  V30 4817 C 469.614 3.04892 1.92545 0
M  V30 4818 O 468.718 2.81266 3.01601 0
M  V30 4819 H 468.059 0.598969 0.286587 0
M  V30 4820 H 470.589 2.02703 0.277952 0
M  V30 4821 H 470.599 3.34119 2.34155 0
M  V30 4822 H 469.274 3.93287 1.3527 0
M  V30 4823 H 467.851 2.63185 2.64174 0
M  V30 4824 N 470.036 -0.519951 1.48776 0
M  V30 4825 C 470.999 -1.60574 1.6355 0
M  V30 4826 C 471.999 -1.52557 0.508234 0
M  V30 4827 O 473.189 -1.56047 0.774262 0
M  V30 4828 C 470.321 -3.00211 1.61512 0
M  V30 4829 H 471.514 -1.4881 2.60376 0
M  V30 4830 H 469.067 -0.742772 1.37523 0
M  V30 4831 H 469.802 -3.17471 0.662009 0
M  V30 4832 H 469.587 -3.07439 2.43359 0
M  V30 4833 H 471.077 -3.79134 1.75064 0
M  V30 4834 N 471.514 -1.37532 -0.769588 0
M  V30 4835 C 472.477 -1.33292 -1.86456 0
M  V30 4836 C 473.477 -0.236537 -1.59051 0
M  V30 4837 O 474.667 -0.492511 -1.67093 0
M  V30 4838 C 471.799 -1.07118 -3.23633 0
M  V30 4839 H 472.992 -2.30692 -1.91628 0
M  V30 4840 H 470.545 -1.22593 -0.969572 0
M  V30 4841 H 471.28 -0.102578 -3.24138 0
M  V30 4842 H 471.065 -1.86479 -3.44917 0
M  V30 4843 H 472.555 -1.06806 -4.03711 0
M  V30 4844 N 472.992 0.995999 -1.22138 0
M  V30 4845 C 473.939 2.08551 -0.988687 0
M  V30 4846 C 474.909 1.65864 0.0885021 0
M  V30 4847 O 476.094 1.90704 -0.0604589 0
M  V30 4848 C 473.234 3.40374 -0.569191 0
M  V30 4849 C 472.347 3.96421 -1.71681 0
M  V30 4850 C 471.482 5.1639 -1.2456 0
M  V30 4851 C 470.521 5.64567 -2.36497 0
M  V30 4852 N 469.658 6.75777 -1.90445 0
M  V30 4853 H 474.498 2.2779 -1.92135 0
M  V30 4854 H 472.035 1.1168 -0.957388 0
M  V30 4855 H 473.993 4.16068 -0.307166 0
M  V30 4856 H 472.623 3.21145 0.326462 0
M  V30 4857 H 471.675 3.17628 -2.09324 0
M  V30 4858 H 472.987 4.2816 -2.55891 0
M  V30 4859 H 472.141 5.99362 -0.940774 0
M  V30 4860 H 470.88 4.86266 -0.373662 0
M  V30 4861 H 469.885 4.80185 -2.67772 0
M  V30 4862 H 471.11 5.96716 -3.24202 0
M  V30 4863 H 469.056 6.47443 -1.05609 0
M  V30 4864 H 468.973 7.06818 -2.68223 0
M  V30 4865 H 470.241 7.62262 -1.63022 0
M  V30 4866 N 474.47 1.03057 1.19235 0
M  V30 4867 C 475.4 0.633497 2.24742 0
M  V30 4868 C 476.381 -0.358335 1.66283 0
M  V30 4869 O 477.566 -0.240676 1.92703 0
M  V30 4870 C 474.696 -0.0147648 3.47297 0
M  V30 4871 C 473.65 0.899527 4.18441 0
M  V30 4872 C 472.976 0.116281 5.34574 0
M  V30 4873 C 474.276 2.21404 4.73051 0
M  V30 4874 H 475.97 1.5155 2.58211 0
M  V30 4875 H 473.516 0.73014 1.24117 0
M  V30 4876 H 475.469 -0.304202 4.20301 0
M  V30 4877 H 474.193 -0.931577 3.13032 0
M  V30 4878 H 472.852 1.17319 3.47321 0
M  V30 4879 H 472.5 -0.802619 4.96555 0
M  V30 4880 H 472.2 0.725293 5.83107 0
M  V30 4881 H 473.724 -0.166376 6.10373 0
M  V30 4882 H 475.138 1.98601 5.37802 0
M  V30 4883 H 473.535 2.77512 5.32078 0
M  V30 4884 H 474.605 2.86752 3.91026 0
M  V30 4885 N 475.948 -1.35272 0.808662 0
M  V30 4886 C 476.896 -2.31663 0.208606 0
M  V30 4887 C 477.89 -1.56731 -0.642778 0
M  V30 4888 O 479.096 -1.71843 -0.53571 0
M  V30 4889 H 475.471 -0.750421 0.0486993 0
M  V30 4890 H 477.442 -2.79814 1.03666 0
M  V30 4891 C 476.191 -3.42008 -0.626573 0
M  V30 4892 H 475.514 -3.99795 0.0192103 0
M  V30 4893 H 476.954 -4.11727 -1.01278 0
M  V30 4894 C 475.413 -2.85226 -1.79298 0
M  V30 4895 O 475.943 -2.78945 -2.89055 0
M  V30 4896 N 474.149 -2.42245 -1.60516 0
M  V30 4897 H 473.696 -2.47554 -0.712375 0
M  V30 4898 H 473.654 -2.04603 -2.38715 0
M  V30 4899 N 477.426 -0.562348 -1.47226 0
M  V30 4900 C 478.356 0.170627 -2.32876 0
M  V30 4901 C 479.337 0.903748 -1.44106 0
M  V30 4902 O 480.522 0.883206 -1.72954 0
M  V30 4903 C 477.652 1.19786 -3.25989 0
M  V30 4904 C 476.606 0.580875 -4.2404 0
M  V30 4905 C 475.932 1.71311 -5.06514 0
M  V30 4906 C 477.232 -0.468714 -5.20193 0
M  V30 4907 H 478.926 -0.544441 -2.94408 0
M  V30 4908 H 476.472 -0.263271 -1.41573 0
M  V30 4909 H 478.425 1.71884 -3.84752 0
M  V30 4910 H 477.149 1.94294 -2.62521 0
M  V30 4911 H 475.808 0.0811538 -3.6651 0
M  V30 4912 H 475.456 2.44736 -4.39447 0
M  V30 4913 H 475.156 1.30604 -5.72902 0
M  V30 4914 H 476.68 2.23725 -5.68137 0
M  V30 4915 H 478.094 -0.0336028 -5.7329 0
M  V30 4916 H 476.491 -0.794957 -5.94811 0
M  V30 4917 H 477.561 -1.36269 -4.65359 0
M  V30 4918 N 478.904 1.54736 -0.299062 0
M  V30 4919 C 480.315 1.8569 0.193971 0
M  V30 4920 C 480.666 1.22101 1.53577 0
M  V30 4921 O 479.791 0.51799 2.10109 0
M  V30 4922 C 480.386 3.36895 0.358733 0
M  V30 4923 C 478.945 3.67887 0.795986 0
M  V30 4924 C 478.092 2.77131 -0.096807 0
M  V30 4925 H 481.043 1.49934 -0.520134 0
M  V30 4926 H 481.064 3.61294 1.19361 0
M  V30 4927 H 480.576 3.83148 -0.617998 0
M  V30 4928 H 478.677 3.27151 1.78334 0
M  V30 4929 H 478.79 4.75114 0.616718 0
M  V30 4930 H 477.154 2.51153 0.423581 0
M  V30 4931 H 477.937 3.26204 -1.06986 0
M  V30 4932 N 480.382 0.0267497 1.57577 0
M  V30 4933 C 481.631 -0.651736 1.9088 0
M  V30 4934 C 481.944 -1.73427 0.904576 0
M  V30 4935 O 483.15 -2.46923 1.12877 0
M  V30 4936 C 481.606 -1.21048 3.38933 0
M  V30 4937 C 481.214 -0.161362 4.47709 0
M  V30 4938 C 482.958 -1.86562 3.81307 0
M  V30 4939 C 480.865 -0.731611 5.86857 0
M  V30 4940 H 479.795 -0.247198 0.712326 0
M  V30 4941 H 482.446 0.0916641 1.83271 0
M  V30 4942 H 480.828 -2.00542 3.41466 0
M  V30 4943 H 482.002 0.61094 4.56732 0
M  V30 4944 H 480.317 0.394877 4.14523 0
M  V30 4945 H 482.914 -2.30178 4.8262 0
M  V30 4946 H 483.257 -2.70735 3.16241 0
M  V30 4947 H 483.79 -1.13762 3.81186 0
M  V30 4948 H 480.529 0.0719329 6.55461 0
M  V30 4949 H 480.049 -1.47245 5.81445 0
M  V30 4950 H 481.728 -1.22208 6.35354 0
M  V30 4951 N 481.861 -1.55662 -0.24637 0
M  V30 4952 C 482.809 -1.91186 -1.3248 0
M  V30 4953 C 483.803 -0.790996 -1.49799 0
M  V30 4954 O 485.009 -0.975617 -1.51267 0
M  V30 4955 H 481.384 -0.607207 -0.443626 0
M  V30 4956 H 483.355 -2.81221 -0.997853 0
M  V30 4957 C 482.104 -2.22349 -2.67313 0
M  V30 4958 H 481.427 -3.08097 -2.54786 0
M  V30 4959 H 482.867 -2.51107 -3.41645 0
M  V30 4960 C 481.326 -1.04001 -3.20446 0
M  V30 4961 O 481.856 -0.28828 -4.00664 0
M  V30 4962 N 480.062 -0.830494 -2.7848 0
M  V30 4963 H 479.609 -1.4435 -2.13356 0
M  V30 4964 H 479.567 -0.0403258 -3.14374 0
M  V30 4965 N 483.339 0.512053 -1.4905 0
M  V30 4966 C 484.588 1.26343 -1.57227 0
M  V30 4967 C 484.901 1.93876 -0.259155 0
M  V30 4968 O 486.107 2.70612 -0.219358 0
M  V30 4969 C 484.563 2.29343 -2.77362 0
M  V30 4970 C 484.171 1.67799 -4.15388 0
M  V30 4971 C 485.915 3.05378 -2.94864 0
M  V30 4972 C 483.822 2.68845 -5.2676 0
M  V30 4973 H 482.752 0.475231 -0.585382 0
M  V30 4974 H 485.403 0.53862 -1.75417 0
M  V30 4975 H 483.785 3.04938 -2.52643 0
M  V30 4976 H 484.959 0.982715 -4.50199 0
M  V30 4977 H 483.274 1.04194 -4.03153 0
M  V30 4978 H 485.871 3.80921 -3.75238 0
M  V30 4979 H 486.214 3.62327 -2.05 0
M  V30 4980 H 486.747 2.36898 -3.19569 0
M  V30 4981 H 483.486 2.16692 -6.18647 0
M  V30 4982 H 483.006 3.36647 -4.96416 0
M  V30 4983 H 484.685 3.31487 -5.5563 0
M  V30 4984 N 484.817 1.37938 0.762283 0
M  V30 4985 C 486.066 1.32989 1.51647 0
M  V30 4986 C 486.379 -0.0802922 1.95435 0
M  V30 4987 O 487.585 -0.252295 2.70325 0
M  V30 4988 C 486.041 2.33485 2.73885 0
M  V30 4989 C 485.649 3.80079 2.37157 0
M  V30 4990 C 487.393 2.37563 3.51801 0
M  V30 4991 C 485.3 4.72283 3.55954 0
M  V30 4992 H 484.23 0.494301 0.56937 0
M  V30 4993 H 486.881 1.63448 0.834083 0
M  V30 4994 H 485.263 1.96056 3.44061 0
M  V30 4995 H 486.437 4.26398 1.74704 0
M  V30 4996 H 484.752 3.79037 1.72395 0
M  V30 4997 H 487.349 3.0365 4.40114 0
M  V30 4998 H 487.692 1.39199 3.92338 0
M  V30 4999 H 488.225 2.73747 2.8863 0
M  V30 5000 H 484.964 5.7181 3.2049 0
M  V30 5001 H 484.484 4.30663 4.1748 0
M  V30 5002 H 486.163 4.89876 4.22647 0
M  V30 5003 N 486.295 -0.989507 1.22664 0
M  V30 5004 C 487.543 -1.72612 1.05117 0
M  V30 5005 C 487.864 -1.90552 -0.414131 0
M  V30 5006 O 487.134 -1.4676 -1.29762 0
M  V30 5007 H 485.714 -0.639555 0.385977 0
M  V30 5008 H 488.376 -1.19158 1.54232 0
M  V30 5009 H 487.472 -2.71926 1.53175 0
M  V30 5010 N 487.773 -1.03688 -1.18687 0
M  V30 5011 C 488.703 -0.645407 -2.24403 0
M  V30 5012 C 489.684 0.349511 -1.66471 0
M  V30 5013 O 490.869 0.230453 -1.92828 0
M  V30 5014 C 487.999 -0.00365337 -3.473 0
M  V30 5015 C 486.953 -0.921705 -4.17958 0
M  V30 5016 C 486.279 -0.144629 -5.34504 0
M  V30 5017 C 487.579 -2.23909 -4.71871 0
M  V30 5018 H 489.273 -1.52917 -2.57404 0
M  V30 5019 H 486.819 -0.736711 -1.23728 0
M  V30 5020 H 488.772 0.281908 -4.20456 0
M  V30 5021 H 487.496 0.914963 -3.13522 0
M  V30 5022 H 486.155 -1.19159 -3.46694 0
M  V30 5023 H 485.803 0.776274 -4.96974 0
M  V30 5024 H 485.503 -0.756206 -5.82714 0
M  V30 5025 H 487.027 0.134004 -6.10453 0
M  V30 5026 H 488.441 -2.0145 -5.36741 0
M  V30 5027 H 486.838 -2.8033 -5.30599 0
M  V30 5028 H 487.908 -2.88822 -3.895 0
M  V30 5029 N 489.251 1.34841 -0.815825 0
M  V30 5030 C 490.214 2.27959 -0.238185 0
M  V30 5031 C 491.214 1.49983 0.579816 0
M  V30 5032 O 492.404 1.69617 0.396953 0
M  V30 5033 C 489.536 3.34314 0.666876 0
M  V30 5034 H 490.729 2.80558 -1.05958 0
M  V30 5035 H 488.282 1.44852 -0.587156 0
M  V30 5036 H 489.017 2.86916 1.5116 0
M  V30 5037 H 488.802 3.92014 0.0819106 0
M  V30 5038 H 490.292 4.0379 1.06506 0
M  V30 5039 N 490.729 0.570148 1.46925 0
M  V30 5040 C 492.14 0.1402 1.86173 0
M  V30 5041 C 492.491 -1.29347 1.47526 0
M  V30 5042 O 491.616 -1.97508 0.884292 0
M  V30 5043 C 492.211 0.247661 3.37894 0
M  V30 5044 C 490.77 -0.127332 3.76185 0
M  V30 5045 C 489.917 0.589349 2.70965 0
M  V30 5046 H 492.868 0.779117 1.38259 0
M  V30 5047 H 492.889 -0.530341 3.76786 0
M  V30 5048 H 492.401 1.29121 3.65991 0
M  V30 5049 H 490.502 -1.17149 3.53704 0
M  V30 5050 H 490.615 0.240238 4.78497 0
M  V30 5051 H 488.979 0.0309824 2.54681 0
M  V30 5052 H 489.762 1.6343 3.01903 0
M  V30 5053 N 492.207 -1.54576 0.307264 0
M  V30 5054 C 493.137 -2.26708 -0.55907 0
M  V30 5055 C 494.118 -1.26893 -1.1328 0
M  V30 5056 O 495.303 -1.55677 -1.16097 0
M  V30 5057 C 492.433 -3.01259 -1.72801 0
M  V30 5058 C 491.387 -4.08275 -1.28435 0
M  V30 5059 C 490.713 -4.70575 -2.53895 0
M  V30 5060 C 492.013 -5.2068 -0.411038 0
M  V30 5061 H 493.707 -2.9937 0.042576 0
M  V30 5062 H 491.253 -1.43983 0.0219173 0
M  V30 5063 H 493.206 -3.50444 -2.34023 0
M  V30 5064 H 491.93 -2.26187 -2.356 0
M  V30 5065 H 490.589 -3.59949 -0.695161 0
M  V30 5066 H 490.237 -3.92136 -3.15021 0
M  V30 5067 H 489.937 -5.42854 -2.24908 0
M  V30 5068 H 491.461 -5.22527 -3.15908 0
M  V30 5069 H 492.875 -5.65721 -0.929097 0
M  V30 5070 H 491.272 -5.99716 -0.214664 0
M  V30 5071 H 492.342 -4.81629 0.562287 0
M  V30 5072 N 493.685 -0.035106 -1.57561 0
M  V30 5073 C 494.925 0.646316 -1.93913 0
M  V30 5074 C 495.289 1.68947 -0.912185 0
M  V30 5075 O 496.49 2.42381 -1.1621 0
M  V30 5076 C 494.761 1.24136 -3.35149 0
M  V30 5077 S 496.32 1.94302 -3.93436 0
M  V30 5078 H 493.138 0.212642 -0.678457 0
M  V30 5079 H 495.74 -0.100203 -1.95243 0
M  V30 5080 H 494.444 0.46979 -4.07702 0
M  V30 5081 H 493.975 2.02505 -3.37276 0
M  V30 5082 H 495.99 3.22205 -3.77357 0
M  V30 5083 N 495.163 1.55791 0.238111 0
M  V30 5084 C 496.073 1.94196 1.31625 0
M  V30 5085 C 497.089 0.843545 1.52185 0
M  V30 5086 O 498.265 1.1457 1.65637 0
M  V30 5087 C 495.33 2.2365 2.64918 0
M  V30 5088 C 494.391 3.46971 2.52804 0
M  V30 5089 C 493.624 3.7501 3.79741 0
M  V30 5090 O 493.847 3.04982 4.82019 0
M  V30 5091 O 492.781 4.68525 3.77846 0
M  V30 5092 H 496.607 2.86044 1.02043 0
M  V30 5093 H 494.192 1.42786 0.439603 0
M  V30 5094 H 496.074 2.43863 3.4367 0
M  V30 5095 H 494.749 1.34979 2.94215 0
M  V30 5096 H 493.656 3.32055 1.72309 0
M  V30 5097 H 494.989 4.35971 2.28451 0
M  V30 5098 N 496.642 -0.504142 1.49319 0
M  V30 5099 C 497.59 -1.62689 1.66238 0
M  V30 5100 C 498.584 -1.6095 0.528349 0
M  V30 5101 O 499.79 -1.65496 0.707887 0
M  V30 5102 H 496.165 -0.539247 0.524134 0
M  V30 5103 H 498.136 -1.45571 2.60484 0
M  V30 5104 C 496.885 -3.00841 1.74328 0
M  V30 5105 H 496.208 -3.02884 2.60963 0
M  V30 5106 H 497.648 -3.78945 1.90202 0
M  V30 5107 C 496.107 -3.33355 0.487416 0
M  V30 5108 O 496.637 -3.99819 -0.388294 0
M  V30 5109 N 494.843 -2.88469 0.351306 0
M  V30 5110 H 494.39 -2.34557 1.06492 0
M  V30 5111 H 494.348 -3.10591 -0.487899 0
M  V30 5112 N 498.12 -1.38341 -0.754957 0
M  V30 5113 C 499.053 -1.29837 -1.87663 0
M  V30 5114 C 500.031 -0.175659 -1.61648 0
M  V30 5115 O 501.215 -0.352745 -1.8517 0
M  V30 5116 C 498.342 -1.01141 -3.23246 0
M  V30 5117 C 497.388 -2.15331 -3.6815 0
M  V30 5118 S 498.221 -3.77459 -3.79849 0
M  V30 5119 C 499.377 -3.50948 -5.18253 0
M  V30 5120 H 499.61 -2.24771 -1.9459 0
M  V30 5121 H 497.143 -1.24161 -0.917796 0
M  V30 5122 H 499.101 -0.852687 -4.01546 0
M  V30 5123 H 497.762 -0.0792784 -3.14 0
M  V30 5124 H 496.955 -1.90795 -4.6649 0
M  V30 5125 H 496.557 -2.27304 -2.97 0
M  V30 5126 H 498.849 -3.06977 -6.03963 0
M  V30 5127 H 499.792 -4.48677 -5.47809 0
M  V30 5128 H 500.2 -2.85492 -4.86985 0
M  V30 5129 N 499.598 0.982988 -1.23187 0
M  V30 5130 C 501.009 1.53847 -1.05773 0
M  V30 5131 C 501.36 1.92568 0.375744 0
M  V30 5132 O 500.485 1.75783 1.26211 0
M  V30 5133 C 501.08 2.79567 -1.91384 0
M  V30 5134 C 499.639 3.31524 -1.78238 0
M  V30 5135 C 498.786 2.04534 -1.87246 0
M  V30 5136 H 501.737 0.802962 -1.36888 0
M  V30 5137 H 501.758 3.52317 -1.43711 0
M  V30 5138 H 501.27 2.51353 -2.95708 0
M  V30 5139 H 499.371 3.64623 -0.766875 0
M  V30 5140 H 499.484 4.01457 -2.61475 0
M  V30 5141 H 497.848 2.1855 -1.30797 0
M  V30 5142 H 498.631 1.78706 -2.9312 0
M  V30 5143 N 501.076 1.04316 1.18135 0
M  V30 5144 C 502.301 0.768047 1.92655 0
M  V30 5145 C 502.726 -0.66904 1.758 0
M  V30 5146 O 502.084 -1.46372 1.06981 0
M  V30 5147 C 502.132 1.14239 3.42026 0
M  V30 5148 O 501.236 0.269333 4.1152 0
M  V30 5149 H 500.577 0.282436 0.600937 0
M  V30 5150 H 503.107 1.39367 1.49793 0
M  V30 5151 H 503.117 1.10538 3.92741 0
M  V30 5152 H 501.792 2.18928 3.53615 0
M  V30 5153 H 500.369 0.366175 3.71098 0
M  V30 5154 N 502.554 -1.34406 0.822964 0
M  V30 5155 C 503.802 -1.97892 0.410245 0
M  V30 5156 C 504.123 -1.65567 -1.03017 0
M  V30 5157 O 503.393 -0.94642 -1.71522 0
M  V30 5158 H 501.973 -0.732049 0.148707 0
M  V30 5159 H 504.635 -1.64043 1.05242 0
M  V30 5160 H 503.731 -3.07579 0.529284 0
M  V30 5161 N 504.032 -0.577932 -1.46621 0
M  V30 5162 C 504.979 0.158048 -2.30258 0
M  V30 5163 C 505.949 0.888669 -1.40328 0
M  V30 5164 O 507.134 0.880283 -1.6928 0
M  V30 5165 C 504.274 1.16884 -3.24703 0
M  V30 5166 C 503.387 0.442163 -4.29731 0
M  V30 5167 C 502.522 1.44007 -5.11308 0
M  V30 5168 C 501.561 0.69952 -6.0809 0
M  V30 5169 N 500.698 1.64525 -6.82551 0
M  V30 5170 H 505.538 -0.561242 -2.92667 0
M  V30 5171 H 503.075 -0.288591 -1.44241 0
M  V30 5172 H 505.033 1.7677 -3.779 0
M  V30 5173 H 503.663 1.85591 -2.64113 0
M  V30 5174 H 502.715 -0.271632 -3.79429 0
M  V30 5175 H 504.027 -0.136992 -4.98612 0
M  V30 5176 H 503.181 2.11186 -5.68758 0
M  V30 5177 H 501.92 2.05315 -4.42377 0
M  V30 5178 H 500.925 0.0139217 -5.49798 0
M  V30 5179 H 502.15 0.091894 -6.79038 0
M  V30 5180 H 500.096 2.24653 -6.16334 0
M  V30 5181 H 500.013 1.11878 -7.47676 0
M  V30 5182 H 501.281 2.30754 -7.44562 0
M  V30 5183 N 505.51 1.54411 -0.315457 0
M  V30 5184 C 506.473 2.22713 0.54142 0
M  V30 5185 C 507.473 1.2179 1.04995 0
M  V30 5186 O 508.663 1.46426 0.943667 0
M  V30 5187 C 505.795 2.92485 1.75116 0
M  V30 5188 H 506.988 2.99849 -0.0555508 0
M  V30 5189 H 504.541 1.56159 -0.0664453 0
M  V30 5190 H 505.276 2.19466 2.38758 0
M  V30 5191 H 505.061 3.66483 1.39401 0
M  V30 5192 H 506.551 3.44548 2.35959 0
M  V30 5193 N 506.988 0.0434614 1.5754 0
M  V30 5194 C 507.936 -0.951465 2.1225 0
M  V30 5195 C 508.93 -1.3274 1.05245 0
M  V30 5196 O 510.136 -1.30795 1.23663 0
M  V30 5197 H 506.511 -0.324667 0.678303 0
M  V30 5198 H 508.482 -0.464855 2.94757 0
M  V30 5199 C 507.231 -2.21972 2.67626 0
M  V30 5200 H 506.554 -1.93923 3.4962 0
M  V30 5201 H 507.994 -2.89765 3.09536 0
M  V30 5202 C 506.453 -2.95919 1.61038 0
M  V30 5203 O 506.983 -3.8857 1.01862 0
M  V30 5204 N 505.189 -2.58511 1.32741 0
M  V30 5205 H 504.736 -1.83244 1.81051 0
M  V30 5206 H 504.694 -3.08296 0.616531 0
M  V30 5207 N 508.466 -1.55915 -0.229846 0
M  V30 5208 C 509.413 -1.91734 -1.28478 0
M  V30 5209 C 510.383 -0.773539 -1.46988 0
M  V30 5210 O 511.568 -1.02871 -1.60693 0
M  V30 5211 C 508.708 -2.23224 -2.63182 0
M  V30 5212 C 507.821 -3.50497 -2.52539 0
M  V30 5213 C 506.956 -3.71474 -3.79711 0
M  V30 5214 C 505.995 -4.92289 -3.63755 0
M  V30 5215 N 505.132 -5.09698 -4.82858 0
M  V30 5216 H 509.972 -2.81692 -0.972308 0
M  V30 5217 H 507.509 -1.39429 -0.468815 0
M  V30 5218 H 509.467 -2.3949 -3.41614 0
M  V30 5219 H 508.097 -1.36451 -2.92542 0
M  V30 5220 H 507.149 -3.4247 -1.65585 0
M  V30 5221 H 508.461 -4.39079 -2.36666 0
M  V30 5222 H 507.615 -3.87791 -4.66586 0
M  V30 5223 H 506.354 -2.81157 -3.985 0
M  V30 5224 H 505.359 -4.7593 -2.75264 0
M  V30 5225 H 506.584 -5.84083 -3.46445 0
M  V30 5226 H 504.53 -4.22322 -5.01976 0
M  V30 5227 H 504.447 -5.92399 -4.69681 0
M  V30 5228 H 505.715 -5.30443 -5.71183 0
M  V30 5229 N 509.944 0.496216 -1.49584 0
M  V30 5230 C 511.355 1.07765 -1.52459 0
M  V30 5231 C 511.706 1.93679 -0.31353 0
M  V30 5232 O 510.831 2.08588 0.576186 0
M  V30 5233 C 511.426 1.96111 -2.76271 0
M  V30 5234 C 509.985 2.49409 -2.81908 0
M  V30 5235 C 509.132 1.27142 -2.46435 0
M  V30 5236 H 512.083 0.279914 -1.56212 0
M  V30 5237 H 512.104 2.80862 -2.56704 0
M  V30 5238 H 511.616 1.33555 -3.64396 0
M  V30 5239 H 509.717 3.1559 -1.98074 0
M  V30 5240 H 509.83 2.86234 -3.84196 0
M  V30 5241 H 508.194 1.59818 -1.98319 0
M  V30 5242 H 508.977 0.662866 -3.3684 0
M  V30 5243 N 511.423 1.38739 0.74761 0
M  V30 5244 C 512.671 1.35007 1.50391 0
M  V30 5245 C 512.992 -0.0574274 1.94915 0
M  V30 5246 O 512.262 -1.00628 1.6808 0
M  V30 5247 H 510.842 0.496784 0.557866 0
M  V30 5248 H 513.504 1.73479 0.888319 0
M  V30 5249 H 512.6 2.00474 2.392 0
M  V30 5250 N 512.901 -0.976442 1.23707 0
M  V30 5251 C 514.178 -1.69296 0.979699 0
M  V30 5252 C 514.558 -2.0508 -0.500555 0
M  V30 5253 O 513.906 -1.74708 -1.47273 0
M  V30 5254 C 514.116 -2.93143 1.89389 0
M  V30 5255 C 515.464 -3.65572 2.15968 0
M  V30 5256 O 516.488 -3.03184 1.86971 0
M  V30 5257 O 515.347 -4.77859 2.65167 0
M  V30 5258 H 512.441 -0.739708 0.369812 0
M  V30 5259 H 514.987 -1.03131 1.34767 0
M  V30 5260 H 513.759 -2.63327 2.89439 0
M  V30 5261 H 513.382 -3.67044 1.52854 0
M  V30 5262 N 514.379 -1.04941 -1.1758 0
M  V30 5263 C 515.625 -0.759112 -1.88057 0
M  V30 5264 C 515.958 0.711918 -1.8068 0
M  V30 5265 O 515.233 1.52035 -1.21308 0
M  V30 5266 C 515.516 -1.237 -3.38187 0
M  V30 5267 C 515.369 -2.77078 -3.54327 0
M  V30 5268 C 516.688 -0.834014 -4.32125 0
M  V30 5269 H 513.807 -0.277237 -0.682868 0
M  V30 5270 H 516.449 -1.30296 -1.38286 0
M  V30 5271 H 514.599 -0.774337 -3.80705 0
M  V30 5272 H 516.271 -3.31449 -3.20842 0
M  V30 5273 H 514.514 -3.16477 -2.96689 0
M  V30 5274 H 515.185 -3.05577 -4.59703 0
M  V30 5275 H 517.661 -1.23228 -3.97434 0
M  V30 5276 H 516.537 -1.19603 -5.35711 0
M  V30 5277 H 516.798 0.262195 -4.41322 0
M  V30 5278 N 515.857 1.33968 -0.830081 0
M  V30 5279 C 517.103 1.98357 -0.422191 0
M  V30 5280 C 517.436 1.65633 1.01387 0
M  V30 5281 O 516.711 0.931648 1.70735 0
M  V30 5282 C 516.994 3.54492 -0.633043 0
M  V30 5283 C 516.847 3.96934 -2.11574 0
M  V30 5284 C 518.166 4.40039 -0.0735584 0
M  V30 5285 H 515.285 0.720544 -0.154871 0
M  V30 5286 H 517.927 1.58749 -1.04397 0
M  V30 5287 H 516.077 3.88361 -0.103775 0
M  V30 5288 H 517.749 3.73363 -2.7092 0
M  V30 5289 H 515.992 3.46984 -2.60354 0
M  V30 5290 H 516.663 5.05651 -2.21406 0
M  V30 5291 H 519.139 4.12764 -0.52585 0
M  V30 5292 H 518.015 5.48327 -0.250841 0
M  V30 5293 H 518.276 4.30124 1.02202 0
M  V30 5294 N 517.335 0.585699 1.46312 0
M  V30 5295 C 518.751 0.247607 1.57668 0
M  V30 5296 C 518.951 -1.25007 1.58037 0
M  V30 5297 O 518.007 -2.03196 1.49893 0
M  V30 5298 C 519.32 0.899456 2.86933 0
M  V30 5299 C 520.868 0.873326 3.00569 0
M  V30 5300 C 521.343 1.50477 4.32574 0
M  V30 5301 N 522.834 1.46925 4.3928 0
M  V30 5302 C 523.569 1.92719 5.40044 0
M  V30 5303 N 523.065 2.46499 6.47464 0
M  V30 5304 N 524.858 1.83617 5.31264 0
M  V30 5305 H 517.009 1.55841 1.44317 0
M  V30 5306 H 519.272 0.651564 0.688599 0
M  V30 5307 H 518.978 1.95313 2.92482 0
M  V30 5308 H 518.852 0.409476 3.74971 0
M  V30 5309 H 521.239 -0.171736 2.946 0
M  V30 5310 H 521.32 1.40136 2.13999 0
M  V30 5311 H 520.964 2.54905 4.39302 0
M  V30 5312 H 520.894 0.951944 5.17924 0
M  V30 5313 H 523.385 1.07616 3.62253 0
M  V30 5314 H 523.698 2.79291 7.20567 0
M  V30 5315 H 522.043 2.50526 6.48276 0
M  V30 5316 H 525.234 1.41358 4.46246 0
M  V30 5317 H 525.407 2.19622 6.09648 0
M  V30 5318 N 518.813 -1.54241 0.323641 0
M  V30 5319 C 519.776 -2.22997 -0.529602 0
M  V30 5320 C 520.776 -1.22345 -1.04347 0
M  V30 5321 O 521.966 -1.46924 -0.935889 0
M  V30 5322 C 519.098 -2.93409 -1.73562 0
M  V30 5323 H 520.291 -2.99815 0.0714518 0
M  V30 5324 H 517.844 -1.56121 0.0747258 0
M  V30 5325 H 518.579 -2.20729 -2.37591 0
M  V30 5326 H 518.364 -3.67217 -1.37456 0
M  V30 5327 H 519.854 -3.45794 -2.34128 0
M  V30 5328 N 520.291 -0.0518155 -1.57515 0
M  V30 5329 C 521.238 0.922352 -2.11569 0
M  V30 5330 C 522.208 1.30842 -1.02321 0
M  V30 5331 O 523.393 1.39778 -1.29872 0
M  V30 5332 C 520.533 2.19167 -2.6657 0
M  V30 5333 C 519.646 1.86003 -3.89906 0
M  V30 5334 C 518.781 3.07398 -4.33221 0
M  V30 5335 C 517.82 2.70158 -5.49255 0
M  V30 5336 N 516.957 3.84248 -5.8762 0
M  V30 5337 H 521.797 0.454506 -2.94514 0
M  V30 5338 H 519.334 0.212718 -1.45554 0
M  V30 5339 H 521.292 2.93443 -2.96559 0
M  V30 5340 H 519.922 2.63528 -1.86421 0
M  V30 5341 H 518.974 1.01874 -3.66505 0
M  V30 5342 H 520.286 1.54592 -4.74239 0
M  V30 5343 H 519.44 3.89972 -4.64765 0
M  V30 5344 H 518.179 3.41988 -3.477 0
M  V30 5345 H 517.184 1.86001 -5.17382 0
M  V30 5346 H 518.409 2.36759 -6.36492 0
M  V30 5347 H 516.355 4.18638 -5.05053 0
M  V30 5348 H 516.272 3.56538 -6.66646 0
M  V30 5349 H 517.54 4.6746 -6.2378 0
M  V30 5350 N 521.769 1.56035 0.221574 0
M  V30 5351 C 522.717 1.93269 1.29421 0
M  V30 5352 C 523.711 0.814727 1.48521 0
M  V30 5353 O 524.917 0.999559 1.49696 0
M  V30 5354 H 521.292 0.614188 0.43391 0
M  V30 5355 H 523.263 2.82773 0.952987 0
M  V30 5356 C 522.012 2.26573 2.63742 0
M  V30 5357 H 521.335 3.12112 2.49853 0
M  V30 5358 H 522.775 2.5651 3.37607 0
M  V30 5359 C 521.234 1.09086 3.1875 0
M  V30 5360 O 521.764 0.351985 4.00155 0
M  V30 5361 N 519.97 0.874693 2.77124 0
M  V30 5362 H 519.517 1.47726 2.11033 0
M  V30 5363 H 519.475 0.0903349 3.1427 0
M  V30 5364 N 523.247 -0.488276 1.49845 0
M  V30 5365 C 524.495 -1.23911 1.59657 0
M  V30 5366 C 524.816 -1.92816 0.291005 0
M  V30 5367 O 524.086 -1.83328 -0.690485 0
M  V30 5368 H 522.666 -0.460357 0.588286 0
M  V30 5369 H 525.328 -0.564794 1.86537 0
M  V30 5370 H 524.424 -1.99625 2.39909 0
M  V30 5371 N 524.725 -1.39134 -0.740242 0
M  V30 5372 C 525.672 -1.37434 -1.8542 0
M  V30 5373 C 526.642 -0.234822 -1.64432 0
M  V30 5374 O 527.827 -0.429125 -1.85912 0
M  V30 5375 C 524.967 -1.21844 -3.22875 0
M  V30 5376 C 524.08 -2.45296 -3.55603 0
M  V30 5377 C 523.215 -2.22334 -4.82432 0
M  V30 5378 C 522.254 -3.41488 -5.07988 0
M  V30 5379 N 521.391 -3.17877 -6.26018 0
M  V30 5380 H 526.231 -2.3266 -1.86207 0
M  V30 5381 H 523.768 -1.15578 -0.909946 0
M  V30 5382 H 525.726 -1.10818 -4.02213 0
M  V30 5383 H 524.356 -0.3025 -3.21379 0
M  V30 5384 H 523.408 -2.66945 -2.71006 0
M  V30 5385 H 524.72 -3.34063 -3.7041 0
M  V30 5386 H 523.874 -2.0852 -5.69741 0
M  V30 5387 H 522.613 -1.30954 -4.6979 0
M  V30 5388 H 521.618 -3.55807 -4.19144 0
M  V30 5389 H 522.843 -4.33763 -5.22519 0
M  V30 5390 H 520.789 -2.29156 -6.14673 0
M  V30 5391 H 520.706 -4.00198 -6.41387 0
M  V30 5392 H 521.974 -3.07746 -7.16179 0
M  V30 5393 N 526.204 0.969867 -1.24223 0
M  V30 5394 C 527.432 1.74756 -1.10761 0
M  V30 5395 C 527.847 1.85713 0.340041 0
M  V30 5396 O 527.204 1.34389 1.23474 0
M  V30 5397 C 527.255 3.16915 -1.73917 0
M  V30 5398 O 526.976 3.06511 -3.13021 0
M  V30 5399 C 528.477 4.11032 -1.66036 0
M  V30 5400 H 525.697 0.548092 -0.387087 0
M  V30 5401 H 528.241 1.2178 -1.64286 0
M  V30 5402 H 526.396 3.66884 -1.244 0
M  V30 5403 H 526.81 3.96079 -3.43834 0
M  V30 5404 H 528.284 5.08446 -2.14911 0
M  V30 5405 H 528.761 4.34785 -0.621159 0
M  V30 5406 H 529.367 3.66972 -2.14969 0
M  V30 5407 N 527.682 1.05563 1.17022 0
M  V30 5408 C 528.931 0.763036 1.8671 0
M  V30 5409 C 529.244 -0.712857 1.82147 0
M  V30 5410 O 530.45 -1.11955 2.47343 0
M  V30 5411 C 528.906 1.31474 3.35026 0
M  V30 5412 C 528.514 2.82034 3.48081 0
M  V30 5413 C 530.258 1.09935 4.10018 0
M  V30 5414 C 528.165 3.30486 4.90442 0
M  V30 5415 H 527.095 0.281747 0.699382 0
M  V30 5416 H 529.746 1.2734 1.32124 0
M  V30 5417 H 528.128 0.732171 3.89173 0
M  V30 5418 H 529.302 3.46178 3.04133 0
M  V30 5419 H 527.617 3.02156 2.86515 0
M  V30 5420 H 530.214 1.43632 5.15048 0
M  V30 5421 H 530.557 0.0373072 4.16283 0
M  V30 5422 H 531.09 1.64732 3.62089 0
M  V30 5423 H 527.829 4.36137 4.89352 0
M  V30 5424 H 527.349 2.71086 5.35044 0
M  V30 5425 H 529.028 3.25382 5.59227 0
M  V30 5426 N 529.16 -1.33526 0.837174 0
M  V30 5427 C 530.092 -2.28077 0.226579 0
M  V30 5428 C 531.105 -1.51666 -0.591717 0
M  V30 5429 O 532.294 -1.73511 -0.419064 0
M  V30 5430 C 529.394 -3.31597 -0.69978 0
M  V30 5431 C 528.567 -4.37329 0.0788067 0
M  V30 5432 C 527.626 -5.20526 -0.770637 0
M  V30 5433 O 526.652 -5.68811 -0.210453 0
M  V30 5434 N 527.854 -5.41639 -2.08825 0
M  V30 5435 H 530.619 -2.81115 1.03897 0
M  V30 5436 H 528.18 -1.46201 0.695476 0
M  V30 5437 H 530.172 -3.84158 -1.27298 0
M  V30 5438 H 528.742 -2.78848 -1.41288 0
M  V30 5439 H 527.962 -3.8529 0.833381 0
M  V30 5440 H 529.25 -5.05079 0.614238 0
M  V30 5441 H 528.648 -5.04108 -2.56693 0
M  V30 5442 H 527.205 -5.97263 -2.60998 0
M  V30 5443 N 530.638 -0.59345 -1.46 0
M  V30 5444 C 531.884 -0.0832754 -2.02629 0
M  V30 5445 C 532.217 1.27749 -1.46266 0
M  V30 5446 O 531.492 1.8395 -0.631866 0
M  V30 5447 C 531.775 -0.0290756 -3.60088 0
M  V30 5448 C 531.628 -1.41951 -4.26814 0
M  V30 5449 C 532.947 0.666055 -4.35031 0
M  V30 5450 H 530.066 -0.031736 -0.736316 0
M  V30 5451 H 532.708 -0.762711 -1.74019 0
M  V30 5452 H 530.858 0.549532 -3.84594 0
M  V30 5453 H 532.53 -2.04411 -4.13538 0
M  V30 5454 H 530.773 -1.98422 -3.8576 0
M  V30 5455 H 531.444 -1.33395 -5.3564 0
M  V30 5456 H 533.92 0.174401 -4.15734 0
M  V30 5457 H 532.796 0.673041 -5.44758 0
M  V30 5458 H 533.057 1.72946 -4.06869 0
M  V30 5459 N 532.116 1.54067 -0.331816 0
M  V30 5460 C 533.393 1.92915 0.322955 0
M  V30 5461 C 533.773 1.26225 1.69205 0
M  V30 5462 O 533.121 0.408919 2.24811 0
M  V30 5463 C 533.331 3.46619 0.406946 0
M  V30 5464 C 534.679 4.19386 0.663339 0
M  V30 5465 O 535.703 3.5282 0.489536 0
M  V30 5466 O 534.562 5.37288 0.999193 0
M  V30 5467 H 531.656 0.805808 0.186016 0
M  V30 5468 H 534.202 1.65342 -0.382135 0
M  V30 5469 H 532.974 3.87354 -0.554287 0
M  V30 5470 H 532.597 3.80324 1.15929 0
M  V30 5471 N 533.594 0.0601682 1.57485 0
M  V30 5472 C 534.542 -0.928899 2.13247 0
M  V30 5473 C 535.536 -1.31616 1.06647 0
M  V30 5474 O 536.742 -1.29476 1.25043 0
M  V30 5475 H 533.117 -0.317455 0.681708 0
M  V30 5476 H 535.088 -0.433566 2.95233 0
M  V30 5477 C 533.837 -2.19121 2.69965 0
M  V30 5478 H 533.16 -1.90204 3.51657 0
M  V30 5479 H 534.6 -2.86465 3.12592 0
M  V30 5480 C 533.059 -2.94195 1.64168 0
M  V30 5481 O 533.589 -3.87468 1.05978 0
M  V30 5482 N 531.795 -2.57089 1.35476 0
M  V30 5483 H 531.342 -1.81314 1.82984 0
M  V30 5484 H 531.3 -3.07624 0.649196 0
M  V30 5485 N 535.072 -1.5615 -0.213296 0
M  V30 5486 C 536.3 -1.83638 -0.953139 0
M  V30 5487 C 536.715 -0.640362 -1.77609 0
M  V30 5488 O 536.072 0.391071 -1.78261 0
M  V30 5489 C 536.123 -3.09735 -1.86405 0
M  V30 5490 O 535.844 -4.24723 -1.07435 0
M  V30 5491 C 537.345 -3.5027 -2.71709 0
M  V30 5492 H 534.565 -0.610263 -0.278962 0
M  V30 5493 H 537.109 -2.03247 -0.226035 0
M  V30 5494 H 535.264 -2.92077 -2.545 0
M  V30 5495 H 535.678 -4.9641 -1.69343 0
M  V30 5496 H 537.152 -4.41515 -3.31313 0
M  V30 5497 H 537.629 -2.72406 -3.44516 0
M  V30 5498 H 538.235 -3.70396 -2.09015 0
M  V30 5499 N 536.55 0.480323 -1.50102 0
M  V30 5500 C 537.827 1.24159 -1.51142 0
M  V30 5501 C 538.207 2.09605 -0.250818 0
M  V30 5502 O 537.555 2.15274 0.766118 0
M  V30 5503 C 537.765 2.08057 -2.80202 0
M  V30 5504 C 539.113 2.66556 -3.30504 0
M  V30 5505 O 540.137 2.18308 -2.81461 0
M  V30 5506 O 538.996 3.54442 -4.15973 0
M  V30 5507 H 536.09 0.562928 -0.605839 0
M  V30 5508 H 538.636 0.492899 -1.62384 0
M  V30 5509 H 537.408 1.45032 -3.6343 0
M  V30 5510 H 537.031 2.90079 -2.71919 0
M  V30 5511 N 538.028 1.39524 0.732853 0
M  V30 5512 C 538.991 1.38189 1.82857 0
M  V30 5513 C 539.991 0.278624 1.58368 0
M  V30 5514 O 541.181 0.536639 1.65728 0
M  V30 5515 C 538.313 1.15661 3.2068 0
M  V30 5516 H 539.506 2.35692 1.85444 0
M  V30 5517 H 537.059 1.2512 0.936728 0
M  V30 5518 H 537.794 0.188482 3.23752 0
M  V30 5519 H 537.579 1.95559 3.39852 0
M  V30 5520 H 539.069 1.17472 4.00737 0
M  V30 5521 N 539.506 -0.963266 1.24736 0
M  V30 5522 C 540.416 -2.09246 1.06082 0
M  V30 5523 C 541.432 -1.74 0.000363101 0
M  V30 5524 O 542.608 -2.0041 0.199479 0
M  V30 5525 C 539.673 -3.40115 0.672498 0
M  V30 5526 C 538.734 -3.89282 1.80993 0
M  V30 5527 C 537.967 -5.13905 1.44004 0
M  V30 5528 O 538.19 -5.69434 0.331835 0
M  V30 5529 O 537.124 -5.57566 2.26723 0
M  V30 5530 H 540.95 -2.27881 2.00759 0
M  V30 5531 H 538.535 -1.07649 1.03595 0
M  V30 5532 H 540.417 -4.18797 0.467668 0
M  V30 5533 H 539.092 -3.22771 -0.245102 0
M  V30 5534 H 537.999 -3.11642 2.06955 0
M  V30 5535 H 539.332 -4.1111 2.70646 0
M  V30 5536 N 540.985 -1.06182 -1.16461 0
M  V30 5537 C 542.233 -0.776326 -1.86595 0
M  V30 5538 C 542.554 0.69921 -1.82033 0
M  V30 5539 O 541.824 1.50579 -1.2531 0
M  V30 5540 H 540.404 -0.284184 -0.690832 0
M  V30 5541 H 543.066 -1.34308 -1.41235 0
M  V30 5542 H 542.162 -1.10022 -2.92064 0
M  V30 5543 N 542.463 1.3308 -0.844243 0
M  V30 5544 C 543.879 1.50447 -0.532729 0
M  V30 5545 C 544.079 1.78292 0.938837 0
M  V30 5546 O 543.135 1.84635 1.72239 0
M  V30 5547 C 544.448 2.65555 -1.41072 0
M  V30 5548 C 545.996 2.7944 -1.41005 0
M  V30 5549 C 546.471 3.97616 -2.27301 0
M  V30 5550 N 547.962 4.0486 -2.2504 0
M  V30 5551 C 548.697 4.95508 -2.88547 0
M  V30 5552 N 548.193 5.91236 -3.61126 0
M  V30 5553 N 549.986 4.88548 -2.77989 0
M  V30 5554 H 542.137 1.13269 -1.79677 0
M  V30 5555 H 544.4 0.55734 -0.766861 0
M  V30 5556 H 544.106 2.51675 -2.45668 0
M  V30 5557 H 543.98 3.61089 -1.09061 0
M  V30 5558 H 546.367 2.92749 -0.371784 0
M  V30 5559 H 546.448 1.8465 -1.77026 0
M  V30 5560 H 546.092 3.85066 -3.3119 0
M  V30 5561 H 546.022 4.91661 -1.88619 0
M  V30 5562 H 548.513 3.36353 -1.72264 0
M  V30 5563 H 548.826 6.57079 -4.06776 0
M  V30 5564 H 547.171 5.91295 -3.65234 0
M  V30 5565 H 550.362 4.12729 -2.20846 0
M  V30 5566 H 550.535 5.58994 -3.27765 0
M  V30 5567 N 543.941 0.601185 1.45683 0
M  V30 5568 C 544.871 -0.108824 2.33246 0
M  V30 5569 C 545.852 -0.865223 1.46451 0
M  V30 5570 O 547.037 -0.83704 1.75235 0
M  V30 5571 C 544.167 -1.11101 3.2905 0
M  V30 5572 C 543.121 -0.468244 4.25431 0
M  V30 5573 C 542.447 -1.57822 5.10878 0
M  V30 5574 C 543.747 0.606469 5.18767 0
M  V30 5575 H 545.441 0.622306 2.92861 0
M  V30 5576 H 542.987 0.300714 1.40825 0
M  V30 5577 H 544.94 -1.61622 3.89174 0
M  V30 5578 H 543.664 -1.87265 2.67581 0
M  V30 5579 H 542.323 0.0160484 3.66596 0
M  V30 5580 H 541.971 -2.32998 4.45781 0
M  V30 5581 H 541.671 -1.15369 5.76163 0
M  V30 5582 H 543.195 -2.08583 5.73869 0
M  V30 5583 H 544.609 0.185589 5.73 0
M  V30 5584 H 543.006 0.952381 5.92494 0
M  V30 5585 H 544.076 1.48559 4.61582 0
M  V30 5586 N 545.419 -1.53889 0.339982 0
M  V30 5587 C 546.668 -2.00035 -0.258604 0
M  V30 5588 C 546.981 -1.23179 -1.51942 0
M  V30 5589 O 548.187 -1.59784 -2.19503 0
M  V30 5590 C 546.643 -3.56249 -0.511359 0
M  V30 5591 C 546.251 -4.41957 0.733349 0
M  V30 5592 C 547.995 -4.1082 -1.069 0
M  V30 5593 C 545.902 -5.89673 0.451591 0
M  V30 5594 H 544.832 -0.747284 -0.10041 0
M  V30 5595 H 547.483 -1.77776 0.454758 0
M  V30 5596 H 545.865 -3.7456 -1.28533 0
M  V30 5597 H 547.039 -4.35421 1.50815 0
M  V30 5598 H 545.354 -3.9836 1.21237 0
M  V30 5599 H 547.951 -5.18789 -1.2947 0
M  V30 5600 H 548.294 -3.63817 -2.02343 0
M  V30 5601 H 548.827 -3.96205 -0.355817 0
M  V30 5602 H 545.566 -6.40903 1.37565 0
M  V30 5603 H 545.086 -5.99122 -0.285193 0
M  V30 5604 H 546.765 -6.46965 0.0675067 0
M  V30 5605 N 546.897 -0.0685191 -1.57451 0
M  V30 5606 C 547.827 0.89747 -2.15564 0
M  V30 5607 C 548.808 1.31266 -1.08181 0
M  V30 5608 O 549.993 1.38429 -1.36202 0
M  V30 5609 C 547.123 2.16623 -2.71463 0
M  V30 5610 C 546.077 1.89054 -3.83982 0
M  V30 5611 C 545.403 3.22532 -4.26471 0
M  V30 5612 C 546.703 1.1984 -5.08366 0
M  V30 5613 H 548.397 0.413373 -2.96533 0
M  V30 5614 H 545.943 0.197391 -1.42641 0
M  V30 5615 H 547.896 2.84614 -3.10761 0
M  V30 5616 H 546.62 2.67269 -1.8771 0
M  V30 5617 H 545.279 1.23469 -3.45183 0
M  V30 5618 H 544.927 3.71013 -3.39644 0
M  V30 5619 H 544.627 3.04879 -5.02317 0
M  V30 5620 H 546.151 3.91727 -4.68383 0
M  V30 5621 H 547.565 1.77896 -5.45001 0
M  V30 5622 H 545.962 1.12456 -5.89469 0
M  V30 5623 H 547.032 0.176996 -4.84577 0
M  V30 5624 N 548.375 1.56261 0.205012 0
M  V30 5625 C 549.338 1.92908 1.23771 0
M  V30 5626 C 550.338 0.809208 1.38955 0
M  V30 5627 O 551.528 1.07676 1.36936 0
M  V30 5628 C 548.66 2.19442 2.60879 0
M  V30 5629 H 549.853 2.85287 0.924728 0
M  V30 5630 H 547.406 1.49798 0.446125 0
M  V30 5631 H 548.141 1.29668 2.97248 0
M  V30 5632 H 547.926 3.0104 2.51232 0
M  V30 5633 H 549.416 2.48833 3.35368 0
M  V30 5634 N 549.853 -0.472356 1.50355 0
M  V30 5635 C 551.13 -1.23356 1.51798 0
M  V30 5636 C 551.51 -2.09469 0.26193 0
M  V30 5637 O 550.858 -2.15677 -0.754691 0
M  V30 5638 C 551.068 -2.06568 2.81302 0
M  V30 5639 C 552.416 -2.648 3.31913 0
M  V30 5640 O 553.44 -2.16812 2.82614 0
M  V30 5641 O 552.299 -3.52231 4.17846 0
M  V30 5642 H 549.393 -0.559707 0.608816 0
M  V30 5643 H 551.939 -0.48428 1.62643 0
M  V30 5644 H 550.711 -1.43103 3.64194 0
M  V30 5645 H 550.334 -2.88633 2.73454 0
M  V30 5646 N 551.331 -1.39911 -0.725443 0
M  V30 5647 C 552.294 -1.39156 -1.82121 0
M  V30 5648 C 553.294 -0.287018 -1.58218 0
M  V30 5649 O 554.484 -0.545421 -1.65441 0
M  V30 5650 C 551.616 -1.1736 -3.20062 0
M  V30 5651 H 552.809 -2.36672 -1.84191 0
M  V30 5652 H 550.362 -1.25615 -0.930079 0
M  V30 5653 H 551.097 -0.205648 -3.23647 0
M  V30 5654 H 550.882 -1.97358 -3.3881 0
M  V30 5655 H 552.372 -1.19596 -4.00108 0
M  V30 5656 N 552.809 0.956637 -1.25245 0
M  V30 5657 C 553.739 2.07058 -1.07931 0
M  V30 5658 C 554.72 1.70096 0.0110361 0
M  V30 5659 O 555.905 1.93555 -0.158121 0
M  V30 5660 C 553.035 3.40272 -0.695124 0
M  V30 5661 C 551.989 3.91235 -1.73549 0
M  V30 5662 C 551.315 5.20921 -1.20604 0
M  V30 5663 C 552.615 4.17837 -3.13385 0
M  V30 5664 H 554.309 2.218 -2.01109 0
M  V30 5665 H 551.855 1.06581 -0.968326 0
M  V30 5666 H 553.808 4.1765 -0.560949 0
M  V30 5667 H 552.532 3.25462 0.272355 0
M  V30 5668 H 551.191 3.16025 -1.85807 0
M  V30 5669 H 550.839 5.02479 -0.228846 0
M  V30 5670 H 550.539 5.55987 -1.90136 0
M  V30 5671 H 552.063 6.00897 -1.08421 0
M  V30 5672 H 553.477 4.8588 -3.04292 0
M  V30 5673 H 551.874 4.64154 -3.80369 0
M  V30 5674 H 552.944 3.2419 -3.60595 0
M  V30 5675 N 554.287 1.06798 1.15896 0
M  V30 5676 C 555.527 0.797041 1.8822 0
M  V30 5677 C 555.891 -0.664549 1.80133 0
M  V30 5678 O 557.092 -1.0503 2.47431 0
M  V30 5679 C 555.363 1.28431 3.33527 0
M  V30 5680 S 556.922 1.14319 4.23647 0
M  V30 5681 H 553.74 0.288988 0.649621 0
M  V30 5682 H 556.342 1.36594 1.39865 0
M  V30 5683 H 555.046 2.34286 3.36954 0
M  V30 5684 H 554.577 0.710371 3.86933 0
M  V30 5685 H 556.592 0.0772467 4.9614 0
M  V30 5686 N 555.766 -1.3263 0.851289 0
M  V30 5687 C 556.996 -2.01271 0.466222 0
M  V30 5688 C 557.404 -1.64156 -0.940714 0
M  V30 5689 O 556.747 -0.857109 -1.62479 0
M  V30 5690 C 556.809 -3.55695 0.521672 0
M  V30 5691 C 556.473 -4.16227 1.88691 0
M  V30 5692 C 557.47 -4.34699 2.85189 0
M  V30 5693 C 555.155 -4.52377 2.18313 0
M  V30 5694 C 557.149 -4.88484 4.09465 0
M  V30 5695 C 554.836 -5.05868 3.42843 0
M  V30 5696 C 555.834 -5.23869 4.38235 0
M  V30 5697 O 555.522 -5.76218 5.6056 0
M  V30 5698 H 555.254 -0.651034 0.18202 0
M  V30 5699 H 557.808 -1.7026 1.14894 0
M  V30 5700 H 556.038 -3.86086 -0.217888 0
M  V30 5701 H 557.727 -4.05613 0.152682 0
M  V30 5702 H 558.493 -4.07107 2.63607 0
M  V30 5703 H 554.372 -4.37652 1.44851 0
M  V30 5704 H 557.916 -5.02451 4.83931 0
M  V30 5705 H 553.813 -5.32891 3.64277 0
M  V30 5706 H 554.581 -5.94616 5.62471 0
M  V30 5707 N 557.244 -0.608902 -1.45362 0
M  V30 5708 C 558.207 0.0992563 -2.28985 0
M  V30 5709 C 559.207 0.793841 -1.39838 0
M  V30 5710 O 560.397 0.641804 -1.61946 0
M  V30 5711 C 557.529 1.15073 -3.20891 0
M  V30 5712 H 558.722 -0.635964 -2.93079 0
M  V30 5713 H 556.275 -0.368007 -1.51906 0
M  V30 5714 H 557.01 1.91667 -2.616 0
M  V30 5715 H 556.795 0.656867 -3.86559 0
M  V30 5716 H 558.285 1.64665 -3.83765 0
M  V30 5717 N 558.722 1.53707 -0.348139 0
M  V30 5718 C 559.672 2.2193 0.522592 0
M  V30 5719 C 560.656 1.20831 1.06248 0
M  V30 5720 O 561.848 1.46357 0.995415 0
M  V30 5721 C 558.977 2.99904 1.6707 0
M  V30 5722 C 558.063 4.08364 1.14454 0
M  V30 5723 N 558.454 5.04656 0.339958 0
M  V30 5724 C 556.752 4.22757 1.421 0
M  V30 5725 C 557.453 5.81675 0.0538806 0
M  V30 5726 N 556.429 5.39739 0.646776 0
M  V30 5727 H 560.231 2.93733 -0.099135 0
M  V30 5728 H 557.745 1.61656 -0.15524 0
M  V30 5729 H 559.742 3.47284 2.30651 0
M  V30 5730 H 558.402 2.29629 2.29566 0
M  V30 5731 H 559.413 5.17896 -0.0193552 0
M  V30 5732 H 556.09 3.63704 2.05002 0
M  V30 5733 H 557.48 6.69256 -0.595443 0
M  V30 5734 N 560.2 0.0768682 1.57412 0
M  V30 5735 C 561.428 -0.59997 1.9801 0
M  V30 5736 C 561.843 -1.62842 0.955408 0
M  V30 5737 O 561.2 -1.8241 -0.057314 0
M  V30 5738 C 561.251 -1.26401 3.38681 0
M  V30 5739 O 560.972 -0.276723 4.37225 0
M  V30 5740 C 562.473 -2.0282 3.94182 0
M  V30 5741 H 559.693 -0.162239 0.651091 0
M  V30 5742 H 562.237 0.150771 2.03943 0
M  V30 5743 H 560.392 -1.96581 3.33819 0
M  V30 5744 H 560.806 -0.753744 5.19056 0
M  V30 5745 H 562.28 -2.44667 4.94815 0
M  V30 5746 H 562.757 -2.88678 3.31001 0
M  V30 5747 H 563.363 -1.37496 4.02461 0
M  V30 5748 N 561.678 -1.56367 -0.196722 0
M  V30 5749 C 562.925 -1.80529 -0.917366 0
M  V30 5750 C 563.253 -0.649817 -1.83324 0
M  V30 5751 O 562.508 0.36451 -1.92275 0
M  V30 5752 C 562.807 -3.10663 -1.767 0
M  V30 5753 C 562.473 -4.3962 -1.00225 0
M  V30 5754 C 561.135 -4.74653 -0.791095 0
M  V30 5755 C 563.487 -5.1913 -0.464035 0
M  V30 5756 C 560.815 -5.86692 -0.0302155 0
M  V30 5757 C 563.167 -6.31964 0.283625 0
M  V30 5758 C 561.831 -6.65581 0.505813 0
M  V30 5759 H 561.101 -0.660602 -0.335688 0
M  V30 5760 H 563.748 -1.90615 -0.183844 0
M  V30 5761 H 562.053 -2.95807 -2.56915 0
M  V30 5762 H 563.75 -3.26563 -2.32718 0
M  V30 5763 H 560.34 -4.12127 -1.17684 0
M  V30 5764 H 564.524 -4.9248 -0.614575 0
M  V30 5765 H 559.78 -6.11211 0.151917 0
M  V30 5766 H 563.954 -6.92791 0.708057 0
M  V30 5767 H 561.581 -7.52239 1.0973 0
M  V30 5768 N 563.156 0.464375 -1.50603 0
M  V30 5769 C 564.104 1.58224 -1.70493 0
M  V30 5770 C 565.098 1.59492 -0.570836 0
M  V30 5771 O 566.304 1.63561 -0.751517 0
M  V30 5772 H 562.679 0.525161 -0.538247 0
M  V30 5773 H 564.65 1.38613 -2.64252 0
M  V30 5774 C 563.399 2.96113 -1.82243 0
M  V30 5775 H 562.722 2.95858 -2.68901 0
M  V30 5776 H 564.162 3.73769 -2.00182 0
M  V30 5777 C 562.621 3.31946 -0.575628 0
M  V30 5778 O 563.151 4.00708 0.282152 0
M  V30 5779 N 561.357 2.87436 -0.427665 0
M  V30 5780 H 560.904 2.31652 -1.12674 0
M  V30 5781 H 560.862 3.11776 0.405379 0
M  V30 5782 N 564.634 1.40294 0.718013 0
M  V30 5783 C 566.045 1.34289 1.29705 0
M  V30 5784 C 566.396 0.0152228 1.96194 0
M  V30 5785 O 565.521 -0.88682 1.97394 0
M  V30 5786 C 566.116 2.43219 2.3586 0
M  V30 5787 C 564.675 2.40682 2.89394 0
M  V30 5788 C 563.822 2.24223 1.63154 0
M  V30 5789 H 566.773 1.50135 0.514312 0
M  V30 5790 H 566.794 2.10986 3.16647 0
M  V30 5791 H 566.306 3.39836 1.87439 0
M  V30 5792 H 564.407 1.47756 3.42051 0
M  V30 5793 H 564.52 3.36177 3.41353 0
M  V30 5794 H 562.884 1.71696 1.88129 0
M  V30 5795 H 563.667 3.22834 1.16761 0
M  V30 5796 N 566.112 -0.949982 1.2575 0
M  V30 5797 C 567.059 -2.04738 1.06541 0
M  V30 5798 C 568.029 -1.66078 -0.0268818 0
M  V30 5799 O 569.214 -1.90348 0.131196 0
M  V30 5800 C 566.354 -3.38027 0.695127 0
M  V30 5801 C 565.467 -3.89776 1.86276 0
M  V30 5802 C 564.602 -5.11411 1.4364 0
M  V30 5803 C 563.641 -5.554 2.57287 0
M  V30 5804 N 562.778 -6.68244 2.15395 0
M  V30 5805 H 567.618 -2.20502 2.00457 0
M  V30 5806 H 565.155 -1.0805 0.998178 0
M  V30 5807 H 567.113 -4.14641 0.461375 0
M  V30 5808 H 565.743 -3.22135 -0.207046 0
M  V30 5809 H 564.795 -3.0964 2.20969 0
M  V30 5810 H 566.107 -4.18368 2.71606 0
M  V30 5811 H 565.261 -5.95457 1.16257 0
M  V30 5812 H 564 -4.84545 0.553879 0
M  V30 5813 H 563.005 -4.69916 2.85409 0
M  V30 5814 H 564.23 -5.84272 3.46125 0
M  V30 5815 H 562.176 -6.43078 1.29565 0
M  V30 5816 H 562.093 -6.96377 2.94272 0
M  V30 5817 H 563.361 -7.55687 1.91201 0
M  V30 5818 N 567.59 -1.07411 -1.15328 0
M  V30 5819 C 568.836 -0.798831 -1.86404 0
M  V30 5820 C 569.169 0.673433 -1.8215 0
M  V30 5821 O 568.444 1.49428 -1.24505 0
M  V30 5822 C 568.727 -1.30846 -3.35487 0
M  V30 5823 C 568.58 -2.84532 -3.4837 0
M  V30 5824 C 569.899 -0.925486 -4.30259 0
M  V30 5825 H 567.018 -0.291659 -0.676834 0
M  V30 5826 H 569.66 -1.332 -1.35491 0
M  V30 5827 H 567.81 -0.854916 -3.78977 0
M  V30 5828 H 569.482 -3.3818 -3.13739 0
M  V30 5829 H 567.725 -3.22699 -2.8991 0
M  V30 5830 H 568.396 -3.15259 -4.53118 0
M  V30 5831 H 570.872 -1.3163 -3.94731 0
M  V30 5832 H 569.748 -1.3094 -5.33053 0
M  V30 5833 H 570.009 0.168525 -4.41779 0
M  V30 5834 N 569.068 1.32177 -0.85831 0
M  V30 5835 C 570.317 1.96392 -0.459689 0
M  V30 5836 C 570.63 1.68659 0.990632 0
M  V30 5837 O 571.836 2.26641 1.49485 0
M  V30 5838 C 570.292 3.51542 -0.7711 0
M  V30 5839 C 569.9 3.8813 -2.2374 0
M  V30 5840 C 571.644 4.2221 -0.44038 0
M  V30 5841 C 569.551 5.36341 -2.49183 0
M  V30 5842 H 568.481 0.735007 -0.168169 0
M  V30 5843 H 571.132 1.50518 -1.0496 0
M  V30 5844 H 569.514 3.95846 -0.11058 0
M  V30 5845 H 570.688 3.54824 -2.94001 0
M  V30 5846 H 569.003 3.30497 -2.533 0
M  V30 5847 H 571.6 5.31234 -0.607855 0
M  V30 5848 H 571.943 4.11683 0.618291 0
M  V30 5849 H 572.476 3.83502 -1.05695 0
M  V30 5850 H 569.215 5.51892 -3.53689 0
M  V30 5851 H 568.735 5.7104 -1.83504 0
M  V30 5852 H 570.414 6.03466 -2.33318 0
M  V30 5853 N 570.547 0.616602 1.45037 0
M  V30 5854 C 571.477 -0.0840787 2.33349 0
M  V30 5855 C 572.458 -0.849641 1.4736 0
M  V30 5856 O 573.643 -0.818407 1.76113 0
M  V30 5857 C 570.773 -1.07604 3.3021 0
M  V30 5858 C 569.727 -0.423096 4.25904 0
M  V30 5859 C 569.053 -1.52394 5.12523 0
M  V30 5860 C 570.353 0.661457 5.18095 0
M  V30 5861 H 572.047 0.653333 2.92185 0
M  V30 5862 H 569.593 0.315634 1.40498 0
M  V30 5863 H 571.546 -1.57485 3.90866 0
M  V30 5864 H 570.27 -1.84416 2.69552 0
M  V30 5865 H 568.929 0.05493 3.66559 0
M  V30 5866 H 568.577 -2.28257 4.48227 0
M  V30 5867 H 568.277 -1.09251 5.77354 0
M  V30 5868 H 569.801 -2.02485 5.76049 0
M  V30 5869 H 571.215 0.246353 5.7277 0
M  V30 5870 H 569.612 1.01517 5.91451 0
M  V30 5871 H 570.682 1.53446 4.59981 0
M  V30 5872 N 572.025 -1.5352 0.356285 0
M  V30 5873 C 572.973 -2.26945 -0.50978 0
M  V30 5874 C 573.967 -1.29569 -1.09125 0
M  V30 5875 O 575.173 -1.47231 -1.03552 0
M  V30 5876 H 571.548 -0.729368 -0.183102 0
M  V30 5877 H 573.519 -2.98111 0.131374 0
M  V30 5878 C 572.268 -3.06466 -1.64237 0
M  V30 5879 H 571.591 -3.81233 -1.20423 0
M  V30 5880 H 573.031 -3.61035 -2.22327 0
M  V30 5881 C 571.49 -2.16737 -2.57928 0
M  V30 5882 O 572.02 -1.77195 -3.60507 0
M  V30 5883 N 570.226 -1.81558 -2.26903 0
M  V30 5884 H 569.773 -2.13913 -1.43524 0
M  V30 5885 H 569.731 -1.21806 -2.89846 0
M  V30 5886 N 573.503 -0.0852151 -1.57369 0
M  V30 5887 C 574.466 0.8627 -2.12344 0
M  V30 5888 C 575.466 1.21746 -1.05046 0
M  V30 5889 O 576.656 1.14852 -1.30976 0
M  V30 5890 C 573.788 2.1618 -2.63589 0
M  V30 5891 H 574.981 0.385511 -2.97412 0
M  V30 5892 H 572.534 0.163663 -1.55441 0
M  V30 5893 H 573.269 2.68406 -1.82013 0
M  V30 5894 H 573.054 1.91723 -3.4203 0
M  V30 5895 H 574.544 2.84011 -3.06149 0
M  V30 5896 N 574.981 1.5647 0.188427 0
M  V30 5897 C 575.944 1.9421 1.21718 0
M  V30 5898 C 576.944 0.823901 1.38089 0
M  V30 5899 O 578.134 1.09122 1.35787 0
M  V30 5900 C 575.266 2.22197 2.58537 0
M  V30 5901 H 576.459 2.86252 0.894418 0
M  V30 5902 H 574.012 1.50263 0.430211 0
M  V30 5903 H 574.747 1.32814 2.95856 0
M  V30 5904 H 574.532 3.03688 2.48025 0
M  V30 5905 H 576.022 2.52376 3.3271 0
M  V30 5906 N 576.459 -0.456382 1.50847 0
M  V30 5907 C 577.687 -1.23026 1.66349 0
M  V30 5908 C 578.102 -1.85473 0.352868 0
M  V30 5909 O 577.459 -1.69885 -0.666739 0
M  V30 5910 C 577.51 -2.32827 2.76539 0
M  V30 5911 O 577.231 -1.72938 4.02522 0
M  V30 5912 C 578.732 -3.23448 3.03144 0
M  V30 5913 H 575.952 -0.371527 0.558756 0
M  V30 5914 H 578.496 -0.543082 1.97157 0
M  V30 5915 H 576.651 -2.97294 2.48384 0
M  V30 5916 H 577.065 -2.45357 4.63573 0
M  V30 5917 H 578.539 -3.96669 3.83872 0
M  V30 5918 H 579.016 -3.83094 2.14793 0
M  V30 5919 H 579.622 -2.64702 3.32886 0
M  V30 5920 N 577.937 -1.40673 -0.710563 0
M  V30 5921 C 578.867 -1.44095 -1.83736 0
M  V30 5922 C 579.848 -0.301286 -1.67411 0
M  V30 5923 O 581.033 -0.510618 -1.87367 0
M  V30 5924 C 578.163 -1.30773 -3.21738 0
M  V30 5925 C 577.117 -2.42395 -3.52745 0
M  V30 5926 C 576.443 -2.14147 -4.89944 0
M  V30 5927 C 577.743 -3.84738 -3.53234 0
M  V30 5928 H 579.437 -2.38396 -1.81129 0
M  V30 5929 H 576.983 -1.14746 -0.870017 0
M  V30 5930 H 578.936 -1.31783 -4.00264 0
M  V30 5931 H 577.66 -0.329507 -3.24934 0
M  V30 5932 H 576.319 -2.40643 -2.76562 0
M  V30 5933 H 575.967 -1.14703 -4.89747 0
M  V30 5934 H 575.667 -2.88934 -5.11655 0
M  V30 5935 H 577.191 -2.16848 -5.70797 0
M  V30 5936 H 578.605 -3.88286 -4.2179 0
M  V30 5937 H 577.002 -4.59085 -3.86473 0
M  V30 5938 H 578.072 -4.13962 -2.52514 0
M  V30 5939 N 579.415 0.9433 -1.26252 0
M  V30 5940 C 580.643 1.72367 -1.14443 0
M  V30 5941 C 581.058 1.86392 0.300572 0
M  V30 5942 O 580.415 1.36978 1.20596 0
M  V30 5943 C 580.466 3.13155 -1.806 0
M  V30 5944 O 580.187 2.99803 -3.19452 0
M  V30 5945 C 581.688 4.07417 -1.74717 0
M  V30 5946 H 578.908 0.539758 -0.398626 0
M  V30 5947 H 581.452 1.18268 -1.66832 0
M  V30 5948 H 579.607 3.64162 -1.32154 0
M  V30 5949 H 580.021 3.88697 -3.52158 0
M  V30 5950 H 581.495 5.03773 -2.25647 0
M  V30 5951 H 581.972 4.3337 -0.713244 0
M  V30 5952 H 582.578 3.6233 -2.22704 0
M  V30 5953 N 580.893 1.08022 1.14757 0
M  V30 5954 C 582.141 0.805913 1.85336 0
M  V30 5955 C 582.462 -0.670162 1.83122 0
M  V30 5956 O 581.732 -1.48567 1.2769 0
M  V30 5957 H 580.312 0.295138 0.686223 0
M  V30 5958 H 582.974 1.36538 1.3908 0
M  V30 5959 H 582.07 1.14655 2.90277 0
M  V30 5960 N 582.371 -1.3172 0.865308 0
M  V30 5961 C 583.334 -2.26918 0.322627 0
M  V30 5962 C 584.334 -1.52031 -0.523751 0
M  V30 5963 O 585.524 -1.70973 -0.333727 0
M  V30 5964 C 582.656 -3.36558 -0.542338 0
M  V30 5965 H 583.849 -2.76432 1.16298 0
M  V30 5966 H 581.402 -1.42573 0.640512 0
M  V30 5967 H 582.137 -2.92329 -1.40407 0
M  V30 5968 H 581.922 -3.92048 0.0636395 0
M  V30 5969 H 583.412 -4.07465 -0.91446 0
M  V30 5970 N 583.85 -0.624285 -1.44708 0
M  V30 5971 C 584.783 0.133905 -2.27807 0
M  V30 5972 C 585.76 0.857794 -1.38133 0
M  V30 5973 O 586.945 0.863277 -1.6757 0
M  V30 5974 C 584.072 1.19541 -3.16903 0
M  V30 5975 C 583.118 0.572813 -4.22636 0
M  V30 5976 S 583.951 -0.631953 -5.31758 0
M  V30 5977 C 585.106 0.429733 -6.24423 0
M  V30 5978 H 585.34 -0.571072 -2.91764 0
M  V30 5979 H 582.873 -0.412261 -1.48794 0
M  V30 5980 H 584.831 1.80293 -3.68788 0
M  V30 5981 H 583.492 1.87255 -2.5218 0
M  V30 5982 H 582.685 1.37205 -4.84965 0
M  V30 5983 H 582.287 0.0400641 -3.73979 0
M  V30 5984 H 584.579 1.30421 -6.64828 0
M  V30 5985 H 585.522 -0.157804 -7.07924 0
M  V30 5986 H 585.93 0.75256 -5.59461 0
M  V30 5987 N 585.328 1.53329 -0.364422 0
M  V30 5988 C 586.605 1.93557 0.281962 0
M  V30 5989 C 586.985 1.29786 1.6649 0
M  V30 5990 O 586.333 0.456512 2.23893 0
M  V30 5991 C 586.543 3.47405 0.333331 0
M  V30 5992 C 587.891 4.20699 0.574231 0
M  V30 5993 O 588.915 3.53779 0.414588 0
M  V30 5994 O 587.774 5.39287 0.885002 0
M  V30 5995 H 584.868 0.809573 0.168881 0
M  V30 5996 H 587.414 1.64494 -0.417121 0
M  V30 5997 H 586.186 3.86091 -0.636326 0
M  V30 5998 H 585.809 3.82697 1.07836 0
M  V30 5999 N 586.806 0.0935595 1.57322 0
M  V30 6000 C 588.052 -0.571355 1.94585 0
M  V30 6001 C 588.385 -1.67929 0.975366 0
M  V30 6002 O 587.66 -1.94498 0.00816206 0
M  V30 6003 C 587.943 -1.12797 3.41978 0
M  V30 6004 C 587.796 -0.0251881 4.49793 0
M  V30 6005 C 589.115 -2.02682 3.90651 0
M  V30 6006 H 586.234 -0.206223 0.70756 0
M  V30 6007 H 588.876 0.163956 1.89291 0
M  V30 6008 H 587.026 -1.75461 3.4662 0
M  V30 6009 H 588.698 0.608979 4.57263 0
M  V30 6010 H 586.941 0.641399 4.29032 0
M  V30 6011 H 587.612 -0.455433 5.50118 0
M  V30 6012 H 590.088 -1.49925 3.88152 0
M  V30 6013 H 588.964 -2.38555 4.94351 0
M  V30 6014 H 589.225 -2.94362 3.29854 0
M  V30 6015 N 588.284 -1.56567 -0.180126 0
M  V30 6016 C 589.247 -1.94852 -1.20686 0
M  V30 6017 C 590.247 -0.831212 -1.3765 0
M  V30 6018 O 591.437 -1.09841 -1.35206 0
M  V30 6019 C 588.569 -2.23565 -2.57355 0
M  V30 6020 H 589.762 -2.86722 -0.879225 0
M  V30 6021 H 587.315 -1.50489 -0.422237 0
M  V30 6022 H 588.05 -1.34381 -2.95148 0
M  V30 6023 H 587.835 -3.04999 -2.46411 0
M  V30 6024 H 589.325 -2.54137 -3.31367 0
M  V30 6025 N 589.762 0.448376 -1.51087 0
M  V30 6026 C 590.692 1.55102 -1.74544 0
M  V30 6027 C 591.673 1.59357 -0.594932 0
M  V30 6028 O 592.858 1.75261 -0.836491 0
M  V30 6029 C 589.988 2.93268 -1.86041 0
M  V30 6030 C 588.942 3.03877 -3.01402 0
M  V30 6031 C 588.268 4.43914 -2.98068 0
M  V30 6032 C 589.568 2.7898 -4.41551 0
M  V30 6033 H 591.262 1.35724 -2.66869 0
M  V30 6034 H 588.808 0.651498 -1.28419 0
M  V30 6035 H 590.761 3.70356 -2.01034 0
M  V30 6036 H 589.485 3.13853 -0.903548 0
M  V30 6037 H 588.144 2.29227 -2.86096 0
M  V30 6038 H 587.792 4.6145 -2.00182 0
M  V30 6039 H 587.492 4.51944 -3.75527 0
M  V30 6040 H 589.016 5.22991 -3.1514 0
M  V30 6041 H 590.43 3.45805 -4.57265 0
M  V30 6042 H 588.827 2.98431 -5.20633 0
M  V30 6043 H 589.897 1.74663 -4.5235 0
M  V30 6044 N 591.24 1.41047 0.703093 0
M  V30 6045 C 592.488 1.39723 1.4602 0
M  V30 6046 C 592.809 0.00461257 1.94999 0
M  V30 6047 O 592.079 -0.952292 1.71196 0
M  V30 6048 H 590.659 0.514281 0.541779 0
M  V30 6049 H 593.321 1.76217 0.832678 0
M  V30 6050 H 592.417 2.07982 2.32701 0
M  V30 6051 N 592.718 -0.936591 1.26751 0
M  V30 6052 C 593.943 -1.72288 1.15462 0
M  V30 6053 C 594.368 -1.85915 -0.285887 0
M  V30 6054 O 593.726 -1.35272 -1.20711 0
M  V30 6055 C 593.774 -3.10503 1.83359 0
M  V30 6056 O 592.878 -3.96745 1.1255 0
M  V30 6057 H 592.219 -0.52843 0.402067 0
M  V30 6058 H 594.749 -1.17271 1.67656 0
M  V30 6059 H 594.759 -3.60867 1.90365 0
M  V30 6060 H 593.434 -2.99901 2.88153 0
M  V30 6061 H 592.011 -3.55191 1.13551 0
M  V30 6062 N 594.196 -1.08629 -1.14182 0
M  V30 6063 C 595.444 -0.815731 -1.84906 0
M  V30 6064 C 595.765 0.660441 -1.83475 0
M  V30 6065 O 595.035 1.47888 -1.28476 0
M  V30 6066 H 593.615 -0.298773 -0.684648 0
M  V30 6067 H 596.277 -1.37274 -1.38354 0
M  V30 6068 H 595.373 -1.16193 -2.89665 0
M  V30 6069 N 595.674 1.31259 -0.872281 0
M  V30 6070 C 596.637 2.26744 -0.334656 0
M  V30 6071 C 597.637 1.52307 0.515681 0
M  V30 6072 O 598.827 1.71148 0.324656 0
M  V30 6073 C 595.959 3.36841 0.524482 0
M  V30 6074 H 597.152 2.75812 -1.17762 0
M  V30 6075 H 594.705 1.42232 -0.648064 0
M  V30 6076 H 595.44 2.93069 1.38855 0
M  V30 6077 H 595.225 3.92009 -0.0844299 0
M  V30 6078 H 596.715 4.07944 0.892838 0
M  V30 6079 N 597.152 0.631951 1.44375 0
M  V30 6080 C 598.38 0.143867 2.06399 0
M  V30 6081 C 598.795 -1.18188 1.47231 0
M  V30 6082 O 598.152 -1.72511 0.595498 0
M  V30 6083 C 598.203 0.0238253 3.61492 0
M  V30 6084 O 597.924 1.29715 4.18456 0
M  V30 6085 C 599.425 -0.492856 4.40552 0
M  V30 6086 H 596.645 0.0800542 0.666207 0
M  V30 6087 H 599.189 0.866586 1.85231 0
M  V30 6088 H 597.344 -0.649338 3.81919 0
M  V30 6089 H 597.758 1.14252 5.11905 0
M  V30 6090 H 599.232 -0.525861 5.49489 0
M  V30 6091 H 599.709 -1.52006 4.12057 0
M  V30 6092 H 600.315 0.147085 4.25046 0
M  V30 6093 N 598.631 -1.53133 0.372548 0
M  V30 6094 C 599.879 -2.00958 -0.214534 0
M  V30 6095 C 600.2 -1.26135 -1.48711 0
M  V30 6096 O 599.47 -0.376597 -1.92246 0
M  V30 6097 H 598.05 -0.742456 -0.0822664 0
M  V30 6098 H 600.712 -1.88367 0.500385 0
M  V30 6099 H 599.808 -3.09031 -0.436605 0
M  V30 6100 N 600.109 -0.101901 -1.5727 0
M  V30 6101 C 601.355 0.561027 -1.94885 0
M  V30 6102 C 601.688 1.6741 -0.984258 0
M  V30 6103 O 600.963 1.94491 -0.0184767 0
M  V30 6104 C 601.246 1.10982 -3.42571 0
M  V30 6105 C 601.099 0.00133418 -4.498 0
M  V30 6106 C 602.418 2.00608 -3.9172 0
M  V30 6107 H 599.537 0.202467 -0.708644 0
M  V30 6108 H 602.179 -0.173992 -1.89202 0
M  V30 6109 H 600.329 1.73621 -3.47546 0
M  V30 6110 H 602.001 -0.63322 -4.56933 0
M  V30 6111 H 600.244 -0.664143 -4.28686 0
M  V30 6112 H 600.915 0.426253 -5.50352 0
M  V30 6113 H 603.391 1.47864 -3.88941 0
M  V30 6114 H 602.267 2.3593 -4.95609 0
M  V30 6115 H 602.528 2.92608 -3.3141 0
M  V30 6116 N 601.587 1.56661 0.17182 0
M  V30 6117 C 602.834 1.81965 0.888529 0
M  V30 6118 C 603.162 0.6789 1.82267 0
M  V30 6119 O 602.417 -0.333875 1.92831 0
M  V30 6120 C 602.716 3.13435 1.71736 0
M  V30 6121 C 602.382 4.41159 0.932184 0
M  V30 6122 C 601.044 4.75851 0.715481 0
M  V30 6123 C 603.396 5.19803 0.381387 0
M  V30 6124 C 600.724 5.86666 -0.063126 0
M  V30 6125 C 603.076 6.31433 -0.384129 0
M  V30 6126 C 601.74 6.64692 -0.611637 0
M  V30 6127 H 601.01 0.665859 0.325136 0
M  V30 6128 H 603.657 1.90884 0.153495 0
M  V30 6129 H 601.962 2.99857 2.52177 0
M  V30 6130 H 603.659 3.30224 2.27493 0
M  V30 6131 H 600.249 4.13947 1.11112 0
M  V30 6132 H 604.433 4.93396 0.536148 0
M  V30 6133 H 599.689 6.10892 -0.249136 0
M  V30 6134 H 603.863 6.91577 -0.818185 0
M  V30 6135 H 601.49 7.50398 -1.21684 0
M  V30 6136 N 603.065 -0.440357 1.51323 0
M  V30 6137 C 604.293 -1.21255 1.67645 0
M  V30 6138 C 604.708 -1.85088 0.37252 0
M  V30 6139 O 604.065 -1.70582 -0.648683 0
M  V30 6140 C 604.116 -2.29881 2.78993 0
M  V30 6141 O 603.837 -1.68659 4.04334 0
M  V30 6142 C 605.338 -3.20214 3.06558 0
M  V30 6143 H 602.558 -0.36558 0.562666 0
M  V30 6144 H 605.102 -0.52214 1.97722 0
M  V30 6145 H 603.257 -2.94643 2.51524 0
M  V30 6146 H 603.671 -2.40426 4.6615 0
M  V30 6147 H 605.145 -3.92575 3.88058 0
M  V30 6148 H 605.622 -3.80794 2.18844 0
M  V30 6149 H 606.228 -2.61156 3.35675 0
M  V30 6150 N 604.543 -1.41418 -0.695603 0
M  V30 6151 C 605.491 -1.43467 -1.83084 0
M  V30 6152 C 606.485 -0.312719 -1.66489 0
M  V30 6153 O 607.691 -0.484744 -1.7335 0
M  V30 6154 H 604.066 -0.448891 -0.603325 0
M  V30 6155 H 606.037 -2.39144 -1.78473 0
M  V30 6156 C 604.786 -1.3337 -3.21104 0
M  V30 6157 H 604.109 -2.18989 -3.3449 0
M  V30 6158 H 605.549 -1.38865 -4.00615 0
M  V30 6159 C 604.008 -0.0460484 -3.36869 0
M  V30 6160 O 604.538 0.909258 -3.91274 0
M  V30 6161 N 602.744 0.0300222 -2.90584 0
M  V30 6162 H 602.291 -0.748129 -2.46497 0
M  V30 6163 H 602.249 0.890991 -3.01511 0
M  V30 6164 N 606.021 0.929856 -1.27246 0
M  V30 6165 C 607.246 1.71674 -1.16374 0
M  V30 6166 C 607.671 1.86064 0.276024 0
M  V30 6167 O 607.029 1.3591 1.19992 0
M  V30 6168 C 607.077 3.09526 -1.85003 0
M  V30 6169 O 606.181 3.96142 -1.14653 0
M  V30 6170 H 605.522 0.52629 -0.404863 0
M  V30 6171 H 608.052 1.16381 -1.68276 0
M  V30 6172 H 608.062 3.59852 -1.92276 0
M  V30 6173 H 606.737 2.98369 -2.89739 0
M  V30 6174 H 605.314 3.54584 -1.15433 0
M  V30 6175 N 607.499 1.09233 1.13605 0
M  V30 6176 C 608.724 0.849067 1.89224 0
M  V30 6177 C 609.149 -0.593875 1.78479 0
M  V30 6178 O 608.507 -1.41703 1.13092 0
M  V30 6179 C 608.555 1.28642 3.36873 0
M  V30 6180 O 607.659 0.44363 4.10007 0
M  V30 6181 H 607 0.30767 0.588417 0
M  V30 6182 H 609.53 1.45595 1.43748 0
M  V30 6183 H 609.54 1.27096 3.87699 0
M  V30 6184 H 608.215 2.33729 3.44011 0
M  V30 6185 H 606.792 0.523241 3.69211 0
M  V30 6186 N 608.977 -1.30795 0.87923 0
M  V30 6187 C 610.223 -1.97035 0.50487 0
M  V30 6188 C 610.578 -1.68182 -0.934484 0
M  V30 6189 O 609.871 -0.972953 -1.65058 0
M  V30 6190 C 610.065 -3.50287 0.709476 0
M  V30 6191 C 609.894 -3.94035 2.16717 0
M  V30 6192 C 608.664 -4.1992 2.81061 0
M  V30 6193 C 610.862 -4.07288 3.1404 0
M  V30 6194 N 608.844 -4.50088 4.17486 0
M  V30 6195 C 610.215 -4.41273 4.35521 0
M  V30 6196 C 612.27 -3.89696 3.09906 0
M  V30 6197 C 610.973 -4.59501 5.534 0
M  V30 6198 C 612.999 -4.09122 4.27052 0
M  V30 6199 C 612.361 -4.43447 5.47297 0
M  V30 6200 H 608.46 -0.746181 0.233962 0
M  V30 6201 H 611.044 -1.5814 1.13577 0
M  V30 6202 H 609.215 -3.8825 0.108108 0
M  V30 6203 H 610.947 -4.03567 0.302585 0
M  V30 6204 H 607.702 -4.12906 2.3196 0
M  V30 6205 H 608.126 -4.69316 4.87926 0
M  V30 6206 H 612.768 -3.62239 2.18043 0
M  V30 6207 H 610.486 -4.85802 6.45773 0
M  V30 6208 H 614.072 -3.96985 4.25316 0
M  V30 6209 H 612.952 -4.58171 6.36435 0
M  V30 6210 N 610.455 -0.639598 -1.44038 0
M  V30 6211 C 611.385 0.0469443 -2.33453 0
M  V30 6212 C 612.366 0.82609 -1.48694 0
M  V30 6213 O 613.551 0.790285 -1.77393 0
M  V30 6214 C 610.681 1.02338 -3.3188 0
M  V30 6215 C 609.635 0.355284 -4.26523 0
M  V30 6216 C 608.961 1.44221 -5.14883 0
M  V30 6217 C 610.261 -0.743798 -5.16977 0
M  V30 6218 H 611.955 -0.699735 -2.91108 0
M  V30 6219 H 609.501 -0.337946 -1.39978 0
M  V30 6220 H 611.454 1.51247 -3.93322 0
M  V30 6221 H 610.178 1.80105 -2.72451 0
M  V30 6222 H 608.837 -0.113239 -3.66425 0
M  V30 6223 H 608.485 2.21097 -4.51802 0
M  V30 6224 H 608.185 1.00052 -5.79019 0
M  V30 6225 H 609.709 1.93295 -5.79197 0
M  V30 6226 H 611.123 -0.337444 -5.72306 0
M  V30 6227 H 609.52 -1.10914 -5.89761 0
M  V30 6228 H 610.59 -1.60745 -4.57481 0
M  V30 6229 N 611.933 1.52934 -0.380664 0
M  V30 6230 C 613.179 2.02443 0.197089 0
M  V30 6231 C 613.534 1.26249 1.45186 0
M  V30 6232 O 612.827 0.351964 1.8834 0
M  V30 6233 C 613.021 3.5349 0.527199 0
M  V30 6234 C 612.85 4.44312 -0.694027 0
M  V30 6235 C 611.62 4.90582 -1.21068 0
M  V30 6236 C 613.818 4.8995 -1.56377 0
M  V30 6237 N 611.8 5.65451 -2.39036 0
M  V30 6238 C 613.171 5.63313 -2.58995 0
M  V30 6239 C 615.226 4.72002 -1.58488 0
M  V30 6240 C 613.929 6.20635 -3.63599 0
M  V30 6241 C 615.955 5.30201 -2.61995 0
M  V30 6242 C 615.317 6.03463 -3.63335 0
M  V30 6243 H 611.416 0.781241 0.0344357 0
M  V30 6244 H 614 1.87387 -0.528609 0
M  V30 6245 H 612.171 3.68677 1.22196 0
M  V30 6246 H 613.903 3.89707 1.09135 0
M  V30 6247 H 610.658 4.67249 -0.772995 0
M  V30 6248 H 611.082 6.07541 -2.98701 0
M  V30 6249 H 615.724 4.14873 -0.814891 0
M  V30 6250 H 613.442 6.76852 -4.41472 0
M  V30 6251 H 617.028 5.182 -2.645 0
M  V30 6252 H 615.908 6.47693 -4.42113 0
M  V30 6253 N 613.412 0.11024 1.57214 0
M  V30 6254 C 614.36 -0.860586 2.16094 0
M  V30 6255 C 615.354 -1.28156 1.1078 0
M  V30 6256 O 616.56 -1.25433 1.29099 0
M  V30 6257 H 612.935 -0.295606 0.691463 0
M  V30 6258 H 614.906 -0.33942 2.96463 0
M  V30 6259 C 613.655 -2.10421 2.768 0
M  V30 6260 H 612.978 -1.7892 3.5753 0
M  V30 6261 H 614.418 -2.76375 3.21547 0
M  V30 6262 C 612.877 -2.88823 1.73444 0
M  V30 6263 O 613.407 -3.839 1.18251 0
M  V30 6264 N 611.613 -2.52649 1.43586 0
M  V30 6265 H 611.16 -1.754 1.8866 0
M  V30 6266 H 611.118 -3.05403 0.746735 0
M  V30 6267 N 614.89 -1.56749 -0.16351 0
M  V30 6268 C 615.837 -1.97011 -1.2023 0
M  V30 6269 C 616.807 -0.835186 -1.43575 0
M  V30 6270 O 617.992 -1.09594 -1.56185 0
M  V30 6271 C 615.132 -2.34186 -2.53478 0
M  V30 6272 C 614.245 -3.60893 -2.37446 0
M  V30 6273 C 613.38 -3.87245 -3.63614 0
M  V30 6274 C 612.419 -5.07274 -3.42548 0
M  V30 6275 N 611.556 -5.29719 -4.60806 0
M  V30 6276 H 616.396 -2.85562 -0.851958 0
M  V30 6277 H 613.933 -1.41292 -0.409257 0
M  V30 6278 H 615.891 -2.53764 -3.31149 0
M  V30 6279 H 614.521 -1.48736 -2.86492 0
M  V30 6280 H 613.573 -3.49185 -1.50911 0
M  V30 6281 H 614.885 -4.48722 -2.1783 0
M  V30 6282 H 614.039 -4.07232 -4.49719 0
M  V30 6283 H 612.778 -2.97806 -3.86216 0
M  V30 6284 H 611.783 -4.87177 -2.5483 0
M  V30 6285 H 613.008 -5.98251 -3.2136 0
M  V30 6286 H 610.954 -4.43233 -4.83612 0
M  V30 6287 H 610.871 -6.11786 -4.44132 0
M  V30 6288 H 612.139 -5.54192 -5.48171 0
M  V30 6289 N 616.368 0.432326 -1.51554 0
M  V30 6290 C 617.298 1.53242 -1.76179 0
M  V30 6291 C 618.279 1.58717 -0.611801 0
M  V30 6292 O 619.464 1.74364 -0.855033 0
M  V30 6293 C 616.594 2.91278 -1.89141 0
M  V30 6294 C 615.548 3.00663 -3.04608 0
M  V30 6295 C 614.874 4.40728 -3.02759 0
M  V30 6296 C 616.174 2.74281 -4.44485 0
M  V30 6297 H 617.868 1.32886 -2.68294 0
M  V30 6298 H 615.414 0.637841 -1.29103 0
M  V30 6299 H 617.367 3.68203 -2.04951 0
M  V30 6300 H 616.091 3.12877 -0.936785 0
M  V30 6301 H 614.75 2.26179 -2.88511 0
M  V30 6302 H 614.398 4.59301 -2.05065 0
M  V30 6303 H 614.098 4.47936 -3.80299 0
M  V30 6304 H 615.622 5.19619 -3.20669 0
M  V30 6305 H 617.036 3.40936 -4.60907 0
M  V30 6306 H 615.433 2.92893 -5.23769 0
M  V30 6307 H 616.503 1.69856 -4.54177 0
M  V30 6308 N 617.846 1.41785 0.688094 0
M  V30 6309 C 619.093 1.41544 1.44816 0
M  V30 6310 C 619.421 0.0271746 1.94481 0
M  V30 6311 O 618.676 -0.962235 1.7041 0
M  V30 6312 C 618.975 2.37532 2.67046 0
M  V30 6313 C 618.641 3.84209 2.35996 0
M  V30 6314 C 617.303 4.24165 2.27239 0
M  V30 6315 C 619.655 4.76785 2.10536 0
M  V30 6316 C 616.983 5.54695 1.91128 0
M  V30 6317 C 619.335 6.07644 1.75931 0
M  V30 6318 C 617.999 6.46613 1.65675 0
M  V30 6319 H 617.269 0.517945 0.529919 0
M  V30 6320 H 619.916 1.74635 0.785797 0
M  V30 6321 H 618.221 1.9772 3.38251 0
M  V30 6322 H 619.918 2.34615 3.25203 0
M  V30 6323 H 616.508 3.52567 2.4371 0
M  V30 6324 H 620.692 4.46714 2.16242 0
M  V30 6325 H 615.948 5.83762 1.81746 0
M  V30 6326 H 620.122 6.78874 1.55252 0
M  V30 6327 H 617.749 7.47668 1.37463 0
M  V30 6328 N 619.324 -0.923095 1.27737 0
M  V30 6329 C 620.234 -2.05765 1.12685 0
M  V30 6330 C 621.25 -1.73911 0.0557197 0
M  V30 6331 O 622.426 -1.99674 0.263137 0
M  V30 6332 C 619.491 -3.37804 0.780363 0
M  V30 6333 C 618.552 -3.83326 1.93286 0
M  V30 6334 C 617.785 -5.09064 1.60281 0
M  V30 6335 O 618.008 -5.6809 0.512828 0
M  V30 6336 O 616.942 -5.50071 2.44347 0
M  V30 6337 H 620.768 -2.21378 2.07907 0
M  V30 6338 H 618.353 -1.04299 1.06968 0
M  V30 6339 H 620.235 -4.17097 0.600668 0
M  V30 6340 H 618.91 -3.23387 -0.142291 0
M  V30 6341 H 617.817 -3.049 2.16764 0
M  V30 6342 H 619.15 -4.02292 2.83588 0
M  V30 6343 N 620.802 -1.09834 -1.13024 0
M  V30 6344 C 621.765 -0.745058 -2.16752 0
M  V30 6345 C 622.765 0.227435 -1.59183 0
M  V30 6346 O 623.955 0.0050786 -1.74199 0
M  V30 6347 C 621.087 -0.102543 -3.40746 0
M  V30 6348 H 622.28 -1.66375 -2.49518 0
M  V30 6349 H 619.833 -0.898061 -1.27924 0
M  V30 6350 H 620.568 0.827177 -3.13573 0
M  V30 6351 H 620.353 -0.80235 -3.83803 0
M  V30 6352 H 621.843 0.129082 -4.174 0
M  V30 6353 N 622.28 1.30327 -0.886154 0
M  V30 6354 C 623.505 2.0079 -0.519425 0
M  V30 6355 C 623.93 1.65979 0.885013 0
M  V30 6356 O 623.288 0.877043 1.58675 0
M  V30 6357 C 623.336 3.53686 -0.702758 0
M  V30 6358 O 622.44 4.11637 0.250828 0
M  V30 6359 H 621.781 0.63171 -0.204544 0
M  V30 6360 H 624.311 1.66145 -1.19402 0
M  V30 6361 H 624.321 4.03531 -0.602207 0
M  V30 6362 H 622.996 3.78361 -1.72673 0
M  V30 6363 H 621.573 3.72755 0.103873 0
M  V30 6364 N 623.758 0.647228 1.43697 0
M  V30 6365 C 625.007 0.155552 2.01099 0
M  V30 6366 C 625.32 -1.23569 1.51624 0
M  V30 6367 O 626.526 -1.82226 2.01261 0
M  V30 6368 C 624.982 0.227296 3.59182 0
M  V30 6369 C 624.59 1.62086 4.17651 0
M  V30 6370 C 626.334 -0.207085 4.23995 0
M  V30 6371 C 624.241 1.64685 5.68008 0
M  V30 6372 H 623.171 0.0543895 0.752036 0
M  V30 6373 H 625.822 0.808386 1.64734 0
M  V30 6374 H 624.204 -0.492937 3.9292 0
M  V30 6375 H 625.378 2.36597 3.95422 0
M  V30 6376 H 623.693 2.0007 3.65186 0
M  V30 6377 H 626.29 -0.207426 5.34298 0
M  V30 6378 H 626.633 -1.23742 3.97484 0
M  V30 6379 H 627.166 0.461193 3.95118 0
M  V30 6380 H 623.905 2.65608 5.99277 0
M  V30 6381 H 623.425 0.944914 5.9231 0
M  V30 6382 H 625.104 1.38792 6.31938 0
M  V30 6383 N 625.236 -1.5273 0.388769 0
M  V30 6384 C 626.146 -2.30165 -0.453993 0
M  V30 6385 C 627.162 -1.37058 -1.07197 0
M  V30 6386 O 628.338 -1.70127 -1.0779 0
M  V30 6387 C 625.403 -3.09303 -1.56628 0
M  V30 6388 C 624.464 -4.18117 -0.973467 0
M  V30 6389 C 623.697 -4.93472 -2.03275 0
M  V30 6390 O 623.92 -4.68913 -3.24772 0
M  V30 6391 O 622.854 -5.78833 -1.65034 0
M  V30 6392 H 626.68 -3.03185 0.176816 0
M  V30 6393 H 624.265 -1.4862 0.152501 0
M  V30 6394 H 626.147 -3.58648 -2.21246 0
M  V30 6395 H 624.822 -2.39098 -2.18206 0
M  V30 6396 H 623.729 -3.7297 -0.290556 0
M  V30 6397 H 625.062 -4.90556 -0.401908 0
M  V30 6398 N 626.714 -0.118576 -1.57153 0
M  V30 6399 C 627.942 0.54726 -1.99531 0
M  V30 6400 C 628.357 1.60251 -0.998246 0
M  V30 6401 O 627.714 1.82498 0.00893106 0
M  V30 6402 C 627.765 1.17378 -3.41913 0
M  V30 6403 O 627.486 0.160703 -4.37805 0
M  V30 6404 C 628.987 1.92297 -3.9942 0
M  V30 6405 H 626.207 0.144919 -0.655164 0
M  V30 6406 H 628.751 -0.20479 -2.03472 0
M  V30 6407 H 626.906 1.87661 -3.38913 0
M  V30 6408 H 627.32 0.61586 -5.20872 0
M  V30 6409 H 628.794 2.31462 -5.01128 0
M  V30 6410 H 629.271 2.79801 -3.38538 0
M  V30 6411 H 629.877 1.26777 -4.05965 0
M  V30 6412 N 628.193 1.56834 0.155195 0
M  V30 6413 C 629.441 1.82536 0.867462 0
M  V30 6414 C 629.762 0.698168 1.82073 0
M  V30 6415 O 629.032 -0.280807 1.93877 0
M  V30 6416 H 627.612 0.673401 0.323327 0
M  V30 6417 H 630.274 1.94313 0.151156 0
M  V30 6418 H 629.37 2.77171 1.43466 0
M  V30 6419 N 629.671 -0.424282 1.51781 0
M  V30 6420 C 630.948 -1.18464 1.55646 0
M  V30 6421 C 631.328 -2.08529 0.328438 0
M  V30 6422 O 630.676 -2.17969 -0.685693 0
M  V30 6423 C 630.886 -1.97514 2.87731 0
M  V30 6424 C 632.234 -2.54106 3.40169 0
M  V30 6425 O 633.258 -2.07711 2.89369 0
M  V30 6426 O 632.117 -3.38759 4.28841 0
M  V30 6427 H 629.211 -0.540055 0.626314 0
M  V30 6428 H 631.757 -0.432291 1.64102 0
M  V30 6429 H 630.529 -1.31444 3.68562 0
M  V30 6430 H 630.152 -2.79787 2.82498 0
M  V30 6431 N 631.149 -1.42148 -0.680565 0
M  V30 6432 C 632.565 -1.24947 -0.992995 0
M  V30 6433 C 632.765 -0.149527 -2.00944 0
M  V30 6434 O 631.821 0.481145 -2.47873 0
M  V30 6435 C 633.134 -2.60426 -1.5033 0
M  V30 6436 C 634.682 -2.67733 -1.62137 0
M  V30 6437 C 635.157 -4.03564 -2.16565 0
M  V30 6438 N 636.648 -4.05488 -2.23905 0
M  V30 6439 C 637.383 -5.07401 -2.67081 0
M  V30 6440 N 636.879 -6.19698 -3.09751 0
M  V30 6441 N 638.672 -4.94758 -2.66778 0
M  V30 6442 H 630.823 -2.12399 -0.0074788 0
M  V30 6443 H 633.086 -0.94571 -0.0658529 0
M  V30 6444 H 632.792 -3.41743 -0.830947 0
M  V30 6445 H 632.666 -2.83949 -2.483 0
M  V30 6446 H 635.053 -1.86765 -2.2848 0
M  V30 6447 H 635.134 -2.48004 -0.626713 0
M  V30 6448 H 634.778 -4.84987 -1.50833 0
M  V30 6449 H 634.708 -4.20641 -3.1681 0
M  V30 6450 H 637.199 -3.24415 -1.93812 0
M  V30 6451 H 637.512 -6.93318 -3.41365 0
M  V30 6452 H 635.857 -6.23212 -3.07623 0
M  V30 6453 H 639.048 -4.06105 -2.32801 0
M  V30 6454 H 639.221 -5.74317 -3.00107 0
M  V30 6455 N 632.627 0.916307 -1.28225 0
M  V30 6456 C 633.873 1.66765 -1.154 0
M  V30 6457 C 634.206 1.91912 0.297251 0
M  V30 6458 O 633.481 1.51766 1.21644 0
M  V30 6459 C 633.764 3.02715 -1.95028 0
M  V30 6460 C 633.617 2.84738 -3.48201 0
M  V30 6461 C 634.936 4.03215 -1.76369 0
M  V30 6462 H 632.055 0.605205 -0.42059 0
M  V30 6463 H 634.697 1.06255 -1.57512 0
M  V30 6464 H 632.847 3.54365 -1.59242 0
M  V30 6465 H 634.519 2.40118 -3.9388 0
M  V30 6466 H 632.762 2.19848 -3.73964 0
M  V30 6467 H 633.433 3.8127 -3.99171 0
M  V30 6468 H 635.909 3.60617 -2.07593 0
M  V30 6469 H 634.785 4.96306 -2.34459 0
M  V30 6470 H 635.046 4.36288 -0.71452 0
M  V30 6471 N 634.105 1.10431 1.1244 0
M  V30 6472 C 635.351 0.857864 1.84424 0
M  V30 6473 C 635.706 -0.609995 1.82474 0
M  V30 6474 O 634.999 -1.44401 1.25932 0
M  V30 6475 C 635.193 1.34022 3.3132 0
M  V30 6476 C 635.022 2.85344 3.47576 0
M  V30 6477 C 633.792 3.53345 3.61213 0
M  V30 6478 C 635.99 3.83446 3.42744 0
M  V30 6479 N 633.972 4.92989 3.65834 0
M  V30 6480 C 635.343 5.09101 3.5386 0
M  V30 6481 C 637.398 3.76154 3.26209 0
M  V30 6482 C 636.101 6.28323 3.50146 0
M  V30 6483 C 638.127 4.94876 3.23809 0
M  V30 6484 C 637.489 6.19378 3.35485 0
M  V30 6485 H 633.588 0.366917 0.690577 0
M  V30 6486 H 636.172 1.40668 1.34613 0
M  V30 6487 H 634.343 0.818727 3.79673 0
M  V30 6488 H 636.075 1.03801 3.91162 0
M  V30 6489 H 632.83 3.03791 3.63329 0
M  V30 6490 H 633.254 5.65762 3.71809 0
M  V30 6491 H 637.896 2.80813 3.16076 0
M  V30 6492 H 635.614 7.23953 3.5905 0
M  V30 6493 H 639.2 4.90942 3.12197 0
M  V30 6494 H 638.08 7.09704 3.33602 0
M  V30 6495 N 635.583 -1.29855 0.893053 0
M  V30 6496 C 636.999 -1.48366 0.588199 0
M  V30 6497 C 637.199 -1.81654 -0.872018 0
M  V30 6498 O 636.255 -1.909 -1.65268 0
M  V30 6499 C 637.568 -2.60136 1.5083 0
M  V30 6500 C 639.116 -2.74014 1.51279 0
M  V30 6501 C 639.591 -3.88905 2.41902 0
M  V30 6502 N 641.082 -3.96228 2.39911 0
M  V30 6503 C 641.817 -4.84458 3.06738 0
M  V30 6504 N 641.313 -5.77426 3.8282 0
M  V30 6505 N 643.106 -4.77894 2.95929 0
M  V30 6506 H 635.257 -1.06522 1.83757 0
M  V30 6507 H 637.52 -0.528495 0.787018 0
M  V30 6508 H 637.226 -2.42383 2.54839 0
M  V30 6509 H 637.1 -3.56793 1.22388 0
M  V30 6510 H 639.487 -2.91167 0.480179 0
M  V30 6511 H 639.568 -1.77952 1.83757 0
M  V30 6512 H 639.212 -3.72508 3.45253 0
M  V30 6513 H 639.142 -4.84322 2.06737 0
M  V30 6514 H 641.633 -3.29728 1.84629 0
M  V30 6515 H 641.946 -6.41529 4.30883 0
M  V30 6516 H 640.291 -5.77332 3.86927 0
M  V30 6517 H 643.482 -4.04248 2.36012 0
M  V30 6518 H 643.655 -5.46444 3.48286 0
M  V30 6519 N 637.061 -0.65484 -1.43351 0
M  V30 6520 C 637.994 0.0855537 -2.2804 0
M  V30 6521 C 638.972 0.828301 -1.39921 0
M  V30 6522 O 640.156 0.827539 -1.69364 0
M  V30 6523 C 637.283 1.12792 -3.19368 0
M  V30 6524 C 636.329 0.483037 -4.23756 0
M  V30 6525 S 637.162 -0.744605 -5.30298 0
M  V30 6526 C 638.318 0.297187 -6.25194 0
M  V30 6527 H 638.551 -0.632831 -2.90487 0
M  V30 6528 H 636.084 -0.44373 -1.47886 0
M  V30 6529 H 638.042 1.7243 -3.72529 0
M  V30 6530 H 636.703 1.81863 -2.56095 0
M  V30 6531 H 635.896 1.26888 -4.87766 0
M  V30 6532 H 635.498 -0.0392713 -3.73979 0
M  V30 6533 H 637.79 1.1629 -6.67445 0
M  V30 6534 H 638.733 -0.30793 -7.0743 0
M  V30 6535 H 639.141 0.633721 -5.60932 0
M  V30 6536 N 638.539 1.52521 -0.396863 0
M  V30 6537 C 639.95 1.86547 0.0754868 0
M  V30 6538 C 640.301 1.31621 1.45501 0
M  V30 6539 O 639.426 0.650563 2.0639 0
M  V30 6540 C 640.021 3.38495 0.143754 0
M  V30 6541 C 638.58 3.72205 0.560413 0
M  V30 6542 C 637.727 2.75954 -0.272856 0
M  V30 6543 H 640.678 1.46323 -0.614434 0
M  V30 6544 H 640.699 3.68153 0.961425 0
M  V30 6545 H 640.211 3.78442 -0.860415 0
M  V30 6546 H 638.312 3.3783 1.57167 0
M  V30 6547 H 638.425 4.78074 0.313314 0
M  V30 6548 H 636.789 2.53339 0.263 0
M  V30 6549 H 637.572 3.1874 -1.27515 0
M  V30 6550 N 640.017 0.126909 1.57088 0
M  V30 6551 C 640.947 -0.816847 2.18746 0
M  V30 6552 C 641.928 -1.27161 1.12979 0
M  V30 6553 O 643.113 -1.33279 1.41246 0
M  V30 6554 C 640.243 -2.06398 2.79315 0
M  V30 6555 C 639.197 -1.74673 3.90735 0
M  V30 6556 C 638.523 -3.06482 4.38147 0
M  V30 6557 C 639.823 -1.0089 5.12463 0
M  V30 6558 H 641.517 -0.303032 2.97863 0
M  V30 6559 H 639.063 -0.144314 1.43275 0
M  V30 6560 H 641.016 -2.72885 3.2111 0
M  V30 6561 H 639.74 -2.60118 1.975 0
M  V30 6562 H 638.399 -1.10572 3.49527 0
M  V30 6563 H 638.047 -3.58152 3.5318 0
M  V30 6564 H 637.747 -2.86025 5.13287 0
M  V30 6565 H 639.271 -3.74073 4.82599 0
M  V30 6566 H 640.685 -1.57546 5.51228 0
M  V30 6567 H 639.082 -0.905006 5.93237 0
M  V30 6568 H 640.152 0.00297335 4.849 0
M  V30 6569 N 641.495 -1.56914 -0.146875 0
M  V30 6570 C 642.742 -1.83356 -0.859467 0
M  V30 6571 C 643.07 -0.707811 -1.81164 0
M  V30 6572 O 642.325 0.303155 -1.93338 0
M  V30 6573 C 642.624 -3.16128 -1.66727 0
M  V30 6574 C 642.29 -4.42586 -0.861881 0
M  V30 6575 C 640.952 -4.76929 -0.639687 0
M  V30 6576 C 643.304 -5.20344 -0.298643 0
M  V30 6577 C 640.632 -5.86491 0.156451 0
M  V30 6578 C 642.984 -6.30742 0.484536 0
M  V30 6579 C 641.648 -6.63635 0.717306 0
M  V30 6580 H 640.918 -0.670947 -0.314501 0
M  V30 6581 H 643.565 -1.91104 -0.123108 0
M  V30 6582 H 641.87 -3.03831 -2.47374 0
M  V30 6583 H 643.567 -3.33802 -2.2221 0
M  V30 6584 H 640.157 -4.15662 -1.04513 0
M  V30 6585 H 644.341 -4.94186 -0.457585 0
M  V30 6586 H 639.597 -6.10419 0.346292 0
M  V30 6587 H 643.771 -6.90188 0.928105 0
M  V30 6588 H 641.398 -7.48367 1.33607 0
M  V30 6589 N 642.974 0.416227 -1.52004 0
M  V30 6590 C 643.884 1.53147 -1.77717 0
M  V30 6591 C 644.9 1.609 -0.662368 0
M  V30 6592 O 646.076 1.77747 -0.946991 0
M  V30 6593 C 643.141 2.88948 -1.91598 0
M  V30 6594 C 642.202 2.9114 -3.15493 0
M  V30 6595 C 641.435 4.20464 -3.28703 0
M  V30 6596 O 641.658 5.13981 -2.47345 0
M  V30 6597 O 640.592 4.29368 -4.21813 0
M  V30 6598 H 644.418 1.34357 -2.72363 0
M  V30 6599 H 642.003 0.601373 -1.36762 0
M  V30 6600 H 643.885 3.69505 -2.02593 0
M  V30 6601 H 642.56 3.07821 -1.00141 0
M  V30 6602 H 641.467 2.09461 -3.09962 0
M  V30 6603 H 642.8 2.77216 -4.06709 0
M  V30 6604 N 644.452 1.42507 0.673017 0
M  V30 6605 C 645.402 1.4258 1.77919 0
M  V30 6606 C 646.386 0.296885 1.58137 0
M  V30 6607 O 647.578 0.539243 1.68586 0
M  V30 6608 C 644.707 1.33238 3.1639 0
M  V30 6609 C 643.793 2.51081 3.41788 0
M  V30 6610 N 644.184 3.76498 3.37761 0
M  V30 6611 C 642.482 2.4538 3.72431 0
M  V30 6612 C 643.183 4.54784 3.62693 0
M  V30 6613 N 642.159 3.8522 3.83544 0
M  V30 6614 H 645.961 2.37442 1.73201 0
M  V30 6615 H 643.475 1.36881 0.873924 0
M  V30 6616 H 645.472 1.31372 3.9566 0
M  V30 6617 H 644.132 0.393794 3.22303 0
M  V30 6618 H 645.143 4.09068 3.17622 0
M  V30 6619 H 641.82 1.60109 3.85579 0
M  V30 6620 H 643.21 5.63774 3.65525 0
M  V30 6621 N 645.93 -0.909495 1.28709 0
M  V30 6622 C 647.16 -1.69027 1.188 0
M  V30 6623 C 647.568 -1.87469 -0.255329 0
M  V30 6624 O 646.911 -1.40458 -1.18394 0
M  V30 6625 C 646.973 -3.10064 1.81936 0
M  V30 6626 C 646.637 -3.14891 3.31199 0
M  V30 6627 C 647.634 -2.95768 4.27571 0
M  V30 6628 C 645.319 -3.37269 3.7223 0
M  V30 6629 C 647.313 -2.98942 5.6295 0
M  V30 6630 C 645 -3.40074 5.07733 0
M  V30 6631 C 645.998 -3.20932 6.02903 0
M  V30 6632 O 645.686 -3.23507 7.35934 0
M  V30 6633 H 645.418 -0.535014 0.413203 0
M  V30 6634 H 647.972 -1.14645 1.70428 0
M  V30 6635 H 646.202 -3.66005 1.24808 0
M  V30 6636 H 647.891 -3.70185 1.66486 0
M  V30 6637 H 648.657 -2.78302 3.97206 0
M  V30 6638 H 644.536 -3.51212 2.98615 0
M  V30 6639 H 648.08 -2.83919 6.37209 0
M  V30 6640 H 643.977 -3.5707 5.37747 0
M  V30 6641 H 644.745 -3.3984 7.44615 0
M  V30 6642 N 647.408 -1.11026 -1.11852 0
M  V30 6643 C 648.636 -0.878818 -1.87308 0
M  V30 6644 C 649.051 0.57111 -1.79955 0
M  V30 6645 O 648.408 1.39409 -1.17777 0
M  V30 6646 C 648.459 -1.3264 -3.36287 0
M  V30 6647 O 648.18 -2.71948 -3.43476 0
M  V30 6648 C 649.681 -1.12974 -4.28663 0
M  V30 6649 H 646.901 -0.315015 -0.592458 0
M  V30 6650 H 649.445 -1.47649 -1.41492 0
M  V30 6651 H 647.6 -0.772269 -3.79625 0
M  V30 6652 H 648.014 -2.91241 -4.3621 0
M  V30 6653 H 649.488 -1.49198 -5.31454 0
M  V30 6654 H 649.965 -0.0689127 -4.39146 0
M  V30 6655 H 650.571 -1.67064 -3.91113 0
M  V30 6656 N 648.886 1.2938 -0.899927 0
M  V30 6657 C 650.302 1.48052 -0.596059 0
M  V30 6658 C 650.502 1.82114 0.862372 0
M  V30 6659 O 649.558 1.91774 1.64253 0
M  V30 6660 C 650.871 2.59332 -1.52208 0
M  V30 6661 C 652.419 2.73208 -1.5273 0
M  V30 6662 C 652.894 3.87617 -2.43961 0
M  V30 6663 N 654.385 3.9495 -2.42009 0
M  V30 6664 C 655.12 4.82824 -3.09303 0
M  V30 6665 N 654.616 5.75387 -3.85877 0
M  V30 6666 N 656.409 4.76317 -2.98459 0
M  V30 6667 H 648.56 1.05546 -1.8432 0
M  V30 6668 H 650.823 0.524314 -0.78981 0
M  V30 6669 H 650.529 2.41029 -2.56121 0
M  V30 6670 H 650.403 3.56139 -1.24278 0
M  V30 6671 H 652.79 2.90908 -0.495614 0
M  V30 6672 H 652.871 1.76975 -1.84698 0
M  V30 6673 H 652.515 3.70672 -3.47224 0
M  V30 6674 H 652.445 4.83218 -2.09303 0
M  V30 6675 H 654.936 3.28744 -1.86375 0
M  V30 6676 H 655.249 6.39235 -4.34279 0
M  V30 6677 H 653.594 5.75272 -3.89984 0
M  V30 6678 H 656.785 4.0299 -2.38152 0
M  V30 6679 H 656.958 5.44589 -3.51179 0
M  V30 6680 N 650.364 0.662433 1.43002 0
M  V30 6681 C 651.296 -0.062326 2.29115 0
M  V30 6682 C 652.309 -0.777926 1.43011 0
M  V30 6683 O 653.498 -0.634146 1.66856 0
M  V30 6684 C 650.598 -1.11163 3.2015 0
M  V30 6685 C 649.771 -0.472327 4.34842 0
M  V30 6686 C 648.83 -1.41974 5.06685 0
M  V30 6687 O 647.856 -0.924795 5.61637 0
M  V30 6688 N 649.058 -2.75345 5.11043 0
M  V30 6689 H 651.823 0.676838 2.91957 0
M  V30 6690 H 649.384 0.505907 1.53793 0
M  V30 6691 H 651.376 -1.74643 3.65078 0
M  V30 6692 H 649.946 -1.75266 2.58845 0
M  V30 6693 H 649.166 0.341751 3.92716 0
M  V30 6694 H 650.454 -0.0264381 5.08793 0
M  V30 6695 H 649.852 -3.18108 4.67786 0
M  V30 6696 H 648.409 -3.34105 5.59658 0
M  V30 6697 N 651.842 -1.52309 0.404946 0
M  V30 6698 C 653.088 -2.02065 -0.172455 0
M  V30 6699 C 653.421 -1.29022 -1.45145 0
M  V30 6700 O 652.696 -0.395284 -1.90441 0
M  V30 6701 C 652.979 -3.5759 -0.424433 0
M  V30 6702 C 652.832 -4.41287 0.870945 0
M  V30 6703 C 654.151 -4.23186 -1.20837 0
M  V30 6704 H 651.27 -0.734454 -0.0612035 0
M  V30 6705 H 653.912 -1.82236 0.53759 0
M  V30 6706 H 652.062 -3.74617 -1.02929 0
M  V30 6707 H 653.734 -4.3598 1.50729 0
M  V30 6708 H 651.977 -4.07669 1.48284 0
M  V30 6709 H 652.648 -5.48171 0.649083 0
M  V30 6710 H 655.124 -4.10232 -0.696338 0
M  V30 6711 H 654 -5.31953 -1.35343 0
M  V30 6712 H 654.261 -3.81862 -2.22786 0
M  V30 6713 N 653.32 -0.135238 -1.57019 0
M  V30 6714 C 654.566 0.519563 -1.96032 0
M  V30 6715 C 654.899 1.65284 -1.01955 0
M  V30 6716 O 654.174 1.94408 -0.059727 0
M  V30 6717 C 654.457 1.0369 -3.44848 0
M  V30 6718 C 654.31 -0.0940754 -4.49702 0
M  V30 6719 C 655.629 1.92254 -3.95887 0
M  V30 6720 H 652.748 0.18739 -0.712779 0
M  V30 6721 H 655.39 -0.214086 -1.8879 0
M  V30 6722 H 653.54 1.66209 -3.5115 0
M  V30 6723 H 655.212 -0.73 -4.55487 0
M  V30 6724 H 653.455 -0.754924 -4.27181 0
M  V30 6725 H 654.126 0.309419 -5.51132 0
M  V30 6726 H 656.602 1.39581 -3.9199 0
M  V30 6727 H 655.478 2.25364 -5.00502 0
M  V30 6728 H 655.739 2.85513 -3.37543 0
M  V30 6729 N 654.798 1.5699 0.138552 0
M  V30 6730 C 656.075 1.74741 0.87891 0
M  V30 6731 C 656.455 0.705522 1.98961 0
M  V30 6732 O 655.803 -0.274066 2.2685 0
M  V30 6733 C 656.013 3.1909 1.4136 0
M  V30 6734 C 657.361 3.81023 1.87368 0
M  V30 6735 O 658.385 3.22571 1.51084 0
M  V30 6736 O 657.244 4.83722 2.54312 0
M  V30 6737 H 654.338 0.714781 0.415953 0
M  V30 6738 H 656.884 1.69248 0.123817 0
M  V30 6739 H 655.656 3.86424 0.61579 0
M  V30 6740 H 655.279 3.29043 2.23196 0
M  V30 6741 N 656.276 -0.40816 1.52223 0
M  V30 6742 C 657.516 -1.16418 1.68006 0
M  V30 6743 C 657.88 -1.87749 0.401793 0
M  V30 6744 O 659.081 -2.65245 0.435743 0
M  V30 6745 C 657.352 -2.13143 2.86889 0
M  V30 6746 S 658.911 -2.96839 3.2316 0
M  V30 6747 H 655.729 -0.394373 0.5916 0
M  V30 6748 H 658.331 -0.451349 1.90219 0
M  V30 6749 H 657.035 -1.59428 3.78168 0
M  V30 6750 H 656.566 -2.88963 2.66953 0
M  V30 6751 H 658.581 -4.151 2.71857 0
M  V30 6752 N 657.755 -1.42862 -0.66545 0
M  V30 6753 C 658.687 -1.43026 -1.79098 0
M  V30 6754 C 659.7 -0.32803 -1.59461 0
M  V30 6755 O 660.889 -0.591709 -1.68407 0
M  V30 6756 C 657.989 -1.21566 -3.16346 0
M  V30 6757 C 657.162 -2.44399 -3.62751 0
M  V30 6758 C 656.221 -2.18344 -4.78761 0
M  V30 6759 O 655.247 -2.91611 -4.88827 0
M  V30 6760 N 656.449 -1.1924 -5.68122 0
M  V30 6761 H 659.214 -2.40045 -1.79439 0
M  V30 6762 H 656.775 -1.37861 -0.848872 0
M  V30 6763 H 658.767 -1.02037 -3.91625 0
M  V30 6764 H 657.337 -0.330368 -3.10849 0
M  V30 6765 H 656.557 -2.79433 -2.78048 0
M  V30 6766 H 657.845 -3.26173 -3.90498 0
M  V30 6767 H 657.243 -0.586603 -5.6265 0
M  V30 6768 H 655.8 -1.05698 -6.43173 0
M  V30 6769 N 659.233 0.902656 -1.29189 0
M  V30 6770 C 660.163 2.02294 -1.16616 0
M  V30 6771 C 661.144 1.6999 -0.0611175 0
M  V30 6772 O 662.329 1.9271 -0.240072 0
M  V30 6773 C 659.459 3.37018 -0.83882 0
M  V30 6774 C 658.413 3.83522 -1.89986 0
M  V30 6775 C 657.739 5.15337 -1.42589 0
M  V30 6776 C 659.039 4.04169 -3.30824 0
M  V30 6777 H 660.733 2.13071 -2.10336 0
M  V30 6778 H 658.279 1.02378 -1.01266 0
M  V30 6779 H 660.232 4.14895 -0.737584 0
M  V30 6780 H 658.956 3.26325 0.134071 0
M  V30 6781 H 657.615 3.07859 -1.99043 0
M  V30 6782 H 657.263 5.01056 -0.441759 0
M  V30 6783 H 656.963 5.47423 -2.13547 0
M  V30 6784 H 658.487 5.95758 -1.3381 0
M  V30 6785 H 659.901 4.72537 -3.24626 0
M  V30 6786 H 658.298 4.47604 -3.99713 0
M  V30 6787 H 659.368 3.08604 -3.74021 0
M  V30 6788 N 660.711 1.11618 1.11262 0
M  V30 6789 C 661.674 0.779447 2.15539 0
M  V30 6790 C 662.674 -0.202081 1.59525 0
M  V30 6791 O 663.864 0.0226356 1.74185 0
M  V30 6792 C 660.996 0.15674 3.40539 0
M  V30 6793 H 662.189 1.70324 2.4684 0
M  V30 6794 H 659.742 0.918298 1.26479 0
M  V30 6795 H 660.477 -0.777186 3.1485 0
M  V30 6796 H 660.262 0.863308 3.82478 0
M  V30 6797 H 661.752 -0.062661 4.17553 0
M  V30 6798 N 662.189 -1.289 0.906776 0
M  V30 6799 C 663.466 -1.90221 0.455537 0
M  V30 6800 C 663.846 -1.82251 -1.06527 0
M  V30 6801 O 663.194 -1.25385 -1.91026 0
M  V30 6802 C 663.404 -3.35015 0.97806 0
M  V30 6803 C 664.752 -4.12018 1.02598 0
M  V30 6804 O 665.776 -3.43947 0.926218 0
M  V30 6805 O 664.635 -5.33677 1.17689 0
M  V30 6806 H 661.729 -0.814505 0.143214 0
M  V30 6807 H 664.275 -1.37317 0.997104 0
M  V30 6808 H 663.047 -3.35006 2.02204 0
M  V30 6809 H 662.67 -3.95408 0.416914 0
M  V30 6810 N 663.667 -0.670007 -1.42649 0
M  V30 6811 C 664.913 -0.190568 -2.01903 0
M  V30 6812 C 665.246 1.19817 -1.52832 0
M  V30 6813 O 664.521 1.80342 -0.728485 0
M  V30 6814 C 664.804 -0.21991 -3.59428 0
M  V30 6815 C 664.657 -1.64376 -4.18689 0
M  V30 6816 C 665.976 0.434519 -4.3795 0
M  V30 6817 H 663.095 -0.0707219 -0.733599 0
M  V30 6818 H 665.737 -0.853883 -1.69732 0
M  V30 6819 H 663.887 0.344894 -3.86966 0
M  V30 6820 H 665.559 -2.26044 -4.02122 0
M  V30 6821 H 663.802 -2.18591 -3.747 0
M  V30 6822 H 664.473 -1.61601 -5.27815 0
M  V30 6823 H 666.949 -0.0462156 -4.16074 0
M  V30 6824 H 665.825 0.38333 -5.4756 0
M  V30 6825 H 666.086 1.51135 -4.15464 0
M  V30 6826 N 665.145 1.52092 -0.413018 0
M  V30 6827 C 666.093 2.28681 0.425199 0
M  V30 6828 C 667.087 1.3353 1.04241 0
M  V30 6829 O 668.293 1.50973 0.980166 0
M  V30 6830 H 664.668 0.735661 0.155906 0
M  V30 6831 H 666.639 2.97418 -0.241926 0
M  V30 6832 C 665.388 3.1235 1.5275 0
M  V30 6833 H 664.711 3.85439 1.06191 0
M  V30 6834 H 666.151 3.69038 2.08774 0
M  V30 6835 C 664.61 2.26161 2.49706 0
M  V30 6836 O 665.14 1.90452 3.53682 0
M  V30 6837 N 663.346 1.89854 2.20008 0
M  V30 6838 H 662.893 2.19092 1.35486 0
M  V30 6839 H 662.851 1.3248 2.85125 0
M  V30 6840 N 666.623 0.143563 1.56945 0
M  V30 6841 C 667.571 -0.814556 2.17871 0
M  V30 6842 C 668.565 -1.25778 1.13474 0
M  V30 6843 O 669.771 -1.22666 1.31731 0
M  V30 6844 H 666.146 -0.280873 0.697578 0
M  V30 6845 H 668.117 -0.276459 2.97117 0
M  V30 6846 C 666.866 -2.04503 2.81201 0
M  V30 6847 H 666.189 -1.71296 3.61245 0
M  V30 6848 H 667.629 -2.69493 3.27337 0
M  V30 6849 C 666.088 -2.85079 1.79532 0
M  V30 6850 O 666.618 -3.81306 1.26368 0
M  V30 6851 N 664.824 -2.49546 1.48913 0
M  V30 6852 H 664.371 -1.71359 1.92338 0
M  V30 6853 H 664.329 -3.03751 0.811348 0
M  V30 6854 N 668.101 -1.57061 -0.130224 0
M  V30 6855 C 669.35 -1.83446 -0.838488 0
M  V30 6856 C 669.663 -0.727468 -1.81569 0
M  V30 6857 O 670.869 -0.877394 -2.56932 0
M  V30 6858 C 669.325 -3.25201 -1.54182 0
M  V30 6859 C 668.933 -4.4388 -0.606178 0
M  V30 6860 C 670.677 -3.60844 -2.23588 0
M  V30 6861 C 668.584 -5.76661 -1.31209 0
M  V30 6862 H 667.514 -0.684185 -0.316871 0
M  V30 6863 H 670.165 -1.83273 -0.0912059 0
M  V30 6864 H 668.547 -3.1981 -2.33533 0
M  V30 6865 H 669.721 -4.60545 0.153308 0
M  V30 6866 H 668.036 -4.16395 -0.0196705 0
M  V30 6867 H 670.633 -4.57313 -2.77072 0
M  V30 6868 H 670.976 -2.87724 -3.00867 0
M  V30 6869 H 671.509 -3.67971 -1.51137 0
M  V30 6870 H 668.248 -6.52922 -0.580823 0
M  V30 6871 H 667.768 -5.63902 -2.04387 0
M  V30 6872 H 669.447 -6.20035 -1.8484 0
M  V30 6873 N 669.579 0.400081 -1.52437 0
M  V30 6874 C 670.827 1.14392 -1.6661 0
M  V30 6875 C 671.148 1.90792 -0.402927 0
M  V30 6876 O 670.418 1.87042 0.582425 0
M  V30 6877 H 668.998 0.425275 -0.614125 0
M  V30 6878 H 671.66 0.455076 -1.89513 0
M  V30 6879 H 670.756 1.85298 -2.51139 0
M  V30 6880 N 671.057 1.43213 0.657864 0
M  V30 6881 C 672.004 1.48011 1.77092 0
M  V30 6882 C 672.974 0.330291 1.62783 0
M  V30 6883 O 674.159 0.536787 1.83094 0
M  V30 6884 C 671.299 1.40461 3.15222 0
M  V30 6885 C 670.412 2.65612 3.40697 0
M  V30 6886 C 669.547 2.50083 4.68649 0
M  V30 6887 C 668.586 3.70525 4.87214 0
M  V30 6888 N 667.723 3.53835 6.0642 0
M  V30 6889 H 672.563 2.43121 1.72326 0
M  V30 6890 H 670.1 1.20687 0.841013 0
M  V30 6891 H 672.058 1.34079 3.95068 0
M  V30 6892 H 670.688 0.489359 3.19069 0
M  V30 6893 H 669.74 2.82292 2.54982 0
M  V30 6894 H 671.052 3.5509 3.50303 0
M  V30 6895 H 670.206 2.41383 5.56614 0
M  V30 6896 H 668.945 1.58121 4.61356 0
M  V30 6897 H 667.95 3.79639 3.97686 0
M  V30 6898 H 669.175 4.63489 4.96341 0
M  V30 6899 H 667.121 2.64604 6.00267 0
M  V30 6900 H 667.038 4.36912 6.16963 0
M  V30 6901 H 668.306 3.48978 6.97019 0
M  V30 6902 N 672.536 -0.895792 1.29666 0
M  V30 6903 C 673.766 -1.67757 1.20586 0
M  V30 6904 C 674.174 -1.87729 -0.235432 0
M  V30 6905 O 673.517 -1.41706 -1.16898 0
M  V30 6906 C 673.579 -3.08117 1.85215 0
M  V30 6907 C 673.243 -3.1136 3.3452 0
M  V30 6908 C 674.24 -2.91217 4.30684 0
M  V30 6909 C 671.925 -3.33302 3.75786 0
M  V30 6910 C 673.919 -2.92955 5.66089 0
M  V30 6911 C 671.606 -3.3467 5.11311 0
M  V30 6912 C 672.604 -3.14519 6.06273 0
M  V30 6913 O 672.292 -3.15684 7.39323 0
M  V30 6914 H 672.024 -0.530601 0.418854 0
M  V30 6915 H 674.578 -1.12831 1.71634 0
M  V30 6916 H 672.808 -3.64661 1.28683 0
M  V30 6917 H 674.497 -3.68399 1.70403 0
M  V30 6918 H 675.263 -2.74074 4.00136 0
M  V30 6919 H 671.142 -3.48025 3.02324 0
M  V30 6920 H 674.686 -2.77145 6.40185 0
M  V30 6921 H 670.583 -3.51346 5.41504 0
M  V30 6922 H 671.351 -3.31924 7.48177 0
M  V30 6923 N 674.014 -1.12206 -1.10668 0
M  V30 6924 C 675.43 -0.857619 -1.346 0
M  V30 6925 C 675.63 0.513542 -1.94846 0
M  V30 6926 O 674.686 1.26273 -2.18658 0
M  V30 6927 C 675.999 -1.97212 -2.26998 0
M  V30 6928 C 677.547 -2.00272 -2.40542 0
M  V30 6929 C 678.022 -3.10948 -3.36267 0
M  V30 6930 N 679.513 -3.10375 -3.43834 0
M  V30 6931 C 680.248 -3.92651 -4.17867 0
M  V30 6932 N 679.744 -4.84911 -4.94807 0
M  V30 6933 N 681.537 -3.80798 -4.1346 0
M  V30 6934 H 673.688 -2.00558 -0.699306 0
M  V30 6935 H 675.951 -0.872612 -0.370477 0
M  V30 6936 H 675.657 -2.96002 -1.89936 0
M  V30 6937 H 675.531 -1.87521 -3.27286 0
M  V30 6938 H 677.918 -1.02103 -2.76874 0
M  V30 6939 H 677.999 -2.14037 -1.40077 0
M  V30 6940 H 677.643 -4.09348 -3.00661 0
M  V30 6941 H 677.573 -2.94421 -4.36605 0
M  V30 6942 H 680.064 -2.43536 -2.88961 0
M  V30 6943 H 680.377 -5.44207 -5.48688 0
M  V30 6944 H 678.722 -4.88926 -4.93939 0
M  V30 6945 H 681.913 -3.08058 -3.52445 0
M  V30 6946 H 682.086 -4.4515 -4.70898 0
M  V30 6947 N 675.492 1.28418 -0.913599 0
M  V30 6948 C 676.717 1.99643 -0.561899 0
M  V30 6949 C 677.142 1.67819 0.849608 0
M  V30 6950 O 676.5 0.910503 1.56779 0
M  V30 6951 C 676.548 3.52116 -0.777622 0
M  V30 6952 O 675.652 4.12076 0.163457 0
M  V30 6953 H 674.993 0.627229 -0.217898 0
M  V30 6954 H 677.523 1.63575 -1.229 0
M  V30 6955 H 677.533 4.02163 -0.687666 0
M  V30 6956 H 676.208 3.74613 -1.8066 0
M  V30 6957 H 674.785 3.72892 0.0247827 0
M  V30 6958 N 676.97 0.677563 1.42291 0
M  V30 6959 C 677.933 0.0101085 2.29198 0
M  V30 6960 C 678.933 -0.726219 1.43467 0
M  V30 6961 O 680.123 -0.563807 1.64824 0
M  V30 6962 C 677.255 -0.996316 3.26016 0
M  V30 6963 H 678.448 0.775071 2.89711 0
M  V30 6964 H 676.001 0.440065 1.49977 0
M  V30 6965 H 676.736 -1.78967 2.70446 0
M  V30 6966 H 676.521 -0.471687 3.89253 0
M  V30 6967 H 678.011 -1.46167 3.91184 0
M  V30 6968 N 678.448 -1.51871 0.421078 0
M  V30 6969 C 679.696 -2.01539 -0.150492 0
M  V30 6970 C 680.017 -1.30803 -1.44623 0
M  V30 6971 O 679.287 -0.437568 -1.90951 0
M  V30 6972 H 677.867 -0.744698 -0.0586041 0
M  V30 6973 H 680.529 -1.8668 0.560059 0
M  V30 6974 H 679.625 -3.10264 -0.338068 0
M  V30 6975 N 679.926 -0.151884 -1.56866 0
M  V30 6976 C 680.889 0.771861 -2.15812 0
M  V30 6977 C 681.889 1.17181 -1.10115 0
M  V30 6978 O 683.079 1.09194 -1.35729 0
M  V30 6979 C 680.211 2.04806 -2.7252 0
M  V30 6980 H 681.404 0.259021 -2.98779 0
M  V30 6981 H 678.957 0.097588 -1.55995 0
M  V30 6982 H 679.692 2.60445 -1.93233 0
M  V30 6983 H 679.477 1.77044 -3.49854 0
M  V30 6984 H 680.967 2.70771 -3.1792 0
M  V30 6985 N 681.404 1.57128 0.121893 0
M  V30 6986 C 682.644 1.86517 0.836113 0
M  V30 6987 C 683.008 0.739497 1.77188 0
M  V30 6988 O 684.209 0.91508 2.52744 0
M  V30 6989 C 682.48 3.21129 1.56878 0
M  V30 6990 S 684.039 3.72143 2.32497 0
M  V30 6991 H 680.857 0.653923 0.279115 0
M  V30 6992 H 683.459 1.95271 0.0946254 0
M  V30 6993 H 682.163 4.01002 0.873255 0
M  V30 6994 H 681.694 3.15446 2.35069 0
M  V30 6995 H 683.709 3.43413 3.58164 0
M  V30 6996 N 682.882 -0.391992 1.52647 0
M  V30 6997 C 684.11 -1.1586 1.71418 0
M  V30 6998 C 684.525 -1.8381 0.431216 0
M  V30 6999 O 683.882 -1.7256 -0.594085 0
M  V30 7000 C 683.933 -2.20888 2.86165 0
M  V30 7001 O 683.654 -1.5571 4.09495 0
M  V30 7002 C 685.155 -3.103 3.1659 0
M  V30 7003 H 682.375 -0.347494 0.574011 0
M  V30 7004 H 684.919 -0.458972 1.99283 0
M  V30 7005 H 683.074 -2.86492 2.6077 0
M  V30 7006 H 683.488 -2.25474 4.73563 0
M  V30 7007 H 684.962 -3.8003 4.00351 0
M  V30 7008 H 685.439 -3.73639 2.30848 0
M  V30 7009 H 686.045 -2.50345 3.43813 0
M  V30 7010 N 684.36 -1.4356 -0.65026 0
M  V30 7011 C 685.323 -1.48615 -1.74489 0
M  V30 7012 C 686.323 -0.370483 -1.56474 0
M  V30 7013 O 687.513 -0.632351 -1.62317 0
M  V30 7014 C 684.645 -1.34161 -3.13391 0
M  V30 7015 H 685.838 -2.46103 -1.71387 0
M  V30 7016 H 683.391 -1.30369 -0.862186 0
M  V30 7017 H 684.126 -0.376918 -3.22102 0
M  V30 7018 H 683.911 -2.1504 -3.27872 0
M  V30 7019 H 685.401 -1.40637 -3.93206 0
M  V30 7020 N 685.838 0.888903 -1.30139 0
M  V30 7021 C 686.801 1.97576 -1.16174 0
M  V30 7022 C 687.801 1.60525 -0.094086 0
M  V30 7023 O 688.991 1.70812 -0.341889 0
M  V30 7024 C 686.123 3.3188 -0.778983 0
M  V30 7025 H 687.316 2.11393 -2.12728 0
M  V30 7026 H 684.869 1.0748 -1.1348 0
M  V30 7027 H 685.604 3.23765 0.186225 0
M  V30 7028 H 685.389 3.60141 -1.55051 0
M  V30 7029 H 686.879 4.11612 -0.704631 0
M  V30 7030 N 687.317 1.12792 1.10072 0
M  V30 7031 C 688.28 0.802264 2.14701 0
M  V30 7032 C 689.28 -0.18515 1.59731 0
M  V30 7033 O 690.47 0.041109 1.74151 0
M  V30 7034 C 687.602 0.19285 3.40354 0
M  V30 7035 H 688.795 1.72932 2.45019 0
M  V30 7036 H 686.348 0.931662 1.25498 0
M  V30 7037 H 687.083 -0.743748 3.15656 0
M  V30 7038 H 686.868 0.903827 3.81541 0
M  V30 7039 H 688.358 -0.0183704 4.17596 0
M  V30 7040 N 688.795 -1.27931 0.920396 0
M  V30 7041 C 690.042 -1.94689 0.557007 0
M  V30 7042 C 690.37 -1.724 -0.900476 0
M  V30 7043 O 689.625 -1.04194 -1.65657 0
M  V30 7044 C 689.924 -3.47853 0.820558 0
M  V30 7045 C 689.59 -3.90252 2.25863 0
M  V30 7046 C 688.252 -4.01539 2.65179 0
M  V30 7047 C 690.604 -4.11853 3.19415 0
M  V30 7048 C 687.932 -4.3181 3.97187 0
M  V30 7049 C 690.284 -4.43606 4.50995 0
M  V30 7050 C 688.948 -4.53105 4.90155 0
M  V30 7051 H 688.218 -0.712416 0.203823 0
M  V30 7052 H 690.865 -1.52142 1.16298 0
M  V30 7053 H 689.17 -3.91578 0.131844 0
M  V30 7054 H 690.867 -3.97634 0.51847 0
M  V30 7055 H 687.457 -3.81999 1.94358 0
M  V30 7056 H 691.641 -4.0258 2.90246 0
M  V30 7057 H 686.897 -4.37371 4.2722 0
M  V30 7058 H 691.071 -4.59268 5.23494 0
M  V30 7059 H 688.698 -4.76315 5.92476 0
M  V30 7060 N 690.273 -0.685099 -1.4193 0
M  V30 7061 C 691.203 -0.0273506 -2.33484 0
M  V30 7062 C 692.184 0.778366 -1.51246 0
M  V30 7063 O 693.369 0.733449 -1.79817 0
M  V30 7064 C 690.499 0.917272 -3.34968 0
M  V30 7065 C 689.453 0.21941 -4.27437 0
M  V30 7066 C 688.779 1.27768 -5.1921 0
M  V30 7067 C 690.079 -0.907894 -5.14349 0
M  V30 7068 H 691.773 -0.791994 -2.88735 0
M  V30 7069 H 689.319 -0.382308 -1.38832 0
M  V30 7070 H 691.272 1.38657 -3.97935 0
M  V30 7071 H 689.996 1.71346 -2.78043 0
M  V30 7072 H 688.655 -0.229757 -3.65879 0
M  V30 7073 H 688.303 2.06612 -4.58607 0
M  V30 7074 H 688.003 0.815803 -5.81909 0
M  V30 7075 H 689.527 1.7477 -5.85054 0
M  V30 7076 H 690.941 -0.519348 -5.70943 0
M  V30 7077 H 689.338 -1.2962 -5.85934 0
M  V30 7078 H 690.408 -1.75218 -4.52136 0
M  V30 7079 N 691.751 1.51645 -0.429126 0
M  V30 7080 C 692.698 2.27542 0.386446 0
M  V30 7081 C 693.668 1.30786 1.02393 0
M  V30 7082 O 694.853 1.59678 1.0444 0
M  V30 7083 C 691.993 3.11457 1.48623 0
M  V30 7084 C 691.106 4.23196 0.867691 0
M  V30 7085 C 690.241 4.94435 1.94183 0
M  V30 7086 C 689.28 5.98108 1.30129 0
M  V30 7087 N 688.417 6.62786 2.31644 0
M  V30 7088 H 693.257 2.968 -0.267155 0
M  V30 7089 H 690.794 1.46397 -0.143591 0
M  V30 7090 H 692.752 3.58429 2.13506 0
M  V30 7091 H 691.382 2.44329 2.10957 0
M  V30 7092 H 690.434 3.80248 0.107373 0
M  V30 7093 H 691.746 4.97499 0.35997 0
M  V30 7094 H 690.9 5.44914 2.66747 0
M  V30 7095 H 689.639 4.19744 2.48326 0
M  V30 7096 H 688.644 5.4693 0.561082 0
M  V30 7097 H 689.869 6.74751 0.767303 0
M  V30 7098 H 687.815 5.90913 2.84883 0
M  V30 7099 H 687.732 7.32828 1.85741 0
M  V30 7100 H 689 7.17897 3.03717 0
M  V30 7101 N 693.229 0.160201 1.56784 0
M  V30 7102 C 694.139 -0.787167 2.21 0
M  V30 7103 C 695.155 -1.26167 1.19825 0
M  V30 7104 O 696.331 -1.31611 1.52448 0
M  V30 7105 C 693.396 -2.00364 2.8294 0
M  V30 7106 C 692.457 -1.5771 3.99282 0
M  V30 7107 C 691.69 -2.73558 4.58259 0
M  V30 7108 O 691.913 -3.90129 4.16119 0
M  V30 7109 O 690.847 -2.48271 5.48311 0
M  V30 7110 H 694.673 -0.270462 3.02493 0
M  V30 7111 H 692.258 -0.0674666 1.49248 0
M  V30 7112 H 694.14 -2.71529 3.22257 0
M  V30 7113 H 692.815 -2.50961 2.04451 0
M  V30 7114 H 691.722 -0.835274 3.64656 0
M  V30 7115 H 693.055 -1.11815 4.79331 0
M  V30 7116 N 694.707 -1.5719 -0.113559 0
M  V30 7117 C 695.954 -1.85138 -0.820382 0
M  V30 7118 C 696.282 -0.74608 -1.79622 0
M  V30 7119 O 695.537 0.262077 -1.93937 0
M  V30 7120 C 695.836 -3.19593 -1.59984 0
M  V30 7121 C 695.502 -4.44315 -0.767809 0
M  V30 7122 C 694.164 -4.78179 -0.538379 0
M  V30 7123 C 696.516 -5.2086 -0.188203 0
M  V30 7124 C 693.844 -5.86028 0.28082 0
M  V30 7125 C 696.196 -6.29572 0.618217 0
M  V30 7126 C 694.86 -6.61964 0.857912 0
M  V30 7127 H 694.13 -0.677467 -0.300199 0
M  V30 7128 H 696.777 -1.91322 -0.0825443 0
M  V30 7129 H 695.082 -3.0901 -2.40874 0
M  V30 7130 H 696.779 -3.3844 -2.1508 0
M  V30 7131 H 693.369 -4.17786 -0.956724 0
M  V30 7132 H 697.553 -4.95045 -0.352658 0
M  V30 7133 H 692.809 -6.09547 0.475693 0
M  V30 7134 H 696.983 -6.88064 1.0743 0
M  V30 7135 H 694.61 -7.45365 1.49451 0
M  V30 7136 N 696.185 0.383891 -1.52853 0
M  V30 7137 C 697.431 1.13009 -1.68395 0
M  V30 7138 C 697.764 1.89488 -0.425195 0
M  V30 7139 O 697.039 1.8574 0.577136 0
M  V30 7140 C 697.322 2.10419 -2.92226 0
M  V30 7141 C 697.175 1.3767 -4.28214 0
M  V30 7142 C 698.494 3.10781 -3.11614 0
M  V30 7143 H 695.613 0.409463 -0.612788 0
M  V30 7144 H 698.255 0.412895 -1.85459 0
M  V30 7145 H 696.405 2.71579 -2.77808 0
M  V30 7146 H 698.077 0.794352 -4.54409 0
M  V30 7147 H 696.32 0.678533 -4.2846 0
M  V30 7148 H 696.991 2.08874 -5.10956 0
M  V30 7149 H 699.467 2.59715 -3.25096 0
M  V30 7150 H 698.343 3.76179 -3.99725 0
M  V30 7151 H 698.604 3.79933 -2.2606 0
M  V30 7152 N 697.663 1.43903 0.642637 0
M  V30 7153 C 698.891 1.4954 1.42988 0
M  V30 7154 C 699.306 0.116588 1.8844 0
M  V30 7155 O 698.663 -0.875285 1.60141 0
M  V30 7156 C 698.714 2.45031 2.65785 0
M  V30 7157 O 698.435 3.77551 2.22232 0
M  V30 7158 C 699.936 2.60017 3.59035 0
M  V30 7159 H 697.156 0.507544 0.438907 0
M  V30 7160 H 699.7 1.88752 0.786942 0
M  V30 7161 H 697.855 2.08985 3.26196 0
M  V30 7162 H 698.269 4.29001 3.01759 0
M  V30 7163 H 699.743 3.30887 4.41835 0
M  V30 7164 H 700.22 1.64861 4.07084 0
M  V30 7165 H 700.826 2.96918 3.045 0
M  V30 7166 N 699.141 -0.881989 1.30609 0
M  V30 7167 C 700.091 -1.97539 1.13852 0
M  V30 7168 C 701.075 -1.60813 0.0528428 0
M  V30 7169 O 702.267 -1.74827 0.276484 0
M  V30 7170 C 699.396 -3.32977 0.835519 0
M  V30 7171 C 698.482 -3.76008 1.96159 0
M  V30 7172 N 698.873 -3.91109 3.20729 0
M  V30 7173 C 697.171 -4.05427 1.85863 0
M  V30 7174 C 697.872 -4.27661 3.94311 0
M  V30 7175 N 696.848 -4.37686 3.22385 0
M  V30 7176 H 700.65 -2.07309 2.08327 0
M  V30 7177 H 698.164 -1.072 1.21992 0
M  V30 7178 H 700.161 -4.11041 0.696477 0
M  V30 7179 H 698.821 -3.24542 -0.101135 0
M  V30 7180 H 699.832 -3.7616 3.55984 0
M  V30 7181 H 696.509 -4.05449 0.995847 0
M  V30 7182 H 697.899 -4.47042 5.01601 0
M  V30 7183 N 700.619 -1.13374 -1.09472 0
M  V30 7184 C 702.03 -0.90801 -1.63132 0
M  V30 7185 C 702.381 0.555576 -1.8817 0
M  V30 7186 O 701.506 1.42218 -1.63104 0
M  V30 7187 C 702.101 -1.64182 -2.96361 0
M  V30 7188 C 700.66 -1.46197 -3.46848 0
M  V30 7189 C 699.807 -1.67134 -2.21273 0
M  V30 7190 H 702.758 -1.2871 -0.928411 0
M  V30 7191 H 702.779 -1.09863 -3.64294 0
M  V30 7192 H 702.291 -2.707 -2.78106 0
M  V30 7193 H 700.392 -0.419788 -3.70228 0
M  V30 7194 H 700.505 -2.22472 -4.24315 0
M  V30 7195 H 698.869 -1.09616 -2.29905 0
M  V30 7196 H 699.652 -2.74971 -2.05538 0
M  V30 7197 N 702.098 1.27442 -0.927168 0
M  V30 7198 C 703.045 2.26863 -0.424459 0
M  V30 7199 C 704.015 1.5813 0.508346 0
M  V30 7200 O 705.2 1.85946 0.42762 0
M  V30 7201 C 702.34 3.43639 0.31718 0
M  V30 7202 C 701.453 4.27087 -0.649675 0
M  V30 7203 C 700.588 5.31082 0.111753 0
M  V30 7204 C 699.627 6.062 -0.847843 0
M  V30 7205 N 698.764 7.01999 -0.119074 0
M  V30 7206 H 703.604 2.69239 -1.27728 0
M  V30 7207 H 701.141 1.32394 -0.641106 0
M  V30 7208 H 703.099 4.10155 0.763486 0
M  V30 7209 H 701.729 3.02217 1.13424 0
M  V30 7210 H 700.781 3.60491 -1.21451 0
M  V30 7211 H 702.093 4.79242 -1.38307 0
M  V30 7212 H 701.247 6.03544 0.618 0
M  V30 7213 H 699.986 4.7973 0.878114 0
M  V30 7214 H 698.991 5.32577 -1.36534 0
M  V30 7215 H 700.216 6.59642 -1.61398 0
M  V30 7216 H 698.162 6.52977 0.629051 0
M  V30 7217 H 698.079 7.5184 -0.792046 0
M  V30 7218 H 699.347 7.78638 0.366537 0
M  V30 7219 N 703.576 0.692616 1.41565 0
M  V30 7220 C 704.822 0.231408 2.02079 0
M  V30 7221 C 705.177 -1.15514 1.53864 0
M  V30 7222 O 704.47 -1.76786 0.73873 0
M  V30 7223 C 704.664 0.225073 3.56691 0
M  V30 7224 C 704.493 1.60947 4.19912 0
M  V30 7225 C 703.263 2.2116 4.54331 0
M  V30 7226 C 705.461 2.55553 4.46315 0
M  V30 7227 N 703.443 3.52195 5.02824 0
M  V30 7228 C 704.814 3.71263 4.96552 0
M  V30 7229 C 706.869 2.53857 4.28323 0
M  V30 7230 C 705.572 4.85555 5.30687 0
M  V30 7231 C 707.598 3.67259 4.63546 0
M  V30 7232 C 706.96 4.81699 5.13951 0
M  V30 7233 H 703.059 0.130001 0.771119 0
M  V30 7234 H 705.643 0.909459 1.72154 0
M  V30 7235 H 703.814 -0.422453 3.86096 0
M  V30 7236 H 705.546 -0.250685 4.03923 0
M  V30 7237 H 702.301 1.73474 4.40685 0
M  V30 7238 H 702.725 4.19354 5.3148 0
M  V30 7239 H 707.367 1.66598 3.88594 0
M  V30 7240 H 705.085 5.73477 5.69341 0
M  V30 7241 H 708.671 3.67195 4.51286 0
M  V30 7242 H 707.551 5.67995 5.40695 0
M  V30 7243 N 705.054 -1.51416 0.437162 0
M  V30 7244 C 706.017 -2.26312 -0.362729 0
M  V30 7245 C 707.017 -1.29748 -0.949847 0
M  V30 7246 O 708.207 -1.53462 -0.824325 0
M  V30 7247 C 705.339 -3.05475 -1.5132 0
M  V30 7248 H 706.532 -2.98459 0.29365 0
M  V30 7249 H 704.085 -1.55137 0.190327 0
M  V30 7250 H 704.82 -2.37744 -2.20563 0
M  V30 7251 H 704.605 -3.76401 -1.09838 0
M  V30 7252 H 706.095 -3.62209 -2.07833 0
M  V30 7253 N 706.532 -0.168513 -1.56696 0
M  V30 7254 C 707.482 0.7751 -2.14421 0
M  V30 7255 C 708.466 1.19476 -1.07769 0
M  V30 7256 O 709.658 1.15759 -1.33898 0
M  V30 7257 C 706.787 2.00549 -2.7863 0
M  V30 7258 C 705.873 1.60795 -3.92436 0
M  V30 7259 N 706.264 0.919812 -4.97366 0
M  V30 7260 C 704.562 1.89917 -4.03544 0
M  V30 7261 C 705.263 0.724485 -5.77171 0
M  V30 7262 N 704.239 1.26505 -5.28675 0
M  V30 7263 H 708.041 0.240349 -2.92916 0
M  V30 7264 H 705.555 0.0322675 -1.62368 0
M  V30 7265 H 707.552 2.6917 -3.1836 0
M  V30 7266 H 706.212 2.54522 -2.01615 0
M  V30 7267 H 707.223 0.578169 -5.14663 0
M  V30 7268 H 703.9 2.45587 -3.37629 0
M  V30 7269 H 705.29 0.180521 -6.71657 0
M  V30 7270 N 708.01 1.57248 0.105221 0
M  V30 7271 C 708.94 2.04374 1.12931 0
M  V30 7272 C 709.921 0.93074 1.42377 0
M  V30 7273 O 711.106 1.20136 1.52581 0
M  V30 7274 C 708.236 2.45967 2.45189 0
M  V30 7275 C 707.19 3.60838 2.30174 0
M  V30 7276 C 706.516 3.88374 3.67518 0
M  V30 7277 C 707.816 4.92084 1.75073 0
M  V30 7278 H 709.51 2.9018 0.737287 0
M  V30 7279 H 707.056 1.39601 0.353211 0
M  V30 7280 H 709.009 2.77542 3.17094 0
M  V30 7281 H 707.733 1.57148 2.86308 0
M  V30 7282 H 706.392 3.29493 1.60716 0
M  V30 7283 H 706.04 2.96739 4.06147 0
M  V30 7284 H 705.74 4.65703 3.58321 0
M  V30 7285 H 707.264 4.22415 4.40906 0
M  V30 7286 H 708.678 5.22106 2.36809 0
M  V30 7287 H 707.075 5.73507 1.76662 0
M  V30 7288 H 708.145 4.79684 0.709347 0
M  V30 7289 N 709.488 -0.375779 1.53054 0
M  V30 7290 C 710.765 -1.13453 1.59336 0
M  V30 7291 C 711.145 -2.07379 0.394614 0
M  V30 7292 O 710.493 -2.2004 -0.616 0
M  V30 7293 C 710.703 -1.8826 2.93869 0
M  V30 7294 C 712.051 -2.43155 3.48081 0
M  V30 7295 O 713.075 -1.984 2.95831 0
M  V30 7296 O 711.934 -3.24944 4.39401 0
M  V30 7297 H 709.028 -0.519856 0.643179 0
M  V30 7298 H 711.574 -0.379865 1.65394 0
M  V30 7299 H 710.346 -1.19652 3.72558 0
M  V30 7300 H 709.969 -2.70658 2.91256 0
M  V30 7301 N 710.966 -1.44241 -0.634997 0
M  V30 7302 C 712.215 -1.46102 -1.39058 0
M  V30 7303 C 712.528 -0.0959909 -1.95364 0
M  V30 7304 O 713.734 0.00788751 -2.71499 0
M  V30 7305 C 712.19 -2.57195 -2.51751 0
M  V30 7306 C 711.798 -3.99888 -2.01974 0
M  V30 7307 C 713.542 -2.68272 -3.28984 0
M  V30 7308 C 711.449 -5.02412 -3.11987 0
M  V30 7309 H 710.379 -0.543556 -0.522554 0
M  V30 7310 H 713.03 -1.70294 -0.683538 0
M  V30 7311 H 711.412 -2.26237 -3.25012 0
M  V30 7312 H 712.586 -4.40396 -1.35604 0
M  V30 7313 H 710.901 -3.93019 -1.37568 0
M  V30 7314 H 713.498 -3.42042 -4.10988 0
M  V30 7315 H 713.841 -1.73957 -3.78212 0
M  V30 7316 H 714.374 -2.98622 -2.62812 0
M  V30 7317 H 711.113 -5.98342 -2.67707 0
M  V30 7318 H 710.633 -4.66501 -3.77011 0
M  V30 7319 H 712.312 -5.25939 -3.76825 0
M  V30 7320 N 712.444 0.87505 -1.31075 0
M  V30 7321 C 713.407 1.96333 -1.18263 0
M  V30 7322 C 714.407 1.60416 -0.111106 0
M  V30 7323 O 715.597 1.7044 -0.359987 0
M  V30 7324 C 712.729 3.31036 -0.81414 0
M  V30 7325 H 713.922 2.09125 -2.14958 0
M  V30 7326 H 711.475 1.06271 -1.14614 0
M  V30 7327 H 712.21 3.23944 0.151875 0
M  V30 7328 H 711.995 3.58476 -1.58862 0
M  V30 7329 H 713.485 4.10842 -0.748249 0
M  V30 7330 N 713.922 1.13953 1.08869 0
M  V30 7331 C 715.17 0.903023 1.80803 0
M  V30 7332 C 715.491 -0.572151 1.86417 0
M  V30 7333 O 714.761 -1.41589 1.35386 0
M  V30 7334 H 713.341 0.331099 0.669614 0
M  V30 7335 H 716.003 1.43719 1.31647 0
M  V30 7336 H 715.099 1.29881 2.83791 0
M  V30 7337 N 715.4 -1.26948 0.933913 0
M  V30 7338 C 716.646 -1.94374 0.57848 0
M  V30 7339 C 716.979 -1.73166 -0.879048 0
M  V30 7340 O 716.254 -1.06438 -1.62792 0
M  V30 7341 C 716.537 -3.4834 0.912739 0
M  V30 7342 C 716.39 -3.78866 2.42448 0
M  V30 7343 C 717.709 -4.38062 0.423003 0
M  V30 7344 H 714.828 -0.705959 0.211639 0
M  V30 7345 H 717.47 -1.49951 1.16682 0
M  V30 7346 H 715.62 -3.86309 0.412058 0
M  V30 7347 H 717.292 -3.50654 2.99733 0
M  V30 7348 H 715.535 -3.25198 2.87104 0
M  V30 7349 H 716.206 -4.86458 2.60887 0
M  V30 7350 H 718.682 -4.0728 0.852191 0
M  V30 7351 H 717.558 -5.44599 0.685776 0
M  V30 7352 H 717.819 -4.36886 -0.676994 0
M  V30 7353 N 716.879 -0.700114 -1.41195 0
M  V30 7354 C 717.812 0.0129614 -2.28196 0
M  V30 7355 C 718.79 0.783367 -1.42486 0
M  V30 7356 O 719.974 0.773238 -1.71911 0
M  V30 7357 C 717.101 1.02575 -3.22794 0
M  V30 7358 C 716.147 0.347977 -4.25078 0
M  V30 7359 S 716.98 -0.912938 -5.27661 0
M  V30 7360 C 718.136 0.0981362 -6.25823 0
M  V30 7361 H 718.369 -0.724927 -2.88326 0
M  V30 7362 H 715.902 -0.490554 -1.464 0
M  V30 7363 H 717.86 1.60491 -3.77826 0
M  V30 7364 H 716.521 1.73624 -2.61751 0
M  V30 7365 H 715.714 1.11305 -4.91556 0
M  V30 7366 H 715.316 -0.15823 -3.73665 0
M  V30 7367 H 717.608 0.949965 -6.70807 0
M  V30 7368 H 718.551 -0.532838 -7.06092 0
M  V30 7369 H 718.959 0.454944 -5.62664 0
M  V30 7370 N 718.357 1.51182 -0.445186 0
M  V30 7371 C 719.585 2.06568 0.117091 0
M  V30 7372 C 720 1.31182 1.35781 0
M  V30 7373 O 719.357 0.373605 1.78635 0
M  V30 7374 C 719.408 3.58917 0.431408 0
M  V30 7375 O 719.129 4.31456 -0.760078 0
M  V30 7376 C 720.63 4.30843 1.0435 0
M  V30 7377 H 717.85 0.670985 0.00444436 0
M  V30 7378 H 720.394 1.94666 -0.626525 0
M  V30 7379 H 718.549 3.70708 1.12493 0
M  V30 7380 H 718.963 5.22215 -0.489048 0
M  V30 7381 H 720.437 5.38499 1.21337 0
M  V30 7382 H 720.914 3.89644 2.02667 0
M  V30 7383 H 721.52 4.23516 0.38913 0
M  V30 7384 N 719.835 0.176821 1.56605 0
M  V30 7385 C 720.783 -0.768159 2.1955 0
M  V30 7386 C 721.777 -1.23343 1.16116 0
M  V30 7387 O 722.983 -1.19844 1.34303 0
M  V30 7388 H 719.358 -0.266013 0.703378 0
M  V30 7389 H 721.329 -0.213374 2.97636 0
M  V30 7390 C 720.078 -1.98492 2.85475 0
M  V30 7391 H 719.401 -1.63595 3.64797 0
M  V30 7392 H 720.841 -2.62489 3.3298 0
M  V30 7393 C 719.3 -2.81207 1.85538 0
M  V30 7394 O 719.83 -3.7854 1.34427 0
M  V30 7395 N 718.036 -2.46331 1.54173 0
M  V30 7396 H 717.583 -1.67241 1.95929 0
M  V30 7397 H 717.541 -3.01961 0.875595 0
M  V30 7398 N 721.313 -1.57302 -0.09688 0
M  V30 7399 C 722.26 -2.01933 -1.11766 0
M  V30 7400 C 723.23 -0.895329 -1.39904 0
M  V30 7401 O 724.415 -1.16119 -1.51397 0
M  V30 7402 C 721.555 -2.44726 -2.43317 0
M  V30 7403 C 720.668 -3.70639 -2.21925 0
M  V30 7404 C 719.803 -4.02318 -3.46862 0
M  V30 7405 C 718.842 -5.21346 -3.20725 0
M  V30 7406 N 717.979 -5.48787 -4.37924 0
M  V30 7407 H 722.819 -2.88919 -0.730075 0
M  V30 7408 H 720.356 -1.42901 -0.348962 0
M  V30 7409 H 722.314 -2.6758 -3.20088 0
M  V30 7410 H 720.944 -1.60753 -2.79926 0
M  V30 7411 H 719.996 -3.55271 -1.35965 0
M  V30 7412 H 721.308 -4.57557 -1.98603 0
M  V30 7413 H 720.462 -4.25939 -4.32042 0
M  V30 7414 H 719.201 -3.13918 -3.73238 0
M  V30 7415 H 718.206 -4.97547 -2.33938 0
M  V30 7416 H 719.431 -6.11343 -2.95697 0
M  V30 7417 H 717.377 -4.63346 -4.64378 0
M  V30 7418 H 717.294 -6.30073 -4.17785 0
M  V30 7419 H 718.562 -5.76943 -5.24173 0
M  V30 7420 N 722.791 0.367657 -1.53252 0
M  V30 7421 C 724.068 1.12606 -1.59935 0
M  V30 7422 C 724.448 2.07167 -0.405606 0
M  V30 7423 O 723.796 2.20364 0.604323 0
M  V30 7424 C 724.006 1.86699 -2.94863 0
M  V30 7425 C 725.354 2.41306 -3.49366 0
M  V30 7426 O 726.378 1.96828 -2.96879 0
M  V30 7427 O 725.237 3.2261 -4.41118 0
M  V30 7428 H 722.331 0.516438 -0.645926 0
M  V30 7429 H 724.877 0.371088 -1.65593 0
M  V30 7430 H 723.649 1.17674 -3.73187 0
M  V30 7431 H 723.272 2.6911 -2.92687 0
M  V30 7432 N 724.269 1.44576 0.627338 0
M  V30 7433 C 725.179 1.54232 1.76776 0
M  V30 7434 C 726.195 0.427782 1.6866 0
M  V30 7435 O 727.371 0.685671 1.89369 0
M  V30 7436 C 724.436 1.48738 3.13174 0
M  V30 7437 C 723.497 2.71074 3.32893 0
M  V30 7438 C 722.73 2.65832 4.62784 0
M  V30 7439 O 722.953 1.72048 5.43834 0
M  V30 7440 O 721.887 3.56742 4.84787 0
M  V30 7441 H 725.713 2.50586 1.71582 0
M  V30 7442 H 723.298 1.26865 0.789028 0
M  V30 7443 H 725.18 1.48211 3.94476 0
M  V30 7444 H 723.855 0.555292 3.18902 0
M  V30 7445 H 722.762 2.77168 2.51254 0
M  V30 7446 H 724.095 3.63342 3.32029 0
M  V30 7447 N 725.747 -0.868086 1.31537 0
M  V30 7448 C 726.993 -1.62367 1.2151 0
M  V30 7449 C 727.326 -1.92883 -0.225819 0
M  V30 7450 O 726.601 -1.56176 -1.15927 0
M  V30 7451 C 726.884 -2.95268 2.06129 0
M  V30 7452 C 726.737 -2.71619 3.58529 0
M  V30 7453 C 728.056 -3.96391 1.91212 0
M  V30 7454 H 725.175 -0.589178 0.442762 0
M  V30 7455 H 727.817 -1.00336 1.61347 0
M  V30 7456 H 725.967 -3.4821 1.72284 0
M  V30 7457 H 727.639 -2.25334 4.0252 0
M  V30 7458 H 725.882 -2.05817 3.81866 0
M  V30 7459 H 726.553 -3.66192 4.13047 0
M  V30 7460 H 729.029 -3.52663 2.20834 0
M  V30 7461 H 727.905 -4.87263 2.52718 0
M  V30 7462 H 728.166 -4.33335 0.875953 0
M  V30 7463 N 727.225 -1.14528 -1.08264 0
M  V30 7464 C 728.636 -0.925261 -1.6216 0
M  V30 7465 C 728.987 0.535587 -1.88748 0
M  V30 7466 O 728.112 1.4048 -1.64604 0
M  V30 7467 C 728.707 -1.67316 -2.94603 0
M  V30 7468 C 727.266 -1.49868 -3.45278 0
M  V30 7469 C 726.413 -1.69471 -2.19487 0
M  V30 7470 H 729.364 -1.29687 -0.914707 0
M  V30 7471 H 729.385 -1.13721 -3.63109 0
M  V30 7472 H 728.897 -2.73635 -2.75219 0
M  V30 7473 H 726.998 -0.459032 -3.69762 0
M  V30 7474 H 727.111 -2.2696 -4.21931 0
M  V30 7475 H 725.475 -1.12048 -2.2873 0
M  V30 7476 H 726.258 -2.77136 -2.0261 0
M  V30 7477 N 728.703 1.26451 -0.940633 0
M  V30 7478 C 729.933 1.97581 -0.603766 0
M  V30 7479 C 730.341 1.70246 0.825395 0
M  V30 7480 O 729.684 0.967001 1.56188 0
M  V30 7481 C 729.746 3.51256 -0.765463 0
M  V30 7482 C 729.41 4.0224 -2.16915 0
M  V30 7483 C 730.407 4.1402 -3.14457 0
M  V30 7484 C 728.092 4.36263 -2.48958 0
M  V30 7485 C 730.086 4.59117 -4.42143 0
M  V30 7486 C 727.773 4.81048 -3.76877 0
M  V30 7487 C 728.771 4.92436 -4.73282 0
M  V30 7488 O 728.459 5.36234 -5.98923 0
M  V30 7489 H 728.191 0.636948 -0.226436 0
M  V30 7490 H 730.745 1.61941 -1.2635 0
M  V30 7491 H 728.975 3.86669 -0.0485956 0
M  V30 7492 H 730.664 4.03597 -0.431738 0
M  V30 7493 H 731.43 3.87981 -2.91026 0
M  V30 7494 H 727.309 4.26634 -1.74656 0
M  V30 7495 H 730.853 4.6792 -5.17394 0
M  V30 7496 H 726.75 5.06531 -4.00121 0
M  V30 7497 H 727.518 5.54456 -6.02097 0
M  V30 7498 N 730.181 0.707592 1.40822 0
M  V30 7499 C 731.111 0.0644925 2.33411 0
M  V30 7500 C 732.092 -0.754205 1.52466 0
M  V30 7501 O 733.277 -0.704749 1.80961 0
M  V30 7502 C 730.407 -0.863865 3.36385 0
M  V30 7503 C 729.361 -0.15138 4.27732 0
M  V30 7504 C 728.687 -1.19491 5.21177 0
M  V30 7505 C 729.987 0.989607 5.12839 0
M  V30 7506 H 731.681 0.837829 2.87438 0
M  V30 7507 H 729.227 0.404346 1.38207 0
M  V30 7508 H 731.18 -1.32309 4.0009 0
M  V30 7509 H 729.904 -1.66901 2.80734 0
M  V30 7510 H 728.563 0.287937 3.65467 0
M  V30 7511 H 728.211 -1.9929 4.61836 0
M  V30 7512 H 727.911 -0.723123 5.83134 0
M  V30 7513 H 729.435 -1.6544 5.8776 0
M  V30 7514 H 730.849 0.610114 5.70044 0
M  V30 7515 H 729.246 1.38926 5.83798 0
M  V30 7516 H 730.316 1.82389 4.49291 0
M  V30 7517 N 731.66 -1.50943 0.453197 0
M  V30 7518 C 733.076 -1.59245 0.106342 0
M  V30 7519 C 733.276 -1.46287 -1.38572 0
M  V30 7520 O 732.332 -1.31219 -2.15726 0
M  V30 7521 C 733.645 -2.93797 0.640595 0
M  V30 7522 C 735.193 -3.07148 0.602435 0
M  V30 7523 C 735.668 -4.44247 1.11393 0
M  V30 7524 N 737.159 -4.50611 1.07258 0
M  V30 7525 C 737.894 -5.55049 1.43905 0
M  V30 7526 N 737.39 -6.66828 1.87914 0
M  V30 7527 N 739.183 -5.45494 1.35621 0
M  V30 7528 H 731.334 -1.5761 1.42382 0
M  V30 7529 H 733.597 -0.74384 0.587713 0
M  V30 7530 H 733.303 -3.087 1.68515 0
M  V30 7531 H 733.177 -3.77127 0.0742272 0
M  V30 7532 H 735.564 -2.91903 -0.433171 0
M  V30 7533 H 735.645 -2.25619 1.20539 0
M  V30 7534 H 735.289 -4.60239 2.14808 0
M  V30 7535 H 735.219 -5.2434 0.487353 0
M  V30 7536 H 737.71 -3.70391 0.749585 0
M  V30 7537 H 738.023 -7.42558 2.14072 0
M  V30 7538 H 736.368 -6.67995 1.91853 0
M  V30 7539 H 739.559 -4.57053 1.01093 0
M  V30 7540 H 739.732 -6.2677 1.64508 0
M  V30 7541 N 733.138 -0.185124 -1.56509 0
M  V30 7542 C 734.085 0.739729 -2.18624 0
M  V30 7543 C 735.055 1.217 -1.13042 0
M  V30 7544 O 736.24 1.28268 -1.41251 0
M  V30 7545 C 733.38 1.95787 -2.84186 0
M  V30 7546 C 732.493 1.52289 -4.04267 0
M  V30 7547 C 731.628 2.69576 -4.57714 0
M  V30 7548 C 730.667 2.22636 -5.70175 0
M  V30 7549 N 729.804 3.33065 -6.18071 0
M  V30 7550 H 734.644 0.203269 -2.97306 0
M  V30 7551 H 732.181 0.0885946 -1.46833 0
M  V30 7552 H 734.139 2.67253 -3.20361 0
M  V30 7553 H 732.769 2.4678 -2.08085 0
M  V30 7554 H 731.821 0.704458 -3.7382 0
M  V30 7555 H 733.133 1.13843 -4.85635 0
M  V30 7556 H 732.287 3.4918 -4.96143 0
M  V30 7557 H 731.026 3.1129 -3.75433 0
M  V30 7558 H 730.031 1.41483 -5.31284 0
M  V30 7559 H 731.256 1.81964 -6.54267 0
M  V30 7560 H 729.202 3.74328 -5.38715 0
M  V30 7561 H 729.119 2.98756 -6.94464 0
M  V30 7562 H 730.387 4.12912 -6.61153 0
M  V30 7563 N 734.616 1.57351 0.0885366 0
M  V30 7564 C 735.864 1.86051 0.789262 0
M  V30 7565 C 736.185 0.774763 1.78948 0
M  V30 7566 O 735.455 -0.198324 1.94894 0
M  V30 7567 H 734.035 0.686508 0.294475 0
M  V30 7568 H 736.697 1.94779 0.0686055 0
M  V30 7569 H 735.793 2.83007 1.31581 0
M  V30 7570 N 736.094 -0.359525 1.53444 0
M  V30 7571 C 737.027 -1.46338 1.75101 0
M  V30 7572 C 738.005 -1.51142 0.599559 0
M  V30 7573 O 739.189 -1.69102 0.832862 0
M  V30 7574 C 736.316 -2.84667 1.83527 0
M  V30 7575 C 735.362 -2.9756 3.05549 0
M  V30 7576 S 736.195 -2.65685 4.64943 0
M  V30 7577 C 737.351 -4.06153 4.76225 0
M  V30 7578 H 737.584 -1.27747 2.68455 0
M  V30 7579 H 735.117 -0.554231 1.4411 0
M  V30 7580 H 737.075 -3.64368 1.89067 0
M  V30 7581 H 735.736 -3.00564 0.912147 0
M  V30 7582 H 734.929 -3.98883 3.08072 0
M  V30 7583 H 734.531 -2.25789 2.98153 0
M  V30 7584 H 736.823 -5.00475 4.56652 0
M  V30 7585 H 737.766 -4.08632 5.78295 0
M  V30 7586 H 738.174 -3.93435 4.04808 0
M  V30 7587 N 737.572 -1.44907 -0.619662 0
M  V30 7588 C 738.8 -1.51795 -1.40591 0
M  V30 7589 C 739.215 -0.146553 -1.8823 0
M  V30 7590 O 738.572 0.849698 -1.61513 0
M  V30 7591 C 738.623 -2.49229 -2.61853 0
M  V30 7592 O 738.344 -3.81039 -2.16197 0
M  V30 7593 C 739.845 -2.65696 -3.54853 0
M  V30 7594 H 737.065 -0.514463 -0.430777 0
M  V30 7595 H 739.609 -1.8998 -0.756813 0
M  V30 7596 H 737.764 -2.14149 -3.2283 0
M  V30 7597 H 738.178 -4.33747 -2.94896 0
M  V30 7598 H 739.652 -3.37874 -4.36515 0
M  V30 7599 H 740.129 -1.71316 -4.0441 0
M  V30 7600 H 740.735 -3.01724 -2.99737 0
M  V30 7601 N 739.05 0.861098 -1.31996 0
M  V30 7602 C 740.298 1.61162 -1.21947 0
M  V30 7603 C 740.619 1.93751 0.220351 0
M  V30 7604 O 739.889 1.59069 1.14341 0
M  V30 7605 H 738.469 0.597485 -0.448353 0
M  V30 7606 H 741.131 1.03039 -1.65436 0
M  V30 7607 H 740.227 2.55138 -1.79752 0
M  V30 7608 N 740.528 1.15101 1.07655 0
M  V30 7609 C 741.944 0.893004 1.32279 0
M  V30 7610 C 742.144 -0.461701 1.96139 0
M  V30 7611 O 741.2 -1.20431 2.21929 0
M  V30 7612 C 742.513 2.03161 2.21689 0
M  V30 7613 C 744.061 2.06579 2.35147 0
M  V30 7614 C 744.536 3.19754 3.27905 0
M  V30 7615 N 746.027 3.19382 3.35484 0
M  V30 7616 C 746.762 4.03592 4.07309 0
M  V30 7617 N 746.258 4.97859 4.81776 0
M  V30 7618 N 748.051 3.91626 4.03219 0
M  V30 7619 H 740.202 2.02341 0.645886 0
M  V30 7620 H 742.465 0.882127 0.347211 0
M  V30 7621 H 742.171 3.00934 1.82021 0
M  V30 7622 H 742.045 1.96132 3.22199 0
M  V30 7623 H 744.432 1.09408 2.74069 0
M  V30 7624 H 744.513 2.17676 1.34353 0
M  V30 7625 H 744.157 4.17175 2.89702 0
M  V30 7626 H 744.087 3.05893 4.28645 0
M  V30 7627 H 746.578 2.51112 2.82403 0
M  V30 7628 H 746.891 5.58563 5.34067 0
M  V30 7629 H 745.236 5.0185 4.80803 0
M  V30 7630 H 748.427 3.17295 3.44154 0
M  V30 7631 H 748.6 4.57479 4.5893 0
M  V30 7632 N 742.006 -1.2595 0.947325 0
M  V30 7633 C 743.417 -1.75389 0.639963 0
M  V30 7634 C 743.768 -1.77081 -0.844788 0
M  V30 7635 O 742.893 -1.3869 -1.66114 0
M  V30 7636 C 743.488 -3.18506 1.15496 0
M  V30 7637 C 742.047 -3.65534 0.897894 0
M  V30 7638 C 741.194 -2.44818 1.30228 0
M  V30 7639 H 744.145 -1.1194 1.12495 0
M  V30 7640 H 744.166 -3.77045 0.511627 0
M  V30 7641 H 743.678 -3.17243 2.23559 0
M  V30 7642 H 741.779 -3.72221 -0.168096 0
M  V30 7643 H 741.892 -4.54039 1.52922 0
M  V30 7644 H 740.256 -2.44291 0.720678 0
M  V30 7645 H 741.039 -2.46251 2.39198 0
M  V30 7646 N 743.484 -0.715051 -1.40445 0
M  V30 7647 C 744.712 -0.263959 -2.05209 0
M  V30 7648 C 745.127 1.09403 -1.53871 0
M  V30 7649 O 744.484 1.68746 -0.695064 0
M  V30 7650 C 744.535 -0.234545 -3.60738 0
M  V30 7651 O 744.256 -1.53891 -4.10182 0
M  V30 7652 C 745.757 0.235164 -4.42676 0
M  V30 7653 H 742.977 -0.11876 -0.660407 0
M  V30 7654 H 745.521 -0.973107 -1.79864 0
M  V30 7655 H 743.676 0.425563 -3.85055 0
M  V30 7656 H 744.09 -1.43903 -5.04373 0
M  V30 7657 H 745.564 0.204598 -5.51621 0
M  V30 7658 H 746.041 1.27724 -4.20218 0
M  V30 7659 H 746.647 -0.394649 -4.23465 0
M  V30 7660 N 744.962 1.50701 -0.461195 0
M  V30 7661 C 746.378 1.59187 -0.114786 0
M  V30 7662 C 746.578 1.4702 1.37794 0
M  V30 7663 O 745.634 1.32361 2.15027 0
M  V30 7664 C 746.947 2.93453 -0.656167 0
M  V30 7665 C 748.495 3.06824 -0.618715 0
M  V30 7666 C 748.97 4.4365 -1.13747 0
M  V30 7667 N 750.461 4.50035 -1.09646 0
M  V30 7668 C 751.196 5.54278 -1.46846 0
M  V30 7669 N 750.692 6.65822 -1.91448 0
M  V30 7670 N 752.485 5.44767 -1.38512 0
M  V30 7671 H 744.636 1.56853 -1.43216 0
M  V30 7672 H 746.899 0.740712 -0.59165 0
M  V30 7673 H 746.605 3.07802 -1.7015 0
M  V30 7674 H 746.479 3.77082 -0.0942261 0
M  V30 7675 H 748.866 2.92129 0.417685 0
M  V30 7676 H 748.947 2.24976 -1.21734 0
M  V30 7677 H 748.591 4.59093 -2.17245 0
M  V30 7678 H 748.521 5.24074 -0.515153 0
M  V30 7679 H 751.012 3.69988 -0.769217 0
M  V30 7680 H 751.325 7.41413 -2.18007 0
M  V30 7681 H 749.67 6.66968 -1.95393 0
M  V30 7682 H 752.861 4.56511 -1.03516 0
M  V30 7683 H 753.034 6.25889 -1.6783 0
M  V30 7684 N 746.441 0.193421 1.56409 0
M  V30 7685 C 747.669 -0.451438 2.01915 0
M  V30 7686 C 748.084 -1.55306 1.07357 0
M  V30 7687 O 747.441 -1.82333 0.0781512 0
M  V30 7688 C 747.492 -1.00931 3.47124 0
M  V30 7689 O 747.213 0.0483623 4.38073 0
M  V30 7690 C 748.714 -1.73021 4.0814 0
M  V30 7691 H 745.934 -0.113495 0.661332 0
M  V30 7692 H 748.478 0.301636 2.02263 0
M  V30 7693 H 746.633 -1.71277 3.47481 0
M  V30 7694 H 747.047 -0.366644 5.23217 0
M  V30 7695 H 748.521 -2.07289 5.11601 0
M  V30 7696 H 748.998 -2.6333 3.51502 0
M  V30 7697 H 749.604 -1.07264 4.11551 0
M  V30 7698 N 747.919 -1.57396 -0.0801906 0
M  V30 7699 C 748.849 -2.06145 -1.09665 0
M  V30 7700 C 749.83 -0.953273 -1.40878 0
M  V30 7701 O 751.015 -1.22548 -1.50651 0
M  V30 7702 C 748.145 -2.49836 -2.41245 0
M  V30 7703 C 747.099 -3.64454 -2.24405 0
M  V30 7704 C 746.425 -3.94172 -3.61293 0
M  V30 7705 C 747.725 -4.94807 -1.67223 0
M  V30 7706 H 749.419 -2.91316 -0.691028 0
M  V30 7707 H 746.965 -1.40145 -0.330957 0
M  V30 7708 H 748.918 -2.82552 -3.12638 0
M  V30 7709 H 747.642 -1.61683 -2.83771 0
M  V30 7710 H 746.301 -3.32008 -1.55454 0
M  V30 7711 H 745.949 -3.03163 -4.01374 0
M  V30 7712 H 745.649 -4.71345 -3.50867 0
M  V30 7713 H 747.173 -4.29376 -4.3413 0
M  V30 7714 H 748.587 -5.25807 -2.28472 0
M  V30 7715 H 746.984 -5.76245 -1.67515 0
M  V30 7716 H 748.054 -4.80751 -0.632944 0
M  V30 7717 N 749.397 0.351382 -1.53633 0
M  V30 7718 C 750.646 1.08988 -1.69719 0
M  V30 7719 C 750.959 1.90043 -0.462948 0
M  V30 7720 O 752.165 2.66769 -0.504613 0
M  V30 7721 C 750.621 1.98691 -3.00083 0
M  V30 7722 C 750.229 1.22881 -4.30818 0
M  V30 7723 C 751.973 2.72446 -3.25536 0
M  V30 7724 C 749.88 2.11568 -5.52262 0
M  V30 7725 H 748.81 0.410588 -0.632403 0
M  V30 7726 H 751.461 0.349886 -1.80133 0
M  V30 7727 H 749.843 2.76478 -2.83506 0
M  V30 7728 H 751.017 0.500582 -4.58073 0
M  V30 7729 H 749.332 0.60928 -4.11918 0
M  V30 7730 H 751.929 3.39055 -4.13456 0
M  V30 7731 H 752.272 3.38588 -2.42206 0
M  V30 7732 H 752.805 2.01735 -3.42852 0
M  V30 7733 H 749.544 1.4998 -6.38111 0
M  V30 7734 H 749.064 2.82201 -5.29266 0
M  V30 7735 H 750.743 2.70802 -5.87601 0
M  V30 7736 N 750.875 1.45233 0.611969 0
M  V30 7737 C 751.785 1.56098 1.7513 0
M  V30 7738 C 752.801 0.445646 1.68196 0
M  V30 7739 O 753.977 0.705718 1.88631 0
M  V30 7740 C 751.042 1.52052 3.11579 0
M  V30 7741 C 750.103 2.74589 3.29999 0
M  V30 7742 C 749.336 2.70726 4.59938 0
M  V30 7743 O 749.559 1.77806 5.41979 0
M  V30 7744 O 748.493 3.61864 4.80976 0
M  V30 7745 H 752.319 2.52392 1.68914 0
M  V30 7746 H 749.904 1.27695 0.775528 0
M  V30 7747 H 751.786 1.52387 3.92882 0
M  V30 7748 H 750.461 0.589085 3.18295 0
M  V30 7749 H 749.368 2.79817 2.48301 0
M  V30 7750 H 750.701 3.66843 3.28157 0
M  V30 7751 N 752.353 -0.854086 1.3245 0
M  V30 7752 C 753.6 -1.60831 1.23043 0
M  V30 7753 C 753.928 -1.93389 -0.2076 0
M  V30 7754 O 753.183 -1.5756 -1.16075 0
M  V30 7755 C 753.482 -2.93746 2.03587 0
M  V30 7756 C 753.148 -2.80615 3.52939 0
M  V30 7757 C 751.81 -2.76742 3.93659 0
M  V30 7758 C 754.162 -2.66507 4.4791 0
M  V30 7759 C 751.49 -2.56638 5.27592 0
M  V30 7760 C 753.842 -2.47939 5.81987 0
M  V30 7761 C 752.506 -2.42458 6.21909 0
M  V30 7762 H 751.776 -0.588523 0.450247 0
M  V30 7763 H 754.423 -0.990699 1.63882 0
M  V30 7764 H 752.728 -3.5963 1.55478 0
M  V30 7765 H 754.425 -3.51127 1.93677 0
M  V30 7766 H 751.015 -2.84456 3.20598 0
M  V30 7767 H 755.199 -2.68544 4.1737 0
M  V30 7768 H 750.455 -2.50831 5.57579 0
M  V30 7769 H 754.629 -2.36002 6.55192 0
M  V30 7770 H 752.256 -2.2664 7.2563 0
M  V30 7771 N 753.831 -1.1567 -1.07043 0
M  V30 7772 C 754.761 -0.879348 -2.16309 0
M  V30 7773 C 755.742 0.171311 -1.69235 0
M  V30 7774 O 756.927 0.0250175 -1.94184 0
M  V30 7775 C 754.057 -0.371307 -3.45309 0
M  V30 7776 C 753.011 -1.359 -4.05851 0
M  V30 7777 C 752.337 -0.709678 -5.29969 0
M  V30 7778 C 753.637 -2.72606 -4.45514 0
M  V30 7779 H 755.331 -1.79308 -2.39768 0
M  V30 7780 H 752.877 -0.863558 -1.15233 0
M  V30 7781 H 754.83 -0.164798 -4.21078 0
M  V30 7782 H 753.554 0.577906 -3.21446 0
M  V30 7783 H 752.213 -1.55193 -3.32131 0
M  V30 7784 H 751.861 0.245782 -5.02399 0
M  V30 7785 H 751.561 -1.36886 -5.71433 0
M  V30 7786 H 753.085 -0.513015 -6.08441 0
M  V30 7787 H 754.499 -2.57141 -5.12398 0
M  V30 7788 H 752.896 -3.34927 -4.97939 0
M  V30 7789 H 753.966 -3.28434 -3.56734 0
M  V30 7790 N 755.309 1.25446 -0.953992 0
M  V30 7791 C 756.239 2.28264 -0.491717 0
M  V30 7792 C 757.22 1.63717 0.461617 0
M  V30 7793 O 758.405 1.90821 0.36071 0
M  V30 7794 C 755.535 3.46525 0.231915 0
M  V30 7795 C 754.489 4.23247 -0.636098 0
M  V30 7796 C 753.815 5.34254 0.218238 0
M  V30 7797 C 755.115 4.85971 -1.91389 0
M  V30 7798 H 756.809 2.67183 -1.35106 0
M  V30 7799 H 754.355 1.2844 -0.651095 0
M  V30 7800 H 756.308 4.17576 0.566439 0
M  V30 7801 H 755.032 3.06594 1.12551 0
M  V30 7802 H 753.691 3.53978 -0.953696 0
M  V30 7803 H 753.339 4.90564 1.11156 0
M  V30 7804 H 753.039 5.86501 -0.359232 0
M  V30 7805 H 754.563 6.08138 0.547743 0
M  V30 7806 H 755.977 5.49168 -1.64581 0
M  V30 7807 H 754.374 5.48391 -2.43696 0
M  V30 7808 H 755.444 4.08192 -2.61738 0
M  V30 7809 N 756.787 0.722489 1.40064 0
M  V30 7810 C 758.203 0.396758 1.5459 0
M  V30 7811 C 758.403 -1.09375 1.69232 0
M  V30 7812 O 757.459 -1.87984 1.68578 0
M  V30 7813 C 758.772 1.16885 2.77053 0
M  V30 7814 C 760.32 1.15583 2.90877 0
M  V30 7815 C 760.795 1.91023 4.16262 0
M  V30 7816 N 762.286 1.88126 4.23276 0
M  V30 7817 C 763.021 2.43315 5.19216 0
M  V30 7818 N 762.517 3.07089 6.21022 0
M  V30 7819 N 764.31 2.33418 5.11344 0
M  V30 7820 H 756.461 1.68887 1.28806 0
M  V30 7821 H 758.724 0.714231 0.62336 0
M  V30 7822 H 758.43 2.22301 2.72534 0
M  V30 7823 H 758.304 0.765011 3.69361 0
M  V30 7824 H 760.691 0.10984 2.94896 0
M  V30 7825 H 760.772 1.59895 1.99668 0
M  V30 7826 H 760.416 2.95616 4.13006 0
M  V30 7827 H 760.346 1.44126 5.06493 0
M  V30 7828 H 762.837 1.41654 3.50346 0
M  V30 7829 H 763.15 3.467 6.90666 0
M  V30 7830 H 761.495 3.11175 6.21446 0
M  V30 7831 H 764.686 1.83248 4.30741 0
M  V30 7832 H 764.859 2.7673 5.85939 0
M  V30 7833 N 758.265 -1.50454 0.469181 0
M  V30 7834 C 759.512 -2.02315 -0.086469 0
M  V30 7835 C 759.84 -1.3513 -1.39893 0
M  V30 7836 O 759.095 -0.465341 -1.90087 0
M  V30 7837 C 759.394 -3.55963 -0.320207 0
M  V30 7838 C 759.06 -4.41615 0.910318 0
M  V30 7839 C 757.722 -4.64743 1.2477 0
M  V30 7840 C 760.074 -4.91661 1.72971 0
M  V30 7841 C 757.402 -5.35161 2.40457 0
M  V30 7842 C 759.754 -5.6335 2.87785 0
M  V30 7843 C 758.418 -5.84732 3.2194 0
M  V30 7844 H 757.688 -0.740324 -0.0316412 0
M  V30 7845 H 760.335 -1.81087 0.622872 0
M  V30 7846 H 758.64 -3.75695 -1.11177 0
M  V30 7847 H 760.337 -3.93653 -0.764071 0
M  V30 7848 H 756.927 -4.23833 0.637467 0
M  V30 7849 H 761.111 -4.73649 1.48224 0
M  V30 7850 H 756.367 -5.49924 2.67196 0
M  V30 7851 H 760.541 -6.0111 3.51624 0
M  V30 7852 H 758.168 -6.39074 4.1169 0
M  V30 7853 N 759.743 -0.201713 -1.56304 0
M  V30 7854 C 760.968 0.443815 -2.02596 0
M  V30 7855 C 761.393 1.53945 -1.08086 0
M  V30 7856 O 760.751 1.81182 -0.0655056 0
M  V30 7857 C 760.799 0.971066 -3.47279 0
M  V30 7858 O 759.903 2.0836 -3.55893 0
M  V30 7859 H 759.244 0.10294 -0.655972 0
M  V30 7860 H 761.774 -0.314533 -2.02168 0
M  V30 7861 H 761.784 1.28598 -3.87204 0
M  V30 7862 H 760.459 0.169048 -4.15556 0
M  V30 7863 H 759.036 1.77683 -3.27846 0
M  V30 7864 N 761.222 1.57436 0.0718424 0
M  V30 7865 C 762.154 2.00412 1.1121 0
M  V30 7866 C 763.167 0.910074 1.34987 0
M  V30 7867 O 764.356 1.18796 1.33228 0
M  V30 7868 C 761.456 2.32786 2.46301 0
M  V30 7869 C 760.629 3.64036 2.4248 0
M  V30 7870 C 759.688 3.8408 3.59679 0
M  V30 7871 O 758.714 4.55667 3.4111 0
M  V30 7872 N 759.916 3.2643 4.80025 0
M  V30 7873 H 762.681 2.90264 0.746118 0
M  V30 7874 H 760.242 1.59791 0.260495 0
M  V30 7875 H 762.234 2.43368 3.23348 0
M  V30 7876 H 760.804 1.48824 2.74901 0
M  V30 7877 H 760.024 3.64208 1.50818 0
M  V30 7878 H 761.312 4.50217 2.37027 0
M  V30 7879 H 760.71 2.68325 4.98014 0
M  V30 7880 H 759.267 3.42461 5.54584 0
M  V30 7881 N 762.7 -0.34323 1.53817 0
M  V30 7882 C 763.977 -1.10047 1.61706 0
M  V30 7883 C 764.357 -2.06495 0.438514 0
M  V30 7884 O 763.705 -2.21297 -0.569188 0
M  V30 7885 C 763.915 -1.81985 2.97796 0
M  V30 7886 C 765.263 -2.35717 3.53161 0
M  V30 7887 O 766.287 -1.9208 2.99973 0
M  V30 7888 O 765.146 -3.15551 4.46195 0
M  V30 7889 H 762.24 -0.506096 0.654061 0
M  V30 7890 H 764.786 -0.344697 1.66162 0
M  V30 7891 H 763.558 -1.11722 3.75012 0
M  V30 7892 H 763.181 -2.64419 2.96931 0
M  V30 7893 N 764.178 -1.45556 -0.604258 0
M  V30 7894 C 765.126 -1.5482 -1.7359 0
M  V30 7895 C 766.12 -0.417966 -1.64163 0
M  V30 7896 O 767.326 -0.594007 -1.69916 0
M  V30 7897 H 763.701 -0.486352 -0.573556 0
M  V30 7898 H 765.672 -2.5001 -1.62903 0
M  V30 7899 C 764.421 -1.53521 -3.11972 0
M  V30 7900 H 763.744 -2.39818 -3.19886 0
M  V30 7901 H 765.184 -1.64061 -3.90973 0
M  V30 7902 C 763.643 -0.260191 -3.35894 0
M  V30 7903 O 764.173 0.658582 -3.96265 0
M  V30 7904 N 762.379 -0.154839 -2.90187 0
M  V30 7905 H 761.926 -0.903378 -2.4124 0
M  V30 7906 H 761.884 0.697437 -3.06567 0
M  V30 7907 N 765.656 0.84705 -1.32902 0
M  V30 7908 C 766.619 1.9378 -1.224 0
M  V30 7909 C 767.619 1.60144 -0.145108 0
M  V30 7910 O 768.809 1.69638 -0.396058 0
M  V30 7911 C 765.941 3.29234 -0.884174 0
M  V30 7912 H 767.134 2.04518 -2.19345 0
M  V30 7913 H 764.687 1.03816 -1.16842 0
M  V30 7914 H 765.422 3.24193 0.0831277 0
M  V30 7915 H 765.207 3.55026 -1.6643 0
M  V30 7916 H 766.697 4.09162 -0.835226 0
M  V30 7917 O 767.173 1.28015 0.984606 0
M  V30 7918 H 767.864 1.07954 1.60828 0
M  V30 END ATOM
M  V30 BEGIN BOND
M  V30 END BOND
M  V30 END CTAB
M  END
$$$$
