drugbank_target|Q08209 Serine/threonine-protein phosphatase 2B catalytic subunit alpha isoform (DB08231)
 OpenBabel12092120493D

  0  0  0     0  0            999 V3000
M  V30 BEGIN CTAB
M  V30 COUNTS 8183 8275 0 0 0
M  V30 BEGIN ATOM
M  V30 1 H -0.908 1.98254 -0.117106 0
M  V30 2 N 0 1.576 0 0
M  V30 3 C 0.933 2.03868 1.02534 0
M  V30 4 C 1.911 0.928543 1.3348 0
M  V30 5 O 3.095 1.19667 1.45644 0
M  V30 6 C 0.222 2.43627 2.35294 0
M  V30 7 C -0.732 3.65373 2.2001 0
M  V30 8 S 0.101 5.13292 1.52614 0
M  V30 9 C 1.257 5.56322 2.86805 0
M  V30 10 H 1.49 2.90518 0.631377 0
M  V30 11 H -0.977 1.52953 0.210867 0
M  V30 12 H 0.981 2.67203 3.11629 0
M  V30 13 H -0.358 1.57376 2.7183 0
M  V30 14 H -1.165 3.90944 3.18086 0
M  V30 15 H -1.563 3.418 1.51819 0
M  V30 16 H 0.729 5.58782 3.83104 0
M  V30 17 H 1.672 6.56266 2.65933 0
M  V30 18 H 2.08 4.83886 2.90714 0
M  V30 19 N 1.4781 -0.272755 1.55222 0
M  V30 20 C 2.7031 -1.02683 1.80197 0
M  V30 21 C 3.1281 -1.79142 0.573551 0
M  V30 22 O 2.4861 -1.74917 -0.476849 0
M  V30 23 C 2.5341 -1.9609 3.02624 0
M  V30 24 O 1.6381 -3.04863 2.77727 0
M  V30 25 H 0.9791 -0.293557 0.595584 0
M  V30 26 H 3.5091 -0.30159 2.02365 0
M  V30 27 H 3.5191 -2.38039 3.31363 0
M  V30 28 H 2.1941 -1.39851 3.91682 0
M  V30 29 H 0.7711 -2.67228 2.60084 0
M  V30 30 N 2.9562 -1.48159 -0.537278 0
M  V30 31 C 3.8662 -1.64807 -1.6696 0
M  V30 32 C 4.8822 -0.530651 -1.65711 0
M  V30 33 O 6.0582 -0.800784 -1.84796 0
M  V30 34 C 3.1232 -1.67708 -3.03438 0
M  V30 35 C 2.1842 -2.91025 -3.156 0
M  V30 36 C 1.4172 -2.93778 -4.45567 0
M  V30 37 O 1.6402 -2.05153 -5.3223 0
M  V30 38 O 0.5742 -3.85868 -4.61941 0
M  V30 39 H 4.4002 -2.6066 -1.55853 0
M  V30 40 H 1.9852 -1.31475 -0.709549 0
M  V30 41 H 3.8672 -1.7218 -3.84619 0
M  V30 42 H 2.5422 -0.750278 -3.14885 0
M  V30 43 H 1.4492 -2.92089 -2.33741 0
M  V30 44 H 2.7822 -3.83065 -3.09066 0
M  V30 45 N 4.4343 0.785586 -1.36625 0
M  V30 46 C 5.8453 1.36101 -1.27803 0
M  V30 47 C 6.1963 1.96035 0.0804875 0
M  V30 48 O 5.3213 1.92834 0.982042 0
M  V30 49 C 5.9163 2.47442 -2.31426 0
M  V30 50 C 4.4753 3.00789 -2.26281 0
M  V30 51 C 3.6223 1.73896 -2.15999 0
M  V30 52 H 6.5733 0.586928 -1.47448 0
M  V30 53 H 6.5943 3.2656 -1.95291 0
M  V30 54 H 6.1063 2.03791 -3.30289 0
M  V30 55 H 4.2073 3.48851 -1.30896 0
M  V30 56 H 4.3203 3.57343 -3.19128 0
M  V30 57 H 2.6843 1.9628 -1.62316 0
M  V30 58 H 3.4673 1.32368 -3.16755 0
M  V30 59 N 5.9124 1.20967 1.01018 0
M  V30 60 C 6.8594 0.964281 2.09691 0
M  V30 61 C 7.8294 -0.107853 1.65749 0
M  V30 62 O 9.0144 0.0381987 1.90762 0
M  V30 63 C 6.1544 0.52943 3.41015 0
M  V30 64 C 5.2674 1.67043 3.98398 0
M  V30 65 C 4.4024 1.18525 5.17808 0
M  V30 66 C 3.4414 2.29892 5.67288 0
M  V30 67 N 2.5784 1.82546 6.77954 0
M  V30 68 H 7.4184 1.89463 2.30017 0
M  V30 69 H 4.9554 0.944289 1.1279 0
M  V30 70 H 6.9134 0.258588 4.16398 0
M  V30 71 H 5.5434 -0.363919 3.20742 0
M  V30 72 H 4.5954 2.05603 3.20049 0
M  V30 73 H 5.9074 2.50877 4.31117 0
M  V30 74 H 5.0614 0.870762 6.00419 0
M  V30 75 H 3.8004 0.316887 4.86669 0
M  V30 76 H 2.8054 2.6215 4.83278 0
M  V30 77 H 4.0304 3.17216 6.00459 0
M  V30 78 H 1.9764 0.980454 6.48632 0
M  V30 79 H 1.8934 2.59956 7.09901 0
M  V30 80 H 3.1614 1.54115 7.64113 0
M  V30 81 N 7.3905 -1.2043 1.01659 0
M  V30 82 C 8.3535 -2.21433 0.591616 0
M  V30 83 C 9.3535 -1.57203 -0.338226 0
M  V30 84 O 10.5435 -1.73737 -0.126918 0
M  V30 85 C 7.6755 -3.40628 -0.136058 0
M  V30 86 H 8.8685 -2.60545 1.48514 0
M  V30 87 H 6.4215 -1.33893 0.806379 0
M  V30 88 H 7.1565 -3.07019 -1.04449 0
M  V30 89 H 6.9415 -3.88475 0.531917 0
M  V30 90 H 8.4315 -4.15475 -0.420735 0
M  V30 91 N 8.8686 -0.792821 -1.36206 0
M  V30 92 C 10.1176 -0.363353 -1.984 0
M  V30 93 C 10.4306 1.07172 -1.63626 0
M  V30 94 O 11.6366 1.60362 -2.19081 0
M  V30 95 C 10.0926 -0.59872 -3.54885 0
M  V30 96 C 9.7006 -2.04543 -3.9858 0
M  V30 97 C 11.4446 -0.233926 -4.23855 0
M  V30 98 C 9.3516 -2.22727 -5.47856 0
M  V30 99 H 8.2816 -0.13212 -0.742334 0
M  V30 100 H 10.9326 -0.974935 -1.55458 0
M  V30 101 H 9.3146 0.0826222 -3.95914 0
M  V30 102 H 10.4886 -2.76345 -3.68741 0
M  V30 103 H 8.8036 -2.36879 -3.42458 0
M  V30 104 H 11.4006 -0.348027 -5.33566 0
M  V30 105 H 11.7436 0.818351 -4.08177 0
M  V30 106 H 12.2766 -0.868639 -3.882 0
M  V30 107 H 9.0156 -3.2635 -5.68486 0
M  V30 108 H 8.5356 -1.55434 -5.7931 0
M  V30 109 H 10.2146 -2.03607 -6.14128 0
M  V30 110 N 10.3467 1.47872 -0.545128 0
M  V30 111 C 11.6237 1.9554 0.0485222 0
M  V30 112 C 12.0037 1.4876 1.49779 0
M  V30 113 O 11.3517 0.720925 2.16829 0
M  V30 114 C 11.5617 3.48898 -0.084417 0
M  V30 115 C 12.9097 4.24547 0.0671239 0
M  V30 116 O 13.9337 3.56198 -0.0113649 0
M  V30 117 O 12.7927 5.45999 0.233882 0
M  V30 118 H 9.8867 0.823957 0.0708773 0
M  V30 119 H 12.4327 1.58327 -0.610798 0
M  V30 120 H 11.2047 3.75714 -1.09337 0
M  V30 121 H 10.8277 3.92845 0.613066 0
M  V30 122 N 11.8248 0.280983 1.55075 0
M  V30 123 C 13.2358 -0.215629 1.85451 0
M  V30 124 C 13.5868 -1.54991 1.203 0
M  V30 125 O 12.7118 -2.10699 0.493435 0
M  V30 126 C 13.3068 -0.398026 3.36454 0
M  V30 127 C 11.8658 -0.838866 3.66933 0
M  V30 128 C 11.0128 0.064458 2.77225 0
M  V30 129 H 13.9638 0.502601 1.50531 0
M  V30 130 H 13.9848 -1.23569 3.59876 0
M  V30 131 H 13.4968 0.573241 3.83843 0
M  V30 132 H 11.5978 -1.8214 3.25048 0
M  V30 133 H 11.7108 -0.672123 4.74362 0
M  V30 134 H 10.0748 -0.452863 2.50642 0
M  V30 135 H 10.8578 1.03172 3.2743 0
M  V30 136 N 13.3029 -1.57598 0.00835791 0
M  V30 137 C 14.2499 -2.08945 -0.980346 0
M  V30 138 C 15.2199 -0.986738 -1.33614 0
M  V30 139 O 16.4049 -1.25968 -1.43306 0
M  V30 140 C 13.5449 -2.60425 -2.26435 0
M  V30 141 C 12.6579 -3.84628 -1.96685 0
M  V30 142 C 11.7929 -4.24579 -3.19228 0
M  V30 143 C 10.8319 -5.41596 -2.85202 0
M  V30 144 N 9.9689 -5.768 -4.00307 0
M  V30 145 H 14.8089 -2.93148 -0.535551 0
M  V30 146 H 12.3459 -1.44912 -0.252776 0
M  V30 147 H 14.3039 -2.88354 -3.01509 0
M  V30 148 H 12.9339 -1.79083 -2.68568 0
M  V30 149 H 11.9859 -3.63556 -1.11942 0
M  V30 150 H 13.2979 -4.69796 -1.67611 0
M  V30 151 H 12.4519 -4.53834 -4.02641 0
M  V30 152 H 11.1909 -3.38137 -3.51447 0
M  V30 153 H 10.1959 -5.12056 -2.00198 0
M  V30 154 H 11.4209 -6.29721 -2.54222 0
M  V30 155 H 9.3669 -4.93316 -4.32407 0
M  V30 156 H 9.2839 -6.5656 -3.74786 0
M  V30 157 H 10.5519 -6.10652 -4.84484 0
M  V30 158 N 14.781 0.264519 -1.55364 0
M  V30 159 C 15.711 1.33121 -1.91836 0
M  V30 160 C 16.692 1.51101 -0.781192 0
M  V30 161 O 17.877 1.64003 -1.04003 0
M  V30 162 C 15.007 2.68921 -2.19769 0
M  V30 163 C 13.961 2.65661 -3.35571 0
M  V30 164 C 13.287 4.05093 -3.49004 0
M  V30 165 C 14.587 2.24187 -4.71739 0
M  V30 166 H 16.281 1.02844 -2.81182 0
M  V30 167 H 13.827 0.493286 -1.35287 0
M  V30 168 H 15.78 3.43663 -2.43872 0
M  V30 169 H 14.504 3.00799 -1.27231 0
M  V30 170 H 13.163 1.93377 -3.1145 0
M  V30 171 H 12.811 4.34206 -2.53917 0
M  V30 172 H 12.511 4.03804 -4.26868 0
M  V30 173 H 14.035 4.81561 -3.75408 0
M  V30 174 H 15.449 2.88654 -4.9533 0
M  V30 175 H 13.846 2.34044 -5.52579 0
M  V30 176 H 14.916 1.19327 -4.69988 0
M  V30 177 N 16.2591 1.48442 0.529413 0
M  V30 178 C 17.4841 1.60406 1.31471 0
M  V30 179 C 17.9091 0.264738 1.86228 0
M  V30 180 O 17.2671 -0.763668 1.64432 0
M  V30 181 C 17.3151 2.65419 2.44101 0
M  V30 182 O 16.4191 2.22618 3.47153 0
M  V30 183 H 15.7601 0.537863 0.389357 0
M  V30 184 H 18.2901 1.94432 0.636965 0
M  V30 185 H 18.3001 2.86709 2.90279 0
M  V30 186 H 16.9751 3.62652 2.03608 0
M  V30 187 H 15.5521 2.11543 3.0709 0
M  V30 188 N 17.7372 -0.778329 1.37039 0
M  V30 189 C 18.9652 -1.56734 1.35063 0
M  V30 190 C 19.3802 -1.88686 -0.0655597 0
M  V30 191 O 18.7372 -1.5096 -1.02554 0
M  V30 192 C 18.7882 -2.88163 2.18276 0
M  V30 193 O 18.5092 -2.57583 3.54376 0
M  V30 194 C 20.0102 -3.82422 2.24206 0
M  V30 195 H 17.2302 -0.485778 0.462883 0
M  V30 196 H 19.7742 -0.965185 1.8029 0
M  V30 197 H 17.9292 -3.44818 1.76576 0
M  V30 198 H 18.3432 -3.41699 3.97922 0
M  V30 199 H 19.8172 -4.71667 2.86765 0
M  V30 200 H 20.2942 -4.21078 1.24861 0
M  V30 201 H 20.9002 -3.31697 2.6619 0
M  V30 202 N 19.2153 -1.21501 -1.00376 0
M  V30 203 C 20.4433 -1.059 -1.77744 0
M  V30 204 C 20.8583 0.391125 -1.84704 0
M  V30 205 O 20.2153 1.27133 -1.30933 0
M  V30 206 C 20.2663 -1.65111 -3.21591 0
M  V30 207 O 19.9873 -3.0445 -3.15027 0
M  V30 208 C 21.4883 -1.54637 -4.15454 0
M  V30 209 H 18.7083 -0.371825 -0.558558 0
M  V30 210 H 21.2523 -1.60865 -1.26264 0
M  V30 211 H 19.4073 -1.14235 -3.70175 0
M  V30 212 H 19.8213 -3.3278 -4.0541 0
M  V30 213 H 21.2953 -2.00808 -5.14179 0
M  V30 214 H 21.7723 -0.501022 -4.36333 0
M  V30 215 H 22.3783 -2.04767 -3.72761 0
M  V30 216 N 20.6934 1.19889 -1.02296 0
M  V30 217 C 21.9704 1.85148 -0.630832 0
M  V30 218 C 22.3504 1.91385 0.890782 0
M  V30 219 O 21.6984 1.42642 1.78509 0
M  V30 220 C 21.9084 3.24442 -1.28602 0
M  V30 221 C 23.2564 4.00663 -1.4055 0
M  V30 222 O 24.2804 3.33818 -1.24273 0
M  V30 223 O 23.1394 5.20387 -1.66913 0
M  V30 224 H 20.2334 0.797613 -0.218499 0
M  V30 225 H 22.7794 1.27427 -1.12074 0
M  V30 226 H 21.5514 3.14704 -2.32545 0
M  V30 227 H 21.1744 3.89802 -0.7836 0
M  V30 228 N 22.1715 0.800033 1.35784 0
M  V30 229 C 23.5875 0.482977 1.52117 0
M  V30 230 C 23.7875 -0.996948 1.75109 0
M  V30 231 O 22.8435 -1.78216 1.78872 0
M  V30 232 C 24.1565 1.32264 2.70049 0
M  V30 233 C 25.7045 1.31742 2.83924 0
M  V30 234 C 26.1795 2.14106 4.04874 0
M  V30 235 N 27.6705 2.11607 4.12039 0
M  V30 236 C 28.4055 2.72099 5.04727 0
M  V30 237 N 27.9015 3.41492 6.02789 0
M  V30 238 N 29.6945 2.61776 4.97423 0
M  V30 239 H 21.8455 1.75856 1.19115 0
M  V30 240 H 24.1085 0.748122 0.582252 0
M  V30 241 H 23.8145 2.37261 2.59616 0
M  V30 242 H 23.6885 0.971303 3.6448 0
M  V30 243 H 26.0755 0.275333 2.93813 0
M  V30 244 H 26.1565 1.70859 1.9037 0
M  V30 245 H 25.8005 3.18351 3.95746 0
M  V30 246 H 25.7305 1.72353 4.97596 0
M  V30 247 H 28.2215 1.61112 3.41835 0
M  V30 248 H 28.5345 3.84953 6.70098 0
M  V30 249 H 26.8795 3.45596 6.02983 0
M  V30 250 H 30.0705 2.07157 4.19766 0
M  V30 251 H 30.2435 3.0921 5.69468 0
M  V30 252 N 23.6496 -1.47581 0.552962 0
M  V30 253 C 24.8956 -2.02782 0.0273648 0
M  V30 254 C 25.2286 -1.42687 -1.31734 0
M  V30 255 O 24.5036 -0.580897 -1.85623 0
M  V30 256 C 24.7866 -3.60031 -0.0702371 0
M  V30 257 C 24.6396 -4.30566 1.30126 0
M  V30 258 C 25.9586 -4.33028 -0.785771 0
M  V30 259 H 23.0776 -0.736912 0.0114185 0
M  V30 260 H 25.7196 -1.76056 0.714432 0
M  V30 261 H 23.8696 -3.82932 -0.655382 0
M  V30 262 H 25.5416 -4.19018 1.92929 0
M  V30 263 H 23.7846 -3.91086 1.87709 0
M  V30 264 H 24.4556 -5.39114 1.18573 0
M  V30 265 H 26.9316 -4.15095 -0.288982 0
M  V30 266 H 25.8076 -5.42695 -0.823013 0
M  V30 267 H 26.0686 -4.01945 -1.841 0
M  V30 268 N 25.1277 -0.289203 -1.54924 0
M  V30 269 C 26.3737 0.323998 -2.00195 0
M  V30 270 C 26.7067 1.54441 -1.17735 0
M  V30 271 O 25.9817 1.92875 -0.250878 0
M  V30 272 C 26.2647 0.692276 -3.53383 0
M  V30 273 C 26.1177 -0.536457 -4.46589 0
M  V30 274 C 27.4367 1.52335 -4.12895 0
M  V30 275 H 24.5557 0.116289 -0.727768 0
M  V30 276 H 27.1977 -0.398954 -1.85764 0
M  V30 277 H 25.3477 1.30822 -3.65811 0
M  V30 278 H 27.0197 -1.17499 -4.46085 0
M  V30 279 H 25.2627 -1.17192 -4.1767 0
M  V30 280 H 25.9337 -0.234806 -5.515 0
M  V30 281 H 28.4097 1.00302 -4.0383 0
M  V30 282 H 27.2857 1.74982 -5.20262 0
M  V30 283 H 27.5467 2.50886 -3.64018 0
M  V30 284 N 26.6058 1.57591 -0.0167156 0
M  V30 285 C 27.5528 2.09462 0.969251 0
M  V30 286 C 28.5228 0.99381 1.33089 0
M  V30 287 O 29.7078 1.26726 1.42636 0
M  V30 288 C 26.8478 2.61622 2.25051 0
M  V30 289 C 25.9608 3.85666 1.94642 0
M  V30 290 C 25.0958 4.26266 3.16972 0
M  V30 291 C 24.1348 5.43101 2.82326 0
M  V30 292 N 23.2718 5.78915 3.97243 0
M  V30 293 H 28.1118 2.93428 0.519997 0
M  V30 294 H 25.6488 1.45044 0.245087 0
M  V30 295 H 27.6068 2.89949 2.99976 0
M  V30 296 H 26.2368 1.80505 2.67615 0
M  V30 297 H 25.2888 3.64145 1.10013 0
M  V30 298 H 26.6008 4.70678 1.65117 0
M  V30 299 H 25.7548 4.55963 4.00228 0
M  V30 300 H 24.4938 3.39996 3.49648 0
M  V30 301 H 23.4988 5.1311 1.97479 0
M  V30 302 H 24.7238 6.3106 2.50879 0
M  V30 303 H 22.6698 4.95602 4.29785 0
M  V30 304 H 22.5868 6.58539 3.71299 0
M  V30 305 H 23.8548 6.13212 4.81239 0
M  V30 306 N 28.0839 -0.256276 1.55502 0
M  V30 307 C 29.0469 -1.30047 1.88734 0
M  V30 308 C 30.0469 -1.4154 0.763086 0
M  V30 309 O 31.2369 -1.40403 1.03115 0
M  V30 310 C 28.3689 -2.67953 2.10747 0
M  V30 311 H 29.5619 -1.01802 2.82093 0
M  V30 312 H 27.1149 -0.495134 1.4825 0
M  V30 313 H 27.8499 -3.01351 1.19825 0
M  V30 314 H 27.6349 -2.60993 2.92617 0
M  V30 315 H 29.1249 -3.43368 2.37673 0
M  V30 316 N 29.562 -1.4872 -0.521534 0
M  V30 317 C 30.808 -1.574 -1.27879 0
M  V30 318 C 31.141 -0.250817 -1.92573 0
M  V30 319 O 30.416 0.743934 -1.79711 0
M  V30 320 C 30.699 -2.71843 -2.36164 0
M  V30 321 C 30.552 -4.13893 -1.76105 0
M  V30 322 C 31.871 -2.82008 -3.37875 0
M  V30 323 H 28.99 -0.572941 -0.463581 0
M  V30 324 H 31.632 -1.80927 -0.580119 0
M  V30 325 H 29.782 -2.51914 -2.95756 0
M  V30 326 H 31.454 -4.45284 -1.20499 0
M  V30 327 H 29.697 -4.20498 -1.06601 0
M  V30 328 H 30.368 -4.89804 -2.5455 0
M  V30 329 H 32.844 -3.00086 -2.88249 0
M  V30 330 H 31.72 -3.63796 -4.11028 0
M  V30 331 H 31.981 -1.90511 -3.98946 0
M  V30 332 N 31.0401 0.771051 -1.3745 0
M  V30 333 C 32.4511 1.34737 -1.29239 0
M  V30 334 C 32.8021 1.96109 0.0596908 0
M  V30 335 O 31.9271 1.93865 0.961534 0
M  V30 336 C 32.5221 2.44973 -2.34037 0
M  V30 337 C 31.0811 2.98372 -2.29458 0
M  V30 338 C 30.2281 1.71595 -2.17831 0
M  V30 339 H 33.1791 0.571256 -1.48062 0
M  V30 340 H 33.2001 3.24471 -1.98744 0
M  V30 341 H 32.7121 2.00276 -3.32432 0
M  V30 342 H 30.8131 3.47443 -1.34589 0
M  V30 343 H 30.9261 3.53939 -3.229 0
M  V30 344 H 29.2901 1.94547 -1.64388 0
M  V30 345 H 30.0731 1.29001 -3.18141 0
M  V30 346 N 32.5182 1.22032 0.997298 0
M  V30 347 C 33.7652 1.04222 1.73621 0
M  V30 348 C 34.0932 -0.423264 1.89839 0
M  V30 349 O 33.3482 -1.3302 1.43542 0
M  V30 350 C 33.6472 1.69345 3.14733 0
M  V30 351 C 33.3132 3.19226 3.18442 0
M  V30 352 C 31.9752 3.60124 3.19161 0
M  V30 353 C 34.3272 4.15181 3.15078 0
M  V30 354 C 31.6552 4.95467 3.14212 0
M  V30 355 C 34.0072 5.50495 3.1167 0
M  V30 356 C 32.6712 5.90779 3.10703 0
M  V30 357 H 31.9412 0.381374 0.635323 0
M  V30 358 H 34.5882 1.51732 1.16831 0
M  V30 359 H 32.8932 1.14147 3.74803 0
M  V30 360 H 34.5902 1.53059 3.7064 0
M  V30 361 H 31.1802 2.86659 3.18629 0
M  V30 362 H 35.3642 3.84605 3.13676 0
M  V30 363 H 30.6202 5.25916 3.11805 0
M  V30 364 H 34.7942 6.24576 3.08022 0
M  V30 365 H 32.4212 6.9562 3.06622 0
M  V30 366 N 33.9963 -1.19345 1.0293 0
M  V30 367 C 35.4073 -1.70725 0.755633 0
M  V30 368 C 35.7583 -1.82326 -0.724676 0
M  V30 369 O 34.8833 -1.49471 -1.56484 0
M  V30 370 C 35.4783 -3.10084 1.36503 0
M  V30 371 C 34.0373 -3.58723 1.13994 0
M  V30 372 C 33.1843 -2.35577 1.46283 0
M  V30 373 H 36.1353 -1.0418 1.19718 0
M  V30 374 H 36.1563 -3.72787 0.762217 0
M  V30 375 H 35.6683 -3.01609 2.44241 0
M  V30 376 H 33.7693 -3.72512 0.0807901 0
M  V30 377 H 33.8823 -4.42816 1.82894 0
M  V30 378 H 32.2463 -2.38935 0.88217 0
M  V30 379 H 33.0293 -2.29731 2.55105 0
M  V30 380 N 35.4744 -0.807222 -1.35358 0
M  V30 381 C 36.8854 -0.44876 -1.81226 0
M  V30 382 C 37.2364 1.02929 -1.67033 0
M  V30 383 O 36.3614 1.79991 -1.20133 0
M  V30 384 C 36.9564 -0.807774 -3.2903 0
M  V30 385 C 35.5154 -0.501901 -3.73039 0
M  V30 386 C 34.6624 -1.03304 -2.57339 0
M  V30 387 H 37.6134 -0.998808 -1.23327 0
M  V30 388 H 37.6344 -0.10554 -3.80354 0
M  V30 389 H 37.1464 -1.88357 -3.39328 0
M  V30 390 H 35.2474 0.565128 -3.68289 0
M  V30 391 H 35.3604 -1.03497 -4.67787 0
M  V30 392 H 33.7244 -0.455339 -2.50597 0
M  V30 393 H 34.5074 -2.11496 -2.70415 0
M  V30 394 N 36.9525 1.47285 -0.560781 0
M  V30 395 C 38.1775 2.07359 -0.0410566 0
M  V30 396 C 38.6025 1.41017 1.24483 0
M  V30 397 O 37.9605 0.486368 1.74654 0
M  V30 398 C 38.0085 3.6035 0.134123 0
M  V30 399 O 37.1125 3.94681 1.19587 0
M  V30 400 H 36.4535 0.661887 -0.0529291 0
M  V30 401 H 38.9835 1.89252 -0.777482 0
M  V30 402 H 38.9935 4.0652 0.347207 0
M  V30 403 H 37.6685 4.08034 -0.805047 0
M  V30 404 H 36.2455 3.60251 0.962987 0
M  V30 405 N 38.4306 0.297415 1.54768 0
M  V30 406 C 39.3806 -0.595275 2.20092 0
M  V30 407 C 40.3646 -1.10163 1.17273 0
M  V30 408 O 41.5566 -1.043 1.43006 0
M  V30 409 C 38.6856 -1.7684 2.94249 0
M  V30 410 C 37.7716 -1.27818 4.0438 0
M  V30 411 N 38.1626 -0.505695 5.03266 0
M  V30 412 C 36.4606 -1.55923 4.17857 0
M  V30 413 C 37.1616 -0.245094 5.81183 0
M  V30 414 N 36.1376 -0.823881 5.3732 0
M  V30 415 H 39.9396 0.00250837 2.939 0
M  V30 416 H 37.4536 0.102007 1.62079 0
M  V30 417 H 39.4506 -2.41944 3.39513 0
M  V30 418 H 38.1106 -2.36992 2.21957 0
M  V30 419 H 39.1216 -0.150928 5.1768 0
M  V30 420 H 35.7986 -2.16849 3.56767 0
M  V30 421 H 37.1886 0.375084 6.70852 0
M  V30 422 N 39.9087 -1.5758 0.0250728 0
M  V30 423 C 41.3247 -1.56124 -0.331282 0
M  V30 424 C 41.5247 -1.03029 -1.73169 0
M  V30 425 O 40.5807 -0.675215 -2.43305 0
M  V30 426 C 41.8937 -3.00139 -0.183584 0
M  V30 427 C 43.4417 -3.11946 -0.256654 0
M  V30 428 C 43.9167 -4.57793 -0.137792 0
M  V30 429 N 45.4077 -4.6279 -0.194904 0
M  V30 430 C 46.1427 -5.7326 -0.126655 0
M  V30 431 N 45.6387 -6.928 -0.00755288 0
M  V30 432 N 47.4317 -5.61811 -0.180348 0
M  V30 433 H 39.5827 -1.90424 0.94087 0
M  V30 434 H 41.8457 -0.875761 0.362968 0
M  V30 435 H 41.5517 -3.4292 0.780927 0
M  V30 436 H 41.4257 -3.64899 -0.955448 0
M  V30 437 H 43.8127 -2.69079 -1.21162 0
M  V30 438 H 43.8937 -2.49915 0.545517 0
M  V30 439 H 43.5377 -5.01339 0.813739 0
M  V30 440 H 43.4677 -5.17798 -0.958775 0
M  V30 441 H 45.9587 -3.76807 -0.287267 0
M  V30 442 H 46.2717 -7.72791 0.0379428 0
M  V30 443 H 44.6167 -6.94995 0.0271731 0
M  V30 444 H 47.8077 -4.6731 -0.271767 0
M  V30 445 H 47.9807 -6.47882 -0.123697 0
M  V30 446 N 41.3868 0.248026 -1.55636 0
M  V30 447 C 42.3168 1.31079 -1.93237 0
M  V30 448 C 43.2978 1.50264 -0.797174 0
M  V30 449 O 44.4828 1.62891 -1.05737 0
M  V30 450 C 41.6128 2.66575 -2.22609 0
M  V30 451 C 40.5668 2.62087 -3.3837 0
M  V30 452 C 39.8928 4.01369 -3.53281 0
M  V30 453 C 41.1928 2.19171 -4.7409 0
M  V30 454 H 42.8868 0.998556 -2.82257 0
M  V30 455 H 40.4328 0.47891 -1.35803 0
M  V30 456 H 42.3858 3.41057 -2.47503 0
M  V30 457 H 41.1098 2.99432 -1.30414 0
M  V30 458 H 39.7688 1.90063 -3.13483 0
M  V30 459 H 39.4168 4.31489 -2.58508 0
M  V30 460 H 39.1168 3.99254 -4.31127 0
M  V30 461 H 40.6408 4.77552 -3.80495 0
M  V30 462 H 42.0548 2.83384 -4.98363 0
M  V30 463 H 40.4518 2.2817 -5.5503 0
M  V30 464 H 41.5218 1.14336 -4.71227 0
M  V30 465 N 42.8649 1.48995 0.513639 0
M  V30 466 C 44.0929 1.61531 1.29288 0
M  V30 467 C 44.5079 0.281801 1.86685 0
M  V30 468 O 43.8649 -0.731111 1.67215 0
M  V30 469 C 43.9159 2.67449 2.43215 0
M  V30 470 O 43.6369 3.95626 1.88179 0
M  V30 471 C 45.1379 2.90575 3.34785 0
M  V30 472 H 42.3579 0.544165 0.392588 0
M  V30 473 H 44.9019 1.9494 0.617956 0
M  V30 474 H 43.0569 2.36853 3.0656 0
M  V30 475 H 43.4709 4.53868 2.62876 0
M  V30 476 H 44.9449 3.68449 4.11035 0
M  V30 477 H 45.4219 2.00011 3.91015 0
M  V30 478 H 46.0279 3.22538 2.77218 0
M  V30 479 N 44.343 -0.763751 1.37857 0
M  V30 480 C 45.306 -1.85889 1.34081 0
M  V30 481 C 46.306 -1.58949 0.243277 0
M  V30 482 O 47.496 -1.66882 0.499589 0
M  V30 483 C 44.628 -3.23176 1.08489 0
M  V30 484 H 45.821 -1.90648 2.31502 0
M  V30 485 H 43.374 -0.964367 1.23003 0
M  V30 486 H 44.109 -3.24091 0.116318 0
M  V30 487 H 43.894 -3.44124 1.8794 0
M  V30 488 H 45.384 -4.03254 1.08517 0
M  V30 489 N 45.8211 -1.22559 -0.990812 0
M  V30 490 C 46.7681 -0.997519 -2.0813 0
M  V30 491 C 47.7381 0.0814702 -1.659 0
M  V30 492 O 48.9231 -0.0685424 -1.90677 0
M  V30 493 C 46.0631 -0.583615 -3.40129 0
M  V30 494 C 45.1761 -1.7336 -3.9569 0
M  V30 495 C 44.3111 -1.26748 -5.15857 0
M  V30 496 C 43.3501 -2.38888 -5.63559 0
M  V30 497 N 42.4871 -1.93308 -6.74964 0
M  V30 498 H 47.3271 -1.93099 -2.26973 0
M  V30 499 H 44.8641 -0.962114 -1.11273 0
M  V30 500 H 46.8221 -0.324801 -4.15934 0
M  V30 501 H 45.4521 0.312845 -3.2128 0
M  V30 502 H 44.5041 -2.10669 -3.16738 0
M  V30 503 H 45.8161 -2.57704 -4.27071 0
M  V30 504 H 44.9701 -0.966173 -5.98957 0
M  V30 505 H 43.7091 -0.394272 -4.86104 0
M  V30 506 H 42.7141 -2.69805 -4.79046 0
M  V30 507 H 43.9391 -3.26728 -5.95336 0
M  V30 508 H 41.8851 -1.08352 -6.4699 0
M  V30 509 H 41.8021 -2.71217 -7.05675 0
M  V30 510 H 43.0701 -1.66252 -7.61564 0
M  V30 511 N 47.2992 1.18797 -1.03562 0
M  V30 512 C 48.2092 2.25913 -0.632505 0
M  V30 513 C 49.2252 1.70668 0.338882 0
M  V30 514 O 50.4012 2.00453 0.195076 0
M  V30 515 C 47.4662 3.467 0.00350942 0
M  V30 516 C 46.5272 4.17098 -1.01624 0
M  V30 517 C 45.7602 5.32119 -0.410478 0
M  V30 518 O 45.9832 5.64976 0.784725 0
M  V30 519 O 44.9172 5.9107 -1.13667 0
M  V30 520 H 48.7432 2.62648 -1.52478 0
M  V30 521 H 46.3282 1.25781 -0.806195 0
M  V30 522 H 48.2102 4.19878 0.35781 0
M  V30 523 H 46.8852 3.11798 0.869686 0
M  V30 524 H 45.7922 3.4601 -1.42224 0
M  V30 525 H 47.1252 4.55987 -1.85301 0
M  V30 526 N 48.7773 0.814389 1.34928 0
M  V30 527 C 50.0233 0.399013 1.98836 0
M  V30 528 C 50.3563 -1.03314 1.64438 0
M  V30 529 O 49.6313 -1.71811 0.911659 0
M  V30 530 C 49.9143 0.591629 3.55207 0
M  V30 531 C 49.7673 2.06928 3.99376 0
M  V30 532 C 51.0863 0.022199 4.40094 0
M  V30 533 H 48.2053 0.146451 0.722303 0
M  V30 534 H 50.8473 1.02537 1.59957 0
M  V30 535 H 48.9973 0.0584441 3.88456 0
M  V30 536 H 50.6693 2.66544 3.76499 0
M  V30 537 H 48.9123 2.56287 3.49999 0
M  V30 538 H 49.5833 2.1549 5.08201 0
M  V30 539 H 52.0593 0.477643 4.13349 0
M  V30 540 H 50.9353 0.186832 5.48582 0
M  V30 541 H 51.1963 -1.07215 4.28902 0
M  V30 542 N 50.2554 -1.46986 0.568584 0
M  V30 543 C 51.5024 -2.02441 0.0487986 0
M  V30 544 C 51.8304 -1.44169 -1.30559 0
M  V30 545 O 51.0854 -0.591213 -1.86556 0
M  V30 546 C 51.3844 -3.57306 -0.081836 0
M  V30 547 C 51.0504 -4.34552 1.20313 0
M  V30 548 C 49.7124 -4.55376 1.5552 0
M  V30 549 C 52.0644 -4.79016 2.05411 0
M  V30 550 C 49.3924 -5.17913 2.7565 0
M  V30 551 C 51.7444 -5.42879 3.24754 0
M  V30 552 C 50.4084 -5.61933 3.60261 0
M  V30 553 H 49.6784 -0.740785 0.0178567 0
M  V30 554 H 52.3254 -1.76525 0.742384 0
M  V30 555 H 50.6304 -3.8228 -0.858463 0
M  V30 556 H 52.3274 -3.97876 -0.499546 0
M  V30 557 H 48.9174 -4.18631 0.919014 0
M  V30 558 H 53.1014 -4.62696 1.79516 0
M  V30 559 H 48.3574 -5.30858 3.03315 0
M  V30 560 H 52.5314 -5.76293 3.90973 0
M  V30 561 H 50.1584 -6.10161 4.53439 0
M  V30 562 N 51.7335 -0.305618 -1.54608 0
M  V30 563 C 53.0105 0.355652 -1.92339 0
M  V30 564 C 53.3905 1.71324 -1.23335 0
M  V30 565 O 52.7385 2.25473 -0.370702 0
M  V30 566 C 52.9485 0.46572 -3.45879 0
M  V30 567 C 54.2965 0.734426 -4.182 0
M  V30 568 O 55.3205 0.54935 -3.51938 0
M  V30 569 O 54.1795 1.09024 -5.35515 0
M  V30 570 H 51.2735 0.199666 -0.802535 0
M  V30 571 H 53.8195 -0.354017 -1.65966 0
M  V30 572 H 52.5915 -0.488461 -3.88239 0
M  V30 573 H 52.2145 1.22367 -3.78301 0
M  V30 574 N 53.2116 1.57565 -0.0334293 0
M  V30 575 C 54.1596 2.1164 0.96496 0
M  V30 576 C 55.1536 1.04398 1.33407 0
M  V30 577 O 56.3596 1.22828 1.3158 0
M  V30 578 H 52.7346 0.676222 0.32898 0
M  V30 579 H 54.7056 2.94455 0.483614 0
M  V30 580 C 53.4546 2.66207 2.23672 0
M  V30 581 H 52.7776 3.48378 1.96145 0
M  V30 582 H 54.2176 3.07685 2.9173 0
M  V30 583 C 52.6766 1.59151 2.96939 0
M  V30 584 O 53.2066 0.993858 3.89211 0
M  V30 585 N 51.4126 1.31093 2.59351 0
M  V30 586 H 50.9596 1.7988 1.84393 0
M  V30 587 H 50.9176 0.596889 3.08682 0
M  V30 588 N 54.6897 -0.239769 1.55765 0
M  V30 589 C 55.9667 -0.990056 1.68693 0
M  V30 590 C 56.3467 -2.03107 0.5754 0
M  V30 591 O 55.6947 -2.24604 -0.42017 0
M  V30 592 C 55.9047 -1.61696 3.09282 0
M  V30 593 C 57.2527 -2.11613 3.6811 0
M  V30 594 O 58.2767 -1.71624 3.12127 0
M  V30 595 O 57.1357 -2.85057 4.66267 0
M  V30 596 H 54.2297 -0.461299 0.686391 0
M  V30 597 H 56.7757 -0.232991 1.68093 0
M  V30 598 H 55.5477 -0.864357 3.81634 0
M  V30 599 H 55.1707 -2.44005 3.13923 0
M  V30 600 N 56.1678 -1.49265 -0.50573 0
M  V30 601 C 57.4158 -1.582 -1.25766 0
M  V30 602 C 57.7368 -0.268482 -1.93143 0
M  V30 603 O 57.0068 0.711833 -1.8251 0
M  V30 604 H 55.5868 -0.582873 -0.467191 0
M  V30 605 H 58.2488 -1.85865 -0.586525 0
M  V30 606 H 57.3448 -2.37563 -2.02412 0
M  V30 607 N 57.6459 0.756429 -1.3826 0
M  V30 608 C 58.5929 1.87011 -1.35261 0
M  V30 609 C 59.5629 1.64695 -0.215616 0
M  V30 610 O 60.7479 1.864 -0.407399 0
M  V30 611 C 57.8879 3.24275 -1.18068 0
M  V30 612 C 57.0009 3.58442 -2.41129 0
M  V30 613 C 56.1359 4.84994 -2.16689 0
M  V30 614 C 55.1749 5.11939 -3.35537 0
M  V30 615 N 54.3119 6.29685 -3.10549 0
M  V30 616 H 59.1519 1.8891 -2.30472 0
M  V30 617 H 56.6889 0.923373 -1.14509 0
M  V30 618 H 58.6469 4.03479 -1.06116 0
M  V30 619 H 57.2769 3.21711 -0.264973 0
M  V30 620 H 56.3289 2.74103 -2.63764 0
M  V30 621 H 57.6409 3.74283 -3.29717 0
M  V30 622 H 56.7949 5.72135 -2.01857 0
M  V30 623 H 55.5339 4.71286 -1.25462 0
M  V30 624 H 54.5389 4.23268 -3.50891 0
M  V30 625 H 55.7639 5.27546 -4.27635 0
M  V30 626 H 53.7099 6.17306 -2.21967 0
M  V30 627 H 53.6269 6.46014 -3.92686 0
M  V30 628 H 54.8949 7.19722 -2.99367 0
M  V30 629 N 59.124 1.23083 0.984299 0
M  V30 630 C 60.535 1.05609 1.5396 0
M  V30 631 C 60.886 -0.377793 1.92528 0
M  V30 632 O 60.011 -1.26398 1.75649 0
M  V30 633 C 60.606 1.91087 2.7977 0
M  V30 634 C 59.165 1.77885 3.31713 0
M  V30 635 C 58.312 1.87028 2.04733 0
M  V30 636 H 61.263 1.36802 0.804419 0
M  V30 637 H 61.284 1.43336 3.5247 0
M  V30 638 H 60.796 2.9544 2.51668 0
M  V30 639 H 58.897 0.762995 3.64704 0
M  V30 640 H 59.01 2.61047 4.01735 0
M  V30 641 H 57.374 1.30565 2.18689 0
M  V30 642 H 58.157 2.92929 1.79017 0
M  V30 643 N 60.6021 -1.18246 1.0419 0
M  V30 644 C 62.0181 -1.40269 0.761366 0
M  V30 645 C 62.2181 -1.90777 -0.648578 0
M  V30 646 O 61.2741 -2.0929 -1.41258 0
M  V30 647 C 62.5871 -2.40237 1.8085 0
M  V30 648 C 64.1351 -2.53961 1.82955 0
M  V30 649 C 64.6101 -3.57194 2.86664 0
M  V30 650 N 66.1011 -3.64702 2.85563 0
M  V30 651 C 66.8361 -4.44309 3.6246 0
M  V30 652 N 66.3321 -5.27514 4.49111 0
M  V30 653 N 68.1251 -4.39084 3.50944 0
M  V30 654 H 60.2761 -0.837882 1.95175 0
M  V30 655 H 62.5391 -0.430608 0.84456 0
M  V30 656 H 62.2451 -2.10176 2.81991 0
M  V30 657 H 62.1191 -3.39601 1.64168 0
M  V30 658 H 64.5061 -2.83338 0.824855 0
M  V30 659 H 64.5871 -1.54706 2.03715 0
M  V30 660 H 64.2311 -3.28558 3.87314 0
M  V30 661 H 64.1611 -4.5613 2.6316 0
M  V30 662 H 66.6521 -3.05289 2.22727 0
M  V30 663 H 66.9651 -5.85411 5.04493 0
M  V30 664 H 65.3101 -5.2693 4.53178 0
M  V30 665 H 68.5011 -3.7313 2.82651 0
M  V30 666 H 68.6741 -5.00883 4.11121 0
M  V30 667 N 62.0802 -0.821533 -1.34494 0
M  V30 668 C 63.3262 -0.409552 -1.98622 0
M  V30 669 C 63.6592 1.0244 -1.64984 0
M  V30 670 O 62.9342 1.71325 -0.920758 0
M  V30 671 C 63.2172 -0.610458 -3.54888 0
M  V30 672 C 63.0702 -2.09043 -3.98273 0
M  V30 673 C 64.3892 -0.0455379 -4.40076 0
M  V30 674 H 61.5082 -0.15028 -0.721516 0
M  V30 675 H 64.1502 -1.03384 -1.59411 0
M  V30 676 H 62.3002 -0.079044 -3.8842 0
M  V30 677 H 63.9722 -2.68537 -3.75081 0
M  V30 678 H 62.2152 -2.58139 -3.48635 0
M  V30 679 H 62.8862 -2.18182 -5.07051 0
M  V30 680 H 65.3622 -0.499557 -4.1309 0
M  V30 681 H 64.2382 -0.215922 -5.48475 0
M  V30 682 H 64.4992 1.04939 -4.29465 0
M  V30 683 N 63.5583 1.46682 -0.576371 0
M  V30 684 C 64.8353 1.95599 0.00703437 0
M  V30 685 C 65.2153 1.51904 1.46589 0
M  V30 686 O 64.5633 0.766755 2.15251 0
M  V30 687 C 64.7733 3.4864 -0.158404 0
M  V30 688 C 66.1213 4.24594 -0.0229439 0
M  V30 689 O 67.1453 3.56094 -0.0869173 0
M  V30 690 O 66.0043 5.46373 0.118015 0
M  V30 691 H 63.0983 0.825275 0.053384 0
M  V30 692 H 65.6443 1.56996 -0.644244 0
M  V30 693 H 64.4163 3.7331 -1.17282 0
M  V30 694 H 64.0393 3.94057 0.5296 0
M  V30 695 N 65.0364 0.313813 1.54444 0
M  V30 696 C 66.2854 -0.292519 1.99568 0
M  V30 697 C 66.5984 -1.54011 1.20582 0
M  V30 698 O 67.8044 -2.22183 1.56035 0
M  V30 699 C 66.2604 -0.571752 3.55329 0
M  V30 700 C 65.8684 0.658229 4.43138 0
M  V30 701 C 67.6124 -1.13857 4.08946 0
M  V30 702 C 65.5194 0.351439 5.90355 0
M  V30 703 H 64.4494 -0.113079 0.745472 0
M  V30 704 H 67.1004 0.424518 1.78522 0
M  V30 705 H 65.4824 -1.34872 3.72325 0
M  V30 706 H 66.6564 1.43403 4.37918 0
M  V30 707 H 64.9714 1.14458 4.0036 0
M  V30 708 H 67.5684 -1.38257 5.16516 0
M  V30 709 H 67.9114 -2.08489 3.6033 0
M  V30 710 H 68.4444 -0.423015 3.95544 0
M  V30 711 H 65.1834 1.26667 6.43145 0
M  V30 712 H 64.7034 -0.386842 5.98551 0
M  V30 713 H 66.3824 -0.0423134 6.46986 0
M  V30 714 N 66.5145 -1.57545 0.0417849 0
M  V30 715 C 67.4445 -2.14009 -0.933929 0
M  V30 716 C 68.4255 -1.05938 -1.33083 0
M  V30 717 O 69.6105 -1.33833 -1.40721 0
M  V30 718 C 66.7405 -2.67747 -2.21199 0
M  V30 719 C 65.6945 -3.80718 -1.95544 0
M  V30 720 C 65.0205 -4.20935 -3.29724 0
M  V30 721 C 66.3205 -5.06258 -1.28452 0
M  V30 722 H 68.0145 -2.95788 -0.463645 0
M  V30 723 H 65.5605 -1.42285 -0.221573 0
M  V30 724 H 67.5135 -3.05886 -2.89848 0
M  V30 725 H 66.2375 -1.83147 -2.70416 0
M  V30 726 H 64.8965 -3.43037 -1.2931 0
M  V30 727 H 64.5445 -3.33298 -3.76724 0
M  V30 728 H 64.2445 -4.9707 -3.13361 0
M  V30 729 H 65.7685 -4.61666 -3.9962 0
M  V30 730 H 67.1825 -5.41903 -1.8712 0
M  V30 731 H 65.5795 -5.87475 -1.22445 0
M  V30 732 H 66.6495 -4.84207 -0.259219 0
M  V30 733 N 67.9926 0.231505 -1.5589 0
M  V30 734 C 68.9396 1.28682 -1.91598 0
M  V30 735 C 69.9096 1.47071 -0.771974 0
M  V30 736 O 71.0946 1.60802 -1.027 0
M  V30 737 C 68.2346 2.6342 -2.22944 0
M  V30 738 C 67.3476 2.52912 -3.50228 0
M  V30 739 C 66.4826 3.80106 -3.7107 0
M  V30 740 C 65.5216 3.64279 -4.91902 0
M  V30 741 N 64.6586 4.834 -5.09184 0
M  V30 742 H 69.4986 0.975305 -2.81588 0
M  V30 743 H 67.0356 0.470299 -1.39379 0
M  V30 744 H 68.9936 3.41869 -2.39126 0
M  V30 745 H 67.6236 2.92687 -1.36139 0
M  V30 746 H 66.6756 1.6595 -3.42294 0
M  V30 747 H 67.9876 2.37133 -4.38827 0
M  V30 748 H 67.1416 4.66999 -3.87295 0
M  V30 749 H 65.8806 3.98799 -2.80733 0
M  V30 750 H 64.8856 2.7577 -4.75637 0
M  V30 751 H 66.1106 3.47067 -5.83714 0
M  V30 752 H 64.0566 5.02425 -4.21788 0
M  V30 753 H 63.9736 4.70311 -5.91898 0
M  V30 754 H 65.2416 5.71747 -5.29835 0
M  V30 755 N 69.4707 1.49531 0.497807 0
M  V30 756 C 70.4337 1.65916 1.58128 0
M  V30 757 C 71.4337 0.530825 1.51786 0
M  V30 758 O 72.6237 0.797342 1.54881 0
M  V30 759 C 69.7557 1.65951 2.9778 0
M  V30 760 H 70.9487 2.62556 1.44929 0
M  V30 761 H 68.5017 1.38611 0.722275 0
M  V30 762 H 69.2367 0.709065 3.16453 0
M  V30 763 H 69.0217 2.47897 3.03792 0
M  V30 764 H 70.5117 1.80673 3.76493 0
M  V30 765 N 70.9488 -0.749086 1.3866 0
M  V30 766 C 71.8988 -1.85368 1.32751 0
M  V30 767 C 72.8828 -1.59511 0.210945 0
M  V30 768 O 74.0748 -1.71255 0.447299 0
M  V30 769 C 71.2038 -3.23131 1.15935 0
M  V30 770 C 70.2898 -3.54864 2.32233 0
M  V30 771 N 70.6808 -3.57625 3.57684 0
M  V30 772 C 68.9788 -3.85154 2.24883 0
M  V30 773 C 69.6798 -3.86753 4.34508 0
M  V30 774 N 68.6558 -4.03812 3.63918 0
M  V30 775 H 72.4578 -1.85787 2.27729 0
M  V30 776 H 69.9718 -0.946658 1.31955 0
M  V30 777 H 71.9688 -4.02185 1.09786 0
M  V30 778 H 70.6288 -3.23961 0.218947 0
M  V30 779 H 71.6398 -3.39276 3.91295 0
M  V30 780 H 68.3168 -3.93672 1.39027 0
M  V30 781 H 69.7068 -3.95474 5.43185 0
M  V30 782 N 72.4269 -1.23603 -0.977757 0
M  V30 783 C 73.3569 -1.04401 -2.0886 0
M  V30 784 C 74.3379 0.0399052 -1.70053 0
M  V30 785 O 75.5229 -0.125246 -1.93796 0
M  V30 786 C 72.6529 -0.637269 -3.41403 0
M  V30 787 C 71.6069 -1.66883 -3.94124 0
M  V30 788 C 70.9329 -1.11745 -5.22893 0
M  V30 789 C 72.2329 -3.06247 -4.23096 0
M  V30 790 H 73.9269 -1.97316 -2.25182 0
M  V30 791 H 71.4729 -0.950096 -1.08209 0
M  V30 792 H 73.4259 -0.48998 -4.18542 0
M  V30 793 H 72.1499 0.327557 -3.24953 0
M  V30 794 H 70.8089 -1.80416 -3.19133 0
M  V30 795 H 70.4569 -0.143527 -5.02795 0
M  V30 796 H 70.1569 -1.80672 -5.59134 0
M  V30 797 H 71.6809 -0.982067 -6.02651 0
M  V30 798 H 73.0949 -2.96001 -4.90975 0
M  V30 799 H 71.4919 -3.72436 -4.70544 0
M  V30 800 H 72.5619 -3.55041 -3.30263 0
M  V30 801 N 73.905 1.17692 -1.04816 0
M  V30 802 C 74.838 2.20436 -0.590173 0
M  V30 803 C 75.816 1.58115 0.379244 0
M  V30 804 O 77 1.86228 0.291762 0
M  V30 805 C 74.127 3.38424 0.136817 0
M  V30 806 C 73.173 4.19176 -0.787023 0
M  V30 807 S 74.006 4.84815 -2.27409 0
M  V30 808 C 75.162 6.06195 -1.55817 0
M  V30 809 H 75.395 2.58944 -1.46067 0
M  V30 810 H 72.928 1.28246 -0.859784 0
M  V30 811 H 74.886 4.06798 0.550076 0
M  V30 812 H 73.547 2.98312 0.983299 0
M  V30 813 H 72.74 5.03499 -0.224681 0
M  V30 814 H 72.342 3.56219 -1.13947 0
M  V30 815 H 74.634 6.72078 -0.855387 0
M  V30 816 H 75.577 6.6695 -2.37873 0
M  V30 817 H 75.985 5.54701 -1.04722 0
M  V30 818 N 75.3831 0.828654 1.34056 0
M  V30 819 C 76.3301 0.252567 2.29414 0
M  V30 820 C 77.3001 -0.62588 1.53857 0
M  V30 821 O 78.4851 -0.566312 1.82202 0
M  V30 822 C 75.6251 -0.574831 3.40279 0
M  V30 823 C 74.7381 0.326499 4.30764 0
M  V30 824 C 73.8731 -0.511016 5.28736 0
M  V30 825 C 72.9121 0.389342 6.1086 0
M  V30 826 N 72.0491 -0.409439 7.00905 0
M  V30 827 H 76.8891 1.07108 2.78086 0
M  V30 828 H 74.4261 0.539677 1.36843 0
M  V30 829 H 76.3841 -1.06992 4.03248 0
M  V30 830 H 75.0141 -1.35841 2.92826 0
M  V30 831 H 74.0661 0.939837 3.68607 0
M  V30 832 H 75.3781 1.01857 4.88289 0
M  V30 833 H 74.5321 -1.07035 5.97184 0
M  V30 834 H 73.2711 -1.23657 4.71763 0
M  V30 835 H 72.2761 0.960769 5.4134 0
M  V30 836 H 73.5011 1.1131 6.69916 0
M  V30 837 H 71.4471 -1.11856 6.46393 0
M  V30 838 H 71.3641 0.224126 7.55668 0
M  V30 839 H 72.6321 -0.951336 7.73673 0
M  V30 840 N 76.8612 -1.46375 0.584142 0
M  V30 841 C 77.7712 -2.34115 -0.150728 0
M  V30 842 C 78.7872 -1.49838 -0.884567 0
M  V30 843 O 79.9632 -1.82704 -0.847429 0
M  V30 844 C 77.0282 -3.2705 -1.15062 0
M  V30 845 C 76.0892 -4.27228 -0.421293 0
M  V30 846 C 75.3222 -5.15722 -1.37355 0
M  V30 847 O 75.5452 -5.07176 -2.61014 0
M  V30 848 O 74.4792 -5.95383 -0.883355 0
M  V30 849 H 78.3052 -2.98309 0.569708 0
M  V30 850 H 75.8902 -1.45373 0.344535 0
M  V30 851 H 77.7722 -3.84381 -1.72712 0
M  V30 852 H 76.4472 -2.65451 -1.8525 0
M  V30 853 H 75.3542 -3.7358 0.197085 0
M  V30 854 H 76.6872 -4.91616 0.239641 0
M  V30 855 N 78.3393 -0.321999 -1.54275 0
M  V30 856 C 79.5873 0.280489 -2.00144 0
M  V30 857 C 79.9083 1.52777 -1.21178 0
M  V30 858 O 79.1783 1.9338 -0.313187 0
M  V30 859 H 77.7583 0.106632 -0.73935 0
M  V30 860 H 80.4203 -0.438184 -1.8991 0
M  V30 861 H 79.5163 0.537972 -3.07428 0
M  V30 862 N 79.8174 1.5752 -0.0501392 0
M  V30 863 C 81.2334 1.56631 0.306402 0
M  V30 864 C 81.4334 1.0577 1.71508 0
M  V30 865 O 80.4894 0.713837 2.422 0
M  V30 866 C 81.8024 3.00393 0.135811 0
M  V30 867 C 83.3504 3.12315 0.206993 0
M  V30 868 C 83.8254 4.57954 0.064944 0
M  V30 869 N 85.3164 4.63041 0.121254 0
M  V30 870 C 86.0514 5.73389 0.0354381 0
M  V30 871 N 85.5474 6.92724 -0.102666 0
M  V30 872 N 87.3404 5.62026 0.090946 0
M  V30 873 H 79.4914 1.88903 -0.971046 0
M  V30 874 H 81.7544 0.869876 -0.376855 0
M  V30 875 H 81.4604 3.41635 -0.835384 0
M  V30 876 H 81.3344 3.66373 0.897275 0
M  V30 877 H 83.7214 2.70973 1.16866 0
M  V30 878 H 83.8024 2.49016 -0.585208 0
M  V30 879 H 83.4464 4.99981 -0.893394 0
M  V30 880 H 83.3764 5.19258 0.876277 0
M  V30 881 H 85.8674 3.77216 0.227284 0
M  V30 882 H 86.1804 7.72633 -0.160882 0
M  V30 883 H 84.5254 6.94864 -0.137737 0
M  V30 884 H 87.7164 4.67684 0.197388 0
M  V30 885 H 87.8894 6.47997 0.0206089 0
M  V30 886 N 81.2955 -0.223234 1.56011 0
M  V30 887 C 82.2255 -1.27988 1.95298 0
M  V30 888 C 83.2065 -1.48976 0.820979 0
M  V30 889 O 84.3915 -1.61188 1.08315 0
M  V30 890 C 81.5215 -2.63 2.26822 0
M  V30 891 C 80.4755 -2.56671 3.42497 0
M  V30 892 C 79.8015 -3.95697 3.59622 0
M  V30 893 C 81.1015 -2.11601 4.77517 0
M  V30 894 H 82.7955 -0.953525 2.8381 0
M  V30 895 H 80.3415 -0.457244 1.36548 0
M  V30 896 H 82.2945 -3.37077 2.52898 0
M  V30 897 H 81.0185 -2.9732 1.35161 0
M  V30 898 H 79.6775 -1.85051 3.16467 0
M  V30 899 H 79.3255 -4.27322 2.6534 0
M  V30 900 H 79.0255 -3.92345 4.37424 0
M  V30 901 H 80.5495 -4.71438 3.88044 0
M  V30 902 H 81.9635 -2.7542 5.02809 0
M  V30 903 H 80.3605 -2.19311 5.5859 0
M  V30 904 H 81.4305 -1.06824 4.72987 0
M  V30 905 N 82.7736 -1.49793 -0.48987 0
M  V30 906 C 83.6836 -1.70036 -1.61632 0
M  V30 907 C 84.6996 -0.583102 -1.63939 0
M  V30 908 O 85.8756 -0.859169 -1.82154 0
M  V30 909 C 82.9406 -1.77277 -2.97949 0
M  V30 910 C 82.0016 -3.00918 -3.06181 0
M  V30 911 C 81.2346 -3.07804 -4.35996 0
M  V30 912 O 81.4576 -2.21982 -5.25433 0
M  V30 913 O 80.3916 -4.00369 -4.49431 0
M  V30 914 H 84.2176 -2.65486 -1.47482 0
M  V30 915 H 81.8026 -1.33666 -0.667362 0
M  V30 916 H 83.6846 -1.84329 -3.78947 0
M  V30 917 H 82.3596 -0.850076 -3.12339 0
M  V30 918 H 81.2666 -2.99377 -2.2433 0
M  V30 919 H 82.5996 -3.92704 -2.96723 0
M  V30 920 N 84.2517 0.741722 -1.39055 0
M  V30 921 C 85.1617 1.88621 -1.39496 0
M  V30 922 C 86.1777 1.71557 -0.290578 0
M  V30 923 O 87.3537 1.94275 -0.530954 0
M  V30 924 C 84.4187 3.24134 -1.23037 0
M  V30 925 C 83.4797 3.5364 -2.43387 0
M  V30 926 C 82.7127 4.82687 -2.27703 0
M  V30 927 O 82.9357 5.55922 -1.27696 0
M  V30 928 O 81.8697 5.1194 -3.16545 0
M  V30 929 H 85.6957 1.91203 -2.35956 0
M  V30 930 H 83.2807 0.888625 -1.20099 0
M  V30 931 H 85.1627 4.0513 -1.15964 0
M  V30 932 H 83.8377 3.22337 -0.296691 0
M  V30 933 H 82.7447 2.72758 -2.56035 0
M  V30 934 H 84.0777 3.60209 -3.35425 0
M  V30 935 N 85.7298 1.2412 0.971189 0
M  V30 936 C 86.9548 1.10667 1.75407 0
M  V30 937 C 87.3798 -0.337048 1.85056 0
M  V30 938 O 86.7378 -1.24396 1.31892 0
M  V30 939 C 86.7858 1.74726 3.15441 0
M  V30 940 O 85.8898 1.01566 3.99697 0
M  V30 941 H 85.2308 0.387341 0.539317 0
M  V30 942 H 87.7608 1.64358 1.2185 0
M  V30 943 H 87.7708 1.80341 3.6598 0
M  V30 944 H 86.4458 2.79773 3.07734 0
M  V30 945 H 85.0228 1.03713 3.58187 0
M  V30 946 N 87.2079 -1.17134 1.05439 0
M  V30 947 C 88.4539 -1.87733 0.767077 0
M  V30 948 C 88.7869 -1.8098 -0.704253 0
M  V30 949 O 88.0619 -1.21951 -1.5152 0
M  V30 950 C 88.3449 -3.37659 1.25133 0
M  V30 951 C 88.1979 -3.53149 2.78578 0
M  V30 952 C 89.5169 -4.31768 0.852324 0
M  V30 953 H 86.6359 -0.681687 0.280129 0
M  V30 954 H 89.2779 -1.37732 1.30881 0
M  V30 955 H 87.4279 -3.80373 0.790469 0
M  V30 956 H 89.0999 -3.19434 3.32806 0
M  V30 957 H 87.3429 -2.95345 3.17732 0
M  V30 958 H 88.0139 -4.58403 3.07523 0
M  V30 959 H 90.4899 -3.96909 1.24911 0
M  V30 960 H 89.3659 -5.35199 1.21873 0
M  V30 961 H 89.6269 -4.41429 -0.243485 0
M  V30 962 N 88.686 -0.835752 -1.33615 0
M  V30 963 C 89.649 -0.272 -2.2758 0
M  V30 964 C 90.649 0.557487 -1.50827 0
M  V30 965 O 91.839 0.37173 -1.70188 0
M  V30 966 C 88.971 0.617173 -3.35267 0
M  V30 967 H 90.164 -1.10111 -2.78954 0
M  V30 968 H 87.717 -0.608594 -1.43965 0
M  V30 969 H 88.452 1.46884 -2.89129 0
M  V30 970 H 88.237 0.0237066 -3.92093 0
M  V30 971 H 89.727 1.005 -4.05326 0
M  V30 972 N 90.1641 1.46063 -0.591896 0
M  V30 973 C 91.0941 2.33172 0.123673 0
M  V30 974 C 92.0751 1.45897 0.87453 0
M  V30 975 O 93.2601 1.74698 0.848181 0
M  V30 976 C 90.3901 3.28336 1.13194 0
M  V30 977 C 89.3441 4.25124 0.495324 0
M  V30 978 C 88.6701 5.09863 1.61071 0
M  V30 979 C 89.9701 5.19143 -0.573425 0
M  V30 980 H 91.6641 2.93252 -0.603646 0
M  V30 981 H 89.2101 1.41014 -0.291741 0
M  V30 982 H 91.1631 3.88137 1.64097 0
M  V30 983 H 89.8871 2.66383 1.88965 0
M  V30 984 H 88.5461 3.66599 0.00729452 0
M  V30 985 H 88.1941 4.44288 2.35832 0
M  V30 986 H 87.8941 5.75417 1.19035 0
M  V30 987 H 89.4181 5.72529 2.12233 0
M  V30 988 H 90.8321 5.73106 -0.1491 0
M  V30 989 H 89.2291 5.93089 -0.914636 0
M  V30 990 H 90.2991 4.62519 -1.45617 0
M  V30 991 N 91.6422 0.330177 1.54103 0
M  V30 992 C 93.0582 -0.0222371 1.59585 0
M  V30 993 C 93.2582 -1.49902 1.34654 0
M  V30 994 O 92.3142 -2.25592 1.13421 0
M  V30 995 C 93.6272 0.401932 2.98002 0
M  V30 996 C 95.1752 0.353145 3.11001 0
M  V30 997 C 95.6502 0.752576 4.51775 0
M  V30 998 N 97.1412 0.706239 4.57784 0
M  V30 999 C 97.8762 0.987417 5.64834 0
M  V30 1000 N 97.3722 1.33607 6.79795 0
M  V30 1001 N 99.1652 0.91254 5.54643 0
M  V30 1002 H 91.3162 1.29228 1.68564 0
M  V30 1003 H 93.5792 0.525906 0.78875 0
M  V30 1004 H 93.2852 1.4311 3.21267 0
M  V30 1005 H 93.1592 -0.229699 3.765 0
M  V30 1006 H 95.5462 -0.666822 2.87467 0
M  V30 1007 H 95.6272 1.0198 2.34593 0
M  V30 1008 H 95.2712 1.77049 4.76042 0
M  V30 1009 H 95.2012 0.0635409 5.26562 0
M  V30 1010 H 97.6922 0.44889 3.75224 0
M  V30 1011 H 98.0052 1.53582 7.57385 0
M  V30 1012 H 96.3502 1.37439 6.81275 0
M  V30 1013 H 99.5412 0.639601 4.6371 0
M  V30 1014 H 99.7142 1.13503 6.37982 0
M  V30 1015 N 93.1203 -1.57491 0.0584922 0
M  V30 1016 C 94.3693 -1.92155 -0.613146 0
M  V30 1017 C 94.6823 -0.939334 -1.71569 0
M  V30 1018 O 95.8883 -1.17829 -2.44599 0
M  V30 1019 C 94.3443 -3.41303 -1.14195 0
M  V30 1020 C 93.9523 -4.47944 -0.0711265 0
M  V30 1021 C 95.6963 -3.84988 -1.78841 0
M  V30 1022 C 93.6033 -5.88212 -0.613225 0
M  V30 1023 H 92.5333 -0.717162 -0.232796 0
M  V30 1024 H 95.1843 -1.83049 0.12857 0
M  V30 1025 H 93.5663 -3.45437 -1.93621 0
M  V30 1026 H 94.7403 -4.55408 0.702836 0
M  V30 1027 H 93.0553 -4.13644 0.478313 0
M  V30 1028 H 95.6523 -4.87159 -2.20408 0
M  V30 1029 H 95.9953 -3.21632 -2.64308 0
M  V30 1030 H 96.5283 -3.83401 -1.06059 0
M  V30 1031 H 93.2673 -6.55183 0.203978 0
M  V30 1032 H 92.7873 -5.84294 -1.35501 0
M  V30 1033 H 94.4663 -6.37687 -1.09383 0
M  V30 1034 N 94.5984 0.214957 -1.56127 0
M  V30 1035 C 95.8474 0.936451 -1.78643 0
M  V30 1036 C 96.1604 1.85237 -0.628229 0
M  V30 1037 O 97.3664 2.613 -0.737186 0
M  V30 1038 C 95.8224 1.7154 -3.16389 0
M  V30 1039 C 95.4304 0.845299 -4.39953 0
M  V30 1040 C 97.1744 2.42772 -3.48227 0
M  V30 1041 C 95.0814 1.62198 -5.68723 0
M  V30 1042 H 94.0114 0.353401 -0.666051 0
M  V30 1043 H 96.6624 0.190169 -1.82512 0
M  V30 1044 H 95.0444 2.50484 -3.06715 0
M  V30 1045 H 96.2184 0.0959353 -4.607 0
M  V30 1046 H 94.5334 0.244789 -4.1568 0
M  V30 1047 H 97.1304 3.01394 -4.41663 0
M  V30 1048 H 97.4734 3.15984 -2.71035 0
M  V30 1049 H 98.0064 1.70813 -3.5926 0
M  V30 1050 H 94.7454 0.933011 -6.48826 0
M  V30 1051 H 94.2654 2.34579 -5.52026 0
M  V30 1052 H 95.9444 2.18095 -6.09133 0
M  V30 1053 N 96.0765 1.50051 0.48192 0
M  V30 1054 C 97.3045 1.64237 1.25832 0
M  V30 1055 C 97.7195 0.321336 1.86045 0
M  V30 1056 O 97.0765 -0.695478 1.68729 0
M  V30 1057 C 97.1275 2.72548 2.37487 0
M  V30 1058 O 96.8485 3.99529 1.79745 0
M  V30 1059 C 98.3495 2.9761 3.28547 0
M  V30 1060 H 95.5695 0.55237 0.380957 0
M  V30 1061 H 98.1135 1.96207 0.576467 0
M  V30 1062 H 96.2685 2.43303 3.01467 0
M  V30 1063 H 96.6825 4.59342 2.5319 0
M  V30 1064 H 98.1565 3.77084 4.03127 0
M  V30 1065 H 98.6335 2.0826 3.86684 0
M  V30 1066 H 99.2395 3.28345 2.70314 0
M  V30 1067 N 97.5546 -0.734337 1.39446 0
M  V30 1068 C 98.4646 -1.87879 1.40495 0
M  V30 1069 C 99.4806 -1.714 0.299672 0
M  V30 1070 O 100.657 -1.93991 0.541249 0
M  V30 1071 C 97.7216 -3.23477 1.24754 0
M  V30 1072 C 96.7826 -3.52344 2.45259 0
M  V30 1073 C 96.0156 -4.81473 2.30259 0
M  V30 1074 O 96.2386 -5.55237 1.30643 0
M  V30 1075 O 95.1726 -5.10254 3.19256 0
M  V30 1076 H 98.9986 -1.89949 2.36966 0
M  V30 1077 H 96.5836 -0.882243 1.20569 0
M  V30 1078 H 98.4656 -4.04509 1.18111 0
M  V30 1079 H 97.1406 -3.22176 0.313781 0
M  V30 1080 H 96.0476 -2.71396 2.57478 0
M  V30 1081 H 97.3806 -3.58426 3.37331 0
M  V30 1082 N 99.0327 -1.24633 -0.964593 0
M  V30 1083 C 100.281 -1.08573 -1.70459 0
M  V30 1084 C 100.602 0.375655 -1.91347 0
M  V30 1085 O 99.8717 1.26779 -1.49345 0
M  V30 1086 H 98.4517 -0.398784 -0.631649 0
M  V30 1087 H 101.114 -1.56601 -1.16026 0
M  V30 1088 H 100.21 -1.58623 -2.68785 0
M  V30 1089 N 100.511 1.16574 -1.06058 0
M  V30 1090 C 101.474 2.19085 -0.673392 0
M  V30 1091 C 102.474 1.5835 0.279648 0
M  V30 1092 O 103.664 1.74088 0.0623488 0
M  V30 1093 C 100.796 3.40899 0.00954234 0
M  V30 1094 H 101.989 2.54853 -1.58081 0
M  V30 1095 H 99.5418 1.30808 -0.855516 0
M  V30 1096 H 100.277 3.10684 0.929826 0
M  V30 1097 H 100.062 3.86233 -0.67573 0
M  V30 1098 H 101.552 4.1675 0.266245 0
M  V30 1099 N 101.989 0.842826 1.3317 0
M  V30 1100 C 103.214 0.453129 2.02389 0
M  V30 1101 C 103.639 -0.939105 1.6298 0
M  V30 1102 O 102.997 -1.61472 0.8244 0
M  V30 1103 C 103.045 0.586094 3.55805 0
M  V30 1104 O 102.149 -0.386029 4.10589 0
M  V30 1105 H 101.49 0.183664 0.638094 0
M  V30 1106 H 104.02 1.13875 1.69981 0
M  V30 1107 H 104.03 0.469209 4.05293 0
M  V30 1108 H 102.705 1.6014 3.83833 0
M  V30 1109 H 101.282 -0.226371 3.72212 0
M  V30 1110 N 103.467 -1.45747 0.599634 0
M  V30 1111 C 104.716 -2.01502 0.0893511 0
M  V30 1112 C 105.029 -1.4748 -1.28488 0
M  V30 1113 O 106.235 -1.95161 -1.88745 0
M  V30 1114 C 104.691 -3.59735 0.109082 0
M  V30 1115 C 104.299 -4.22754 1.48267 0
M  V30 1116 C 106.043 -4.23085 -0.346374 0
M  V30 1117 C 103.95 -5.73115 1.45921 0
M  V30 1118 H 102.88 -0.753417 0.0296347 0
M  V30 1119 H 105.531 -1.67303 0.753788 0
M  V30 1120 H 103.913 -3.91087 -0.621854 0
M  V30 1121 H 105.087 -4.02987 2.23468 0
M  V30 1122 H 103.402 -3.71567 1.87955 0
M  V30 1123 H 105.999 -5.33327 -0.38298 0
M  V30 1124 H 106.342 -3.93201 -1.36743 0
M  V30 1125 H 106.875 -3.9642 0.331038 0
M  V30 1126 H 103.614 -6.07685 2.45762 0
M  V30 1127 H 103.134 -5.95097 0.749665 0
M  V30 1128 H 104.813 -6.3616 1.17941 0
M  V30 1129 N 104.945 -0.338344 -1.53925 0
M  V30 1130 C 105.875 0.51328 -2.27789 0
M  V30 1131 C 106.856 1.107 -1.29149 0
M  V30 1132 O 108.041 1.12937 -1.57984 0
M  V30 1133 C 105.171 1.66697 -3.04679 0
M  V30 1134 C 104.125 1.20183 -4.1078 0
M  V30 1135 C 103.451 2.44363 -4.75595 0
M  V30 1136 C 104.751 0.30605 -5.21403 0
M  V30 1137 H 106.445 -0.102883 -2.99223 0
M  V30 1138 H 103.991 -0.0509219 -1.4391 0
M  V30 1139 H 105.944 2.26915 -3.55088 0
M  V30 1140 H 104.668 2.30995 -2.30887 0
M  V30 1141 H 103.327 0.622499 -3.61276 0
M  V30 1142 H 102.975 3.07057 -3.98403 0
M  V30 1143 H 102.675 2.13925 -5.47275 0
M  V30 1144 H 104.199 3.05317 -5.28786 0
M  V30 1145 H 105.613 0.814929 -5.67478 0
M  V30 1146 H 104.01 0.0937929 -6.00027 0
M  V30 1147 H 105.08 -0.65921 -4.80398 0
M  V30 1148 N 106.423 1.57458 -0.0668435 0
M  V30 1149 C 107.839 1.56947 0.289772 0
M  V30 1150 C 108.039 1.07584 1.70376 0
M  V30 1151 O 107.095 0.739486 2.41429 0
M  V30 1152 C 108.408 3.0052 0.103943 0
M  V30 1153 C 109.956 3.12517 0.173857 0
M  V30 1154 C 110.431 4.57997 0.0163682 0
M  V30 1155 N 111.922 4.63144 0.0721352 0
M  V30 1156 C 112.657 5.73394 -0.0253794 0
M  V30 1157 N 112.153 6.92576 -0.176133 0
M  V30 1158 N 113.946 5.62091 0.0313305 0
M  V30 1159 H 106.097 1.87863 -0.991027 0
M  V30 1160 H 108.36 0.86583 -0.38606 0
M  V30 1161 H 108.066 3.40729 -0.871572 0
M  V30 1162 H 107.94 3.67304 0.858366 0
M  V30 1163 H 110.327 2.72197 1.13985 0
M  V30 1164 H 110.408 2.48381 -0.611586 0
M  V30 1165 H 110.052 4.99005 -0.946374 0
M  V30 1166 H 109.982 5.20158 0.821153 0
M  V30 1167 H 112.473 3.77436 0.187263 0
M  V30 1168 H 112.786 7.72418 -0.242821 0
M  V30 1169 H 111.131 6.94678 -0.211429 0
M  V30 1170 H 114.322 4.67867 0.147773 0
M  V30 1171 H 114.495 6.47982 -0.048121 0
M  V30 1172 N 107.901 -0.206675 1.56239 0
M  V30 1173 C 108.833 -1.27997 1.9013 0
M  V30 1174 C 109.846 -1.42299 0.790883 0
M  V30 1175 O 111.035 -1.42931 1.06925 0
M  V30 1176 C 108.135 -2.65368 2.10792 0
M  V30 1177 C 107.308 -2.72824 3.41886 0
M  V30 1178 C 106.367 -3.9131 3.51799 0
M  V30 1179 O 105.393 -3.78953 4.24716 0
M  V30 1180 N 106.595 -5.06265 2.84035 0
M  V30 1181 H 109.36 -0.992444 2.82791 0
M  V30 1182 H 106.921 -0.396652 1.56966 0
M  V30 1183 H 108.913 -3.43039 2.14724 0
M  V30 1184 H 107.483 -2.86657 1.24685 0
M  V30 1185 H 106.703 -1.81515 3.49923 0
M  V30 1186 H 107.991 -2.74786 4.28217 0
M  V30 1187 H 107.389 -5.19203 2.246 0
M  V30 1188 H 105.946 -5.81925 2.93609 0
M  V30 1189 N 109.379 -1.50304 -0.473955 0
M  V30 1190 C 110.289 -1.7174 -1.5982 0
M  V30 1191 C 111.305 -0.600457 -1.63311 0
M  V30 1192 O 112.481 -0.878441 -1.81233 0
M  V30 1193 C 109.546 -1.80427 -2.96052 0
M  V30 1194 C 108.607 -3.04148 -3.02972 0
M  V30 1195 C 107.84 -3.12411 -4.32706 0
M  V30 1196 O 108.063 -2.27542 -5.23049 0
M  V30 1197 O 106.997 -4.05113 -4.45159 0
M  V30 1198 H 110.823 -2.67035 -1.44657 0
M  V30 1199 H 108.408 -1.34366 -0.653148 0
M  V30 1200 H 110.29 -1.88338 -3.7697 0
M  V30 1201 H 108.965 -0.883156 -3.11419 0
M  V30 1202 H 107.872 -3.0174 -2.21142 0
M  V30 1203 H 109.205 -3.95829 -2.92541 0
M  V30 1204 N 110.857 0.726932 -1.39834 0
M  V30 1205 C 111.804 1.841 -1.39197 0
M  V30 1206 C 112.774 1.642 -0.250502 0
M  V30 1207 O 113.959 1.85494 -0.446846 0
M  V30 1208 C 111.099 3.21697 -1.24919 0
M  V30 1209 C 110.212 3.53247 -2.48678 0
M  V30 1210 C 109.347 4.80289 -2.26928 0
M  V30 1211 C 108.386 5.04707 -3.4632 0
M  V30 1212 N 107.523 6.22956 -3.23836 0
M  V30 1213 H 112.363 1.83979 -2.34427 0
M  V30 1214 H 109.9 0.898876 -1.16442 0
M  V30 1215 H 111.858 4.01137 -1.1465 0
M  V30 1216 H 110.488 3.21076 -0.333153 0
M  V30 1217 H 109.54 2.68447 -2.69519 0
M  V30 1218 H 110.852 3.67205 -3.37582 0
M  V30 1219 H 110.006 5.67725 -2.13947 0
M  V30 1220 H 108.745 4.68519 -1.35431 0
M  V30 1221 H 107.75 4.1573 -3.5979 0
M  V30 1222 H 108.975 5.18357 -4.38729 0
M  V30 1223 H 106.921 6.12459 -2.35011 0
M  V30 1224 H 106.838 6.37539 -4.063 0
M  V30 1225 H 108.106 7.1321 -3.14566 0
M  V30 1226 N 112.336 1.25143 0.95797 0
M  V30 1227 C 113.284 1.05019 2.07542 0
M  V30 1228 C 114.278 -0.0178751 1.69391 0
M  V30 1229 O 115.484 0.137472 1.79474 0
M  V30 1230 H 111.859 0.32265 0.679265 0
M  V30 1231 H 113.83 1.99759 2.21673 0
M  V30 1232 C 112.579 0.682074 3.40944 0
M  V30 1233 H 111.902 1.49573 3.70767 0
M  V30 1234 H 113.342 0.580945 4.20001 0
M  V30 1235 C 111.801 -0.611608 3.31302 0
M  V30 1236 O 112.331 -1.65465 3.66038 0
M  V30 1237 N 110.537 -0.595982 2.84423 0
M  V30 1238 H 110.084 0.253192 2.56353 0
M  V30 1239 H 110.042 -1.46173 2.78354 0
M  V30 1240 N 113.814 -1.1601 1.06675 0
M  V30 1241 C 114.744 -2.22688 0.702307 0
M  V30 1242 C 115.725 -1.67306 -0.307032 0
M  V30 1243 O 116.91 -1.93352 -0.181305 0
M  V30 1244 C 114.04 -3.47178 0.092038 0
M  V30 1245 C 112.994 -4.15477 1.02777 0
M  V30 1246 C 112.32 -5.33963 0.28061 0
M  V30 1247 C 113.62 -4.66019 2.35846 0
M  V30 1248 H 115.314 -2.53429 1.59419 0
M  V30 1249 H 112.86 -1.21813 0.767961 0
M  V30 1250 H 114.813 -4.21037 -0.174814 0
M  V30 1251 H 113.537 -3.15749 -0.834877 0
M  V30 1252 H 112.196 -3.43549 1.27944 0
M  V30 1253 H 111.844 -4.98788 -0.649545 0
M  V30 1254 H 111.544 -5.806 0.904258 0
M  V30 1255 H 113.068 -6.10596 0.021396 0
M  V30 1256 H 114.482 -5.3144 2.15045 0
M  V30 1257 H 112.879 -5.23293 2.93743 0
M  V30 1258 H 113.949 -3.82023 2.98641 0
M  V30 1259 N 115.292 -0.849877 -1.32721 0
M  V30 1260 C 116.222 -0.306308 -2.31482 0
M  V30 1261 C 117.203 0.591952 -1.59468 0
M  V30 1262 O 118.388 0.513199 -1.87296 0
M  V30 1263 C 115.518 0.510204 -3.43532 0
M  V30 1264 C 114.472 -0.293209 -4.26994 0
M  V30 1265 C 113.798 0.647743 -5.30762 0
M  V30 1266 C 115.098 -1.51634 -4.99804 0
M  V30 1267 H 116.792 -1.13153 -2.77195 0
M  V30 1268 H 114.338 -0.545553 -1.33266 0
M  V30 1269 H 116.291 0.900856 -4.11658 0
M  V30 1270 H 115.015 1.36874 -2.96535 0
M  V30 1271 H 113.674 -0.665555 -3.60508 0
M  V30 1272 H 113.322 1.50299 -4.8002 0
M  V30 1273 H 113.022 0.11422 -5.87489 0
M  V30 1274 H 114.546 1.03567 -6.01753 0
M  V30 1275 H 115.96 -1.19824 -5.60638 0
M  V30 1276 H 114.357 -1.98745 -5.66234 0
M  V30 1277 H 115.427 -2.28018 -4.27943 0
M  V30 1278 N 116.77 1.45427 -0.607355 0
M  V30 1279 C 118.047 1.9557 -0.0344566 0
M  V30 1280 C 118.427 1.54979 1.43334 0
M  V30 1281 O 117.775 0.812241 2.13576 0
M  V30 1282 C 117.985 3.48226 -0.232321 0
M  V30 1283 C 119.333 4.2445 -0.113001 0
M  V30 1284 O 120.357 3.55829 -0.162431 0
M  V30 1285 O 119.216 5.465 0.00209442 0
M  V30 1286 H 116.31 0.826222 0.0358667 0
M  V30 1287 H 118.856 1.55594 -0.6774 0
M  V30 1288 H 117.628 3.70739 -1.25174 0
M  V30 1289 H 117.251 3.95092 0.445896 0
M  V30 1290 N 118.248 0.346503 1.53744 0
M  V30 1291 C 119.497 -0.250122 2.00143 0
M  V30 1292 C 119.81 -1.51418 1.23822 0
M  V30 1293 O 121.016 -2.18823 1.60713 0
M  V30 1294 C 119.472 -0.496252 3.56462 0
M  V30 1295 C 119.08 0.752077 4.41642 0
M  V30 1296 C 120.824 -1.05157 4.11269 0
M  V30 1297 C 118.731 0.476583 5.89477 0
M  V30 1298 H 117.661 -0.0972409 0.747703 0
M  V30 1299 H 120.312 0.46229 1.77581 0
M  V30 1300 H 118.694 -1.26944 3.75102 0
M  V30 1301 H 119.868 1.5266 4.34778 0
M  V30 1302 H 118.183 1.22925 3.97842 0
M  V30 1303 H 120.78 -1.27269 5.19333 0
M  V30 1304 H 121.123 -2.00799 3.64672 0
M  V30 1305 H 121.656 -0.339019 3.96353 0
M  V30 1306 H 118.395 1.4028 6.40314 0
M  V30 1307 H 117.915 -0.259794 5.99237 0
M  V30 1308 H 119.594 0.0949315 6.4693 0
M  V30 1309 N 119.726 -1.57421 0.075193 0
M  V30 1310 C 121.003 -1.85029 -0.634329 0
M  V30 1311 C 121.383 -0.968305 -1.87582 0
M  V30 1312 O 120.731 -0.0354749 -2.28472 0
M  V30 1313 C 120.941 -3.35286 -0.968742 0
M  V30 1314 C 122.289 -4.02875 -1.34077 0
M  V30 1315 O 123.313 -3.40051 -1.06037 0
M  V30 1316 O 122.172 -5.13691 -1.86506 0
M  V30 1317 H 119.266 -0.7645 -0.315387 0
M  V30 1318 H 121.812 -1.69366 0.106382 0
M  V30 1319 H 120.584 -3.91203 -0.0871376 0
M  V30 1320 H 120.207 -3.56223 -1.7661 0
M  V30 1321 N 121.204 0.198386 -1.56346 0
M  V30 1322 C 122.167 1.22952 -1.93431 0
M  V30 1323 C 123.167 1.38611 -0.815092 0
M  V30 1324 O 124.357 1.36479 -1.08255 0
M  V30 1325 C 121.489 2.59946 -2.20546 0
M  V30 1326 H 122.682 0.912626 -2.85677 0
M  V30 1327 H 120.235 0.43977 -1.49986 0
M  V30 1328 H 120.97 2.96696 -1.30927 0
M  V30 1329 H 120.755 2.49953 -3.02102 0
M  V30 1330 H 122.245 3.3431 -2.50253 0
M  V30 1331 N 122.682 1.50554 0.465978 0
M  V30 1332 C 124.093 1.54599 1.04671 0
M  V30 1333 C 124.444 0.352488 1.93008 0
M  V30 1334 O 123.569 -0.534044 2.09707 0
M  V30 1335 C 124.164 2.80166 1.90505 0
M  V30 1336 C 122.723 2.86876 2.43678 0
M  V30 1337 C 121.87 2.48947 1.22151 0
M  V30 1338 H 124.821 1.56744 0.248384 0
M  V30 1339 H 124.842 2.62311 2.75633 0
M  V30 1340 H 124.354 3.67013 1.26186 0
M  V30 1341 H 122.455 2.04393 3.11536 0
M  V30 1342 H 122.568 3.89885 2.78436 0
M  V30 1343 H 120.932 2.01498 1.5579 0
M  V30 1344 H 121.715 3.38107 0.594866 0
M  V30 1345 N 124.16 -0.719506 1.40217 0
M  V30 1346 C 125.406 -1.48152 1.38488 0
M  V30 1347 C 125.739 -1.94195 -0.0141867 0
M  V30 1348 O 125.014 -1.67884 -0.982096 0
M  V30 1349 C 125.297 -2.71035 2.37091 0
M  V30 1350 C 125.15 -2.30912 3.86005 0
M  V30 1351 C 126.469 -3.73182 2.33288 0
M  V30 1352 H 123.588 -0.537395 0.504357 0
M  V30 1353 H 126.23 -0.821472 1.71324 0
M  V30 1354 H 124.38 -3.27352 2.0922 0
M  V30 1355 H 126.052 -1.80107 4.24687 0
M  V30 1356 H 124.295 -1.62958 4.02029 0
M  V30 1357 H 124.966 -3.18978 4.50508 0
M  V30 1358 H 127.442 -3.26485 2.57966 0
M  V30 1359 H 126.318 -4.56806 3.04334 0
M  V30 1360 H 126.579 -4.21202 1.34317 0
M  V30 1361 N 125.638 -1.25649 -0.95132 0
M  V30 1362 C 126.866 -1.13343 -1.73092 0
M  V30 1363 C 127.281 0.312434 -1.86197 0
M  V30 1364 O 126.638 1.21465 -1.36207 0
M  V30 1365 C 126.689 -1.78602 -3.14299 0
M  V30 1366 O 126.41 -3.17537 -3.01831 0
M  V30 1367 C 127.911 -1.72119 -4.08522 0
M  V30 1368 H 125.131 -0.395181 -0.542285 0
M  V30 1369 H 127.675 -1.66076 -1.19328 0
M  V30 1370 H 125.83 -1.29832 -3.64996 0
M  V30 1371 H 126.244 -3.49676 -3.90931 0
M  V30 1372 H 127.718 -2.22435 -5.052 0
M  V30 1373 H 128.195 -0.685635 -4.33815 0
M  V30 1374 H 128.801 -2.20393 -3.63741 0
M  V30 1375 N 127.117 1.15442 -1.07289 0
M  V30 1376 C 128.363 1.86489 -0.796846 0
M  V30 1377 C 128.696 1.82078 0.675371 0
M  V30 1378 O 127.971 1.24346 1.4956 0
M  V30 1379 C 128.254 3.35626 -1.30489 0
M  V30 1380 C 128.107 3.48673 -2.84161 0
M  V30 1381 C 129.426 4.30357 -0.920907 0
M  V30 1382 H 126.545 0.677144 -0.290939 0
M  V30 1383 H 129.187 1.35633 -1.33056 0
M  V30 1384 H 127.337 3.79068 -0.850883 0
M  V30 1385 H 129.009 3.14099 -3.37846 0
M  V30 1386 H 127.252 2.90253 -3.22391 0
M  V30 1387 H 127.923 4.53453 -3.14777 0
M  V30 1388 H 130.399 3.94871 -1.3121 0
M  V30 1389 H 129.275 5.33193 -1.30372 0
M  V30 1390 H 129.536 4.4176 0.173226 0
M  V30 1391 N 128.595 0.856903 1.32268 0
M  V30 1392 C 129.835 0.467705 1.98977 0
M  V30 1393 C 130.199 -0.959231 1.66321 0
M  V30 1394 O 131.4 -1.4531 2.26138 0
M  V30 1395 C 129.671 0.70256 3.50427 0
M  V30 1396 S 131.23 0.411269 4.36868 0
M  V30 1397 H 128.048 0.175121 0.689096 0
M  V30 1398 H 130.65 1.1101 1.60925 0
M  V30 1399 H 129.354 1.74012 3.71683 0
M  V30 1400 H 128.885 0.0466707 3.93372 0
M  V30 1401 H 130.9 -0.761799 4.90317 0
M  V30 1402 N 130.073 -1.45103 0.615059 0
M  V30 1403 C 131.321 -2.01784 0.112955 0
M  V30 1404 C 131.642 -1.48504 -1.26378 0
M  V30 1405 O 130.912 -0.682245 -1.83636 0
M  V30 1406 H 129.492 -0.745993 0.0387668 0
M  V30 1407 H 132.154 -1.77808 0.798141 0
M  V30 1408 H 131.25 -3.12025 0.0684069 0
M  V30 1409 N 131.551 -0.354651 -1.53558 0
M  V30 1410 C 132.828 0.294281 -1.93374 0
M  V30 1411 C 133.208 1.67313 -1.28723 0
M  V30 1412 O 132.556 2.24179 -0.442247 0
M  V30 1413 C 132.766 0.355445 -3.47185 0
M  V30 1414 C 134.114 0.601007 -4.20325 0
M  V30 1415 O 135.138 0.437106 -3.53508 0
M  V30 1416 O 133.997 0.919322 -5.38712 0
M  V30 1417 H 131.091 0.174033 -0.808481 0
M  V30 1418 H 133.637 -0.406638 -1.64756 0
M  V30 1419 H 132.409 -0.611729 -3.86489 0
M  V30 1420 H 132.032 1.1027 -3.82003 0
M  V30 1421 N 133.029 1.57378 -0.0835403 0
M  V30 1422 C 134.278 1.93106 0.582498 0
M  V30 1423 C 134.591 0.96651 1.70053 0
M  V30 1424 O 135.797 1.21705 2.42693 0
M  V30 1425 C 134.253 3.43076 1.08751 0
M  V30 1426 C 133.861 4.48 -0.000146404 0
M  V30 1427 C 135.605 3.87785 1.72694 0
M  V30 1428 C 133.512 5.89113 0.519568 0
M  V30 1429 H 132.442 0.720775 0.221358 0
M  V30 1430 H 135.093 1.82821 -0.157675 0
M  V30 1431 H 133.475 3.48474 1.88101 0
M  V30 1432 H 134.649 4.54233 -0.775199 0
M  V30 1433 H 132.964 4.1283 -0.54406 0
M  V30 1434 H 135.561 4.90604 2.1263 0
M  V30 1435 H 135.904 3.25796 2.59158 0
M  V30 1436 H 136.437 3.8504 0.999457 0
M  V30 1437 H 133.176 6.54775 -0.308186 0
M  V30 1438 H 132.696 5.86376 1.26188 0
M  V30 1439 H 134.375 6.39346 0.992237 0
M  V30 1440 N 134.507 -0.190092 1.56449 0
M  V30 1441 C 135.457 -1.23977 1.91347 0
M  V30 1442 C 136.441 -1.40747 0.779693 0
M  V30 1443 O 137.633 -1.43033 1.04262 0
M  V30 1444 C 134.762 -2.58347 2.26079 0
M  V30 1445 C 133.848 -2.4535 3.45925 0
M  V30 1446 N 134.239 -2.02039 4.63696 0
M  V30 1447 C 132.537 -2.76229 3.50162 0
M  V30 1448 C 133.238 -2.01053 5.4585 0
M  V30 1449 N 132.214 -2.42747 4.8639 0
M  V30 1450 H 136.016 -0.896318 2.79899 0
M  V30 1451 H 133.53 -0.398496 1.57435 0
M  V30 1452 H 135.527 -3.34173 2.49267 0
M  V30 1453 H 134.187 -2.93512 1.38856 0
M  V30 1454 H 135.198 -1.7267 4.88268 0
M  V30 1455 H 131.875 -3.15556 2.73369 0
M  V30 1456 H 133.265 -1.69426 6.50188 0
M  V30 1457 N 135.985 -1.50799 -0.457987 0
M  V30 1458 C 137.233 -1.62121 -1.2067 0
M  V30 1459 C 137.554 -0.329793 -1.92191 0
M  V30 1460 O 136.824 0.653409 -1.84682 0
M  V30 1461 H 135.404 -0.597441 -0.448411 0
M  V30 1462 H 138.066 -1.87637 -0.527096 0
M  V30 1463 H 137.162 -2.43882 -1.94751 0
M  V30 1464 N 137.463 0.71206 -1.40597 0
M  V30 1465 C 138.395 1.83704 -1.37061 0
M  V30 1466 C 139.408 1.60453 -0.275426 0
M  V30 1467 O 140.597 1.70262 -0.53602 0
M  V30 1468 C 137.697 3.20172 -1.11099 0
M  V30 1469 C 136.87 3.7059 -2.3234 0
M  V30 1470 C 135.929 4.85681 -2.02485 0
M  V30 1471 O 134.955 4.9815 -2.75382 0
M  V30 1472 N 136.157 5.71735 -1.00497 0
M  V30 1473 H 138.922 1.87235 -2.34016 0
M  V30 1474 H 136.483 0.893739 -1.34996 0
M  V30 1475 H 138.475 3.94768 -0.891064 0
M  V30 1476 H 137.045 3.11767 -0.227989 0
M  V30 1477 H 136.265 2.87085 -2.7014 0
M  V30 1478 H 137.553 4.01011 -3.13157 0
M  V30 1479 H 136.951 5.64275 -0.401298 0
M  V30 1480 H 135.508 6.463 -0.844942 0
M  V30 1481 N 138.941 1.26152 0.944643 0
M  V30 1482 C 140.188 1.11492 1.69044 0
M  V30 1483 C 140.516 -0.342366 1.91463 0
M  V30 1484 O 139.771 -1.26812 1.49054 0
M  V30 1485 C 140.07 1.82541 3.07268 0
M  V30 1486 C 139.736 3.32445 3.04616 0
M  V30 1487 C 138.398 3.73337 3.036 0
M  V30 1488 C 140.75 4.28171 2.97185 0
M  V30 1489 C 138.078 5.08348 2.92915 0
M  V30 1490 C 140.43 5.63218 2.88041 0
M  V30 1491 C 139.094 6.03426 2.85366 0
M  V30 1492 H 138.364 0.407977 0.618576 0
M  V30 1493 H 141.011 1.56551 1.10291 0
M  V30 1494 H 139.316 1.29941 3.69625 0
M  V30 1495 H 141.013 1.68642 3.63815 0
M  V30 1496 H 137.603 2.99915 3.06185 0
M  V30 1497 H 141.787 3.97563 2.97081 0
M  V30 1498 H 137.043 5.38667 2.89219 0
M  V30 1499 H 141.217 6.37078 2.81254 0
M  V30 1500 H 138.844 7.07999 2.76842 0
M  V30 1501 N 140.419 -1.14872 1.07899 0
M  V30 1502 C 141.666 -1.85789 0.805532 0
M  V30 1503 C 141.994 -1.82649 -0.668561 0
M  V30 1504 O 141.249 -1.24858 -1.50695 0
M  V30 1505 C 141.548 -3.34223 1.26609 0
M  V30 1506 C 141.214 -3.57555 2.74709 0
M  V30 1507 C 139.876 -3.63631 3.1516 0
M  V30 1508 C 142.228 -3.66803 3.70277 0
M  V30 1509 C 139.556 -3.76473 4.49983 0
M  V30 1510 C 141.908 -3.8117 5.04869 0
M  V30 1511 C 140.572 -3.85494 5.44932 0
M  V30 1512 H 139.842 -0.679849 0.294765 0
M  V30 1513 H 142.489 -1.3572 1.35101 0
M  V30 1514 H 140.794 -3.86536 0.640103 0
M  V30 1515 H 142.491 -3.87511 1.03132 0
M  V30 1516 H 139.081 -3.5347 2.42398 0
M  V30 1517 H 143.265 -3.61404 3.40149 0
M  V30 1518 H 138.521 -3.7808 4.80484 0
M  V30 1519 H 142.695 -3.87268 5.78789 0
M  V30 1520 H 140.322 -3.95197 6.49403 0
M  V30 1521 N 141.898 -0.863906 -1.31812 0
M  V30 1522 C 143.175 -0.39275 -1.91616 0
M  V30 1523 C 143.555 1.12461 -1.7865 0
M  V30 1524 O 142.903 1.95045 -1.19037 0
M  V30 1525 C 143.113 -0.867385 -3.38049 0
M  V30 1526 C 144.461 -0.889966 -4.15168 0
M  V30 1527 O 145.485 -0.812635 -3.46806 0
M  V30 1528 O 144.344 -1.00079 -5.37258 0
M  V30 1529 H 141.438 -0.116358 -0.818773 0
M  V30 1530 H 143.984 -0.951418 -1.40521 0
M  V30 1531 H 142.756 -1.91081 -3.41473 0
M  V30 1532 H 142.379 -0.286687 -3.96565 0
M  V30 1533 N 143.376 1.44774 -0.622745 0
M  V30 1534 C 144.306 2.33382 0.0741861 0
M  V30 1535 C 145.287 1.47719 0.843387 0
M  V30 1536 O 146.472 1.76458 0.810934 0
M  V30 1537 C 143.602 3.30663 1.06204 0
M  V30 1538 C 142.556 4.26079 0.405037 0
M  V30 1539 C 141.882 5.13165 1.5022 0
M  V30 1540 C 143.182 5.1781 -0.683414 0
M  V30 1541 H 144.876 2.91905 -0.665713 0
M  V30 1542 H 142.422 1.40363 -0.321587 0
M  V30 1543 H 144.375 3.9153 1.55827 0
M  V30 1544 H 143.099 2.70331 1.83272 0
M  V30 1545 H 141.758 3.66532 -0.0704683 0
M  V30 1546 H 141.406 4.49191 2.26355 0
M  V30 1547 H 141.106 5.77812 1.06803 0
M  V30 1548 H 142.63 5.76902 2.00041 0
M  V30 1549 H 144.044 5.72661 -0.270631 0
M  V30 1550 H 142.441 5.91015 -1.04023 0
M  V30 1551 H 143.511 4.59326 -1.55395 0
M  V30 1552 N 144.854 0.36279 1.53368 0
M  V30 1553 C 145.787 -0.528507 2.21996 0
M  V30 1554 C 146.765 -1.0852 1.21087 0
M  V30 1555 O 147.949 -1.14186 1.4998 0
M  V30 1556 C 145.076 -1.72893 2.91249 0
M  V30 1557 C 144.122 -1.29994 4.06207 0
M  V30 1558 S 144.955 -0.303575 5.34639 0
M  V30 1559 C 146.111 -1.51039 6.07403 0
M  V30 1560 H 146.344 0.0543423 2.9725 0
M  V30 1561 H 143.877 0.146889 1.537 0
M  V30 1562 H 145.835 -2.41751 3.31763 0
M  V30 1563 H 144.496 -2.28303 2.15724 0
M  V30 1564 H 143.689 -2.19549 4.53667 0
M  V30 1565 H 143.291 -0.690608 3.67569 0
M  V30 1566 H 145.583 -2.44186 6.31965 0
M  V30 1567 H 146.526 -1.07721 6.99858 0
M  V30 1568 H 146.934 -1.71518 5.37812 0
M  V30 1569 N 146.332 -1.57332 0.0918853 0
M  V30 1570 C 147.279 -2.13847 -0.868211 0
M  V30 1571 C 148.249 -1.05618 -1.28196 0
M  V30 1572 O 149.434 -1.33387 -1.36427 0
M  V30 1573 C 146.574 -2.72062 -2.12312 0
M  V30 1574 C 145.687 -3.94514 -1.7602 0
M  V30 1575 C 144.822 -4.40903 -2.96273 0
M  V30 1576 C 143.861 -5.55953 -2.56092 0
M  V30 1577 N 142.998 -5.97209 -3.69169 0
M  V30 1578 H 147.838 -2.95575 -0.379406 0
M  V30 1579 H 145.375 -1.46048 -0.175606 0
M  V30 1580 H 147.333 -3.03931 -2.858 0
M  V30 1581 H 145.963 -1.93068 -2.58698 0
M  V30 1582 H 145.015 -3.68979 -0.925135 0
M  V30 1583 H 146.327 -4.7802 -1.42472 0
M  V30 1584 H 145.481 -4.74539 -3.78018 0
M  V30 1585 H 144.22 -3.56291 -3.33029 0
M  V30 1586 H 143.225 -5.21948 -1.72773 0
M  V30 1587 H 144.45 -6.42311 -2.20484 0
M  V30 1588 H 142.396 -5.15543 -4.05649 0
M  V30 1589 H 142.313 -6.75504 -3.39456 0
M  V30 1590 H 143.581 -6.35475 -4.51434 0
M  V30 1591 N 147.81 0.181792 -1.56548 0
M  V30 1592 C 148.74 1.22765 -1.98623 0
M  V30 1593 C 149.721 1.46747 -0.860189 0
M  V30 1594 O 150.906 1.58259 -1.12551 0
M  V30 1595 C 148.036 2.56894 -2.33715 0
M  V30 1596 C 146.99 2.475 -3.49182 0
M  V30 1597 C 146.316 3.86023 -3.69986 0
M  V30 1598 C 147.616 1.98866 -4.82959 0
M  V30 1599 H 149.31 0.877942 -2.86239 0
M  V30 1600 H 146.856 0.42088 -1.37712 0
M  V30 1601 H 148.809 3.30253 -2.61746 0
M  V30 1602 H 147.533 2.93632 -1.42997 0
M  V30 1603 H 146.192 1.76596 -3.21262 0
M  V30 1604 H 145.84 4.20136 -2.76576 0
M  V30 1605 H 145.54 3.80609 -4.47672 0
M  V30 1606 H 147.064 4.60984 -4.00407 0
M  V30 1607 H 148.478 2.61992 -5.09934 0
M  V30 1608 H 146.875 2.04424 -5.64208 0
M  V30 1609 H 147.945 0.942465 -4.75653 0
M  V30 1610 N 149.288 1.51039 0.449983 0
M  V30 1611 C 150.535 1.63081 1.20045 0
M  V30 1612 C 150.863 0.341024 1.91487 0
M  V30 1613 O 150.118 -0.674276 1.83717 0
M  V30 1614 C 150.417 2.77556 2.25161 0
M  V30 1615 C 150.083 4.17289 1.70823 0
M  V30 1616 C 148.745 4.55305 1.55725 0
M  V30 1617 C 151.097 5.04536 1.3074 0
M  V30 1618 C 148.425 5.78287 0.989999 0
M  V30 1619 C 150.777 6.28085 0.754482 0
M  V30 1620 C 149.441 6.64885 0.590308 0
M  V30 1621 H 148.711 0.596755 0.439277 0
M  V30 1622 H 151.358 1.85037 0.49333 0
M  V30 1623 H 149.663 2.49771 3.01863 0
M  V30 1624 H 151.36 2.84073 2.83026 0
M  V30 1625 H 147.95 3.8731 1.83546 0
M  V30 1626 H 152.134 4.75782 1.41229 0
M  V30 1627 H 147.39 6.05456 0.850451 0
M  V30 1628 H 151.564 6.95038 0.435324 0
M  V30 1629 H 149.191 7.60055 0.14862 0
M  V30 1630 N 150.766 -0.704594 1.40972 0
M  V30 1631 C 151.676 -1.84856 1.44448 0
M  V30 1632 C 152.692 -1.70726 0.335961 0
M  V30 1633 O 153.868 -1.92799 0.582276 0
M  V30 1634 C 150.933 -3.20758 1.31587 0
M  V30 1635 C 149.994 -3.47063 2.52677 0
M  V30 1636 C 149.227 -4.76481 2.4042 0
M  V30 1637 O 149.45 -5.52341 1.42391 0
M  V30 1638 O 148.384 -5.03367 3.30007 0
M  V30 1639 H 152.21 -1.8488 2.40942 0
M  V30 1640 H 149.795 -0.85647 1.22413 0
M  V30 1641 H 151.677 -4.01913 1.26665 0
M  V30 1642 H 150.352 -3.21438 0.382049 0
M  V30 1643 H 149.259 -2.65873 2.63177 0
M  V30 1644 H 150.592 -3.5119 3.44858 0
M  V30 1645 N 152.244 -1.26651 -0.937939 0
M  V30 1646 C 153.49 -1.12553 -1.687 0
M  V30 1647 C 153.823 0.329782 -1.91379 0
M  V30 1648 O 153.098 1.24202 -1.4968 0
M  V30 1649 C 153.381 -1.89862 -3.05981 0
M  V30 1650 C 153.234 -3.43318 -2.90607 0
M  V30 1651 C 154.553 -1.69499 -4.0615 0
M  V30 1652 H 151.672 -0.410257 -0.612257 0
M  V30 1653 H 154.314 -1.55685 -1.08913 0
M  V30 1654 H 152.464 -1.53204 -3.57017 0
M  V30 1655 H 154.136 -3.89747 -2.46769 0
M  V30 1656 H 152.379 -3.70179 -2.26164 0
M  V30 1657 H 153.05 -3.92642 -3.8799 0
M  V30 1658 H 155.526 -2.01442 -3.64088 0
M  V30 1659 H 154.402 -2.26002 -5.00214 0
M  V30 1660 H 154.663 -0.640365 -4.37438 0
M  V30 1661 N 153.722 1.14298 -1.08507 0
M  V30 1662 C 154.97 1.84993 -0.813763 0
M  V30 1663 C 155.291 1.83405 0.662393 0
M  V30 1664 O 154.561 1.28319 1.48024 0
M  V30 1665 H 153.141 0.684966 -0.298045 0
M  V30 1666 H 155.803 1.385 -1.37126 0
M  V30 1667 H 154.899 2.89788 -1.15884 0
M  V30 1668 N 155.201 0.870884 1.31352 0
M  V30 1669 C 156.449 0.48132 1.96285 0
M  V30 1670 C 156.77 -0.969813 1.69173 0
M  V30 1671 O 156.04 -1.67998 1.00764 0
M  V30 1672 H 154.62 0.175002 0.726212 0
M  V30 1673 H 157.282 1.11087 1.60143 0
M  V30 1674 H 156.378 0.639825 3.05471 0
M  V30 1675 N 156.679 -1.44442 0.630414 0
M  V30 1676 C 157.904 -2.06927 0.139944 0
M  V30 1677 C 158.329 -1.46795 -1.17613 0
M  V30 1678 O 157.687 -0.569144 -1.72135 0
M  V30 1679 C 157.735 -3.6058 0.0379581 0
M  V30 1680 O 156.839 -3.99937 -1.0062 0
M  V30 1681 H 156.18 -0.658608 0.0844483 0
M  V30 1682 H 158.71 -1.85327 0.866891 0
M  V30 1683 H 158.72 -4.07714 -0.152856 0
M  V30 1684 H 157.395 -4.03728 0.998809 0
M  V30 1685 H 155.972 -3.64436 -0.79001 0
M  V30 1686 N 158.157 -0.370918 -1.53173 0
M  V30 1687 C 159.568 0.107139 -1.86392 0
M  V30 1688 C 159.919 1.47714 -1.29132 0
M  V30 1689 O 159.044 2.07464 -0.615439 0
M  V30 1690 C 159.639 0.201187 -3.38202 0
M  V30 1691 C 158.198 0.623507 -3.712 0
M  V30 1692 C 157.345 -0.225978 -2.76378 0
M  V30 1693 H 160.296 -0.58951 -1.47345 0
M  V30 1694 H 160.317 1.02377 -3.66468 0
M  V30 1695 H 159.829 -0.796058 -3.79848 0
M  V30 1696 H 157.93 1.62879 -3.35114 0
M  V30 1697 H 158.043 0.394414 -4.77474 0
M  V30 1698 H 156.407 0.305962 -2.52856 0
M  V30 1699 H 157.19 -1.22086 -3.20858 0
M  V30 1700 N 159.635 1.57281 -0.100228 0
M  V30 1701 C 160.598 2.13158 0.842398 0
M  V30 1702 C 161.598 1.06202 1.20738 0
M  V30 1703 O 162.788 1.32066 1.13597 0
M  V30 1704 C 159.92 2.65639 2.13655 0
M  V30 1705 H 161.113 2.97766 0.357114 0
M  V30 1706 H 158.666 1.5559 0.148823 0
M  V30 1707 H 159.401 1.84566 2.66657 0
M  V30 1708 H 159.186 3.43844 1.88451 0
M  V30 1709 H 160.676 3.08846 2.81077 0
M  V30 1710 N 161.113 -0.173488 1.56642 0
M  V30 1711 C 162.061 -1.23417 1.97157 0
M  V30 1712 C 163.055 -1.45946 0.860013 0
M  V30 1713 O 164.261 -1.46551 1.04512 0
M  V30 1714 H 160.636 -0.414818 0.62724 0
M  V30 1715 H 162.607 -0.865582 2.8557 0
M  V30 1716 C 161.356 -2.5665 2.34576 0
M  V30 1717 H 160.679 -2.40137 3.19647 0
M  V30 1718 H 162.119 -3.2956 2.6677 0
M  V30 1719 C 160.578 -3.15245 1.18836 0
M  V30 1720 O 161.108 -3.98883 0.474869 0
M  V30 1721 N 159.314 -2.74303 0.959497 0
M  V30 1722 H 158.861 -2.0639 1.54146 0
M  V30 1723 H 158.819 -3.13844 0.186932 0
M  V30 1724 N 162.591 -1.51276 -0.441967 0
M  V30 1725 C 163.819 -1.67516 -1.21434 0
M  V30 1726 C 164.234 -0.37055 -1.85128 0
M  V30 1727 O 163.591 0.650498 -1.70513 0
M  V30 1728 C 163.642 -2.78748 -2.30177 0
M  V30 1729 O 163.363 -4.04154 -1.69089 0
M  V30 1730 C 164.864 -3.06217 -3.20541 0
M  V30 1731 H 162.084 -0.562276 -0.366178 0
M  V30 1732 H 164.628 -1.97666 -0.524244 0
M  V30 1733 H 162.783 -2.5121 -2.94911 0
M  V30 1734 H 163.197 -4.65894 -2.40922 0
M  V30 1735 H 164.671 -3.8764 -3.92987 0
M  V30 1736 H 165.148 -2.18439 -3.81026 0
M  V30 1737 H 165.754 -3.35397 -2.61513 0
M  V30 1738 N 164.069 0.697108 -1.41344 0
M  V30 1739 C 165.485 1.00751 -1.2378 0
M  V30 1740 C 165.685 2.01105 -0.126066 0
M  V30 1741 O 164.741 2.47295 0.51004 0
M  V30 1742 C 166.054 1.53359 -2.58653 0
M  V30 1743 C 167.602 1.6525 -2.65822 0
M  V30 1744 C 168.077 2.2126 -4.01009 0
M  V30 1745 N 169.568 2.28622 -4.02847 0
M  V30 1746 C 170.303 2.72984 -5.04249 0
M  V30 1747 N 169.799 3.16962 -6.16041 0
M  V30 1748 N 171.592 2.72534 -4.91611 0
M  V30 1749 H 163.743 0.0322662 -2.12375 0
M  V30 1750 H 166.006 0.0768853 -0.944877 0
M  V30 1751 H 165.712 0.870773 -3.4075 0
M  V30 1752 H 165.586 2.51597 -2.81032 0
M  V30 1753 H 167.973 2.30644 -1.84086 0
M  V30 1754 H 168.054 0.655614 -2.47256 0
M  V30 1755 H 167.698 1.56482 -4.83193 0
M  V30 1756 H 167.628 3.21698 -4.16915 0
M  V30 1757 H 170.119 1.97585 -3.22131 0
M  V30 1758 H 170.432 3.49434 -6.89287 0
M  V30 1759 H 168.777 3.14875 -6.1958 0
M  V30 1760 H 171.968 2.37525 -4.0336 0
M  V30 1761 H 172.141 3.06789 -5.70775 0
M  V30 1762 N 165.547 1.27147 0.931209 0
M  V30 1763 C 166.777 1.15914 1.71019 0
M  V30 1764 C 167.185 -0.287112 1.87009 0
M  V30 1765 O 166.528 -1.20761 1.38429 0
M  V30 1766 C 166.59 1.76647 3.13107 0
M  V30 1767 C 166.254 3.25807 3.20467 0
M  V30 1768 C 167.251 4.22489 3.02983 0
M  V30 1769 C 164.936 3.66452 3.43538 0
M  V30 1770 C 166.93 5.57794 3.08454 0
M  V30 1771 C 164.617 5.01888 3.48643 0
M  V30 1772 C 165.615 5.97369 3.31119 0
M  V30 1773 O 165.303 7.30337 3.35952 0
M  V30 1774 H 165.035 0.404062 0.54195 0
M  V30 1775 H 167.589 1.68457 1.17521 0
M  V30 1776 H 165.819 1.18578 3.68071 0
M  V30 1777 H 167.508 1.60179 3.72958 0
M  V30 1778 H 168.274 3.92425 2.85004 0
M  V30 1779 H 164.153 2.92611 3.5623 0
M  V30 1780 H 167.697 6.32298 2.94694 0
M  V30 1781 H 163.594 5.31609 3.66145 0
M  V30 1782 H 164.362 7.38739 3.5243 0
M  V30 1783 N 167.025 -1.13721 1.09112 0
M  V30 1784 C 167.955 -2.21148 0.749385 0
M  V30 1785 C 168.936 -1.6792 -0.271475 0
M  V30 1786 O 170.121 -1.93693 -0.140251 0
M  V30 1787 C 167.251 -3.46905 0.165659 0
M  V30 1788 C 166.205 -4.13203 1.11567 0
M  V30 1789 C 165.531 -5.33248 0.393809 0
M  V30 1790 C 166.831 -4.60912 2.45678 0
M  V30 1791 H 168.525 -2.4999 1.64758 0
M  V30 1792 H 166.071 -1.20156 0.793626 0
M  V30 1793 H 168.024 -4.21313 -0.085466 0
M  V30 1794 H 166.748 -3.17449 -0.767714 0
M  V30 1795 H 165.407 -3.40758 1.35202 0
M  V30 1796 H 165.055 -5.00054 -0.543599 0
M  V30 1797 H 164.755 -5.78552 1.02721 0
M  V30 1798 H 166.279 -6.10413 0.150908 0
M  V30 1799 H 167.693 -5.26759 2.26269 0
M  V30 1800 H 166.09 -5.16944 3.04776 0
M  V30 1801 H 167.16 -3.75603 3.06677 0
M  V30 1802 N 168.503 -0.877838 -1.30888 0
M  V30 1803 C 169.75 -0.492696 -1.96415 0
M  V30 1804 C 170.078 0.956671 -1.69346 0
M  V30 1805 O 169.333 1.68993 -0.986913 0
M  V30 1806 C 169.632 -0.705748 -3.50363 0
M  V30 1807 C 169.298 -2.1291 -3.97467 0
M  V30 1808 C 167.96 -2.51834 -4.1004 0
M  V30 1809 C 170.312 -3.05702 -4.22132 0
M  V30 1810 C 167.64 -3.82775 -4.44635 0
M  V30 1811 C 169.992 -4.36166 -4.58194 0
M  V30 1812 C 168.656 -4.74993 -4.68975 0
M  V30 1813 H 167.926 -0.18029 -0.718733 0
M  V30 1814 H 170.573 -1.11233 -1.55883 0
M  V30 1815 H 168.878 -0.00303058 -3.918 0
M  V30 1816 H 170.575 -0.387456 -3.99124 0
M  V30 1817 H 167.165 -1.81694 -3.88182 0
M  V30 1818 H 171.349 -2.76853 -4.11906 0
M  V30 1819 H 166.605 -4.12609 -4.51181 0
M  V30 1820 H 170.779 -5.08111 -4.76231 0
M  V30 1821 H 168.406 -5.76495 -4.95537 0
M  V30 1822 N 169.982 1.44106 -0.638065 0
M  V30 1823 C 170.912 2.33448 0.0494287 0
M  V30 1824 C 171.893 1.48606 0.827672 0
M  V30 1825 O 173.078 1.77308 0.792173 0
M  V30 1826 C 170.208 3.31771 1.02691 0
M  V30 1827 C 169.162 4.26485 0.359823 0
M  V30 1828 C 168.488 5.14729 1.44769 0
M  V30 1829 C 169.788 5.17056 -0.738296 0
M  V30 1830 H 171.482 2.91183 -0.696636 0
M  V30 1831 H 169.028 1.40014 -0.336456 0
M  V30 1832 H 170.981 3.93161 1.51666 0
M  V30 1833 H 169.705 2.7226 1.80395 0
M  V30 1834 H 168.364 3.66437 -0.10934 0
M  V30 1835 H 168.012 4.51566 2.21578 0
M  V30 1836 H 167.712 5.78913 1.00668 0
M  V30 1837 H 169.236 5.78991 1.93911 0
M  V30 1838 H 170.65 5.72342 -0.331354 0
M  V30 1839 H 169.047 5.89879 -1.10286 0
M  V30 1840 H 170.117 4.57652 -1.60258 0
M  V30 1841 N 171.46 0.379036 1.52974 0
M  V30 1842 C 172.708 -0.206014 2.01047 0
M  V30 1843 C 173.029 -1.48175 1.26765 0
M  V30 1844 O 172.299 -1.92085 0.384743 0
M  V30 1845 H 170.879 -0.0791184 0.742798 0
M  V30 1846 H 173.541 0.508366 1.88153 0
M  V30 1847 H 172.637 -0.423501 3.09213 0
M  V30 1848 N 172.938 -1.57226 0.108567 0
M  V30 1849 C 174.215 -1.86333 -0.594939 0
M  V30 1850 C 174.595 -1.00788 -1.85486 0
M  V30 1851 O 173.943 -0.0839293 -2.28346 0
M  V30 1852 C 174.153 -3.37265 -0.897405 0
M  V30 1853 C 175.501 -4.05629 -1.25501 0
M  V30 1854 O 176.525 -3.42224 -0.987998 0
M  V30 1855 O 175.384 -5.17531 -1.75567 0
M  V30 1856 H 172.478 -0.771018 -0.2991 0
M  V30 1857 H 175.024 -1.69102 0.142283 0
M  V30 1858 H 173.796 -3.913 -0.00413806 0
M  V30 1859 H 173.419 -3.59889 -1.69014 0
M  V30 1860 N 174.416 0.165178 -1.56732 0
M  V30 1861 C 175.646 0.894919 -1.86212 0
M  V30 1862 C 176.054 1.76066 -0.692627 0
M  V30 1863 O 175.397 1.80387 0.347303 0
M  V30 1864 C 175.459 1.8174 -3.10179 0
M  V30 1865 C 175.123 1.13064 -4.42793 0
M  V30 1866 C 176.12 0.493169 -5.17556 0
M  V30 1867 C 173.805 1.12556 -4.89527 0
M  V30 1868 C 175.799 -0.140209 -6.37246 0
M  V30 1869 C 173.486 0.488366 -6.09145 0
M  V30 1870 C 174.484 -0.143411 -6.82849 0
M  V30 1871 O 174.172 -0.77055 -8.00199 0
M  V30 1872 H 173.904 0.265114 -0.621844 0
M  V30 1873 H 176.458 0.168242 -2.0471 0
M  V30 1874 H 174.688 2.58455 -2.87642 0
M  V30 1875 H 176.377 2.4175 -3.26055 0
M  V30 1876 H 177.143 0.489023 -4.82528 0
M  V30 1877 H 173.022 1.60672 -4.32094 0
M  V30 1878 H 176.566 -0.633932 -6.94714 0
M  V30 1879 H 172.463 0.490116 -6.43637 0
M  V30 1880 H 173.231 -0.670408 -8.1575 0
M  V30 1881 N 175.894 1.51508 0.433938 0
M  V30 1882 C 177.14 1.64588 1.18484 0
M  V30 1883 C 177.473 0.362666 1.90784 0
M  V30 1884 O 176.748 -0.637892 1.83742 0
M  V30 1885 C 177.031 2.85149 2.19913 0
M  V30 1886 C 176.884 4.23456 1.51674 0
M  V30 1887 C 178.203 3.01227 3.20858 0
M  V30 1888 H 175.322 0.598994 0.429389 0
M  V30 1889 H 177.964 1.84002 0.473647 0
M  V30 1890 H 176.114 2.68729 2.80566 0
M  V30 1891 H 177.786 4.51552 0.943322 0
M  V30 1892 H 176.029 4.25998 0.819035 0
M  V30 1893 H 176.7 5.03812 2.2556 0
M  V30 1894 H 179.176 3.16382 2.70263 0
M  V30 1895 H 178.052 3.87141 3.89118 0
M  V30 1896 H 178.313 2.13447 3.8716 0
M  V30 1897 N 177.372 -0.689602 1.41712 0
M  V30 1898 C 178.649 -1.44457 1.31877 0
M  V30 1899 C 179.029 -2.11039 -0.0508537 0
M  V30 1900 O 178.377 -2.02138 -1.06547 0
M  V30 1901 C 178.587 -2.45913 2.47645 0
M  V30 1902 C 179.935 -3.10991 2.89084 0
M  V30 1903 O 180.959 -2.56238 2.47428 0
M  V30 1904 O 179.818 -4.10174 3.61137 0
M  V30 1905 H 176.912 -0.64362 0.519309 0
M  V30 1906 H 179.458 -0.719576 1.53689 0
M  V30 1907 H 178.23 -1.95409 3.39015 0
M  V30 1908 H 177.853 -3.25913 2.27742 0
M  V30 1909 N 178.85 -1.27639 -0.924453 0
M  V30 1910 C 180.266 -1.05113 -1.20097 0
M  V30 1911 C 180.466 0.213262 -2.00368 0
M  V30 1912 O 179.522 0.91787 -2.35226 0
M  V30 1913 C 180.835 -2.29244 -1.94596 0
M  V30 1914 C 182.383 -2.34315 -2.07522 0
M  V30 1915 C 182.858 -3.58183 -2.85427 0
M  V30 1916 N 184.349 -3.5876 -2.92994 0
M  V30 1917 C 185.084 -4.51277 -3.53746 0
M  V30 1918 N 184.58 -5.54102 -4.15863 0
M  V30 1919 N 186.373 -4.38894 -3.51181 0
M  V30 1920 H 178.524 -2.08821 -0.388264 0
M  V30 1921 H 180.787 -0.918568 -0.234385 0
M  V30 1922 H 180.493 -3.21301 -1.43034 0
M  V30 1923 H 180.367 -2.34816 -2.95197 0
M  V30 1924 H 182.754 -1.42762 -2.58269 0
M  V30 1925 H 182.835 -2.32744 -1.06131 0
M  V30 1926 H 182.479 -4.50074 -2.35363 0
M  V30 1927 H 182.409 -3.57006 -3.8711 0
M  V30 1928 H 184.9 -2.84398 -2.4885 0
M  V30 1929 H 185.213 -6.20859 -4.60168 0
M  V30 1930 H 183.558 -5.57941 -4.144 0
M  V30 1931 H 186.749 -3.57772 -3.01856 0
M  V30 1932 H 186.922 -5.11186 -3.98237 0
M  V30 1933 N 180.328 1.1314 -1.09713 0
M  V30 1934 C 181.576 1.84119 -0.833338 0
M  V30 1935 C 181.897 1.84097 0.642904 0
M  V30 1936 O 181.167 1.29881 1.46655 0
M  V30 1937 H 179.747 0.681766 -0.305293 0
M  V30 1938 H 182.409 1.37038 -1.38588 0
M  V30 1939 H 181.505 2.88543 -1.18951 0
M  V30 1940 N 181.806 0.884767 1.30421 0
M  V30 1941 C 183.036 0.517293 2.00019 0
M  V30 1942 C 183.444 -0.898632 1.66497 0
M  V30 1943 O 182.787 -1.60245 0.898181 0
M  V30 1944 C 182.849 0.612025 3.54252 0
M  V30 1945 C 182.513 1.99222 4.1129 0
M  V30 1946 C 183.51 2.9616 4.273 0
M  V30 1947 C 181.195 2.29755 4.46674 0
M  V30 1948 C 183.189 4.21764 4.77906 0
M  V30 1949 C 180.876 3.55606 4.96979 0
M  V30 1950 C 181.874 4.51425 5.12547 0
M  V30 1951 O 181.562 5.75043 5.61766 0
M  V30 1952 H 181.294 0.198529 0.64619 0
M  V30 1953 H 183.848 1.1919 1.67281 0
M  V30 1954 H 182.078 -0.119561 3.86515 0
M  V30 1955 H 183.767 0.255859 4.05093 0
M  V30 1956 H 184.533 2.73882 4.00267 0
M  V30 1957 H 180.412 1.55942 4.33824 0
M  V30 1958 H 183.956 4.96561 4.89972 0
M  V30 1959 H 179.853 3.7772 5.23448 0
M  V30 1960 H 180.621 5.77422 5.80109 0
M  V30 1961 N 183.284 -1.43765 0.645699 0
M  V30 1962 C 184.531 -2.01898 0.15604 0
M  V30 1963 C 184.859 -1.50887 -1.22733 0
M  V30 1964 O 184.114 -0.689271 -1.8316 0
M  V30 1965 C 184.413 -3.57238 0.107679 0
M  V30 1966 C 184.079 -4.27564 1.43178 0
M  V30 1967 C 182.741 -4.46492 1.7944 0
M  V30 1968 C 185.093 -4.67454 2.30513 0
M  V30 1969 C 182.421 -5.02573 3.02716 0
M  V30 1970 C 184.773 -5.24901 3.53074 0
M  V30 1971 C 183.437 -5.42046 3.89541 0
M  V30 1972 H 182.707 -0.738797 0.057099 0
M  V30 1973 H 185.354 -1.72341 0.834912 0
M  V30 1974 H 183.659 -3.86293 -0.654618 0
M  V30 1975 H 185.356 -3.99965 -0.287938 0
M  V30 1976 H 181.946 -4.13171 1.13963 0
M  V30 1977 H 186.13 -4.5253 2.0379 0
M  V30 1978 H 181.386 -5.14033 3.31028 0
M  V30 1979 H 185.56 -5.54758 4.20971 0
M  V30 1980 H 183.187 -5.85268 4.85145 0
M  V30 1981 N 184.763 -0.387143 -1.52771 0
M  V30 1982 C 185.988 0.198407 -2.06449 0
M  V30 1983 C 186.413 1.39918 -1.25716 0
M  V30 1984 O 185.771 1.79099 -0.281657 0
M  V30 1985 C 185.819 0.548893 -3.56398 0
M  V30 1986 O 184.923 1.64315 -3.78252 0
M  V30 1987 H 184.264 0.0237731 -0.663574 0
M  V30 1988 H 186.794 -0.553989 -1.96957 0
M  V30 1989 H 186.804 0.813812 -3.99801 0
M  V30 1990 H 185.479 -0.329005 -4.14597 0
M  V30 1991 H 184.056 1.37211 -3.46738 0
M  V30 1992 N 186.241 1.57166 -0.116904 0
M  V30 1993 C 187.49 1.94298 0.541407 0
M  V30 1994 C 187.803 1.00236 1.67964 0
M  V30 1995 O 189.009 1.26826 2.40057 0
M  V30 1996 C 187.465 3.45306 1.01449 0
M  V30 1997 C 187.073 4.47899 -0.0951738 0
M  V30 1998 C 188.817 3.91361 1.6443 0
M  V30 1999 C 186.724 5.90083 0.394491 0
M  V30 2000 H 185.654 0.725308 0.206019 0
M  V30 2001 H 188.305 1.82446 -0.196419 0
M  V30 2002 H 186.687 3.52385 1.80667 0
M  V30 2003 H 187.861 4.52486 -0.871374 0
M  V30 2004 H 186.176 4.11583 -0.631505 0
M  V30 2005 H 188.773 4.95004 2.02176 0
M  V30 2006 H 189.116 3.3122 2.52189 0
M  V30 2007 H 189.649 3.87073 0.917559 0
M  V30 2008 H 186.388 6.53974 -0.447004 0
M  V30 2009 H 185.908 5.88921 1.13722 0
M  V30 2010 H 187.587 6.41307 0.856399 0
M  V30 2011 N 187.719 -0.156864 1.56817 0
M  V30 2012 C 188.629 -1.2136 2.00771 0
M  V30 2013 C 189.645 -1.47598 0.921459 0
M  V30 2014 O 190.821 -1.59462 1.2302 0
M  V30 2015 C 187.886 -2.52943 2.37109 0
M  V30 2016 C 186.947 -2.34439 3.59634 0
M  V30 2017 C 186.18 -3.59748 3.94229 0
M  V30 2018 O 186.403 -4.65526 3.29609 0
M  V30 2019 O 185.337 -3.52998 4.8752 0
M  V30 2020 H 189.163 -0.870468 2.90958 0
M  V30 2021 H 186.748 -0.36484 1.44877 0
M  V30 2022 H 188.63 -3.30538 2.61386 0
M  V30 2023 H 187.305 -2.86806 1.5008 0
M  V30 2024 H 186.212 -1.54828 3.40557 0
M  V30 2025 H 187.545 -2.05496 4.4725 0
M  V30 2026 N 189.197 -1.51736 -0.425897 0
M  V30 2027 C 190.437 -1.66636 -1.18371 0
M  V30 2028 C 190.801 -0.379854 -1.88205 0
M  V30 2029 O 192.002 -0.404758 -2.65735 0
M  V30 2030 C 190.273 -2.84382 -2.16476 0
M  V30 2031 S 191.832 -3.19673 -3.0059 0
M  V30 2032 H 188.65 -0.586957 -0.40125 0
M  V30 2033 H 191.252 -1.89679 -0.473518 0
M  V30 2034 H 189.956 -3.76281 -1.63831 0
M  V30 2035 H 189.487 -2.63562 -2.92059 0
M  V30 2036 H 191.502 -2.66994 -4.18245 0
M  V30 2037 N 190.675 0.682077 -1.42076 0
M  V30 2038 C 191.921 1.44428 -1.42367 0
M  V30 2039 C 192.254 1.94164 -0.0373056 0
M  V30 2040 O 191.529 1.70429 0.937239 0
M  V30 2041 C 191.812 2.64654 -2.44194 0
M  V30 2042 C 191.665 2.20596 -3.91991 0
M  V30 2043 C 192.984 3.66865 -2.431 0
M  V30 2044 H 190.103 0.523834 -0.518428 0
M  V30 2045 H 192.745 0.77576 -1.73442 0
M  V30 2046 H 190.895 3.2169 -2.17826 0
M  V30 2047 H 192.567 1.68783 -4.29313 0
M  V30 2048 H 190.81 1.52242 -4.06208 0
M  V30 2049 H 191.481 3.06921 -4.58807 0
M  V30 2050 H 193.957 3.19531 -2.66532 0
M  V30 2051 H 192.833 4.48577 -3.16339 0
M  V30 2052 H 193.094 4.17493 -1.45437 0
M  V30 2053 N 192.153 1.28127 0.917671 0
M  V30 2054 C 193.083 1.14248 2.03641 0
M  V30 2055 C 194.064 0.0412748 1.7005 0
M  V30 2056 O 195.249 0.217566 1.92977 0
M  V30 2057 C 192.379 0.799431 3.37974 0
M  V30 2058 C 191.333 1.85497 3.85713 0
M  V30 2059 C 190.659 1.36565 5.16966 0
M  V30 2060 C 191.959 3.26085 4.08002 0
M  V30 2061 H 193.653 2.07835 2.15511 0
M  V30 2062 H 191.199 1.00064 1.03553 0
M  V30 2063 H 193.152 0.689114 4.15727 0
M  V30 2064 H 191.876 -0.172145 3.26146 0
M  V30 2065 H 190.535 1.95437 3.10161 0
M  V30 2066 H 190.183 0.383253 5.01538 0
M  V30 2067 H 189.883 2.07143 5.49878 0
M  V30 2068 H 191.407 1.26848 5.97279 0
M  V30 2069 H 192.821 3.19089 4.76293 0
M  V30 2070 H 191.218 3.94462 4.52238 0
M  V30 2071 H 192.288 3.70394 3.12948 0
M  V30 2072 N 193.631 -1.12557 1.10312 0
M  V30 2073 C 194.861 -1.87592 0.865617 0
M  V30 2074 C 195.269 -1.79851 -0.587389 0
M  V30 2075 O 194.612 -1.16949 -1.41664 0
M  V30 2076 C 194.674 -3.37665 1.23381 0
M  V30 2077 C 194.338 -3.69181 2.69359 0
M  V30 2078 C 195.335 -3.67652 3.67597 0
M  V30 2079 C 193.02 -3.98555 3.05711 0
M  V30 2080 C 195.014 -3.95053 5.00212 0
M  V30 2081 C 192.701 -4.25616 4.38514 0
M  V30 2082 C 193.699 -4.23851 5.35574 0
M  V30 2083 O 193.387 -4.50242 6.65986 0
M  V30 2084 H 193.119 -0.600442 0.310557 0
M  V30 2085 H 195.673 -1.4335 1.47105 0
M  V30 2086 H 193.903 -3.82454 0.571467 0
M  V30 2087 H 195.592 -3.94041 0.973994 0
M  V30 2088 H 196.358 -3.45024 3.40857 0
M  V30 2089 H 192.237 -3.99071 2.30789 0
M  V30 2090 H 195.781 -3.93591 5.75962 0
M  V30 2091 H 191.678 -4.47718 4.64994 0
M  V30 2092 H 192.446 -4.67867 6.71597 0
M  V30 2093 N 195.109 -0.891671 -1.2995 0
M  V30 2094 C 196.039 -0.379797 -2.30391 0
M  V30 2095 C 197.02 0.540919 -1.6127 0
M  V30 2096 O 198.205 0.453352 -1.88834 0
M  V30 2097 C 195.335 0.400654 -3.44981 0
M  V30 2098 C 194.289 -0.428905 -4.25846 0
M  V30 2099 C 193.615 0.478557 -5.32554 0
M  V30 2100 C 194.915 -1.67458 -4.94727 0
M  V30 2101 H 196.609 -1.21914 -2.73454 0
M  V30 2102 H 194.155 -0.587675 -1.31462 0
M  V30 2103 H 196.108 0.769434 -4.14316 0
M  V30 2104 H 194.832 1.27371 -3.0074 0
M  V30 2105 H 193.491 -0.779911 -3.58208 0
M  V30 2106 H 193.139 1.34951 -4.84559 0
M  V30 2107 H 192.839 -0.0727433 -5.87555 0
M  V30 2108 H 194.363 0.843705 -6.04743 0
M  V30 2109 H 195.777 -1.376 -5.56542 0
M  V30 2110 H 194.174 -2.16659 -5.59624 0
M  V30 2111 H 195.244 -2.41518 -4.20473 0
M  V30 2112 N 196.587 1.43421 -0.653314 0
M  V30 2113 C 197.833 2.02641 -0.175593 0
M  V30 2114 C 198.188 1.5062 1.19713 0
M  V30 2115 O 197.481 0.689697 1.78756 0
M  V30 2116 C 197.675 3.57176 -0.126623 0
M  V30 2117 C 197.504 4.24191 -1.49306 0
M  V30 2118 C 196.274 4.60257 -2.08547 0
M  V30 2119 C 198.472 4.53193 -2.43148 0
M  V30 2120 N 196.454 5.12345 -3.38194 0
M  V30 2121 C 197.825 5.06601 -3.57429 0
M  V30 2122 C 199.88 4.35161 -2.41949 0
M  V30 2123 C 198.583 5.43875 -4.70736 0
M  V30 2124 C 200.609 4.73498 -3.54336 0
M  V30 2125 C 199.971 5.27039 -4.67343 0
M  V30 2126 H 196.07 0.77441 -0.108686 0
M  V30 2127 H 198.654 1.74596 -0.861638 0
M  V30 2128 H 196.825 3.84784 0.528766 0
M  V30 2129 H 198.557 4.03078 0.36198 0
M  V30 2130 H 195.312 4.45302 -1.61255 0
M  V30 2131 H 195.736 5.42842 -4.04538 0
M  V30 2132 H 200.378 3.9304 -1.55818 0
M  V30 2133 H 198.096 5.8494 -5.57558 0
M  V30 2134 H 201.682 4.61241 -3.5461 0
M  V30 2135 H 200.562 5.56153 -5.52868 0
M  V30 2136 N 198.065 0.39524 1.52563 0
M  V30 2137 C 199.028 -0.425001 2.25225 0
M  V30 2138 C 200.028 -0.985266 1.27079 0
M  V30 2139 O 201.218 -0.866332 1.5113 0
M  V30 2140 C 198.35 -1.59686 3.01186 0
M  V30 2141 H 199.543 0.211233 2.99155 0
M  V30 2142 H 197.096 0.147472 1.55603 0
M  V30 2143 H 197.831 -2.27035 2.31572 0
M  V30 2144 H 197.616 -1.20176 3.73229 0
M  V30 2145 H 199.106 -2.17743 3.5634 0
M  V30 2146 N 199.544 -1.57102 0.125237 0
M  V30 2147 C 200.474 -2.18659 -0.819174 0
M  V30 2148 C 201.455 -1.12843 -1.27281 0
M  V30 2149 O 202.64 -1.41104 -1.33429 0
M  V30 2150 C 199.77 -2.79096 -2.06695 0
M  V30 2151 C 198.724 -3.90548 -1.75088 0
M  V30 2152 C 198.05 -4.37821 -3.06948 0
M  V30 2153 C 199.35 -5.12356 -1.01435 0
M  V30 2154 H 201.044 -2.9783 -0.306202 0
M  V30 2155 H 198.59 -1.4326 -0.145839 0
M  V30 2156 H 200.543 -3.2082 -2.73226 0
M  V30 2157 H 199.267 -1.97223 -2.60328 0
M  V30 2158 H 197.926 -3.49409 -1.10944 0
M  V30 2159 H 197.574 -3.52799 -3.58527 0
M  V30 2160 H 197.274 -5.12982 -2.86571 0
M  V30 2161 H 198.798 -4.822 -3.74587 0
M  V30 2162 H 200.212 -5.5106 -1.58132 0
M  V30 2163 H 198.609 -5.9314 -0.911319 0
M  V30 2164 H 199.679 -4.849 -0.00218681 0
M  V30 2165 N 201.022 0.148545 -1.56898 0
M  V30 2166 C 201.969 1.18345 -1.98149 0
M  V30 2167 C 202.939 1.42772 -0.848848 0
M  V30 2168 O 204.124 1.55132 -1.11079 0
M  V30 2169 C 201.264 2.51231 -2.36594 0
M  V30 2170 C 200.377 2.33991 -3.63142 0
M  V30 2171 C 199.512 3.59902 -3.90697 0
M  V30 2172 C 198.551 3.37692 -5.1052 0
M  V30 2173 N 197.688 4.5573 -5.34092 0
M  V30 2174 H 202.528 0.82467 -2.86362 0
M  V30 2175 H 200.065 0.395756 -1.41676 0
M  V30 2176 H 202.023 3.28713 -2.56912 0
M  V30 2177 H 200.653 2.85059 -1.51463 0
M  V30 2178 H 199.705 1.47572 -3.50609 0
M  V30 2179 H 201.017 2.13539 -4.5078 0
M  V30 2180 H 200.171 4.45813 -4.11505 0
M  V30 2181 H 198.91 3.83357 -3.01477 0
M  V30 2182 H 197.915 2.5017 -4.89587 0
M  V30 2183 H 199.14 3.15637 -6.0129 0
M  V30 2184 H 197.086 4.79361 -4.47827 0
M  V30 2185 H 197.003 4.38274 -6.15996 0
M  V30 2186 H 198.271 5.42858 -5.59397 0
M  V30 2187 N 202.5 1.5196 0.417844 0
M  V30 2188 C 203.749 1.6482 1.16264 0
M  V30 2189 C 204.062 0.379886 1.91876 0
M  V30 2190 O 205.268 0.388154 2.68711 0
M  V30 2191 C 203.724 2.91161 2.1155 0
M  V30 2192 C 203.332 4.25068 1.41495 0
M  V30 2193 C 205.076 3.13383 2.86341 0
M  V30 2194 C 202.983 5.42541 2.35379 0
M  V30 2195 H 201.913 0.613954 0.437694 0
M  V30 2196 H 204.564 1.78442 0.427871 0
M  V30 2197 H 202.946 2.71218 2.88543 0
M  V30 2198 H 204.12 4.55463 0.699263 0
M  V30 2199 H 202.435 4.0888 0.787792 0
M  V30 2200 H 205.032 3.98324 3.5671 0
M  V30 2201 H 205.375 2.27256 3.48798 0
M  V30 2202 H 205.908 3.33757 2.1645 0
M  V30 2203 H 202.647 6.30987 1.77582 0
M  V30 2204 H 202.167 5.16497 3.04945 0
M  V30 2205 H 203.846 5.75272 2.96093 0
M  V30 2206 N 203.978 -0.674533 1.42435 0
M  V30 2207 C 204.908 -1.80009 1.48724 0
M  V30 2208 C 205.889 -1.6659 0.343793 0
M  V30 2209 O 207.074 -1.86007 0.558137 0
M  V30 2210 C 204.204 -3.18306 1.38919 0
M  V30 2211 C 203.158 -3.46461 2.51294 0
M  V30 2212 C 202.484 -4.84335 2.26547 0
M  V30 2213 C 203.784 -3.43328 3.93603 0
M  V30 2214 H 205.478 -1.75004 2.42928 0
M  V30 2215 H 203.024 -0.840533 1.16923 0
M  V30 2216 H 204.977 -3.9678 1.41927 0
M  V30 2217 H 203.701 -3.2399 0.412094 0
M  V30 2218 H 202.36 -2.70348 2.47604 0
M  V30 2219 H 202.008 -4.86669 1.2713 0
M  V30 2220 H 201.708 -5.04136 3.01861 0
M  V30 2221 H 203.232 -5.65094 2.31304 0
M  V30 2222 H 204.646 -4.11772 3.98894 0
M  V30 2223 H 203.043 -3.74664 4.68771 0
M  V30 2224 H 204.113 -2.41897 4.20255 0
M  V30 2225 N 205.456 -1.28612 -0.910864 0
M  V30 2226 C 206.686 -1.1862 -1.69153 0
M  V30 2227 C 207.094 0.257324 -1.87442 0
M  V30 2228 O 206.437 1.18543 -1.40332 0
M  V30 2229 C 206.499 -1.81606 -3.10257 0
M  V30 2230 C 206.163 -3.30864 -3.15243 0
M  V30 2231 C 207.16 -4.27256 -2.96223 0
M  V30 2232 C 204.845 -3.71871 -3.37664 0
M  V30 2233 C 206.839 -5.62631 -2.99541 0
M  V30 2234 C 204.526 -5.07371 -3.40614 0
M  V30 2235 C 205.524 -6.02561 -3.21573 0
M  V30 2236 O 205.212 -7.35589 -3.2429 0
M  V30 2237 H 204.944 -0.412633 -0.535453 0
M  V30 2238 H 207.498 -1.70306 -1.14827 0
M  V30 2239 H 205.728 -1.24418 -3.66138 0
M  V30 2240 H 207.417 -1.66092 -3.70362 0
M  V30 2241 H 208.183 -3.9691 -2.78725 0
M  V30 2242 H 204.062 -2.98241 -3.5153 0
M  V30 2243 H 207.606 -6.36907 -2.84597 0
M  V30 2244 H 203.503 -5.37366 -3.57642 0
M  V30 2245 H 204.271 -7.44252 -3.40633 0
M  V30 2246 N 206.934 1.1197 -1.10907 0
M  V30 2247 C 208.345 1.65114 -0.871446 0
M  V30 2248 C 208.696 1.86885 0.597353 0
M  V30 2249 O 207.821 1.59896 1.45816 0
M  V30 2250 C 208.416 2.99944 -1.5754 0
M  V30 2251 C 206.975 3.50018 -1.38435 0
M  V30 2252 C 206.122 2.24941 -1.62164 0
M  V30 2253 H 209.073 0.956851 -1.2661 0
M  V30 2254 H 209.094 3.66651 -1.01721 0
M  V30 2255 H 208.606 2.84067 -2.64438 0
M  V30 2256 H 206.707 3.71071 -0.337214 0
M  V30 2257 H 206.82 4.29165 -2.12965 0
M  V30 2258 H 205.184 2.3229 -1.04467 0
M  V30 2259 H 205.967 2.11612 -2.70324 0
M  V30 2260 N 208.412 0.89855 1.29475 0
M  V30 2261 C 209.359 0.373819 2.27753 0
M  V30 2262 C 210.329 -0.543444 1.56958 0
M  V30 2263 O 211.514 -0.468934 1.84948 0
M  V30 2264 C 208.654 -0.393648 3.42848 0
M  V30 2265 C 207.767 0.554379 4.28428 0
M  V30 2266 C 206.902 -0.230026 5.30702 0
M  V30 2267 C 205.941 0.712599 6.07938 0
M  V30 2268 N 205.078 -0.0373283 7.0209 0
M  V30 2269 H 209.918 1.21699 2.72017 0
M  V30 2270 H 207.455 0.611456 1.33789 0
M  V30 2271 H 209.413 -0.85466 4.08352 0
M  V30 2272 H 208.043 -1.20128 2.99615 0
M  V30 2273 H 207.095 1.13391 3.63107 0
M  V30 2274 H 208.407 1.27597 4.82204 0
M  V30 2275 H 207.561 -0.752288 6.02018 0
M  V30 2276 H 206.3 -0.984758 4.77654 0
M  V30 2277 H 205.305 1.24637 5.35486 0
M  V30 2278 H 206.53 1.46664 6.63074 0
M  V30 2279 H 204.476 -0.774348 6.51414 0
M  V30 2280 H 204.393 0.624374 7.53417 0
M  V30 2281 H 205.661 -0.539891 7.77628 0
M  V30 2282 N 209.89 -1.43072 0.660911 0
M  V30 2283 C 211.118 -2.06067 0.185422 0
M  V30 2284 C 211.533 -1.49582 -1.15198 0
M  V30 2285 O 210.89 -0.630134 -1.71276 0
M  V30 2286 C 210.941 -3.61371 0.0966523 0
M  V30 2287 O 210.662 -4.15758 1.38119 0
M  V30 2288 C 212.163 -4.41455 -0.403996 0
M  V30 2289 H 209.383 -0.664459 0.0934604 0
M  V30 2290 H 211.927 -1.83447 0.90373 0
M  V30 2291 H 210.082 -3.8315 -0.572259 0
M  V30 2292 H 210.496 -5.09499 1.24542 0
M  V30 2293 H 211.97 -5.50437 -0.415045 0
M  V30 2294 H 212.447 -4.15036 -1.43674 0
M  V30 2295 H 213.053 -4.24663 0.232691 0
M  V30 2296 N 211.368 -0.403325 -1.52352 0
M  V30 2297 C 212.298 0.416205 -2.29761 0
M  V30 2298 C 213.279 1.05123 -1.33728 0
M  V30 2299 O 214.464 1.06134 -1.62632 0
M  V30 2300 C 211.594 1.53624 -3.11475 0
M  V30 2301 C 210.548 1.02653 -4.15507 0
M  V30 2302 C 209.874 2.23971 -4.85532 0
M  V30 2303 C 211.174 0.08463 -5.22231 0
M  V30 2304 H 212.868 -0.229701 -2.98518 0
M  V30 2305 H 210.414 -0.111913 -1.43564 0
M  V30 2306 H 212.367 2.1165 -3.64393 0
M  V30 2307 H 211.091 2.20994 -2.40477 0
M  V30 2308 H 209.75 0.46871 -3.63591 0
M  V30 2309 H 209.398 2.89883 -4.11068 0
M  V30 2310 H 209.098 1.90521 -5.55856 0
M  V30 2311 H 210.622 2.82614 -5.41259 0
M  V30 2312 H 212.036 0.573509 -5.70424 0
M  V30 2313 H 210.433 -0.160783 -5.99885 0
M  V30 2314 H 211.503 -0.86237 -4.7717 0
M  V30 2315 N 212.846 1.57033 -0.133567 0
M  V30 2316 C 214.093 1.95686 0.520877 0
M  V30 2317 C 214.421 1.0177 1.6575 0
M  V30 2318 O 213.676 0.0443195 1.9565 0
M  V30 2319 C 213.975 3.40674 1.08057 0
M  V30 2320 C 213.641 4.50855 0.0637899 0
M  V30 2321 C 212.303 4.80716 -0.215757 0
M  V30 2322 C 214.655 5.17398 -0.62835 0
M  V30 2323 C 211.983 5.74433 -1.19348 0
M  V30 2324 C 214.335 6.12167 -1.5948 0
M  V30 2325 C 212.999 6.40414 -1.88218 0
M  V30 2326 H 212.269 0.716067 0.190602 0
M  V30 2327 H 214.916 1.9026 -0.217556 0
M  V30 2328 H 213.221 3.42865 1.89606 0
M  V30 2329 H 214.918 3.67902 1.59529 0
M  V30 2330 H 211.508 4.27605 0.291855 0
M  V30 2331 H 215.692 4.94472 -0.425562 0
M  V30 2332 H 210.948 5.94616 -1.42272 0
M  V30 2333 H 215.122 6.6281 -2.13671 0
M  V30 2334 H 212.749 7.12838 -2.64133 0
M  V30 2335 N 214.325 -0.140222 1.56975 0
M  V30 2336 C 215.255 -1.17456 2.01808 0
M  V30 2337 C 216.236 -1.44415 0.898794 0
M  V30 2338 O 217.421 -1.5522 1.16707 0
M  V30 2339 C 214.551 -2.50607 2.40444 0
M  V30 2340 C 213.505 -2.38155 3.55621 0
M  V30 2341 C 212.831 -3.76078 3.80091 0
M  V30 2342 C 214.131 -1.85991 4.88062 0
M  V30 2343 H 215.825 -0.801743 2.88466 0
M  V30 2344 H 213.371 -0.38422 1.38779 0
M  V30 2345 H 215.324 -3.23197 2.7041 0
M  V30 2346 H 214.048 -2.89737 1.50732 0
M  V30 2347 H 212.707 -1.68016 3.25832 0
M  V30 2348 H 212.355 -4.12656 2.87618 0
M  V30 2349 H 212.055 -3.68606 4.57606 0
M  V30 2350 H 213.579 -4.50206 4.12488 0
M  V30 2351 H 214.993 -2.4838 5.16701 0
M  V30 2352 H 213.39 -1.89393 5.6943 0
M  V30 2353 H 214.46 -0.816023 4.77984 0
M  V30 2354 N 215.803 -1.52179 -0.40978 0
M  V30 2355 C 216.733 -1.78435 -1.5061 0
M  V30 2356 C 217.714 -0.635295 -1.57791 0
M  V30 2357 O 218.899 -0.880823 -1.73076 0
M  V30 2358 C 216.029 -1.93444 -2.88439 0
M  V30 2359 C 214.983 -3.09038 -2.96108 0
M  V30 2360 C 214.309 -3.09268 -4.36185 0
M  V30 2361 C 215.609 -4.48508 -2.67652 0
M  V30 2362 H 217.303 -2.70237 -1.28889 0
M  V30 2363 H 214.849 -1.30036 -0.618605 0
M  V30 2364 H 216.802 -2.10394 -3.65119 0
M  V30 2365 H 215.526 -0.983129 -3.11452 0
M  V30 2366 H 214.185 -2.91837 -2.21872 0
M  V30 2367 H 213.833 -2.11861 -4.56206 0
M  V30 2368 H 213.533 -3.86907 -4.42241 0
M  V30 2369 H 215.057 -3.28348 -5.14801 0
M  V30 2370 H 216.471 -4.65918 -3.34056 0
M  V30 2371 H 214.868 -5.28059 -2.85085 0
M  V30 2372 H 215.938 -4.56649 -1.63095 0
M  V30 2373 N 217.281 0.66697 -1.42791 0
M  V30 2374 C 218.697 0.981027 -1.25889 0
M  V30 2375 C 218.897 2.00793 -0.168695 0
M  V30 2376 O 217.953 2.48321 0.45747 0
M  V30 2377 C 219.266 1.47838 -2.61848 0
M  V30 2378 C 220.814 1.59575 -2.69267 0
M  V30 2379 C 221.289 2.12704 -4.05612 0
M  V30 2380 N 222.78 2.20026 -4.07606 0
M  V30 2381 C 223.515 2.62227 -5.09926 0
M  V30 2382 N 223.011 3.03824 -6.22626 0
M  V30 2383 N 224.804 2.62045 -4.97281 0
M  V30 2384 H 216.955 -0.0127891 -2.12396 0
M  V30 2385 H 219.218 0.0568258 -0.946295 0
M  V30 2386 H 218.924 0.798299 -3.4252 0
M  V30 2387 H 218.798 2.45579 -2.86305 0
M  V30 2388 H 221.185 2.26687 -1.88936 0
M  V30 2389 H 221.266 0.60302 -2.48591 0
M  V30 2390 H 220.91 1.46198 -4.86404 0
M  V30 2391 H 220.84 3.12782 -4.23645 0
M  V30 2392 H 223.331 1.90708 -3.2625 0
M  V30 2393 H 223.644 3.34734 -6.96544 0
M  V30 2394 H 221.989 3.01662 -6.26119 0
M  V30 2395 H 225.18 2.28916 -4.08308 0
M  V30 2396 H 225.353 2.94613 -5.77154 0
M  V30 2397 N 218.759 1.29093 0.90403 0
M  V30 2398 C 220.007 1.16583 1.65085 0
M  V30 2399 C 220.328 -0.283933 1.92922 0
M  V30 2400 O 219.598 -1.19509 1.55224 0
M  V30 2401 H 218.178 0.428467 0.611903 0
M  V30 2402 H 220.84 1.61959 1.08422 0
M  V30 2403 H 219.936 1.71266 2.6091 0
M  V30 2404 N 220.237 -1.11381 1.11499 0
M  V30 2405 C 221.185 -2.19522 0.768956 0
M  V30 2406 C 222.179 -1.67693 -0.239857 0
M  V30 2407 O 223.385 -1.79727 -0.0990755 0
M  V30 2408 H 219.76 -0.715711 0.230786 0
M  V30 2409 H 221.731 -2.45954 1.68964 0
M  V30 2410 C 220.48 -3.46945 0.229073 0
M  V30 2411 H 219.803 -3.8718 0.996596 0
M  V30 2412 H 221.243 -4.23993 0.0251441 0
M  V30 2413 C 219.702 -3.2042 -1.04079 0
M  V30 2414 O 220.232 -3.41178 -2.12038 0
M  V30 2415 N 218.438 -2.74151 -0.963823 0
M  V30 2416 H 217.985 -2.57459 -0.0851722 0
M  V30 2417 H 217.943 -2.56781 -1.81414 0
M  V30 2418 N 221.715 -0.905404 -1.28997 0
M  V30 2419 C 222.665 -0.358713 -2.25161 0
M  V30 2420 C 223.649 0.524449 -1.52113 0
M  V30 2421 O 224.841 0.365534 -1.73184 0
M  V30 2422 C 221.97 0.407609 -3.40872 0
M  V30 2423 C 221.056 -0.490797 -4.21251 0
M  V30 2424 N 221.447 -1.60061 -4.79806 0
M  V30 2425 C 219.745 -0.289636 -4.45059 0
M  V30 2426 C 220.446 -2.15757 -5.40207 0
M  V30 2427 N 219.422 -1.44988 -5.23908 0
M  V30 2428 H 223.224 -1.20642 -2.67998 0
M  V30 2429 H 220.738 -0.757103 -1.43672 0
M  V30 2430 H 222.735 0.816046 -4.08835 0
M  V30 2431 H 221.395 1.25251 -2.9957 0
M  V30 2432 H 222.406 -1.98329 -4.7842 0
M  V30 2433 H 219.083 0.51643 -4.14294 0
M  V30 2434 H 220.473 -3.09069 -5.96595 0
M  V30 2435 N 223.193 1.4272 -0.668489 0
M  V30 2436 C 224.103 2.34596 0.0139753 0
M  V30 2437 C 225.119 1.5474 0.795703 0
M  V30 2438 O 226.295 1.87334 0.739466 0
M  V30 2439 C 223.36 3.33202 0.957982 0
M  V30 2440 C 222.421 4.28957 0.17149 0
M  V30 2441 C 221.654 5.22853 1.07053 0
M  V30 2442 O 221.877 5.21531 2.31001 0
M  V30 2443 O 220.811 5.9952 0.534727 0
M  V30 2444 H 224.637 2.9448 -0.742661 0
M  V30 2445 H 222.222 1.43117 -0.428705 0
M  V30 2446 H 224.104 3.93796 1.50008 0
M  V30 2447 H 222.779 2.758 1.69458 0
M  V30 2448 H 221.686 3.71796 -0.414558 0
M  V30 2449 H 223.019 4.89383 -0.52586 0
M  V30 2450 N 224.671 0.411399 1.52136 0
M  V30 2451 C 225.911 -0.163143 2.03748 0
M  V30 2452 C 226.275 -1.42187 1.29022 0
M  V30 2453 O 227.476 -2.075 1.70872 0
M  V30 2454 C 225.747 -0.402651 3.55125 0
M  V30 2455 S 227.306 -0.944315 4.28519 0
M  V30 2456 H 224.124 -0.0439833 0.709638 0
M  V30 2457 H 226.726 0.56484 1.87163 0
M  V30 2458 H 225.43 0.520212 4.0709 0
M  V30 2459 H 224.961 -1.15844 3.75957 0
M  V30 2460 H 226.976 -2.22463 4.43536 0
M  V30 2461 N 226.149 -1.5696 0.141893 0
M  V30 2462 C 227.565 -1.58151 -0.21456 0
M  V30 2463 C 227.765 -1.1559 -1.65049 0
M  V30 2464 O 226.821 -0.853832 -2.37626 0
M  V30 2465 C 228.134 -3.00674 0.0395576 0
M  V30 2466 C 229.682 -3.1299 -0.0245529 0
M  V30 2467 C 230.157 -4.57554 0.202167 0
M  V30 2468 N 231.648 -4.62961 0.148919 0
M  V30 2469 C 232.383 -5.7262 0.298924 0
M  V30 2470 N 231.879 -6.90947 0.50637 0
M  V30 2471 N 233.672 -5.61601 0.236886 0
M  V30 2472 H 225.823 -1.8292 1.07953 0
M  V30 2473 H 228.086 -0.846425 0.42693 0
M  V30 2474 H 227.792 -3.36183 1.03315 0
M  V30 2475 H 227.666 -3.70981 -0.682143 0
M  V30 2476 H 230.053 -2.77326 -1.00869 0
M  V30 2477 H 230.134 -2.4518 0.729396 0
M  V30 2478 H 229.778 -4.93922 1.18338 0
M  V30 2479 H 229.708 -5.23484 -0.572044 0
M  V30 2480 H 232.199 -3.77899 -0.00697015 0
M  V30 2481 H 232.512 -7.7038 0.611076 0
M  V30 2482 H 230.857 -6.92878 0.542628 0
M  V30 2483 H 234.048 -4.68039 0.0756209 0
M  V30 2484 H 234.221 -6.47015 0.357227 0
M  V30 2485 N 227.627 0.131896 -1.57047 0
M  V30 2486 C 228.577 1.1679 -1.95816 0
M  V30 2487 C 229.561 1.37756 -0.831393 0
M  V30 2488 O 230.753 1.39065 -1.09499 0
M  V30 2489 C 227.882 2.49778 -2.35512 0
M  V30 2490 C 226.968 2.32342 -3.54793 0
M  V30 2491 N 227.359 1.8469 -4.70875 0
M  V30 2492 C 225.657 2.63043 -3.60173 0
M  V30 2493 C 226.358 1.80656 -5.52936 0
M  V30 2494 N 225.334 2.24528 -4.95064 0
M  V30 2495 H 229.136 0.791818 -2.83033 0
M  V30 2496 H 226.65 0.339791 -1.58805 0
M  V30 2497 H 228.647 3.24692 -2.61498 0
M  V30 2498 H 227.307 2.88156 -1.49654 0
M  V30 2499 H 228.318 1.54429 -4.9434 0
M  V30 2500 H 224.995 3.05193 -2.84892 0
M  V30 2501 H 226.385 1.45178 -6.56028 0
M  V30 2502 N 229.106 1.52395 0.401703 0
M  V30 2503 C 230.036 1.79231 1.49661 0
M  V30 2504 C 231.017 0.643654 1.57452 0
M  V30 2505 O 232.202 0.889989 1.72606 0
M  V30 2506 C 229.332 1.94971 2.87409 0
M  V30 2507 C 228.286 3.10604 2.94465 0
M  V30 2508 C 227.612 3.11577 4.34538 0
M  V30 2509 C 228.912 4.49921 2.6527 0
M  V30 2510 H 230.606 2.70917 1.27454 0
M  V30 2511 H 228.152 1.30362 0.6117 0
M  V30 2512 H 230.105 2.12328 3.63999 0
M  V30 2513 H 228.829 0.999632 3.10926 0
M  V30 2514 H 227.488 2.93009 2.20321 0
M  V30 2515 H 227.136 2.14277 4.55076 0
M  V30 2516 H 226.836 3.89247 4.40183 0
M  V30 2517 H 228.36 3.31073 5.13053 0
M  V30 2518 H 229.774 4.67683 3.31581 0
M  V30 2519 H 228.171 5.29564 2.82281 0
M  V30 2520 H 229.241 4.57507 1.60671 0
M  V30 2521 N 230.584 -0.659388 1.43143 0
M  V30 2522 C 231.812 -1.44723 1.47861 0
M  V30 2523 C 232.227 -1.88563 0.0945886 0
M  V30 2524 O 231.584 -1.59108 -0.893915 0
M  V30 2525 C 231.635 -2.68627 2.41913 0
M  V30 2526 O 231.356 -2.26623 3.74932 0
M  V30 2527 C 232.857 -3.62045 2.55809 0
M  V30 2528 H 230.077 -0.444801 0.502387 0
M  V30 2529 H 232.621 -0.808916 1.87821 0
M  V30 2530 H 230.776 -3.28613 2.05164 0
M  V30 2531 H 231.19 -3.06745 4.2545 0
M  V30 2532 H 232.664 -4.45666 3.25708 0
M  V30 2533 H 233.141 -4.08981 1.60099 0
M  V30 2534 H 233.747 -3.07944 2.93344 0
M  V30 2535 N 232.062 -1.29571 -0.897171 0
M  V30 2536 C 232.972 -1.16808 -2.03453 0
M  V30 2537 C 233.988 -0.0907471 -1.73763 0
M  V30 2538 O 235.164 -0.303312 -1.99103 0
M  V30 2539 C 232.229 -0.848264 -3.36163 0
M  V30 2540 C 231.29 -2.0097 -3.79354 0
M  V30 2541 C 230.523 -1.70505 -5.05731 0
M  V30 2542 O 230.746 -0.62718 -5.66941 0
M  V30 2543 O 229.68 -2.5538 -5.45036 0
M  V30 2544 H 233.506 -2.12325 -2.17144 0
M  V30 2545 H 231.091 -1.09047 -1.02123 0
M  V30 2546 H 232.973 -0.684581 -4.15802 0
M  V30 2547 H 231.648 0.0771071 -3.23608 0
M  V30 2548 H 230.555 -2.22863 -3.00471 0
M  V30 2549 H 231.888 -2.91636 -3.96496 0
M  V30 2550 N 233.54 1.10788 -1.12088 0
M  V30 2551 C 234.77 1.86191 -0.895351 0
M  V30 2552 C 235.178 1.80763 0.558702 0
M  V30 2553 O 234.521 1.19188 1.39785 0
M  V30 2554 C 234.583 3.35659 -1.28737 0
M  V30 2555 C 234.247 3.64849 -2.75198 0
M  V30 2556 C 235.244 3.61757 -3.734 0
M  V30 2557 C 232.929 3.93641 -3.12013 0
M  V30 2558 C 234.923 3.87045 -5.06434 0
M  V30 2559 C 232.61 4.18585 -4.4523 0
M  V30 2560 C 233.608 4.15277 -5.42249 0
M  V30 2561 O 233.296 4.3959 -6.73065 0
M  V30 2562 H 233.028 0.595425 -0.32007 0
M  V30 2563 H 235.582 1.40992 -1.49367 0
M  V30 2564 H 233.812 3.81497 -0.63224 0
M  V30 2565 H 235.501 3.92441 -1.03656 0
M  V30 2566 H 236.267 3.39557 -3.46303 0
M  V30 2567 H 232.146 3.95348 -2.37109 0
M  V30 2568 H 235.69 3.84378 -5.82151 0
M  V30 2569 H 231.587 4.40264 -4.72057 0
M  V30 2570 H 232.355 4.57123 -6.78956 0
M  V30 2571 N 235.018 0.912232 1.28515 0
M  V30 2572 C 236.265 0.544599 1.95039 0
M  V30 2573 C 236.593 -0.911435 1.71823 0
M  V30 2574 O 235.848 -1.66317 1.03137 0
M  V30 2575 C 236.147 0.798392 3.48368 0
M  V30 2576 C 235.813 2.23374 3.91682 0
M  V30 2577 C 234.475 2.62617 4.03219 0
M  V30 2578 C 236.827 3.16786 4.13879 0
M  V30 2579 C 234.155 3.94429 4.3433 0
M  V30 2580 C 236.507 4.48161 4.46469 0
M  V30 2581 C 235.171 4.8726 4.56217 0
M  V30 2582 H 234.441 0.199283 0.7137 0
M  V30 2583 H 237.088 1.15327 1.52879 0
M  V30 2584 H 235.393 0.106908 3.91654 0
M  V30 2585 H 237.09 0.493141 3.97956 0
M  V30 2586 H 233.68 1.91922 3.83228 0
M  V30 2587 H 237.864 2.87677 4.0442 0
M  V30 2588 H 233.12 4.24426 4.40082 0
M  V30 2589 H 237.294 5.20559 4.62592 0
M  V30 2590 H 234.921 5.89431 4.80078 0
M  V30 2591 N 236.496 -1.42363 0.676048 0
M  V30 2592 C 237.724 -2.05859 0.207268 0
M  V30 2593 C 238.139 -1.50796 -1.13605 0
M  V30 2594 O 237.496 -0.648265 -1.70598 0
M  V30 2595 C 237.547 -3.61248 0.134975 0
M  V30 2596 O 237.268 -4.1427 1.42521 0
M  V30 2597 C 238.769 -4.41859 -0.357151 0
M  V30 2598 H 235.989 -0.663431 0.100503 0
M  V30 2599 H 238.533 -1.82479 0.923136 0
M  V30 2600 H 236.688 -3.83735 -0.531588 0
M  V30 2601 H 237.102 -5.0815 1.29939 0
M  V30 2602 H 238.576 -5.50847 -0.356641 0
M  V30 2603 H 239.053 -4.16536 -1.39264 0
M  V30 2604 H 239.659 -4.24392 0.27772 0
M  V30 2605 N 237.974 -0.419461 -1.51915 0
M  V30 2606 C 239.221 0.152939 -2.01922 0
M  V30 2607 C 239.549 1.4426 -1.30458 0
M  V30 2608 O 238.804 1.91514 -0.402593 0
M  V30 2609 C 239.103 0.437067 -3.54717 0
M  V30 2610 C 238.769 -0.764632 -4.44369 0
M  V30 2611 C 237.431 -1.09423 -4.68594 0
M  V30 2612 C 239.783 -1.56713 -4.97082 0
M  V30 2613 C 237.111 -2.22732 -5.42777 0
M  V30 2614 C 239.463 -2.69107 -5.72507 0
M  V30 2615 C 238.127 -3.02541 -5.95 0
M  V30 2616 H 237.397 0.0559644 -0.738884 0
M  V30 2617 H 240.044 -0.562998 -1.83037 0
M  V30 2618 H 238.349 1.23469 -3.71837 0
M  V30 2619 H 240.046 0.893083 -3.90928 0
M  V30 2620 H 236.636 -0.497775 -4.257 0
M  V30 2621 H 240.82 -1.32571 -4.78266 0
M  V30 2622 H 236.076 -2.48971 -5.58411 0
M  V30 2623 H 240.25 -3.31671 -6.12346 0
M  V30 2624 H 237.877 -3.90457 -6.52264 0
M  V30 2625 N 239.452 1.56882 -0.150215 0
M  V30 2626 C 240.399 2.16922 0.788244 0
M  V30 2627 C 241.369 1.10303 1.24187 0
M  V30 2628 O 242.554 1.38359 1.31383 0
M  V30 2629 C 239.694 2.79754 2.02068 0
M  V30 2630 C 238.807 4.00775 1.61257 0
M  V30 2631 C 237.942 4.51595 2.79705 0
M  V30 2632 C 236.981 5.65074 2.35282 0
M  V30 2633 N 236.118 6.10499 3.4675 0
M  V30 2634 H 240.958 2.96779 0.269444 0
M  V30 2635 H 238.495 1.46599 0.12128 0
M  V30 2636 H 240.453 3.14329 2.74323 0
M  V30 2637 H 239.083 2.02536 2.51354 0
M  V30 2638 H 238.135 3.72158 0.787553 0
M  V30 2639 H 239.447 4.82978 1.24633 0
M  V30 2640 H 238.601 4.88242 3.60145 0
M  V30 2641 H 237.34 3.68406 3.19576 0
M  V30 2642 H 236.345 5.28 1.53283 0
M  V30 2643 H 237.57 6.50052 1.96493 0
M  V30 2644 H 235.516 5.30243 3.86236 0
M  V30 2645 H 235.433 6.87637 3.14152 0
M  V30 2646 H 236.701 6.51791 4.27537 0
M  V30 2647 N 240.93 -0.123565 1.57115 0
M  V30 2648 C 241.862 -1.17739 1.96648 0
M  V30 2649 C 242.875 -1.37906 0.865201 0
M  V30 2650 O 244.064 -1.37062 1.14351 0
M  V30 2651 C 241.164 -2.53821 2.24562 0
M  V30 2652 C 240.337 -2.54317 3.55867 0
M  V30 2653 C 239.396 -3.72112 3.72047 0
M  V30 2654 O 238.422 -3.55907 4.44206 0
M  V30 2655 N 239.624 -4.90498 3.10471 0
M  V30 2656 H 242.389 -0.841147 2.87654 0
M  V30 2657 H 239.95 -0.31289 1.58848 0
M  V30 2658 H 241.942 -3.31175 2.32606 0
M  V30 2659 H 240.512 -2.79645 1.39705 0
M  V30 2660 H 239.732 -1.62711 3.59053 0
M  V30 2661 H 241.02 -2.51701 4.42181 0
M  V30 2662 H 240.418 -5.06567 2.51806 0
M  V30 2663 H 238.975 -5.65544 3.24043 0
M  V30 2664 N 242.408 -1.52605 -0.393616 0
M  V30 2665 C 243.318 -1.79971 -1.50492 0
M  V30 2666 C 244.334 -0.686181 -1.59899 0
M  V30 2667 O 245.51 -0.973274 -1.76322 0
M  V30 2668 C 242.575 -1.95867 -2.86072 0
M  V30 2669 C 241.636 -3.19781 -2.86424 0
M  V30 2670 C 240.869 -3.34909 -4.15538 0
M  V30 2671 O 241.092 -2.54948 -5.10253 0
M  V30 2672 O 240.026 -4.28141 -4.23059 0
M  V30 2673 H 243.852 -2.74328 -1.30299 0
M  V30 2674 H 241.437 -1.3764 -0.581005 0
M  V30 2675 H 243.319 -2.08056 -3.66457 0
M  V30 2676 H 241.994 -1.04699 -3.063 0
M  V30 2677 H 240.901 -3.13038 -2.04837 0
M  V30 2678 H 242.234 -4.1078 -2.71147 0
M  V30 2679 N 243.887 0.651787 -1.4349 0
M  V30 2680 C 245.127 1.42345 -1.46688 0
M  V30 2681 C 245.491 1.91793 -0.0891023 0
M  V30 2682 O 246.692 2.688 0.00423594 0
M  V30 2683 C 244.963 2.57221 -2.48137 0
M  V30 2684 S 246.522 3.45725 -2.70221 0
M  V30 2685 H 243.34 0.485878 -0.51908 0
M  V30 2686 H 245.942 0.756578 -1.80267 0
M  V30 2687 H 244.646 2.1917 -3.46976 0
M  V30 2688 H 244.177 3.28757 -2.16061 0
M  V30 2689 H 246.192 4.53996 -2.00255 0
M  V30 2690 N 245.365 1.30045 0.890287 0
M  V30 2691 C 246.312 1.15976 1.99545 0
M  V30 2692 C 247.282 0.0506202 1.66023 0
M  V30 2693 O 248.467 0.219847 1.89529 0
M  V30 2694 C 245.607 0.852054 3.34416 0
M  V30 2695 C 244.72 2.04255 3.80662 0
M  V30 2696 C 243.855 1.6734 5.04154 0
M  V30 2697 C 242.894 2.82916 5.42794 0
M  V30 2698 N 242.031 2.46333 6.57468 0
M  V30 2699 H 246.871 2.10524 2.10911 0
M  V30 2700 H 244.408 1.04749 1.03276 0
M  V30 2701 H 246.366 0.654296 4.12037 0
M  V30 2702 H 244.996 -0.0565502 3.2275 0
M  V30 2703 H 244.048 2.35172 2.98995 0
M  V30 2704 H 245.36 2.90826 4.05242 0
M  V30 2705 H 244.514 1.43908 5.89386 0
M  V30 2706 H 243.253 0.779308 4.81433 0
M  V30 2707 H 242.258 3.0702 4.56091 0
M  V30 2708 H 243.483 3.73004 5.6749 0
M  V30 2709 H 241.429 1.59423 6.36334 0
M  V30 2710 H 241.346 3.26436 6.81891 0
M  V30 2711 H 242.614 2.26244 7.45945 0
M  V30 2712 N 246.843 -1.10192 1.12674 0
M  V30 2713 C 248.092 -1.81573 0.8783 0
M  V30 2714 C 248.405 -1.86249 -0.597557 0
M  V30 2715 O 249.611 -2.5386 -0.962681 0
M  V30 2716 C 248.067 -3.26149 1.52167 0
M  V30 2717 C 247.675 -3.29763 3.03249 0
M  V30 2718 C 249.419 -4.0234 1.3536 0
M  V30 2719 C 247.326 -4.68815 3.60508 0
M  V30 2720 H 246.256 -0.680394 0.324931 0
M  V30 2721 H 248.907 -1.23902 1.35353 0
M  V30 2722 H 247.289 -3.83832 0.974104 0
M  V30 2723 H 248.463 -2.8189 3.6452 0
M  V30 2724 H 246.778 -2.67059 3.19481 0
M  V30 2725 H 249.375 -5.05058 1.75559 0
M  V30 2726 H 249.718 -4.15235 0.297554 0
M  V30 2727 H 250.251 -3.51079 1.87052 0
M  V30 2728 H 246.99 -4.61121 4.65884 0
M  V30 2729 H 246.51 -5.17045 3.04014 0
M  V30 2730 H 248.189 -5.37785 3.59717 0
M  V30 2731 N 248.321 -0.919034 -1.28029 0
M  V30 2732 C 249.268 -0.410005 -2.27129 0
M  V30 2733 C 250.238 0.518405 -1.57803 0
M  V30 2734 O 251.423 0.439451 -1.8567 0
M  V30 2735 C 248.563 0.339054 -3.4343 0
M  V30 2736 C 247.676 -0.622468 -4.27492 0
M  V30 2737 C 246.811 0.145567 -5.31001 0
M  V30 2738 C 245.85 -0.809226 -6.06727 0
M  V30 2739 N 244.987 -0.0743728 -7.02061 0
M  V30 2740 H 249.827 -1.26011 -2.70047 0
M  V30 2741 H 247.364 -0.632663 -1.328 0
M  V30 2742 H 249.322 0.789586 -4.0966 0
M  V30 2743 H 247.952 1.15346 -3.01488 0
M  V30 2744 H 247.004 -1.19153 -3.61257 0
M  V30 2745 H 248.316 -1.35252 -4.80113 0
M  V30 2746 H 247.47 0.656417 -6.03139 0
M  V30 2747 H 246.209 0.908643 -4.79161 0
M  V30 2748 H 245.214 -1.3314 -5.33436 0
M  V30 2749 H 246.439 -1.57194 -6.60656 0
M  V30 2750 H 244.385 0.670616 -6.52563 0
M  V30 2751 H 244.302 -0.744157 -7.52329 0
M  V30 2752 H 245.57 0.416109 -7.78389 0
M  V30 2753 N 249.799 1.42003 -0.683588 0
M  V30 2754 C 251.029 2.05448 -0.217866 0
M  V30 2755 C 251.437 1.51491 1.13346 0
M  V30 2756 O 250.78 0.653048 1.717 0
M  V30 2757 C 250.842 3.59399 -0.0850118 0
M  V30 2758 C 250.506 4.36093 -1.36645 0
M  V30 2759 C 251.503 4.66169 -2.30179 0
M  V30 2760 C 249.188 4.75578 -1.61649 0
M  V30 2761 C 251.182 5.34676 -3.46988 0
M  V30 2762 C 248.869 5.43824 -2.78745 0
M  V30 2763 C 249.867 5.73299 -3.71238 0
M  V30 2764 O 249.555 6.40142 -4.86285 0
M  V30 2765 H 249.287 0.668344 -0.101454 0
M  V30 2766 H 251.841 1.82974 -0.933248 0
M  V30 2767 H 250.071 3.80566 0.686031 0
M  V30 2768 H 251.76 4.04457 0.341973 0
M  V30 2769 H 252.526 4.36156 -2.12115 0
M  V30 2770 H 248.405 4.52025 -0.905243 0
M  V30 2771 H 251.949 5.57599 -4.19201 0
M  V30 2772 H 247.846 5.73254 -2.96732 0
M  V30 2773 H 248.614 6.58636 -4.85944 0
M  V30 2774 N 251.277 0.427512 1.51691 0
M  V30 2775 C 252.502 -0.143601 2.06902 0
M  V30 2776 C 252.927 -1.36536 1.29382 0
M  V30 2777 O 252.285 -1.78289 0.329043 0
M  V30 2778 C 252.333 -0.454207 3.57728 0
M  V30 2779 O 251.437 -1.54228 3.82475 0
M  V30 2780 H 250.778 -0.00617128 0.663971 0
M  V30 2781 H 253.308 0.606014 1.95419 0
M  V30 2782 H 253.318 -0.707525 4.01818 0
M  V30 2783 H 251.993 0.438812 4.13579 0
M  V30 2784 H 250.57 -1.2797 3.50254 0
M  V30 2785 N 252.755 -1.56801 0.158532 0
M  V30 2786 C 253.665 -2.20916 -0.789518 0
M  V30 2787 C 254.681 -1.1969 -1.26294 0
M  V30 2788 O 255.857 -1.52308 -1.31773 0
M  V30 2789 C 252.922 -2.82727 -2.00665 0
M  V30 2790 C 251.983 -3.99114 -1.58134 0
M  V30 2791 C 251.216 -4.57968 -2.74045 0
M  V30 2792 O 251.439 -4.15704 -3.90572 0
M  V30 2793 O 250.373 -5.48047 -2.48855 0
M  V30 2794 H 254.199 -3.02464 -0.273681 0
M  V30 2795 H 251.784 -1.4924 -0.0690548 0
M  V30 2796 H 253.666 -3.21968 -2.71872 0
M  V30 2797 H 252.341 -2.04184 -2.51179 0
M  V30 2798 H 251.248 -3.64567 -0.839155 0
M  V30 2799 H 252.581 -4.79212 -1.12325 0
M  V30 2800 N 254.233 0.115231 -1.57178 0
M  V30 2801 C 255.649 0.468877 -1.52557 0
M  V30 2802 C 255.849 1.81649 -0.872125 0
M  V30 2803 O 254.905 2.48347 -0.45606 0
M  V30 2804 C 256.218 0.4499 -2.97315 0
M  V30 2805 C 257.766 0.533185 -3.08425 0
M  V30 2806 C 258.241 0.54456 -4.54751 0
M  V30 2807 N 259.732 0.605892 -4.5922 0
M  V30 2808 C 260.467 0.636203 -5.6986 0
M  V30 2809 N 259.963 0.623931 -6.89985 0
M  V30 2810 N 261.756 0.679496 -5.57978 0
M  V30 2811 H 253.907 -0.767712 -1.9804 0
M  V30 2812 H 256.17 -0.283609 -0.904583 0
M  V30 2813 H 255.876 -0.472721 -3.48509 0
M  V30 2814 H 255.75 1.27632 -3.5495 0
M  V30 2815 H 258.137 1.44623 -2.57232 0
M  V30 2816 H 258.218 -0.320995 -2.53778 0
M  V30 2817 H 257.862 -0.364452 -5.06591 0
M  V30 2818 H 257.792 1.41568 -5.07214 0
M  V30 2819 H 260.283 0.621386 -3.72756 0
M  V30 2820 H 260.596 0.649787 -7.70063 0
M  V30 2821 H 258.941 0.591296 -6.9248 0
M  V30 2822 H 262.132 0.686472 -4.63039 0
M  V30 2823 H 262.305 0.69965 -6.44212 0
M  V30 2824 N 255.711 1.52812 0.385517 0
M  V30 2825 C 256.957 1.68275 1.13188 0
M  V30 2826 C 257.29 0.423179 1.89533 0
M  V30 2827 O 256.565 -0.579113 1.85679 0
M  V30 2828 C 256.848 2.92001 2.1073 0
M  V30 2829 C 256.701 4.28067 1.38125 0
M  V30 2830 C 258.02 3.11283 3.11113 0
M  V30 2831 H 255.139 0.612352 0.410115 0
M  V30 2832 H 257.781 1.85415 0.414869 0
M  V30 2833 H 255.931 2.77519 2.71874 0
M  V30 2834 H 257.603 4.54324 0.799187 0
M  V30 2835 H 255.846 4.28388 0.683092 0
M  V30 2836 H 256.517 5.10733 2.09417 0
M  V30 2837 H 258.993 3.2482 2.6006 0
M  V30 2838 H 257.869 3.99325 3.76605 0
M  V30 2839 H 258.13 2.25656 3.80173 0
M  V30 2840 N 257.189 -0.644168 1.43834 0
M  V30 2841 C 258.419 -1.42939 1.49171 0
M  V30 2842 C 258.827 -1.88874 0.111048 0
M  V30 2843 O 258.17 -1.60656 -0.8908 0
M  V30 2844 C 258.232 -2.69151 2.38324 0
M  V30 2845 C 257.896 -2.45097 3.85715 0
M  V30 2846 C 258.893 -2.07747 4.76589 0
M  V30 2847 C 256.578 -2.59141 4.30292 0
M  V30 2848 C 258.572 -1.8475 6.10038 0
M  V30 2849 C 256.259 -2.35759 5.63792 0
M  V30 2850 C 257.257 -1.9862 6.53482 0
M  V30 2851 O 256.945 -1.75489 7.84512 0
M  V30 2852 H 256.677 -0.445271 0.508635 0
M  V30 2853 H 259.231 -0.79621 1.8934 0
M  V30 2854 H 257.461 -3.3506 1.93058 0
M  V30 2855 H 259.15 -3.31123 2.3476 0
M  V30 2856 H 259.916 -1.96465 4.43426 0
M  V30 2857 H 255.795 -2.87022 3.60749 0
M  V30 2858 H 259.339 -1.55686 6.80006 0
M  V30 2859 H 255.236 -2.46646 5.9652 0
M  V30 2860 H 256.004 -1.89841 7.9618 0
M  V30 2861 N 258.668 -1.30515 -0.883378 0
M  V30 2862 C 259.945 -1.10086 -1.6168 0
M  V30 2863 C 260.325 0.349269 -2.08191 0
M  V30 2864 O 259.673 1.34105 -1.85008 0
M  V30 2865 C 259.883 -2.10315 -2.78511 0
M  V30 2866 C 261.231 -2.42119 -3.48803 0
M  V30 2867 O 262.255 -2.08638 -2.88702 0
M  V30 2868 O 261.114 -2.99396 -4.57192 0
M  V30 2869 H 258.208 -0.422907 -0.710689 0
M  V30 2870 H 260.754 -1.41947 -0.930015 0
M  V30 2871 H 259.526 -3.07917 -2.41459 0
M  V30 2872 H 259.149 -1.79282 -3.54886 0
M  V30 2873 N 260.146 1.09593 -1.13257 0
M  V30 2874 C 261.109 2.14359 -0.811358 0
M  V30 2875 C 262.109 1.59808 0.178377 0
M  V30 2876 O 263.299 1.74132 -0.0484911 0
M  V30 2877 C 260.431 3.40269 -0.207276 0
M  V30 2878 H 261.624 2.44284 -1.73969 0
M  V30 2879 H 259.177 1.25102 -0.936973 0
M  V30 2880 H 259.912 3.15969 0.73036 0
M  V30 2881 H 259.697 3.81154 -0.919992 0
M  V30 2882 H 261.187 4.176 0.000667944 0
M  V30 2883 N 261.624 0.925811 1.2754 0
M  V30 2884 C 262.864 0.572521 1.96218 0
M  V30 2885 C 263.228 -0.869719 1.71172 0
M  V30 2886 O 264.429 -1.33119 2.33523 0
M  V30 2887 C 262.7 0.887325 3.4621 0
M  V30 2888 S 264.259 0.642266 4.34074 0
M  V30 2889 H 261.077 0.211403 0.678845 0
M  V30 2890 H 263.679 1.19384 1.54815 0
M  V30 2891 H 262.383 1.93469 3.61936 0
M  V30 2892 H 261.914 0.255123 3.92572 0
M  V30 2893 H 263.929 -0.500822 4.93666 0
M  V30 2894 N 263.102 -1.41638 0.69111 0
M  V30 2895 C 264.035 -2.28183 -0.0274913 0
M  V30 2896 C 265.013 -1.41984 -0.792424 0
M  V30 2897 O 266.197 -1.71415 -0.784169 0
M  V30 2898 C 263.324 -3.22135 -1.04628 0
M  V30 2899 C 262.37 -4.24848 -0.375037 0
M  V30 2900 S 263.203 -5.28231 0.879321 0
M  V30 2901 C 264.359 -6.25748 -0.137983 0
M  V30 2902 H 264.592 -2.88782 0.706553 0
M  V30 2903 H 262.125 -1.46709 0.481222 0
M  V30 2904 H 264.083 -3.76797 -1.62894 0
M  V30 2905 H 262.744 -2.6064 -1.75287 0
M  V30 2906 H 261.937 -4.90837 -1.14433 0
M  V30 2907 H 261.539 -3.73758 0.134434 0
M  V30 2908 H 263.831 -6.70188 -0.992659 0
M  V30 2909 H 264.774 -7.06417 0.487867 0
M  V30 2910 H 265.182 -5.62363 -0.490762 0
M  V30 2911 N 264.58 -0.43555 -1.51462 0
M  V30 2912 C 265.857 0.191364 -1.94662 0
M  V30 2913 C 266.237 1.60254 -1.37411 0
M  V30 2914 O 265.585 2.2152 -0.560458 0
M  V30 2915 C 265.795 0.17091 -3.48581 0
M  V30 2916 C 267.143 0.377357 -4.2292 0
M  V30 2917 O 268.167 0.249104 -3.55328 0
M  V30 2918 O 267.026 0.63247 -5.42828 0
M  V30 2919 H 264.12 0.130932 -0.816569 0
M  V30 2920 H 266.666 -0.4934 -1.62369 0
M  V30 2921 H 265.438 -0.815738 -3.82703 0
M  V30 2922 H 265.061 0.898659 -3.87311 0
M  V30 2923 N 266.058 1.56714 -0.166846 0
M  V30 2924 C 267.021 2.16539 0.751232 0
M  V30 2925 C 268.021 1.11228 1.16125 0
M  V30 2926 O 269.211 1.36765 1.07894 0
M  V30 2927 C 266.343 2.74462 2.02196 0
M  V30 2928 H 267.536 2.99013 0.230499 0
M  V30 2929 H 265.089 1.56081 0.0826982 0
M  V30 2930 H 265.824 1.95709 2.58589 0
M  V30 2931 H 265.609 3.51527 1.73698 0
M  V30 2932 H 267.099 3.20489 2.67725 0
M  V30 2933 N 267.536 -0.106894 1.57237 0
M  V30 2934 C 268.783 -0.812526 1.85484 0
M  V30 2935 C 269.111 -1.79304 0.753687 0
M  V30 2936 O 268.366 -1.94047 -0.253853 0
M  V30 2937 C 268.665 -1.58628 3.20268 0
M  V30 2938 C 268.331 -0.748967 4.44636 0
M  V30 2939 C 266.993 -0.518104 4.78403 0
M  V30 2940 C 269.345 -0.166122 5.20935 0
M  V30 2941 C 266.673 0.305659 5.85903 0
M  V30 2942 C 269.025 0.644899 6.29304 0
M  V30 2943 C 267.689 0.885965 6.61594 0
M  V30 2944 H 266.959 -0.297324 0.678734 0
M  V30 2945 H 269.606 -0.0744332 1.91355 0
M  V30 2946 H 267.911 -2.39562 3.10028 0
M  V30 2947 H 269.608 -2.13643 3.39349 0
M  V30 2948 H 266.198 -0.939006 4.18187 0
M  V30 2949 H 270.382 -0.33167 4.95191 0
M  V30 2950 H 265.638 0.501528 6.0934 0
M  V30 2951 H 269.812 1.10345 6.87602 0
M  V30 2952 H 267.439 1.52609 7.44725 0
M  V30 2953 N 269.014 -1.53014 -0.377408 0
M  V30 2954 C 270.291 -1.59215 -1.13622 0
M  V30 2955 C 270.671 -0.392407 -2.07421 0
M  V30 2956 O 270.019 0.618342 -2.19975 0
M  V30 2957 C 270.229 -2.93669 -1.88573 0
M  V30 2958 C 271.577 -3.47822 -2.43526 0
M  V30 2959 O 272.601 -2.9562 -1.98715 0
M  V30 2960 O 271.46 -4.39055 -3.25412 0
M  V30 2961 H 268.554 -0.642625 -0.52054 0
M  V30 2962 H 271.1 -1.65353 -0.381625 0
M  V30 2963 H 269.872 -3.7243 -1.20048 0
M  V30 2964 H 269.495 -2.90968 -2.70968 0
M  V30 2965 N 270.492 0.636531 -1.44174 0
M  V30 2966 C 271.732 1.40781 -1.48189 0
M  V30 2967 C 272.096 1.91688 -0.10944 0
M  V30 2968 O 273.297 2.68789 -0.0242741 0
M  V30 2969 C 271.568 2.54575 -2.50851 0
M  V30 2970 S 273.127 3.4284 -2.73873 0
M  V30 2971 H 269.945 0.480345 -0.524204 0
M  V30 2972 H 272.547 0.737416 -1.81059 0
M  V30 2973 H 271.251 2.15478 -3.49281 0
M  V30 2974 H 270.782 3.26447 -2.19536 0
M  V30 2975 H 272.797 4.51846 -2.05059 0
M  V30 2976 N 271.97 1.30982 0.876444 0
M  V30 2977 C 272.9 1.20668 1.99903 0
M  V30 2978 C 273.881 0.095354 1.69833 0
M  V30 2979 O 275.066 0.27885 1.92188 0
M  V30 2980 C 272.196 0.90655 3.3526 0
M  V30 2981 C 271.15 1.97675 3.79617 0
M  V30 2982 C 270.476 1.52943 5.1236 0
M  V30 2983 C 271.776 3.389 3.97422 0
M  V30 2984 H 273.47 2.14586 2.0879 0
M  V30 2985 H 271.016 1.03308 1.00317 0
M  V30 2986 H 272.969 0.821025 4.13324 0
M  V30 2987 H 271.693 -0.0682969 3.26529 0
M  V30 2988 H 270.352 2.05205 3.03787 0
M  V30 2989 H 270 0.54262 5.00065 0
M  V30 2990 H 269.7 2.24532 5.43009 0
M  V30 2991 H 271.224 1.45786 5.92941 0
M  V30 2992 H 272.638 3.34081 4.659 0
M  V30 2993 H 271.035 4.0865 4.3946 0
M  V30 2994 H 272.105 3.80163 3.01006 0
M  V30 2995 N 273.449 -1.08991 1.13837 0
M  V30 2996 C 274.86 -1.62746 0.914917 0
M  V30 2997 C 275.211 -1.88403 -0.547594 0
M  V30 2998 O 274.336 -1.63706 -1.41525 0
M  V30 2999 C 274.931 -2.95662 1.65437 0
M  V30 3000 C 273.49 -3.46225 1.47666 0
M  V30 3001 C 272.637 -2.20562 1.6807 0
M  V30 3002 H 275.588 -0.922946 1.29102 0
M  V30 3003 H 275.609 -3.63825 1.11407 0
M  V30 3004 H 275.121 -2.76956 2.71877 0
M  V30 3005 H 273.222 -3.70046 0.435478 0
M  V30 3006 H 273.335 -4.23368 2.24268 0
M  V30 3007 H 271.699 -2.29439 1.10589 0
M  V30 3008 H 272.482 -2.0437 2.7584 0
M  V30 3009 N 274.927 -0.932562 -1.27047 0
M  V30 3010 C 275.857 -0.452902 -2.29066 0
M  V30 3011 C 276.838 0.489338 -1.62909 0
M  V30 3012 O 278.023 0.393046 -1.90181 0
M  V30 3013 C 275.153 0.290698 -3.46081 0
M  V30 3014 C 274.107 -0.564168 -4.24265 0
M  V30 3015 C 273.433 0.308886 -5.33807 0
M  V30 3016 C 274.733 -1.83112 -4.89149 0
M  V30 3017 H 276.427 -1.30552 -2.69437 0
M  V30 3018 H 273.973 -0.629201 -1.29526 0
M  V30 3019 H 275.926 0.637233 -4.16554 0
M  V30 3020 H 274.65 1.17738 -3.0464 0
M  V30 3021 H 273.309 -0.893477 -3.55545 0
M  V30 3022 H 272.957 1.19467 -4.88607 0
M  V30 3023 H 272.657 -0.259633 -5.87026 0
M  V30 3024 H 274.181 0.650884 -6.07121 0
M  V30 3025 H 275.595 -1.55236 -5.51883 0
M  V30 3026 H 273.992 -2.34353 -5.52448 0
M  V30 3027 H 275.062 -2.54772 -4.12576 0
M  V30 3028 N 276.405 1.4127 -0.698611 0
M  V30 3029 C 277.368 2.29158 -0.044132 0
M  V30 3030 C 278.368 1.44529 0.704841 0
M  V30 3031 O 279.558 1.65643 0.539276 0
M  V30 3032 C 276.69 3.27459 0.947809 0
M  V30 3033 H 277.883 2.88529 -0.817994 0
M  V30 3034 H 275.436 1.49307 -0.46228 0
M  V30 3035 H 276.171 2.73073 1.74933 0
M  V30 3036 H 275.956 3.8991 0.41385 0
M  V30 3037 H 277.446 3.93311 1.40344 0
M  V30 3038 N 277.883 0.443576 1.51229 0
M  V30 3039 C 278.846 -0.353132 2.26463 0
M  V30 3040 C 279.846 -0.944338 1.3015 0
M  V30 3041 O 281.036 -0.817813 1.5381 0
M  V30 3042 C 278.168 -1.50023 3.06114 0
M  V30 3043 H 279.361 0.3063 2.98332 0
M  V30 3044 H 276.914 0.196902 1.55055 0
M  V30 3045 H 277.649 -2.19553 2.38677 0
M  V30 3046 H 277.434 -1.08241 3.76864 0
M  V30 3047 H 278.924 -2.06296 3.63087 0
M  V30 3048 N 279.361 -1.56624 0.175154 0
M  V30 3049 C 280.291 -2.21155 -0.749195 0
M  V30 3050 C 281.272 -1.16836 -1.23626 0
M  V30 3051 O 282.457 -1.45277 -1.28873 0
M  V30 3052 C 279.587 -2.8553 -1.97711 0
M  V30 3053 C 278.541 -3.95921 -1.62575 0
M  V30 3054 C 277.867 -4.47365 -2.92864 0
M  V30 3055 C 279.167 -5.15323 -0.850838 0
M  V30 3056 H 280.861 -2.98653 -0.211295 0
M  V30 3057 H 278.407 -1.43651 -0.100188 0
M  V30 3058 H 280.36 -3.2935 -2.62881 0
M  V30 3059 H 279.084 -2.05406 -2.53921 0
M  V30 3060 H 277.743 -3.52762 -0.997719 0
M  V30 3061 H 277.391 -3.64027 -3.47122 0
M  V30 3062 H 277.091 -5.21839 -2.70106 0
M  V30 3063 H 278.615 -4.93873 -3.59056 0
M  V30 3064 H 280.029 -5.55812 -1.40521 0
M  V30 3065 H 278.426 -5.95739 -0.722154 0
M  V30 3066 H 279.496 -4.84661 0.152082 0
M  V30 3067 N 280.839 0.0985539 -1.57292 0
M  V30 3068 C 281.772 1.15082 -1.97057 0
M  V30 3069 C 282.75 1.39025 -0.843255 0
M  V30 3070 O 283.934 1.52842 -1.10325 0
M  V30 3071 C 281.061 2.50069 -2.28437 0
M  V30 3072 C 280.107 2.42428 -3.509 0
M  V30 3073 S 280.94 1.84414 -5.02744 0
M  V30 3074 C 282.096 3.21032 -5.37298 0
M  V30 3075 H 282.329 0.811815 -2.86002 0
M  V30 3076 H 279.862 0.306102 -1.51335 0
M  V30 3077 H 281.82 3.27729 -2.47192 0
M  V30 3078 H 280.481 2.8114 -1.40069 0
M  V30 3079 H 279.674 3.41911 -3.70288 0
M  V30 3080 H 279.276 1.72896 -3.31637 0
M  V30 3081 H 281.568 4.17297 -5.33731 0
M  V30 3082 H 282.511 3.06452 -6.38352 0
M  V30 3083 H 282.919 3.20404 -4.64759 0
M  V30 3084 N 282.317 1.53212 0.369288 0
M  V30 3085 C 283.265 1.80054 1.47253 0
M  V30 3086 C 284.259 0.669456 1.55611 0
M  V30 3087 O 285.465 0.852328 1.58541 0
M  V30 3088 H 281.84 0.570034 0.490475 0
M  V30 3089 H 283.811 2.72403 1.21817 0
M  V30 3090 C 282.56 2.00403 2.84137 0
M  V30 3091 H 281.883 2.86876 2.78464 0
M  V30 3092 H 283.323 2.23164 3.60519 0
M  V30 3093 C 281.782 0.782081 3.27697 0
M  V30 3094 O 282.312 -0.0310205 4.01688 0
M  V30 3095 N 280.518 0.606573 2.84199 0
M  V30 3096 H 280.065 1.26939 2.24152 0
M  V30 3097 H 280.023 -0.20962 3.137 0
M  V30 3098 N 283.795 -0.628877 1.44509 0
M  V30 3099 C 284.727 -1.754 1.47538 0
M  V30 3100 C 285.74 -1.58575 0.368506 0
M  V30 3101 O 286.929 -1.66847 0.634376 0
M  V30 3102 C 284.029 -3.1315 1.29577 0
M  V30 3103 C 283.202 -3.56413 2.53551 0
M  V30 3104 C 282.261 -4.7305 2.30457 0
M  V30 3105 O 281.287 -4.81247 3.03957 0
M  V30 3106 N 282.489 -5.64903 1.3366 0
M  V30 3107 H 285.254 -1.73272 2.44534 0
M  V30 3108 H 282.815 -0.813512 1.39977 0
M  V30 3109 H 284.807 -3.88902 1.11971 0
M  V30 3110 H 283.377 -3.09908 0.409371 0
M  V30 3111 H 282.597 -2.70847 2.86419 0
M  V30 3112 H 283.885 -3.82071 3.36005 0
M  V30 3113 H 283.283 -5.60975 0.729604 0
M  V30 3114 H 281.84 -6.40275 1.22032 0
M  V30 3115 N 285.273 -1.31445 -0.869486 0
M  V30 3116 C 286.205 -1.14955 -1.98287 0
M  V30 3117 C 287.218 -0.0885037 -1.62559 0
M  V30 3118 O 288.407 -0.336044 -1.75308 0
M  V30 3119 C 285.507 -0.734255 -3.3085 0
M  V30 3120 C 284.68 -1.88042 -3.94917 0
M  V30 3121 C 283.739 -1.4511 -5.05796 0
M  V30 3122 O 282.765 -2.16082 -5.2659 0
M  V30 3123 N 283.967 -0.338763 -5.79511 0
M  V30 3124 H 286.732 -2.10856 -2.12979 0
M  V30 3125 H 284.293 -1.23786 -1.04349 0
M  V30 3126 H 286.285 -0.42975 -4.02412 0
M  V30 3127 H 284.855 0.133158 -3.12316 0
M  V30 3128 H 284.075 -2.35222 -3.1633 0
M  V30 3129 H 285.363 -2.6481 -4.34457 0
M  V30 3130 H 284.761 0.252274 -5.65137 0
M  V30 3131 H 283.318 -0.0937925 -6.51733 0
M  V30 3132 N 286.751 1.08385 -1.14413 0
M  V30 3133 C 287.998 1.80776 -0.912482 0
M  V30 3134 C 288.326 1.86236 0.560934 0
M  V30 3135 O 287.581 1.33431 1.43159 0
M  V30 3136 C 287.88 3.26273 -1.45879 0
M  V30 3137 C 287.546 3.4093 -2.95089 0
M  V30 3138 C 286.208 3.44638 -3.35824 0
M  V30 3139 C 288.56 3.44591 -3.91033 0
M  V30 3140 C 285.888 3.49597 -4.71167 0
M  V30 3141 C 288.24 3.51086 -5.26233 0
M  V30 3142 C 286.904 3.53067 -5.6648 0
M  V30 3143 H 286.174 0.661507 -0.333901 0
M  V30 3144 H 288.821 1.27613 -1.42784 0
M  V30 3145 H 287.126 3.82146 -0.864376 0
M  V30 3146 H 288.823 3.80839 -1.2555 0
M  V30 3147 H 285.413 3.38736 -2.62594 0
M  V30 3148 H 289.597 3.40957 -3.60641 0
M  V30 3149 H 284.853 3.49424 -5.0171 0
M  V30 3150 H 289.027 3.52864 -6.00383 0
M  V30 3151 H 286.654 3.56662 -6.71339 0
M  V30 3152 N 288.23 0.939286 1.26551 0
M  V30 3153 C 289.16 0.465044 2.28822 0
M  V30 3154 C 290.141 -0.480692 1.63167 0
M  V30 3155 O 291.326 -0.382955 1.90387 0
M  V30 3156 C 288.456 -0.27234 3.46231 0
M  V30 3157 C 287.41 0.58666 4.2396 0
M  V30 3158 C 286.736 -0.280573 5.33963 0
M  V30 3159 C 288.036 1.85704 4.88171 0
M  V30 3160 H 289.73 1.31979 2.68741 0
M  V30 3161 H 287.276 0.636061 1.29191 0
M  V30 3162 H 289.229 -0.615133 4.16886 0
M  V30 3163 H 287.953 -1.16121 3.0526 0
M  V30 3164 H 286.612 0.91232 3.55067 0
M  V30 3165 H 286.26 -1.16874 4.89234 0
M  V30 3166 H 285.96 0.29076 5.8688 0
M  V30 3167 H 287.484 -0.618678 6.07458 0
M  V30 3168 H 288.898 1.58161 5.51052 0
M  V30 3169 H 287.295 2.37279 5.51197 0
M  V30 3170 H 288.365 2.56957 4.11219 0
M  V30 3171 N 289.708 -1.40897 0.706093 0
M  V30 3172 C 290.948 -2.02916 0.245827 0
M  V30 3173 C 291.312 -1.54751 -1.13649 0
M  V30 3174 O 292.513 -2.08768 -1.69321 0
M  V30 3175 C 290.784 -3.56031 0.312537 0
M  V30 3176 S 292.343 -4.38741 -0.0721388 0
M  V30 3177 H 289.161 -0.704186 0.0982007 0
M  V30 3178 H 291.763 -1.72168 0.926207 0
M  V30 3179 H 290.467 -3.88579 1.32039 0
M  V30 3180 H 289.998 -3.91495 -0.386641 0
M  V30 3181 H 292.013 -4.78952 -1.29692 0
M  V30 3182 N 291.186 -0.45159 -1.50991 0
M  V30 3183 C 292.432 0.110237 -2.025 0
M  V30 3184 C 292.765 1.41109 -1.33424 0
M  V30 3185 O 292.04 1.89135 -0.453659 0
M  V30 3186 C 292.323 0.314271 -3.58726 0
M  V30 3187 C 292.176 -1.00623 -4.38401 0
M  V30 3188 C 293.495 1.07767 -4.26702 0
M  V30 3189 H 290.614 0.0385897 -0.735989 0
M  V30 3190 H 293.256 -0.593374 -1.80497 0
M  V30 3191 H 291.406 0.913601 -3.77605 0
M  V30 3192 H 293.078 -1.64064 -4.31139 0
M  V30 3193 H 291.321 -1.6075 -4.02917 0
M  V30 3194 H 291.992 -0.817341 -5.45915 0
M  V30 3195 H 294.468 0.56986 -4.12179 0
M  V30 3196 H 293.344 1.18921 -5.35863 0
M  V30 3197 H 293.605 2.10939 -3.88532 0
M  V30 3198 N 292.664 1.56529 -0.183458 0
M  V30 3199 C 293.614 2.1515 0.754605 0
M  V30 3200 C 294.598 1.08904 1.18443 0
M  V30 3201 O 295.79 1.34997 1.14476 0
M  V30 3202 C 292.919 2.80531 1.97881 0
M  V30 3203 C 292.005 3.93952 1.57043 0
M  V30 3204 N 292.396 4.98221 0.87231 0
M  V30 3205 C 290.694 4.05338 1.86057 0
M  V30 3206 C 291.395 5.77836 0.669377 0
M  V30 3207 N 290.371 5.29858 1.21454 0
M  V30 3208 H 294.173 2.93132 0.212387 0
M  V30 3209 H 291.687 1.62391 0.0167725 0
M  V30 3210 H 293.684 3.20914 2.6612 0
M  V30 3211 H 292.344 2.04035 2.52586 0
M  V30 3212 H 293.355 5.15191 0.529033 0
M  V30 3213 H 290.032 3.39957 2.42354 0
M  V30 3214 H 291.422 6.71799 0.116422 0
M  V30 3215 N 294.142 -0.090211 1.57342 0
M  V30 3216 C 295.39 -0.791241 1.85967 0
M  V30 3217 C 295.711 -1.7903 0.772859 0
M  V30 3218 O 294.981 -1.94872 -0.200398 0
M  V30 3219 H 293.561 -0.295205 0.686195 0
M  V30 3220 H 296.223 -0.0706782 1.94772 0
M  V30 3221 H 295.319 -1.31882 2.82867 0
M  V30 3222 N 295.62 -1.53406 -0.361157 0
M  V30 3223 C 296.868 -1.69467 -1.10115 0
M  V30 3224 C 297.189 -0.451352 -1.89705 0
M  V30 3225 O 296.459 0.534636 -1.88463 0
M  V30 3226 H 295.039 -0.624749 -0.409508 0
M  V30 3227 H 297.701 -1.90609 -0.406699 0
M  V30 3228 H 296.797 -2.55774 -1.78847 0
M  V30 3229 N 297.098 0.621204 -1.44841 0
M  V30 3230 C 298.028 1.74366 -1.55303 0
M  V30 3231 C 299.009 1.65199 -0.405385 0
M  V30 3232 O 300.194 1.83807 -0.626787 0
M  V30 3233 C 297.324 3.12931 -1.50637 0
M  V30 3234 C 296.278 3.36896 -2.63979 0
M  V30 3235 C 295.604 4.75594 -2.44366 0
M  V30 3236 C 296.904 3.28483 -4.06074 0
M  V30 3237 H 298.598 1.65867 -2.49256 0
M  V30 3238 H 296.144 0.796558 -1.19962 0
M  V30 3239 H 298.097 3.9124 -1.56555 0
M  V30 3240 H 296.821 3.22237 -0.532057 0
M  V30 3241 H 295.48 2.60972 -2.57467 0
M  V30 3242 H 295.128 4.81616 -1.45105 0
M  V30 3243 H 294.828 4.92586 -3.20364 0
M  V30 3244 H 296.352 5.5612 -2.52117 0
M  V30 3245 H 297.766 3.96684 -4.13902 0
M  V30 3246 H 296.163 3.57008 -4.82354 0
M  V30 3247 H 297.233 2.26133 -4.28943 0
M  V30 3248 N 298.576 1.31904 0.862503 0
M  V30 3249 C 299.801 1.25135 1.65397 0
M  V30 3250 C 300.226 -0.179 1.87246 0
M  V30 3251 O 299.584 -1.1277 1.4196 0
M  V30 3252 C 299.632 2.00832 2.99498 0
M  V30 3253 O 298.736 1.35075 3.89652 0
M  V30 3254 H 298.077 0.431655 0.504549 0
M  V30 3255 H 300.607 1.74094 1.07483 0
M  V30 3256 H 300.617 2.10709 3.49379 0
M  V30 3257 H 299.292 3.04847 2.82916 0
M  V30 3258 H 297.869 1.33696 3.48109 0
M  V30 3259 N 300.054 -1.07777 1.14986 0
M  V30 3260 C 301.465 -1.61766 0.932127 0
M  V30 3261 C 301.816 -1.88974 -0.527581 0
M  V30 3262 O 300.941 -1.65198 -1.39781 0
M  V30 3263 C 301.536 -2.93891 1.68563 0
M  V30 3264 C 300.095 -3.44639 1.5133 0
M  V30 3265 C 299.242 -2.18767 1.704 0
M  V30 3266 H 302.193 -0.909201 1.30074 0
M  V30 3267 H 302.214 -3.62623 1.15259 0
M  V30 3268 H 301.726 -2.74057 2.74799 0
M  V30 3269 H 299.827 -3.69564 0.474702 0
M  V30 3270 H 299.94 -4.20966 2.28746 0
M  V30 3271 H 298.304 -2.28253 1.13016 0
M  V30 3272 H 299.087 -2.01433 2.77992 0
M  V30 3273 N 301.532 -0.945985 -1.26051 0
M  V30 3274 C 302.442 -0.465633 -2.29933 0
M  V30 3275 C 303.458 0.462761 -1.67733 0
M  V30 3276 O 304.634 0.341118 -1.9849 0
M  V30 3277 C 301.699 0.256994 -3.45746 0
M  V30 3278 C 300.76 -0.708549 -4.23412 0
M  V30 3279 C 299.993 -0.0203135 -5.33696 0
M  V30 3280 O 300.216 1.19571 -5.57726 0
M  V30 3281 O 299.15 -0.701459 -5.97799 0
M  V30 3282 H 302.976 -1.32866 -2.73094 0
M  V30 3283 H 300.561 -0.712071 -1.31339 0
M  V30 3284 H 302.443 0.663852 -4.16138 0
M  V30 3285 H 301.118 1.09533 -3.04605 0
M  V30 3286 H 300.025 -1.16545 -3.55483 0
M  V30 3287 H 301.358 -1.51465 -4.68315 0
M  V30 3288 N 303.011 1.40521 -0.713556 0
M  V30 3289 C 304.26 2.00155 -0.249192 0
M  V30 3290 C 304.573 1.57224 1.16362 0
M  V30 3291 O 305.779 2.09542 1.72639 0
M  V30 3292 C 304.235 3.5773 -0.3946 0
M  V30 3293 C 303.843 4.09635 -1.81392 0
M  V30 3294 C 305.587 4.24499 0.00907364 0
M  V30 3295 C 303.494 5.59707 -1.91003 0
M  V30 3296 H 302.424 0.74868 -0.0894114 0
M  V30 3297 H 305.075 1.60784 -0.884352 0
M  V30 3298 H 303.457 3.94792 0.30911 0
M  V30 3299 H 304.631 3.83955 -2.54785 0
M  V30 3300 H 302.946 3.55456 -2.16888 0
M  V30 3301 H 305.543 5.34683 -0.0420404 0
M  V30 3302 H 305.886 4.02824 1.05065 0
M  V30 3303 H 306.419 3.92536 -0.645007 0
M  V30 3304 H 303.158 5.86234 -2.93275 0
M  V30 3305 H 302.678 5.87258 -1.22019 0
M  V30 3306 H 304.357 6.24776 -1.6812 0
M  V30 3307 N 304.489 0.459591 1.5075 0
M  V30 3308 C 305.437 -0.354678 2.2988 0
M  V30 3309 C 306.431 -1.00086 1.36672 0
M  V30 3310 O 307.637 -0.933277 1.53915 0
M  V30 3311 H 304.012 -0.13321 0.740107 0
M  V30 3312 H 305.983 0.333269 2.96533 0
M  V30 3313 C 304.732 -1.43073 3.169 0
M  V30 3314 H 304.055 -0.942882 3.88523 0
M  V30 3315 H 305.495 -1.97328 3.75284 0
M  V30 3316 C 303.954 -2.42633 2.33732 0
M  V30 3317 O 304.484 -3.47658 2.01238 0
M  V30 3318 N 302.69 -2.14066 1.9653 0
M  V30 3319 H 302.237 -1.28685 2.23155 0
M  V30 3320 H 302.195 -2.80917 1.41185 0
M  V30 3321 N 305.967 -1.56429 0.191757 0
M  V30 3322 C 307.195 -2.01867 -0.453586 0
M  V30 3323 C 307.61 -1.07191 -1.5542 0
M  V30 3324 O 306.967 -0.0762108 -1.82341 0
M  V30 3325 C 307.018 -3.47017 -1.013 0
M  V30 3326 O 306.739 -4.38078 0.0437005 0
M  V30 3327 C 308.24 -4.07956 -1.73456 0
M  V30 3328 H 305.46 -0.661211 -0.114199 0
M  V30 3329 H 308.004 -2.02295 0.299483 0
M  V30 3330 H 306.159 -3.47298 -1.71647 0
M  V30 3331 H 306.573 -5.23178 -0.372212 0
M  V30 3332 H 308.047 -5.1138 -2.07833 0
M  V30 3333 H 308.524 -3.51222 -2.63704 0
M  V30 3334 H 309.13 -4.11437 -1.07702 0
M  V30 3335 N 307.445 0.0818655 -1.57387 0
M  V30 3336 C 308.375 1.09885 -2.06028 0
M  V30 3337 C 309.356 1.4098 -0.951774 0
M  V30 3338 O 310.541 1.50781 -1.22387 0
M  V30 3339 C 307.671 2.4151 -2.4958 0
M  V30 3340 C 306.625 2.24792 -3.64215 0
M  V30 3341 C 305.951 3.61712 -3.93787 0
M  V30 3342 C 307.251 1.67749 -4.94629 0
M  V30 3343 H 308.945 0.694128 -2.91243 0
M  V30 3344 H 306.491 0.332448 -1.4011 0
M  V30 3345 H 308.444 3.12939 -2.82219 0
M  V30 3346 H 307.168 2.83943 -1.61381 0
M  V30 3347 H 305.827 1.55807 -3.31843 0
M  V30 3348 H 305.475 4.01697 -3.02735 0
M  V30 3349 H 305.175 3.51368 -4.70971 0
M  V30 3350 H 306.699 4.34587 -4.28913 0
M  V30 3351 H 308.113 2.29032 -5.25564 0
M  V30 3352 H 306.51 1.68128 -5.76067 0
M  V30 3353 H 307.58 0.638059 -4.80684 0
M  V30 3354 N 308.923 1.53595 0.353017 0
M  V30 3355 C 310.2 1.61002 1.11075 0
M  V30 3356 C 310.58 0.425356 2.0677 0
M  V30 3357 O 309.928 -0.583267 2.2093 0
M  V30 3358 C 310.138 2.96631 1.83877 0
M  V30 3359 C 311.486 3.51653 2.37961 0
M  V30 3360 O 312.51 2.98743 1.93987 0
M  V30 3361 O 311.369 4.44177 3.18386 0
M  V30 3362 H 308.463 0.650825 0.510251 0
M  V30 3363 H 311.009 1.6594 0.35527 0
M  V30 3364 H 309.781 3.74293 1.14108 0
M  V30 3365 H 309.404 2.95242 2.66304 0
M  V30 3366 N 310.401 -0.613514 1.45168 0
M  V30 3367 C 311.678 -1.37263 1.39349 0
M  V30 3368 C 312.058 -2.11012 0.0610848 0
M  V30 3369 O 311.406 -2.07502 -0.956825 0
M  V30 3370 C 311.616 -2.3244 2.60332 0
M  V30 3371 C 312.964 -2.9523 3.05163 0
M  V30 3372 O 313.988 -2.42762 2.60663 0
M  V30 3373 O 312.847 -3.90454 3.82372 0
M  V30 3374 H 309.941 -0.615188 0.552696 0
M  V30 3375 H 312.487 -0.637097 1.57287 0
M  V30 3376 H 311.259 -1.77164 3.48896 0
M  V30 3377 H 310.882 -3.13383 2.44698 0
M  V30 3378 N 311.879 -1.3236 -0.855495 0
M  V30 3379 C 313.128 -1.22226 -1.60448 0
M  V30 3380 C 313.441 0.214733 -1.94418 0
M  V30 3381 O 314.647 0.437917 -2.67945 0
M  V30 3382 C 313.103 -2.14063 -2.89318 0
M  V30 3383 C 312.711 -3.62839 -2.62777 0
M  V30 3384 C 314.455 -2.12764 -3.67331 0
M  V30 3385 C 312.362 -4.4664 -3.87643 0
M  V30 3386 H 311.292 -0.453904 -0.602069 0
M  V30 3387 H 313.943 -1.57314 -0.944698 0
M  V30 3388 H 312.325 -1.71889 -3.5675 0
M  V30 3389 H 313.499 -4.1335 -2.03662 0
M  V30 3390 H 311.814 -3.66261 -1.98096 0
M  V30 3391 H 314.411 -2.72611 -4.59987 0
M  V30 3392 H 314.754 -1.11841 -4.00995 0
M  V30 3393 H 315.287 -2.53214 -3.06802 0
M  V30 3394 H 312.026 -5.48373 -3.5912 0
M  V30 3395 H 311.546 -4.0088 -4.46156 0
M  V30 3396 H 313.225 -4.59597 -4.55389 0
M  V30 3397 N 313.357 1.07166 -1.15556 0
M  V30 3398 C 314.773 1.31899 -0.898603 0
M  V30 3399 C 314.973 1.96333 0.453383 0
M  V30 3400 O 314.029 2.22438 1.19489 0
M  V30 3401 C 315.342 2.20826 -2.04099 0
M  V30 3402 C 316.89 2.34269 -2.07574 0
M  V30 3403 C 317.365 3.26546 -3.21141 0
M  V30 3404 N 318.856 3.34127 -3.20801 0
M  V30 3405 C 319.591 4.05595 -4.05315 0
M  V30 3406 N 319.087 4.79661 -4.99897 0
M  V30 3407 N 320.88 4.01555 -3.93332 0
M  V30 3408 H 313.031 0.637302 -2.02613 0
M  V30 3409 H 315.294 0.343468 -0.883591 0
M  V30 3410 H 315 1.80744 -3.01703 0
M  V30 3411 H 314.874 3.21364 -1.97496 0
M  V30 3412 H 317.261 2.73603 -1.10568 0
M  V30 3413 H 317.342 1.33429 -2.18244 0
M  V30 3414 H 316.986 2.87931 -4.184 0
M  V30 3415 H 316.916 4.27345 -3.07708 0
M  V30 3416 H 319.407 2.81336 -2.52306 0
M  V30 3417 H 319.72 5.31694 -5.60822 0
M  V30 3418 H 318.065 4.78671 -5.03884 0
M  V30 3419 H 321.256 3.42806 -3.18751 0
M  V30 3420 H 321.429 4.56987 -4.5942 0
M  V30 3421 N 314.835 0.952656 1.25548 0
M  V30 3422 C 315.782 0.47008 2.25962 0
M  V30 3423 C 316.752 -0.476384 1.59122 0
M  V30 3424 O 317.937 -0.39007 1.8677 0
M  V30 3425 C 315.077 -0.247881 3.44209 0
M  V30 3426 C 314.19 0.735591 4.25691 0
M  V30 3427 C 313.325 -0.0047306 5.312 0
M  V30 3428 C 312.364 0.969805 6.04368 0
M  V30 3429 N 311.501 0.260486 7.01617 0
M  V30 3430 H 316.341 1.33126 2.66611 0
M  V30 3431 H 313.878 0.66765 1.31076 0
M  V30 3432 H 315.836 -0.680695 4.1161 0
M  V30 3433 H 314.466 -1.07312 3.0444 0
M  V30 3434 H 313.518 1.28689 3.57971 0
M  V30 3435 H 314.83 1.47934 4.76358 0
M  V30 3436 H 313.984 -0.496275 6.04667 0
M  V30 3437 H 312.723 -0.781282 4.81401 0
M  V30 3438 H 311.728 1.47237 5.29718 0
M  V30 3439 H 312.953 1.74655 6.56256 0
M  V30 3440 H 310.899 -0.497364 6.54112 0
M  V30 3441 H 310.816 0.943362 7.50091 0
M  V30 3442 H 312.084 -0.209587 7.79218 0
M  V30 3443 N 316.313 -1.40141 0.720998 0
M  V30 3444 C 317.243 -2.33339 0.0867621 0
M  V30 3445 C 318.224 -1.53178 -0.739622 0
M  V30 3446 O 319.409 -1.81625 -0.687449 0
M  V30 3447 C 316.539 -3.37194 -0.831728 0
M  V30 3448 C 315.493 -4.27857 -0.110558 0
M  V30 3449 C 314.819 -5.22294 -1.14513 0
M  V30 3450 C 316.119 -5.11872 1.0385 0
M  V30 3451 H 317.813 -2.86626 0.865219 0
M  V30 3452 H 315.359 -1.37814 0.417516 0
M  V30 3453 H 317.312 -4.01335 -1.28485 0
M  V30 3454 H 316.036 -2.82314 -1.64214 0
M  V30 3455 H 314.695 -3.65176 0.322797 0
M  V30 3456 H 314.343 -4.63717 -1.94874 0
M  V30 3457 H 314.043 -5.83797 -0.667446 0
M  V30 3458 H 315.567 -5.89312 -1.59824 0
M  V30 3459 H 316.981 -5.69436 0.664482 0
M  V30 3460 H 315.378 -5.82445 1.4449 0
M  V30 3461 H 316.448 -4.4753 1.86668 0
M  V30 3462 N 317.792 -0.46758 -1.50504 0
M  V30 3463 C 319.069 0.15003 -1.95024 0
M  V30 3464 C 319.449 1.57304 -1.40779 0
M  V30 3465 O 318.797 2.20281 -0.607319 0
M  V30 3466 C 319.007 0.0969324 -3.48865 0
M  V30 3467 C 320.355 0.287565 -4.23625 0
M  V30 3468 O 321.379 0.173678 -3.55776 0
M  V30 3469 O 320.238 0.517186 -5.44047 0
M  V30 3470 H 317.332 0.113582 -0.819163 0
M  V30 3471 H 319.878 -0.52773 -1.61286 0
M  V30 3472 H 318.65 -0.896732 -3.80886 0
M  V30 3473 H 318.273 0.816303 -3.8913 0
M  V30 3474 N 319.27 1.56325 -0.20005 0
M  V30 3475 C 320.686 1.58839 0.155716 0
M  V30 3476 C 320.886 1.21636 1.60645 0
M  V30 3477 O 319.942 0.941437 2.34293 0
M  V30 3478 C 321.255 3.0032 -0.151124 0
M  V30 3479 C 322.803 3.12866 -0.0916284 0
M  V30 3480 C 323.278 4.56488 -0.371845 0
M  V30 3481 N 324.769 4.62089 -0.320641 0
M  V30 3482 C 325.504 5.71116 -0.511243 0
M  V30 3483 N 325 6.88592 -0.762461 0
M  V30 3484 N 326.793 5.60335 -0.445157 0
M  V30 3485 H 318.944 1.78788 -1.14668 0
M  V30 3486 H 321.207 0.829996 -0.458051 0
M  V30 3487 H 320.913 3.32117 -1.15721 0
M  V30 3488 H 320.787 3.73257 0.543986 0
M  V30 3489 H 323.174 2.80878 0.905065 0
M  V30 3490 H 323.255 2.42304 -0.81989 0
M  V30 3491 H 322.899 4.89189 -1.36588 0
M  V30 3492 H 322.829 5.25246 0.377362 0
M  V30 3493 H 325.32 3.77665 -0.13329 0
M  V30 3494 H 325.633 7.67581 -0.896576 0
M  V30 3495 H 323.978 6.90387 -0.799412 0
M  V30 3496 H 327.169 4.67436 -0.249278 0
M  V30 3497 H 327.342 6.45243 -0.597116 0
M  V30 3498 N 320.748 -0.0735177 1.57428 0
M  V30 3499 C 321.995 -0.772999 1.87166 0
M  V30 3500 C 322.323 -1.77665 0.791551 0
M  V30 3501 O 321.578 -1.94541 -0.212636 0
M  V30 3502 C 321.877 -1.51799 3.23561 0
M  V30 3503 C 321.543 -0.654484 4.46125 0
M  V30 3504 C 320.205 -0.416511 4.79394 0
M  V30 3505 C 322.557 -0.0555862 5.2117 0
M  V30 3506 C 319.885 0.429869 5.85123 0
M  V30 3507 C 322.237 0.778239 6.27795 0
M  V30 3508 C 320.901 1.0261 6.59566 0
M  V30 3509 H 320.171 -0.282861 0.684888 0
M  V30 3510 H 322.818 -0.0338272 1.9147 0
M  V30 3511 H 321.123 -2.32932 3.1504 0
M  V30 3512 H 322.82 -2.06397 3.43804 0
M  V30 3513 H 319.41 -0.850091 4.20085 0
M  V30 3514 H 323.594 -0.226558 4.95783 0
M  V30 3515 H 318.85 0.630665 6.08139 0
M  V30 3516 H 323.024 1.24906 6.85107 0
M  V30 3517 H 320.651 1.68371 7.4132 0
M  V30 3518 N 322.226 -1.5378 -0.344866 0
M  V30 3519 C 323.173 -1.81676 -1.42346 0
M  V30 3520 C 324.143 -0.662376 -1.52321 0
M  V30 3521 O 325.328 -0.906675 -1.67881 0
M  V30 3522 C 322.468 -2.03087 -2.79015 0
M  V30 3523 C 321.581 -3.30799 -2.77842 0
M  V30 3524 C 320.716 -3.42285 -4.0622 0
M  V30 3525 C 319.755 -4.6395 -3.9927 0
M  V30 3526 N 318.892 -4.72477 -5.19336 0
M  V30 3527 H 323.732 -2.73703 -1.17858 0
M  V30 3528 H 321.269 -1.35568 -0.570949 0
M  V30 3529 H 323.227 -2.1349 -3.58438 0
M  V30 3530 H 321.857 -1.14375 -3.01858 0
M  V30 3531 H 320.909 -3.29244 -1.90533 0
M  V30 3532 H 322.221 -4.20314 -2.68584 0
M  V30 3533 H 321.375 -3.52113 -4.94066 0
M  V30 3534 H 320.114 -2.50823 -4.18258 0
M  V30 3535 H 319.119 -4.54201 -3.09809 0
M  V30 3536 H 320.344 -5.56775 -3.88817 0
M  V30 3537 H 318.29 -3.83924 -5.3192 0
M  V30 3538 H 318.207 -5.55927 -5.12329 0
M  V30 3539 H 319.475 -4.86613 -6.08957 0
M  V30 3540 N 323.704 0.605807 -1.45491 0
M  V30 3541 C 324.614 1.74466 -1.56839 0
M  V30 3542 C 325.63 1.68006 -0.452772 0
M  V30 3543 O 326.806 1.8833 -0.713708 0
M  V30 3544 C 323.871 3.10931 -1.53371 0
M  V30 3545 C 322.932 3.28832 -2.75986 0
M  V30 3546 C 322.165 4.58787 -2.72673 0
M  V30 3547 O 322.388 5.4122 -1.80102 0
M  V30 3548 O 321.322 4.79438 -3.63899 0
M  V30 3549 H 325.148 1.67843 -2.53106 0
M  V30 3550 H 322.733 0.770108 -1.28022 0
M  V30 3551 H 324.615 3.92233 -1.54051 0
M  V30 3552 H 323.29 3.18042 -0.602572 0
M  V30 3553 H 322.197 2.47112 -2.80867 0
M  V30 3554 H 323.53 3.26599 -3.68231 0
M  V30 3555 N 325.182 1.32811 0.848464 0
M  V30 3556 C 326.593 1.21315 1.41914 0
M  V30 3557 C 326.944 -0.171847 1.95446 0
M  V30 3558 O 326.069 -1.07093 1.88043 0
M  V30 3559 C 326.664 2.19631 2.57968 0
M  V30 3560 C 325.223 2.12003 3.11017 0
M  V30 3561 C 324.37 2.07651 1.83783 0
M  V30 3562 H 327.321 1.44549 0.655071 0
M  V30 3563 H 327.342 1.79845 3.35315 0
M  V30 3564 H 326.854 3.20423 2.18976 0
M  V30 3565 H 324.955 1.14481 3.54577 0
M  V30 3566 H 325.068 3.02111 3.71841 0
M  V30 3567 H 323.432 1.52983 2.03638 0
M  V30 3568 H 324.215 3.10235 1.47 0
M  V30 3569 N 326.66 -1.06551 1.16123 0
M  V30 3570 C 328.071 -1.60768 0.949232 0
M  V30 3571 C 328.422 -1.89523 -0.507508 0
M  V30 3572 O 327.547 -1.66671 -1.38021 0
M  V30 3573 C 328.142 -2.92086 1.71671 0
M  V30 3574 C 326.701 -3.43015 1.54977 0
M  V30 3575 C 325.848 -2.16947 1.72711 0
M  V30 3576 H 328.799 -0.895354 1.31031 0
M  V30 3577 H 328.82 -3.6138 1.19099 0
M  V30 3578 H 328.332 -2.71127 2.7769 0
M  V30 3579 H 326.433 -3.69039 0.513873 0
M  V30 3580 H 326.546 -4.18516 2.33198 0
M  V30 3581 H 324.91 -2.27041 1.15431 0
M  V30 3582 H 325.693 -1.98473 2.80113 0
M  V30 3583 N 328.138 -0.959301 -1.25041 0
M  V30 3584 C 329.101 -0.487677 -2.23952 0
M  V30 3585 C 330.101 0.41119 -1.55454 0
M  V30 3586 O 331.291 0.207825 -1.72956 0
M  V30 3587 C 328.423 0.294807 -3.39623 0
M  V30 3588 H 329.616 -1.36198 -2.67189 0
M  V30 3589 H 327.169 -0.743042 -1.37508 0
M  V30 3590 H 327.904 1.18658 -3.01813 0
M  V30 3591 H 327.689 -0.35012 -3.90534 0
M  V30 3592 H 329.179 0.614089 -4.1306 0
M  V30 3593 N 329.616 1.39756 -0.72842 0
M  V30 3594 C 330.846 2.04651 -0.283117 0
M  V30 3595 C 331.254 1.5502 1.08469 0
M  V30 3596 O 330.597 0.707343 1.69536 0
M  V30 3597 C 330.659 3.58947 -0.199309 0
M  V30 3598 C 330.323 4.31525 -1.5045 0
M  V30 3599 C 331.32 4.5861 -2.44894 0
M  V30 3600 C 329.005 4.70195 -1.76698 0
M  V30 3601 C 330.999 5.23366 -3.63822 0
M  V30 3602 C 328.686 5.3468 -2.95906 0
M  V30 3603 C 329.684 5.61198 -3.89289 0
M  V30 3604 O 329.372 6.24347 -5.06404 0
M  V30 3605 H 329.104 0.664777 -0.122666 0
M  V30 3606 H 331.658 1.79913 -0.990987 0
M  V30 3607 H 329.888 3.82556 0.56461 0
M  V30 3608 H 331.577 4.0534 0.213125 0
M  V30 3609 H 332.343 4.29187 -2.25883 0
M  V30 3610 H 328.222 4.48916 -1.04859 0
M  V30 3611 H 331.766 5.4398 -4.36728 0
M  V30 3612 H 327.663 5.63524 -3.14819 0
M  V30 3613 H 328.431 6.42842 -5.06652 0
M  V30 3614 N 331.094 0.475555 1.50254 0
M  V30 3615 C 332.342 -0.077738 2.0195 0
M  V30 3616 C 332.663 -1.39813 1.35931 0
M  V30 3617 O 331.933 -1.89249 0.506123 0
M  V30 3618 H 330.513 -0.031719 0.746326 0
M  V30 3619 H 333.175 0.626995 1.84539 0
M  V30 3620 H 332.271 -0.225995 3.11281 0
M  V30 3621 N 332.573 -1.56217 0.208337 0
M  V30 3622 C 333.984 -1.84243 -0.301904 0
M  V30 3623 C 334.335 -1.12939 -1.60434 0
M  V30 3624 O 333.46 -0.39461 -2.12772 0
M  V30 3625 C 334.055 -3.34231 -0.554543 0
M  V30 3626 C 332.614 -3.62621 -1.00912 0
M  V30 3627 C 331.761 -2.77224 -0.064933 0
M  V30 3628 H 334.712 -1.52712 0.431833 0
M  V30 3629 H 334.733 -3.5372 -1.40223 0
M  V30 3630 H 334.245 -3.86099 0.393561 0
M  V30 3631 H 332.346 -3.16197 -1.97104 0
M  V30 3632 H 332.459 -4.7071 -0.892674 0
M  V30 3633 H 330.823 -2.48256 -0.56929 0
M  V30 3634 H 331.606 -3.31887 0.877851 0
M  V30 3635 N 334.051 0.0651679 -1.57465 0
M  V30 3636 C 334.984 1.10876 -1.99453 0
M  V30 3637 C 335.962 1.37205 -0.872555 0
M  V30 3638 O 337.146 1.50468 -1.13542 0
M  V30 3639 C 334.273 2.45167 -2.3369 0
M  V30 3640 C 333.319 2.3493 -3.55964 0
M  V30 3641 S 334.152 1.73708 -5.06543 0
M  V30 3642 C 335.308 3.09563 -5.43987 0
M  V30 3643 H 335.541 0.750967 -2.87659 0
M  V30 3644 H 333.074 0.273933 -1.51951 0
M  V30 3645 H 335.032 3.22412 -2.54088 0
M  V30 3646 H 333.693 2.78105 -1.46001 0
M  V30 3647 H 332.886 3.3398 -3.77457 0
M  V30 3648 H 332.488 1.65823 -3.3523 0
M  V30 3649 H 334.78 4.05882 -5.42463 0
M  V30 3650 H 335.723 2.92843 -6.44708 0
M  V30 3651 H 336.131 3.10474 -4.71451 0
M  V30 3652 N 335.529 1.53961 0.336706 0
M  V30 3653 C 336.769 1.73254 1.08454 0
M  V30 3654 C 337.133 0.488937 1.8567 0
M  V30 3655 O 338.334 0.559001 2.62923 0
M  V30 3656 C 336.605 2.96519 1.99528 0
M  V30 3657 S 338.164 3.36655 2.81441 0
M  V30 3658 H 334.982 0.609353 0.366347 0
M  V30 3659 H 337.584 1.92117 0.362124 0
M  V30 3660 H 336.288 3.85193 1.41614 0
M  V30 3661 H 335.819 2.80142 2.76196 0
M  V30 3662 H 337.834 2.90925 4.01967 0
M  V30 3663 N 337.007 -0.598083 1.45811 0
M  V30 3664 C 338.284 -1.35777 1.40797 0
M  V30 3665 C 338.664 -2.10935 0.083462 0
M  V30 3666 O 338.012 -2.08505 -0.934763 0
M  V30 3667 C 338.222 -2.29666 2.62783 0
M  V30 3668 C 339.57 -2.91977 3.08277 0
M  V30 3669 O 340.594 -2.39984 2.63223 0
M  V30 3670 O 339.453 -3.86376 3.86491 0
M  V30 3671 H 336.547 -0.609291 0.55919 0
M  V30 3672 H 339.093 -0.620379 1.57954 0
M  V30 3673 H 337.865 -1.73454 3.50756 0
M  V30 3674 H 337.488 -3.1077 2.48008 0
M  V30 3675 N 338.485 -1.33259 -0.841409 0
M  V30 3676 C 339.734 -1.23921 -1.59143 0
M  V30 3677 C 340.047 0.1941 -1.94635 0
M  V30 3678 O 341.253 0.409474 -2.68394 0
M  V30 3679 C 339.709 -2.17119 -2.87032 0
M  V30 3680 C 339.317 -3.65606 -2.58914 0
M  V30 3681 C 341.061 -2.16648 -3.65053 0
M  V30 3682 C 338.968 -4.50726 -3.82884 0
M  V30 3683 H 337.898 -0.460264 -0.597221 0
M  V30 3684 H 340.549 -1.58307 -0.927959 0
M  V30 3685 H 338.931 -1.75663 -3.54906 0
M  V30 3686 H 340.105 -4.15487 -1.99267 0
M  V30 3687 H 338.42 -3.68341 -1.942 0
M  V30 3688 H 341.017 -2.77474 -4.57069 0
M  V30 3689 H 341.36 -1.16088 -3.99787 0
M  V30 3690 H 341.893 -2.56453 -3.041 0
M  V30 3691 H 338.632 -5.52151 -3.53283 0
M  V30 3692 H 338.152 -4.0559 -4.41879 0
M  V30 3693 H 339.831 -4.64401 -4.50489 0
M  V30 3694 N 339.963 1.05934 -1.16686 0
M  V30 3695 C 340.893 2.1546 -0.899949 0
M  V30 3696 C 341.874 1.69391 0.155154 0
M  V30 3697 O 343.059 1.94199 0.00648693 0
M  V30 3698 C 340.189 3.44939 -0.404241 0
M  V30 3699 C 339.143 4.04536 -1.39767 0
M  V30 3700 C 338.469 5.29268 -0.760216 0
M  V30 3701 C 339.769 4.42893 -2.76845 0
M  V30 3702 H 341.463 2.38046 -1.81588 0
M  V30 3703 H 339.009 1.14404 -0.874514 0
M  V30 3704 H 340.962 4.20901 -0.204971 0
M  V30 3705 H 339.686 3.21983 0.547206 0
M  V30 3706 H 338.345 3.30635 -1.58355 0
M  V30 3707 H 337.993 5.02611 0.197831 0
M  V30 3708 H 337.693 5.70101 -1.42332 0
M  V30 3709 H 339.217 6.07924 -0.57105 0
M  V30 3710 H 340.631 5.09921 -2.62019 0
M  V30 3711 H 339.028 4.94721 -3.39663 0
M  V30 3712 H 340.098 3.53584 -3.31823 0
M  V30 3713 N 341.441 0.965919 1.2453 0
M  V30 3714 C 342.687 0.637349 1.93156 0
M  V30 3715 C 343.042 -0.818261 1.74133 0
M  V30 3716 O 342.335 -1.58079 1.08266 0
M  V30 3717 C 342.529 0.945428 3.44669 0
M  V30 3718 C 342.358 2.42944 3.78429 0
M  V30 3719 C 341.128 3.08895 3.9989 0
M  V30 3720 C 343.326 3.40941 3.8505 0
M  V30 3721 N 341.308 4.47052 4.20735 0
M  V30 3722 C 342.679 4.64448 4.10717 0
M  V30 3723 C 344.734 3.35624 3.67779 0
M  V30 3724 C 343.437 5.83292 4.20907 0
M  V30 3725 C 345.463 4.53818 3.79214 0
M  V30 3726 C 344.825 5.76114 4.05304 0
M  V30 3727 H 340.924 0.284034 0.728594 0
M  V30 3728 H 343.508 1.24041 1.50073 0
M  V30 3729 H 341.679 0.371193 3.86622 0
M  V30 3730 H 343.411 0.575613 4.00586 0
M  V30 3731 H 340.166 2.59432 3.96222 0
M  V30 3732 H 340.59 5.18634 4.35141 0
M  V30 3733 H 345.232 2.4211 3.46616 0
M  V30 3734 H 342.95 6.77236 4.40883 0
M  V30 3735 H 346.536 4.51263 3.67224 0
M  V30 3736 H 345.416 6.66045 4.13949 0
M  V30 3737 N 342.919 -1.39368 0.735821 0
M  V30 3738 C 344.144 -2.05319 0.293052 0
M  V30 3739 C 344.569 -1.55115 -1.064 0
M  V30 3740 O 343.927 -0.695261 -1.67439 0
M  V30 3741 C 343.975 -3.59305 0.305323 0
M  V30 3742 O 343.079 -4.06299 -0.706761 0
M  V30 3743 H 342.42 -0.650529 0.13307 0
M  V30 3744 H 344.95 -1.78386 1.00197 0
M  V30 3745 H 344.96 -4.07724 0.149997 0
M  V30 3746 H 343.635 -3.95207 1.29553 0
M  V30 3747 H 342.212 -3.69292 -0.517504 0
M  V30 3748 N 344.397 -0.483516 -1.5 0
M  V30 3749 C 345.674 0.129337 -1.95172 0
M  V30 3750 C 346.054 1.55802 -1.4244 0
M  V30 3751 O 345.402 2.19625 -0.630649 0
M  V30 3752 C 345.612 0.0599251 -3.48949 0
M  V30 3753 C 346.96 0.242617 -4.23906 0
M  V30 3754 O 347.984 0.135933 -3.55941 0
M  V30 3755 O 346.843 0.459454 -5.44565 0
M  V30 3756 H 343.937 0.104887 -0.820322 0
M  V30 3757 H 346.483 -0.544807 -1.60717 0
M  V30 3758 H 345.255 -0.937079 -3.79914 0
M  V30 3759 H 344.878 0.774984 -3.89974 0
M  V30 3760 N 345.875 1.56104 -0.216619 0
M  V30 3761 C 347.286 1.844 0.292128 0
M  V30 3762 C 347.637 1.13788 1.59833 0
M  V30 3763 O 346.762 0.405888 2.12559 0
M  V30 3764 C 347.357 3.3452 0.53681 0
M  V30 3765 C 345.916 3.63151 0.989876 0
M  V30 3766 C 345.063 2.77255 0.0502302 0
M  V30 3767 H 348.014 1.52481 -0.439926 0
M  V30 3768 H 348.035 3.54459 1.38345 0
M  V30 3769 H 347.547 3.85885 -0.414031 0
M  V30 3770 H 345.648 3.17238 1.95425 0
M  V30 3771 H 345.761 4.71177 0.867698 0
M  V30 3772 H 344.125 2.48555 0.556117 0
M  V30 3773 H 344.908 3.31416 -0.89544 0
M  V30 3774 N 347.353 -0.0568162 1.57498 0
M  V30 3775 C 348.283 -1.06593 2.0775 0
M  V30 3776 C 349.264 -1.39448 0.974082 0
M  V30 3777 O 350.449 -1.48815 1.24771 0
M  V30 3778 C 347.579 -2.37509 2.5339 0
M  V30 3779 C 346.533 -2.1897 3.67745 0
M  V30 3780 C 345.859 -3.55402 3.99492 0
M  V30 3781 C 347.159 -1.59859 4.97235 0
M  V30 3782 H 348.853 -0.647706 2.9231 0
M  V30 3783 H 346.399 -0.310116 1.40621 0
M  V30 3784 H 348.352 -3.08409 2.87162 0
M  V30 3785 H 347.076 -2.8134 1.65878 0
M  V30 3786 H 345.735 -1.50508 3.3428 0
M  V30 3787 H 345.383 -3.9683 3.09088 0
M  V30 3788 H 345.083 -3.43831 4.76502 0
M  V30 3789 H 346.607 -4.27708 4.35773 0
M  V30 3790 H 348.021 -2.20642 5.29141 0
M  V30 3791 H 346.418 -1.58942 5.78669 0
M  V30 3792 H 347.488 -0.561506 4.81638 0
M  V30 3793 N 348.832 -1.54138 -0.328536 0
M  V30 3794 C 349.742 -1.86192 -1.42723 0
M  V30 3795 C 350.758 -0.753382 -1.56844 0
M  V30 3796 O 351.934 -1.04718 -1.72035 0
M  V30 3797 C 348.999 -2.07824 -2.77507 0
M  V30 3798 C 348.06 -3.31641 -2.72603 0
M  V30 3799 C 347.293 -3.52232 -4.00959 0
M  V30 3800 O 347.516 -2.7636 -4.9898 0
M  V30 3801 O 346.45 -4.45699 -4.0452 0
M  V30 3802 H 350.276 -2.79608 -1.18547 0
M  V30 3803 H 347.861 -1.3998 -0.522104 0
M  V30 3804 H 349.743 -2.23411 -3.57303 0
M  V30 3805 H 348.418 -1.17596 -3.01584 0
M  V30 3806 H 347.325 -3.21444 -1.91376 0
M  V30 3807 H 348.658 -4.2191 -2.53481 0
M  V30 3808 N 350.31 0.590341 -1.46126 0
M  V30 3809 C 351.587 1.35029 -1.41515 0
M  V30 3810 C 351.967 2.10888 -0.0946472 0
M  V30 3811 O 351.315 2.08998 0.923693 0
M  V30 3812 C 351.525 2.28269 -2.63997 0
M  V30 3813 C 352.873 2.90338 -3.09821 0
M  V30 3814 O 353.897 2.38585 -2.64492 0
M  V30 3815 O 352.756 3.84321 -3.88535 0
M  V30 3816 H 349.85 0.606317 -0.562413 0
M  V30 3817 H 352.396 0.611994 -1.58281 0
M  V30 3818 H 351.168 1.71591 -3.51671 0
M  V30 3819 H 350.791 3.0945 -2.49652 0
M  V30 3820 N 351.788 1.33704 0.83433 0
M  V30 3821 C 353.035 1.25417 1.58987 0
M  V30 3822 C 353.363 -0.178869 1.93676 0
M  V30 3823 O 352.618 -1.13723 1.59265 0
M  V30 3824 C 352.917 2.07926 2.90692 0
M  V30 3825 C 352.583 3.57066 2.75345 0
M  V30 3826 C 351.245 3.97724 2.70867 0
M  V30 3827 C 353.597 4.51817 2.59828 0
M  V30 3828 C 350.925 5.31344 2.48778 0
M  V30 3829 C 353.277 5.85604 2.39272 0
M  V30 3830 C 351.941 6.25439 2.33199 0
M  V30 3831 H 351.211 0.458934 0.581774 0
M  V30 3832 H 353.858 1.65335 0.966261 0
M  V30 3833 H 352.163 1.608 3.57282 0
M  V30 3834 H 353.86 1.98868 3.48213 0
M  V30 3835 H 350.45 3.24785 2.79665 0
M  V30 3836 H 354.634 4.21311 2.62319 0
M  V30 3837 H 349.89 5.61241 2.42526 0
M  V30 3838 H 354.064 6.58623 2.2625 0
M  V30 3839 H 351.691 7.28914 2.15843 0
M  V30 3840 N 353.266 -1.05314 1.17247 0
M  V30 3841 C 354.514 -1.77941 0.958194 0
M  V30 3842 C 354.835 -1.88089 -0.514556 0
M  V30 3843 O 354.105 -1.39676 -1.37359 0
M  V30 3844 H 352.685 -0.659116 0.351533 0
M  V30 3845 H 355.347 -1.27166 1.47699 0
M  V30 3846 H 354.443 -2.79663 1.38546 0
M  V30 3847 N 354.744 -0.972509 -1.24016 0
M  V30 3848 C 355.692 -0.498562 -2.27194 0
M  V30 3849 C 356.686 0.440372 -1.63576 0
M  V30 3850 O 357.892 0.315133 -1.7722 0
M  V30 3851 H 354.267 -0.142775 -0.738322 0
M  V30 3852 H 356.238 -1.38065 -2.64539 0
M  V30 3853 C 354.987 0.191072 -3.47175 0
M  V30 3854 H 354.31 -0.522318 -3.96373 0
M  V30 3855 H 355.75 0.486445 -4.212 0
M  V30 3856 C 354.209 1.41967 -3.05527 0
M  V30 3857 O 354.739 2.51642 -3.13112 0
M  V30 3858 N 352.945 1.28746 -2.60524 0
M  V30 3859 H 352.492 0.395089 -2.54552 0
M  V30 3860 H 352.45 2.11061 -2.33025 0
M  V30 3861 N 356.222 1.38976 -0.743202 0
M  V30 3862 C 357.132 2.3434 -0.110399 0
M  V30 3863 C 358.148 1.58741 0.712559 0
M  V30 3864 O 359.324 1.9099 0.639125 0
M  V30 3865 C 356.389 3.37812 0.780012 0
M  V30 3866 C 355.45 4.29263 -0.0561319 0
M  V30 3867 C 354.683 5.27793 0.791875 0
M  V30 3868 O 354.906 5.33043 2.03031 0
M  V30 3869 O 353.84 6.01512 0.216183 0
M  V30 3870 H 357.666 2.90129 -0.897714 0
M  V30 3871 H 355.251 1.40643 -0.503966 0
M  V30 3872 H 357.133 4.01194 1.28923 0
M  V30 3873 H 355.808 2.84395 1.546 0
M  V30 3874 H 354.715 3.69076 -0.611056 0
M  V30 3875 H 356.048 4.85907 -0.784531 0
M  V30 3876 N 357.7 0.491464 1.49741 0
M  V30 3877 C 358.647 -0.292027 2.28945 0
M  V30 3878 C 359.617 -0.968973 1.34908 0
M  V30 3879 O 360.802 -0.97748 1.6386 0
M  V30 3880 C 357.942 -1.35617 3.17336 0
M  V30 3881 C 357.055 -0.691957 4.26422 0
M  V30 3882 C 356.19 -1.73572 5.02042 0
M  V30 3883 C 355.229 -1.05286 6.02977 0
M  V30 3884 N 354.366 -2.0404 6.71798 0
M  V30 3885 H 359.206 0.389654 2.95442 0
M  V30 3886 H 356.743 0.204003 1.45679 0
M  V30 3887 H 358.701 -1.98502 3.66951 0
M  V30 3888 H 357.331 -2.00674 2.52844 0
M  V30 3889 H 356.383 0.0499523 3.80367 0
M  V30 3890 H 357.695 -0.153946 4.98562 0
M  V30 3891 H 356.849 -2.43987 5.55478 0
M  V30 3892 H 355.588 -2.30757 4.29654 0
M  V30 3893 H 354.593 -0.334446 5.48782 0
M  V30 3894 H 355.818 -0.487636 6.77347 0
M  V30 3895 H 353.764 -2.60205 6.02187 0
M  V30 3896 H 353.681 -1.55279 7.39881 0
M  V30 3897 H 354.949 -2.73772 7.29842 0
M  V30 3898 N 359.178 -1.55987 0.224894 0
M  V30 3899 C 360.406 -2.02784 -0.410665 0
M  V30 3900 C 360.821 -1.10464 -1.53112 0
M  V30 3901 O 360.178 -0.114871 -1.82138 0
M  V30 3902 C 360.229 -3.49087 -0.939165 0
M  V30 3903 O 359.95 -4.37887 0.136614 0
M  V30 3904 C 361.451 -4.11543 -1.64763 0
M  V30 3905 H 358.671 -0.663484 -0.100148 0
M  V30 3906 H 361.215 -2.01614 0.342326 0
M  V30 3907 H 359.37 -3.50861 -1.64242 0
M  V30 3908 H 359.784 -5.23849 -0.261155 0
M  V30 3909 H 361.258 -5.15673 -1.96939 0
M  V30 3910 H 361.735 -3.56736 -2.56195 0
M  V30 3911 H 362.341 -4.13629 -0.989503 0
M  V30 3912 N 360.656 0.0484629 -1.57525 0
M  V30 3913 C 361.588 1.08222 -2.02041 0
M  V30 3914 C 362.601 1.33621 -0.930012 0
M  V30 3915 O 363.79 1.3145 -1.20761 0
M  V30 3916 C 360.89 2.42818 -2.36416 0
M  V30 3917 C 360.063 2.37049 -3.67596 0
M  V30 3918 C 359.122 3.53937 -3.89378 0
M  V30 3919 O 358.148 3.34308 -4.60681 0
M  V30 3920 N 359.35 4.75126 -3.3352 0
M  V30 3921 H 362.115 0.702946 -2.9134 0
M  V30 3922 H 359.676 0.236745 -1.6016 0
M  V30 3923 H 361.668 3.197 -2.48141 0
M  V30 3924 H 360.238 2.72661 -1.52888 0
M  V30 3925 H 359.458 1.45395 -3.66407 0
M  V30 3926 H 360.746 2.30318 -4.53686 0
M  V30 3927 H 360.144 4.93976 -2.75688 0
M  V30 3928 H 358.701 5.49439 -3.50656 0
M  V30 3929 N 362.134 1.5431 0.320358 0
M  V30 3930 C 363.044 1.86946 1.41734 0
M  V30 3931 C 364.06 0.761689 1.56443 0
M  V30 3932 O 365.236 1.05629 1.71477 0
M  V30 3933 C 362.301 2.09293 2.76401 0
M  V30 3934 C 361.362 3.33082 2.70841 0
M  V30 3935 C 360.595 3.54353 3.99086 0
M  V30 3936 O 360.818 2.79002 4.97508 0
M  V30 3937 O 359.752 4.47838 4.0215 0
M  V30 3938 H 363.578 2.80232 1.17062 0
M  V30 3939 H 361.163 1.40255 0.514673 0
M  V30 3940 H 363.045 2.25303 3.56113 0
M  V30 3941 H 361.72 1.19194 3.00956 0
M  V30 3942 H 360.627 3.22454 1.89668 0
M  V30 3943 H 361.96 4.23249 2.5124 0
M  V30 3944 N 363.613 -0.582584 1.46437 0
M  V30 3945 C 364.563 -1.68654 1.53426 0
M  V30 3946 C 365.547 -1.55971 0.395194 0
M  V30 3947 O 366.739 -1.64884 0.643612 0
M  V30 3948 C 363.868 -3.07439 1.52762 0
M  V30 3949 C 362.954 -3.25418 2.71963 0
M  V30 3950 N 363.345 -3.13556 3.96883 0
M  V30 3951 C 361.643 -3.56357 2.68189 0
M  V30 3952 C 362.344 -3.33543 4.76575 0
M  V30 3953 N 361.32 -3.58704 4.08451 0
M  V30 3954 H 365.122 -1.58014 2.47808 0
M  V30 3955 H 362.636 -0.786617 1.42078 0
M  V30 3956 H 364.633 -3.86671 1.55857 0
M  V30 3957 H 363.293 -3.1921 0.594573 0
M  V30 3958 H 364.304 -2.9142 4.28129 0
M  V30 3959 H 360.981 -3.74812 1.83908 0
M  V30 3960 H 362.371 -3.29555 5.85528 0
M  V30 3961 N 365.091 -1.34144 -0.827227 0
M  V30 3962 C 366.338 -1.26258 -1.58319 0
M  V30 3963 C 366.666 0.168595 -1.93768 0
M  V30 3964 O 365.921 1.12877 -1.59866 0
M  V30 3965 C 366.22 -2.09464 -2.89585 0
M  V30 3966 C 365.886 -3.58521 -2.73448 0
M  V30 3967 C 364.548 -3.99155 -2.68754 0
M  V30 3968 C 366.9 -4.53189 -2.57428 0
M  V30 3969 C 364.228 -5.32656 -2.45957 0
M  V30 3970 C 366.58 -5.86864 -2.36163 0
M  V30 3971 C 365.244 -6.26667 -2.29879 0
M  V30 3972 H 364.514 -0.462013 -0.579332 0
M  V30 3973 H 367.161 -1.65845 -0.95748 0
M  V30 3974 H 365.466 -1.62692 -3.56425 0
M  V30 3975 H 367.163 -2.00712 -3.47154 0
M  V30 3976 H 363.753 -3.26264 -2.77939 0
M  V30 3977 H 367.937 -4.22696 -2.60081 0
M  V30 3978 H 363.193 -5.62519 -2.39546 0
M  V30 3979 H 367.367 -6.59813 -2.22754 0
M  V30 3980 H 364.994 -7.30049 -2.11975 0
M  V30 3981 N 366.569 1.04691 -1.17803 0
M  V30 3982 C 367.797 1.81446 -0.99423 0
M  V30 3983 C 368.212 1.83174 0.457459 0
M  V30 3984 O 367.569 1.26265 1.31771 0
M  V30 3985 C 367.62 3.27334 -1.5341 0
M  V30 3986 O 367.341 3.25798 -2.92895 0
M  V30 3987 C 368.842 4.20759 -1.39559 0
M  V30 3988 H 366.062 0.571599 -0.351447 0
M  V30 3989 H 368.606 1.31982 -1.56208 0
M  V30 3990 H 366.761 3.74052 -1.00815 0
M  V30 3991 H 367.175 4.17144 -3.17949 0
M  V30 3992 H 368.649 5.21084 -1.82141 0
M  V30 3993 H 369.126 4.37856 -0.343394 0
M  V30 3994 H 369.732 3.79901 -1.91195 0
M  V30 3995 N 368.047 0.979072 1.23499 0
M  V30 3996 C 368.997 0.489378 2.22686 0
M  V30 3997 C 369.981 -0.434871 1.54912 0
M  V30 3998 O 371.173 -0.263941 1.75021 0
M  V30 3999 C 368.302 -0.208178 3.42668 0
M  V30 4000 C 367.388 0.735563 4.17672 0
M  V30 4001 N 367.779 1.87763 4.69658 0
M  V30 4002 C 366.077 0.548625 4.42613 0
M  V30 4003 C 366.778 2.46886 5.26709 0
M  V30 4004 N 365.754 1.75287 5.14563 0
M  V30 4005 H 369.556 1.36062 2.60508 0
M  V30 4006 H 367.07 0.83958 1.39014 0
M  V30 4007 H 369.067 -0.576295 4.12898 0
M  V30 4008 H 367.727 -1.07572 3.06363 0
M  V30 4009 H 368.738 2.25885 4.66043 0
M  V30 4010 H 365.415 -0.274006 4.166 0
M  V30 4011 H 366.805 3.43326 5.77561 0
M  V30 4012 N 369.525 -1.3858 0.750561 0
M  V30 4013 C 370.473 -2.32339 0.110162 0
M  V30 4014 C 371.467 -1.53864 -0.708674 0
M  V30 4015 O 372.673 -1.69417 -0.608112 0
M  V30 4016 H 369.048 -0.751812 0.0168275 0
M  V30 4017 H 371.019 -2.83959 0.917053 0
M  V30 4018 C 369.768 -3.39043 -0.771067 0
M  V30 4019 H 369.091 -3.99517 -0.150374 0
M  V30 4020 H 370.531 -4.07061 -1.1865 0
M  V30 4021 C 368.99 -2.77365 -1.91234 0
M  V30 4022 O 369.52 -2.66434 -3.00626 0
M  V30 4023 N 367.726 -2.35219 -1.70646 0
M  V30 4024 H 367.273 -2.4431 -0.81673 0
M  V30 4025 H 367.231 -1.94294 -2.47178 0
M  V30 4026 N 371.003 -0.499398 -1.49478 0
M  V30 4027 C 372.231 0.0425456 -2.06856 0
M  V30 4028 C 372.646 1.30964 -1.35992 0
M  V30 4029 O 372.003 1.77172 -0.437762 0
M  V30 4030 C 372.054 0.301735 -3.60239 0
M  V30 4031 O 371.775 -0.915127 -4.28436 0
M  V30 4032 C 373.276 0.887499 -4.34325 0
M  V30 4033 H 370.496 -0.0197482 -0.670709 0
M  V30 4034 H 373.04 -0.696297 -1.92281 0
M  V30 4035 H 371.195 0.990556 -3.74522 0
M  V30 4036 H 371.609 -0.676993 -5.20113 0
M  V30 4037 H 373.083 1.01845 -5.42523 0
M  V30 4038 H 373.56 1.88488 -3.96698 0
M  V30 4039 H 374.166 0.236196 -4.24644 0
M  V30 4040 N 372.481 1.55866 -0.233164 0
M  V30 4041 C 373.727 1.98897 0.395959 0
M  V30 4042 C 374.06 1.12091 1.58585 0
M  V30 4043 O 373.335 0.181182 1.93654 0
M  V30 4044 C 373.618 3.50658 0.819224 0
M  V30 4045 C 373.471 4.48233 -0.375109 0
M  V30 4046 C 374.79 4.07135 1.67121 0
M  V30 4047 H 371.909 0.723102 0.142451 0
M  V30 4048 H 374.551 1.87082 -0.331725 0
M  V30 4049 H 372.701 3.60857 1.43925 0
M  V30 4050 H 374.373 4.50031 -1.01341 0
M  V30 4051 H 372.616 4.21624 -1.02058 0
M  V30 4052 H 373.287 5.51988 -0.0358328 0
M  V30 4053 H 375.763 3.99952 1.14795 0
M  V30 4054 H 374.639 5.13615 1.93625 0
M  V30 4055 H 374.9 3.54736 2.63846 0
M  V30 4056 N 373.959 -0.0401083 1.57549 0
M  V30 4057 C 375.375 -0.395556 1.54621 0
M  V30 4058 C 375.575 -1.77281 0.957799 0
M  V30 4059 O 374.631 -2.45888 0.574031 0
M  V30 4060 C 375.944 -0.307535 2.99123 0
M  V30 4061 C 377.492 -0.385425 3.10618 0
M  V30 4062 C 377.967 -0.326973 4.56831 0
M  V30 4063 N 379.458 -0.386102 4.61588 0
M  V30 4064 C 380.193 -0.363591 5.72246 0
M  V30 4065 N 379.689 -0.29402 6.92176 0
M  V30 4066 N 381.482 -0.412503 5.60584 0
M  V30 4067 H 373.633 0.861325 1.94152 0
M  V30 4068 H 375.896 0.326445 0.890021 0
M  V30 4069 H 375.602 0.638461 3.45856 0
M  V30 4070 H 375.476 -1.10552 3.60636 0
M  V30 4071 H 377.863 -1.32185 2.63839 0
M  V30 4072 H 377.944 0.44171 2.51957 0
M  V30 4073 H 377.588 0.605738 5.04275 0
M  V30 4074 H 377.518 -1.17207 5.13391 0
M  V30 4075 H 380.009 -0.442832 3.75296 0
M  V30 4076 H 380.322 -0.28164 7.72287 0
M  V30 4077 H 378.667 -0.260232 6.94513 0
M  V30 4078 H 381.858 -0.464769 4.65787 0
M  V30 4079 H 382.031 -0.391492 6.46816 0
M  V30 4080 N 375.437 -1.54477 -0.31217 0
M  V30 4081 C 376.685 -1.72884 -1.04668 0
M  V30 4082 C 377.006 -0.511477 -1.88173 0
M  V30 4083 O 376.276 0.474407 -1.90069 0
M  V30 4084 H 374.856 -0.637461 -0.389425 0
M  V30 4085 H 377.518 -1.91807 -0.345852 0
M  V30 4086 H 376.614 -2.61334 -1.70619 0
M  V30 4087 N 376.915 0.57481 -1.46744 0
M  V30 4088 C 378.155 1.34369 -1.54027 0
M  V30 4089 C 378.519 1.91051 -0.190642 0
M  V30 4090 O 379.72 2.68444 -0.138255 0
M  V30 4091 C 377.991 2.43706 -2.61423 0
M  V30 4092 S 379.55 3.30915 -2.88167 0
M  V30 4093 H 376.368 0.45768 -0.544105 0
M  V30 4094 H 378.97 0.659959 -1.84024 0
M  V30 4095 H 377.674 2.0047 -3.58106 0
M  V30 4096 H 377.205 3.16842 -2.33184 0
M  V30 4097 H 379.22 4.42742 -2.24039 0
M  V30 4098 N 378.394 1.34581 0.820102 0
M  V30 4099 C 379.619 1.30333 1.61332 0
M  V30 4100 C 380.044 -0.119339 1.87721 0
M  V30 4101 O 379.402 -1.08197 1.45475 0
M  V30 4102 C 379.45 2.10258 2.92957 0
M  V30 4103 O 378.554 1.47404 3.85157 0
M  V30 4104 H 377.895 0.447488 0.490561 0
M  V30 4105 H 380.425 1.77425 1.01889 0
M  V30 4106 H 380.435 2.21718 3.42498 0
M  V30 4107 H 379.11 3.13693 2.73074 0
M  V30 4108 H 377.687 1.44703 3.43679 0
M  V30 4109 N 379.872 -1.04064 1.18357 0
M  V30 4110 C 381.102 -1.80654 1.00238 0
M  V30 4111 C 381.51 -1.83713 -0.452362 0
M  V30 4112 O 380.853 -1.27135 -1.32599 0
M  V30 4113 C 380.915 -3.27582 1.48088 0
M  V30 4114 C 380.579 -3.48184 2.96002 0
M  V30 4115 C 381.576 -3.39372 3.93856 0
M  V30 4116 C 379.261 -3.7478 3.34433 0
M  V30 4117 C 381.255 -3.5686 5.28138 0
M  V30 4118 C 378.942 -3.91915 4.68877 0
M  V30 4119 C 379.94 -3.82956 5.65539 0
M  V30 4120 O 379.628 -3.996 6.97549 0
M  V30 4121 H 379.36 -0.575751 0.354241 0
M  V30 4122 H 381.914 -1.32044 1.57333 0
M  V30 4123 H 380.144 -3.77161 0.853588 0
M  V30 4124 H 381.833 -3.8573 1.2636 0
M  V30 4125 H 382.599 -3.18789 3.65511 0
M  V30 4126 H 378.478 -3.80852 2.59756 0
M  V30 4127 H 382.022 -3.49783 6.03571 0
M  V30 4128 H 377.919 -4.11992 4.96923 0
M  V30 4129 H 378.687 -4.1676 7.04452 0
M  V30 4130 N 381.35 -0.985608 -1.22978 0
M  V30 4131 C 382.597 -0.657386 -1.91532 0
M  V30 4132 C 382.925 0.809707 -1.76845 0
M  V30 4133 O 382.18 1.60021 -1.12658 0
M  V30 4134 C 382.479 -1.00014 -3.43121 0
M  V30 4135 C 382.145 -2.4583 -3.77993 0
M  V30 4136 C 380.807 -2.85679 -3.87222 0
M  V30 4137 C 383.159 -3.40378 -3.94705 0
M  V30 4138 C 380.487 -4.19081 -4.10595 0
M  V30 4139 C 382.839 -4.73429 -4.1958 0
M  V30 4140 C 381.503 -5.1303 -4.27032 0
M  V30 4141 H 380.773 -0.240555 -0.700867 0
M  V30 4142 H 383.42 -1.24044 -1.45895 0
M  V30 4143 H 381.725 -0.335072 -3.90365 0
M  V30 4144 H 383.422 -0.724322 -3.94404 0
M  V30 4145 H 380.012 -2.13939 -3.71387 0
M  V30 4146 H 384.196 -3.10766 -3.8696 0
M  V30 4147 H 379.452 -4.49362 -4.14589 0
M  V30 4148 H 383.626 -5.46644 -4.31455 0
M  V30 4149 H 381.253 -6.16418 -4.44896 0
M  V30 4150 N 382.828 1.3818 -0.7579 0
M  V30 4151 C 384.058 2.04004 -0.326463 0
M  V30 4152 C 384.466 1.57286 1.05156 0
M  V30 4153 O 383.809 0.743144 1.67997 0
M  V30 4154 C 383.871 3.58444 -0.275402 0
M  V30 4155 C 383.535 4.28237 -1.59569 0
M  V30 4156 C 384.532 4.53312 -2.54566 0
M  V30 4157 C 382.217 4.66341 -1.86631 0
M  V30 4158 C 384.211 5.15531 -3.74842 0
M  V30 4159 C 381.898 5.28283 -3.0718 0
M  V30 4160 C 382.896 5.52814 -4.01106 0
M  V30 4161 O 382.584 6.13465 -5.19534 0
M  V30 4162 H 382.316 0.662026 -0.136739 0
M  V30 4163 H 384.87 1.7777 -1.02893 0
M  V30 4164 H 383.1 3.83667 0.483337 0
M  V30 4165 H 384.789 4.05701 0.127099 0
M  V30 4166 H 385.555 4.24299 -2.34936 0
M  V30 4167 H 381.434 4.46591 -1.14358 0
M  V30 4168 H 384.978 5.34594 -4.48168 0
M  V30 4169 H 380.875 5.56719 -3.26702 0
M  V30 4170 H 381.643 6.31951 -5.20173 0
M  V30 4171 N 384.306 0.507319 1.49211 0
M  V30 4172 C 385.531 -0.033725 2.07373 0
M  V30 4173 C 385.956 -1.29485 1.36437 0
M  V30 4174 O 385.314 -1.76294 0.423087 0
M  V30 4175 C 385.362 -0.263945 3.59633 0
M  V30 4176 O 384.466 -1.33737 3.90113 0
M  V30 4177 H 383.807 0.0290331 0.663365 0
M  V30 4178 H 386.337 0.708749 1.91932 0
M  V30 4179 H 386.347 -0.493536 4.05004 0
M  V30 4180 H 385.022 0.657424 4.10671 0
M  V30 4181 H 383.599 -1.09224 3.56545 0
M  V30 4182 N 385.784 -1.5574 0.241426 0
M  V30 4183 C 387.014 -2.02913 -0.38857 0
M  V30 4184 C 387.422 -1.12014 -1.52478 0
M  V30 4185 O 386.765 -0.125903 -1.83268 0
M  V30 4186 C 386.827 -3.4636 -0.963075 0
M  V30 4187 C 386.491 -4.56982 0.0401916 0
M  V30 4188 C 387.488 -5.12941 0.847766 0
M  V30 4189 C 385.173 -5.0203 0.164699 0
M  V30 4190 C 387.167 -6.12437 1.76636 0
M  V30 4191 C 384.854 -6.01358 1.0868 0
M  V30 4192 C 385.852 -6.5644 1.88616 0
M  V30 4193 O 385.54 -7.53831 2.79273 0
M  V30 4194 H 385.272 -0.668983 -0.0971452 0
M  V30 4195 H 387.826 -2.02198 0.361248 0
M  V30 4196 H 386.056 -3.44206 -1.76235 0
M  V30 4197 H 387.745 -3.77065 -1.50257 0
M  V30 4198 H 388.511 -4.78974 0.762133 0
M  V30 4199 H 384.39 -4.58824 -0.447411 0
M  V30 4200 H 387.934 -6.55355 2.39071 0
M  V30 4201 H 383.831 -6.34746 1.17338 0
M  V30 4202 H 384.599 -7.71428 2.73572 0
M  V30 4203 N 387.262 0.0317525 -1.57568 0
M  V30 4204 C 388.673 0.578692 -1.77505 0
M  V30 4205 C 389.024 1.75749 -0.872164 0
M  V30 4206 O 388.149 2.16298 -0.0663106 0
M  V30 4207 C 388.744 1.05658 -3.21904 0
M  V30 4208 C 387.303 1.54906 -3.43047 0
M  V30 4209 C 386.45 0.485939 -2.73009 0
M  V30 4210 H 389.401 -0.194475 -1.57504 0
M  V30 4211 H 389.422 1.92404 -3.28269 0
M  V30 4212 H 388.934 0.198422 -3.87592 0
M  V30 4213 H 387.035 2.42915 -2.82529 0
M  V30 4214 H 387.148 1.59841 -4.5165 0
M  V30 4215 H 385.512 0.940354 -2.36705 0
M  V30 4216 H 386.295 -0.362709 -3.41379 0
M  V30 4217 N 388.74 1.54641 0.303973 0
M  V30 4218 C 389.703 1.84646 1.35789 0
M  V30 4219 C 390.703 0.7192 1.4382 0
M  V30 4220 O 391.893 0.987491 1.43507 0
M  V30 4221 C 389.025 2.02407 2.74307 0
M  V30 4222 H 390.218 2.78829 1.10429 0
M  V30 4223 H 387.771 1.46658 0.540487 0
M  V30 4224 H 388.506 1.10502 3.04893 0
M  V30 4225 H 388.291 2.84453 2.69868 0
M  V30 4226 H 389.781 2.27002 3.50514 0
M  V30 4227 N 390.218 -0.567019 1.47046 0
M  V30 4228 C 391.464 -1.32658 1.53394 0
M  V30 4229 C 391.797 -1.93254 0.19148 0
M  V30 4230 O 391.072 -1.77338 -0.798844 0
M  V30 4231 C 391.355 -2.44412 2.64452 0
M  V30 4232 C 391.208 -1.88749 4.08282 0
M  V30 4233 C 392.527 -3.46387 2.71485 0
M  V30 4234 H 389.646 -0.48098 0.558415 0
M  V30 4235 H 392.288 -0.635481 1.79058 0
M  V30 4236 H 390.438 -3.03363 2.427 0
M  V30 4237 H 392.11 -1.34134 4.41368 0
M  V30 4238 H 390.353 -1.19481 4.17021 0
M  V30 4239 H 391.024 -2.69491 4.81745 0
M  V30 4240 H 393.5 -2.9734 2.91081 0
M  V30 4241 H 392.376 -4.2202 3.50985 0
M  V30 4242 H 392.637 -4.04616 1.78153 0
M  V30 4243 N 391.696 -1.35014 -0.812953 0
M  V30 4244 C 392.936 -1.29289 -1.58315 0
M  V30 4245 C 393.3 0.132727 -1.91541 0
M  V30 4246 O 394.501 0.314269 -2.66957 0
M  V30 4247 C 392.772 -2.1681 -2.84127 0
M  V30 4248 S 394.331 -2.28538 -3.74588 0
M  V30 4249 H 391.149 -0.459569 -0.542511 0
M  V30 4250 H 393.751 -1.70336 -0.959467 0
M  V30 4251 H 392.455 -3.19379 -2.57731 0
M  V30 4252 H 391.986 -1.76697 -3.51485 0
M  V30 4253 H 394.001 -1.4655 -4.74065 0
M  V30 4254 N 393.175 1.03435 -1.18907 0
M  V30 4255 C 394.085 2.15075 -0.937015 0
M  V30 4256 C 395.101 1.73706 0.101085 0
M  V30 4257 O 396.277 2.01232 -0.0822948 0
M  V30 4258 C 393.342 3.43458 -0.473057 0
M  V30 4259 C 392.403 3.99172 -1.57989 0
M  V30 4260 C 391.636 5.21427 -1.13797 0
M  V30 4261 O 391.859 5.704 0.000725941 0
M  V30 4262 O 390.793 5.69837 -1.9383 0
M  V30 4263 H 394.619 2.39198 -1.87131 0
M  V30 4264 H 392.204 1.13506 -0.971427 0
M  V30 4265 H 394.086 4.20811 -0.222702 0
M  V30 4266 H 392.761 3.20793 0.432869 0
M  V30 4267 H 391.668 3.23178 -1.88433 0
M  V30 4268 H 393.001 4.2619 -2.46217 0
M  V30 4269 N 394.653 0.992116 1.22453 0
M  V30 4270 C 395.9 0.667534 1.91181 0
M  V30 4271 C 396.228 -0.800317 1.77271 0
M  V30 4272 O 395.483 -1.59421 1.13505 0
M  V30 4273 C 395.782 1.01832 3.42586 0
M  V30 4274 C 395.448 2.47831 3.76684 0
M  V30 4275 C 394.11 2.87729 3.85701 0
M  V30 4276 C 396.462 3.42466 3.92895 0
M  V30 4277 C 393.79 4.21252 4.08367 0
M  V30 4278 C 396.142 4.75648 4.17064 0
M  V30 4279 C 394.806 5.15288 4.24305 0
M  V30 4280 H 394.076 0.244268 0.699581 0
M  V30 4281 H 396.723 1.24816 1.45235 0
M  V30 4282 H 395.028 0.355769 3.90181 0
M  V30 4283 H 396.725 0.745228 3.94014 0
M  V30 4284 H 393.315 2.15905 3.70247 0
M  V30 4285 H 397.499 3.12814 3.85307 0
M  V30 4286 H 392.755 4.51554 4.122 0
M  V30 4287 H 396.929 5.48924 4.2855 0
M  V30 4288 H 394.556 6.18769 4.41621 0
M  V30 4289 N 396.131 -1.37776 0.765217 0
M  V30 4290 C 397.061 -2.32945 0.160953 0
M  V30 4291 C 398.042 -1.55454 -0.690516 0
M  V30 4292 O 399.227 -1.83721 -0.629318 0
M  V30 4293 C 396.357 -3.39669 -0.724031 0
M  V30 4294 C 395.311 -4.27992 0.0256173 0
M  V30 4295 C 394.637 -5.25673 -0.978383 0
M  V30 4296 C 395.937 -5.08309 1.20082 0
M  V30 4297 H 397.631 -2.83728 0.955969 0
M  V30 4298 H 395.177 -1.36416 0.461149 0
M  V30 4299 H 397.13 -4.05219 -1.15652 0
M  V30 4300 H 395.854 -2.87396 -1.5515 0
M  V30 4301 H 394.513 -3.63964 0.438812 0
M  V30 4302 H 394.161 -4.69682 -1.80022 0
M  V30 4303 H 393.861 -5.85625 -0.481378 0
M  V30 4304 H 395.385 -5.94098 -1.40995 0
M  V30 4305 H 396.799 -5.67034 0.845307 0
M  V30 4306 H 395.196 -5.77554 1.62947 0
M  V30 4307 H 396.266 -4.41365 2.00811 0
M  V30 4308 N 397.609 -0.515225 -1.4894 0
M  V30 4309 C 398.541 0.292481 -2.27326 0
M  V30 4310 C 399.554 0.917838 -1.3446 0
M  V30 4311 O 400.743 0.798772 -1.5963 0
M  V30 4312 C 397.843 1.42803 -3.07344 0
M  V30 4313 C 397.016 0.907347 -4.27885 0
M  V30 4314 C 396.075 1.92222 -4.89834 0
M  V30 4315 O 395.101 1.48506 -5.49486 0
M  V30 4316 N 396.303 3.25355 -4.80754 0
M  V30 4317 H 399.068 -0.379721 -2.97285 0
M  V30 4318 H 396.629 -0.348638 -1.58102 0
M  V30 4319 H 398.621 2.10481 -3.45658 0
M  V30 4320 H 397.191 2.00414 -2.39902 0
M  V30 4321 H 396.411 0.0550218 -3.94162 0
M  V30 4322 H 397.699 0.538108 -5.05946 0
M  V30 4323 H 397.097 3.6355 -4.33414 0
M  V30 4324 H 395.654 3.88707 -5.23211 0
M  V30 4325 N 399.087 1.5561 -0.249682 0
M  V30 4326 C 400.037 2.18157 0.662673 0
M  V30 4327 C 401.021 1.1383 1.13717 0
M  V30 4328 O 402.213 1.39731 1.08648 0
M  V30 4329 C 399.342 2.88672 1.85805 0
M  V30 4330 C 398.428 4.00258 1.40193 0
M  V30 4331 N 398.819 5.01473 0.660213 0
M  V30 4332 C 397.117 4.12864 1.68698 0
M  V30 4333 C 397.818 5.80155 0.423695 0
M  V30 4334 N 396.794 5.34533 0.988721 0
M  V30 4335 H 400.596 2.93769 0.0878688 0
M  V30 4336 H 398.11 1.62316 -0.0521183 0
M  V30 4337 H 400.107 3.31912 2.5227 0
M  V30 4338 H 398.767 2.14564 2.43705 0
M  V30 4339 H 399.778 5.16971 0.310047 0
M  V30 4340 H 396.455 3.4993 2.27717 0
M  V30 4341 H 397.845 6.71688 -0.168616 0
M  V30 4342 N 400.565 -0.0233959 1.57583 0
M  V30 4343 C 401.513 -1.04063 2.08023 0
M  V30 4344 C 402.507 -1.37084 0.995204 0
M  V30 4345 O 403.713 -1.35923 1.18004 0
M  V30 4346 H 400.088 -0.353144 0.663922 0
M  V30 4347 H 402.059 -0.589453 2.9252 0
M  V30 4348 C 400.808 -2.33123 2.57971 0
M  V30 4349 H 400.131 -2.08577 3.4108 0
M  V30 4350 H 401.571 -3.02632 2.96967 0
M  V30 4351 C 400.03 -3.02483 1.48342 0
M  V30 4352 O 400.56 -3.92541 0.852898 0
M  V30 4353 N 398.766 -2.63909 1.21658 0
M  V30 4354 H 398.313 -1.90758 1.73116 0
M  V30 4355 H 398.271 -3.10633 0.485218 0
M  V30 4356 N 402.043 -1.548 -0.295768 0
M  V30 4357 C 402.991 -1.86874 -1.38495 0
M  V30 4358 C 403.985 -0.742938 -1.52239 0
M  V30 4359 O 405.191 -0.926999 -1.54294 0
M  V30 4360 H 401.566 -0.592786 -0.462719 0
M  V30 4361 H 403.537 -2.77904 -1.08682 0
M  V30 4362 C 402.286 -2.13732 -2.74252 0
M  V30 4363 H 401.609 -2.99835 -2.64459 0
M  V30 4364 H 403.049 -2.4011 -3.49461 0
M  V30 4365 C 401.508 -0.937539 -3.23592 0
M  V30 4366 O 402.038 -0.160665 -4.01379 0
M  V30 4367 N 400.244 -0.741478 -2.80981 0
M  V30 4368 H 399.791 -1.37489 -2.1784 0
M  V30 4369 H 399.749 0.0597103 -3.14343 0
M  V30 4370 N 403.521 0.559213 -1.47345 0
M  V30 4371 C 404.451 1.67622 -1.62558 0
M  V30 4372 C 405.432 1.63331 -0.475087 0
M  V30 4373 O 406.617 1.80983 -0.704182 0
M  V30 4374 C 403.747 3.0626 -1.63774 0
M  V30 4375 C 402.701 3.25397 -2.7803 0
M  V30 4376 C 402.027 4.64801 -2.64318 0
M  V30 4377 C 403.327 3.10965 -4.19641 0
M  V30 4378 H 405.021 1.55146 -2.56067 0
M  V30 4379 H 402.567 0.744961 -1.23233 0
M  V30 4380 H 404.52 3.84247 -1.73008 0
M  V30 4381 H 403.244 3.1969 -0.66825 0
M  V30 4382 H 401.903 2.49817 -2.68304 0
M  V30 4383 H 401.551 4.75028 -1.65401 0
M  V30 4384 H 401.251 4.78555 -3.40968 0
M  V30 4385 H 402.775 5.44926 -2.75478 0
M  V30 4386 H 404.189 3.78772 -4.30354 0
M  V30 4387 H 402.586 3.36229 -4.97062 0
M  V30 4388 H 403.656 2.07736 -4.38148 0
M  V30 4389 N 404.999 1.35443 0.805782 0
M  V30 4390 C 405.929 1.31095 1.93226 0
M  V30 4391 C 406.91 0.185244 1.69088 0
M  V30 4392 O 408.095 0.380332 1.90439 0
M  V30 4393 C 405.225 1.08299 3.29983 0
M  V30 4394 C 404.179 2.17519 3.68605 0
M  V30 4395 C 403.505 1.79887 5.03532 0
M  V30 4396 C 404.805 3.5949 3.78898 0
M  V30 4397 H 406.499 2.25352 1.97122 0
M  V30 4398 H 404.045 1.0848 0.946996 0
M  V30 4399 H 405.998 1.03897 4.08391 0
M  V30 4400 H 404.722 0.104885 3.26432 0
M  V30 4401 H 403.381 2.2102 2.92482 0
M  V30 4402 H 403.029 0.80693 4.96485 0
M  V30 4403 H 402.729 2.53001 5.30344 0
M  V30 4404 H 404.253 1.77011 5.84379 0
M  V30 4405 H 405.667 3.58307 4.47536 0
M  V30 4406 H 404.064 4.31371 4.1718 0
M  V30 4407 H 405.134 3.95584 2.80431 0
M  V30 4408 N 406.477 -1.02803 1.19454 0
M  V30 4409 C 407.702 -1.80378 1.02364 0
M  V30 4410 C 408.127 -1.83282 -0.423007 0
M  V30 4411 O 407.485 -1.25945 -1.30413 0
M  V30 4412 C 407.533 -3.23248 1.59821 0
M  V30 4413 O 406.637 -4.04 0.828105 0
M  V30 4414 H 405.978 -0.556799 0.361761 0
M  V30 4415 H 408.508 -1.29385 1.58495 0
M  V30 4416 H 408.518 -3.73994 1.63073 0
M  V30 4417 H 407.193 -3.2045 2.65113 0
M  V30 4418 H 405.77 -3.62635 0.86891 0
M  V30 4419 N 407.956 -0.998596 -1.21925 0
M  V30 4420 C 409.205 -0.673085 -1.90138 0
M  V30 4421 C 409.518 0.79895 -1.78539 0
M  V30 4422 O 410.724 1.23628 -2.4172 0
M  V30 4423 C 409.18 -1.15339 -3.40918 0
M  V30 4424 C 408.788 -2.65106 -3.61141 0
M  V30 4425 C 410.532 -0.902476 -4.14796 0
M  V30 4426 C 408.439 -3.0671 -5.05651 0
M  V30 4427 H 407.369 -0.248057 -0.712028 0
M  V30 4428 H 410.02 -1.20891 -1.38049 0
M  V30 4429 H 408.402 -0.545658 -3.92223 0
M  V30 4430 H 409.576 -3.31274 -3.20304 0
M  V30 4431 H 407.891 -2.88142 -3.00605 0
M  V30 4432 H 410.488 -1.18895 -5.21314 0
M  V30 4433 H 410.831 0.161349 -4.15987 0
M  V30 4434 H 411.364 -1.47269 -3.69536 0
M  V30 4435 H 408.103 -4.12292 -5.09603 0
M  V30 4436 H 407.623 -2.45249 -5.47369 0
M  V30 4437 H 409.302 -2.9833 -5.74115 0
M  V30 4438 N 409.434 1.37368 -0.772513 0
M  V30 4439 C 410.364 2.32856 -0.173304 0
M  V30 4440 C 411.345 1.55818 0.682262 0
M  V30 4441 O 412.53 1.84052 0.619566 0
M  V30 4442 C 409.66 3.40048 0.706007 0
M  V30 4443 C 408.614 4.27973 -0.0483144 0
M  V30 4444 C 407.94 5.26184 0.950491 0
M  V30 4445 C 409.24 5.07665 -1.22776 0
M  V30 4446 H 410.934 2.83217 -0.971002 0
M  V30 4447 H 408.48 1.3617 -0.468377 0
M  V30 4448 H 410.433 4.05827 1.13501 0
M  V30 4449 H 409.157 2.88214 1.53623 0
M  V30 4450 H 407.816 3.63726 -0.458107 0
M  V30 4451 H 407.464 4.7063 1.77529 0
M  V30 4452 H 407.164 5.85872 0.450314 0
M  V30 4453 H 408.688 5.94838 1.37842 0
M  V30 4454 H 410.102 5.66578 -0.875366 0
M  V30 4455 H 408.499 5.76681 -1.66007 0
M  V30 4456 H 409.569 4.40294 -2.03149 0
M  V30 4457 N 410.912 0.523116 1.48665 0
M  V30 4458 C 412.328 0.180511 1.58576 0
M  V30 4459 C 412.528 -1.31597 1.52592 0
M  V30 4460 O 411.584 -2.0937 1.4114 0
M  V30 4461 C 412.897 0.776949 2.90489 0
M  V30 4462 C 414.445 0.745058 3.04003 0
M  V30 4463 C 414.92 1.31995 4.38567 0
M  V30 4464 N 416.411 1.28162 4.45117 0
M  V30 4465 C 417.146 1.6964 5.47731 0
M  V30 4466 N 416.642 2.18816 6.57337 0
M  V30 4467 N 418.435 1.6092 5.38573 0
M  V30 4468 H 410.586 1.4958 1.50797 0
M  V30 4469 H 412.849 0.621772 0.715614 0
M  V30 4470 H 412.555 1.82732 3.00503 0
M  V30 4471 H 412.429 0.25007 3.7637 0
M  V30 4472 H 414.816 -0.296532 2.93606 0
M  V30 4473 H 414.897 1.30933 2.1975 0
M  V30 4474 H 414.541 2.36043 4.49718 0
M  V30 4475 H 414.471 0.731418 5.21496 0
M  V30 4476 H 416.962 0.92155 3.66491 0
M  V30 4477 H 417.275 2.48478 7.31764 0
M  V30 4478 H 415.62 2.22805 6.58318 0
M  V30 4479 H 418.811 1.22304 4.5184 0
M  V30 4480 H 418.984 1.93567 6.18414 0
M  V30 4481 N 412.39 -1.55475 0.257931 0
M  V30 4482 C 413.353 -2.20551 -0.623706 0
M  V30 4483 C 414.353 -1.17809 -1.09443 0
M  V30 4484 O 415.543 -1.42823 -0.997362 0
M  V30 4485 C 412.675 -2.85784 -1.8585 0
M  V30 4486 H 413.868 -2.99848 -0.0557743 0
M  V30 4487 H 411.421 -1.56298 0.0084422 0
M  V30 4488 H 412.156 -2.10453 -2.46739 0
M  V30 4489 H 411.941 -3.61057 -1.52907 0
M  V30 4490 H 413.431 -3.35553 -2.48584 0
M  V30 4491 N 413.868 0.0150385 -1.57593 0
M  V30 4492 C 414.818 1.01943 -2.0394 0
M  V30 4493 C 415.802 1.31209 -0.931286 0
M  V30 4494 O 416.994 1.30559 -1.19513 0
M  V30 4495 C 414.123 2.31621 -2.53391 0
M  V30 4496 C 413.209 2.05384 -3.7105 0
M  V30 4497 N 413.6 1.49253 -4.83278 0
M  V30 4498 C 411.898 2.35601 -3.78693 0
M  V30 4499 C 412.599 1.39143 -5.64813 0
M  V30 4500 N 411.575 1.87187 -5.10355 0
M  V30 4501 H 415.377 0.57969 -2.88126 0
M  V30 4502 H 412.891 0.221056 -1.60888 0
M  V30 4503 H 414.888 3.044 -2.84862 0
M  V30 4504 H 413.548 2.76261 -1.70616 0
M  V30 4505 H 414.559 1.17334 -5.04433 0
M  V30 4506 H 411.236 2.8322 -3.06746 0
M  V30 4507 H 412.626 0.961153 -6.6499 0
M  V30 4508 N 415.346 1.54954 0.287554 0
M  V30 4509 C 416.256 1.8991 1.37736 0
M  V30 4510 C 417.272 0.794701 1.54792 0
M  V30 4511 O 418.448 1.09243 1.69198 0
M  V30 4512 C 415.513 2.15108 2.71899 0
M  V30 4513 C 414.574 3.38752 2.63715 0
M  V30 4514 C 413.807 3.62739 3.91479 0
M  V30 4515 O 414.03 2.89492 4.91478 0
M  V30 4516 O 412.964 4.56267 3.92561 0
M  V30 4517 H 416.79 2.82652 1.11092 0
M  V30 4518 H 414.375 1.41315 0.484807 0
M  V30 4519 H 416.257 2.32806 3.51254 0
M  V30 4520 H 414.932 1.25551 2.9836 0
M  V30 4521 H 413.839 3.26405 1.82786 0
M  V30 4522 H 415.172 4.28483 2.42205 0
M  V30 4523 N 416.824 -0.551391 1.4764 0
M  V30 4524 C 417.787 -1.64007 1.60107 0
M  V30 4525 C 418.787 -1.53601 0.47576 0
M  V30 4526 O 419.977 -1.57655 0.740988 0
M  V30 4527 C 417.109 -3.03569 1.55108 0
M  V30 4528 H 418.302 -1.543 2.57161 0
M  V30 4529 H 415.855 -0.771776 1.35917 0
M  V30 4530 H 416.59 -3.18804 0.594519 0
M  V30 4531 H 416.375 -3.12532 2.36783 0
M  V30 4532 H 417.865 -3.82762 1.66982 0
M  V30 4533 N 418.302 -1.35869 -0.798587 0
M  V30 4534 C 419.234 -1.25305 -1.91915 0
M  V30 4535 C 420.247 -0.174548 -1.61862 0
M  V30 4536 O 421.436 -0.428499 -1.73281 0
M  V30 4537 C 418.536 -0.9086 -3.26493 0
M  V30 4538 C 417.709 -2.08711 -3.84394 0
M  V30 4539 C 416.768 -1.71717 -4.97393 0
M  V30 4540 O 415.794 -2.43692 -5.14396 0
M  V30 4541 N 416.996 -0.645473 -5.769 0
M  V30 4542 H 419.761 -2.21849 -2.01502 0
M  V30 4543 H 417.322 -1.29143 -0.976408 0
M  V30 4544 H 419.314 -0.642455 -3.99568 0
M  V30 4545 H 417.884 -0.0325815 -3.12583 0
M  V30 4546 H 417.104 -2.51659 -3.03416 0
M  V30 4547 H 418.392 -2.87468 -4.19809 0
M  V30 4548 H 417.79 -0.047648 -5.6568 0
M  V30 4549 H 416.347 -0.43913 -6.50319 0
M  V30 4550 N 419.78 1.02168 -1.19998 0
M  V30 4551 C 421.057 1.72816 -0.916191 0
M  V30 4552 C 421.437 2.03081 0.576325 0
M  V30 4553 O 420.785 1.69122 1.53656 0
M  V30 4554 C 420.995 2.9997 -1.78378 0
M  V30 4555 C 422.343 3.73336 -2.02251 0
M  V30 4556 O 423.367 3.09914 -1.75589 0
M  V30 4557 O 422.226 4.87371 -2.47249 0
M  V30 4558 H 419.32 0.752924 -0.342103 0
M  V30 4559 H 421.866 1.08062 -1.30846 0
M  V30 4560 H 420.638 2.73888 -2.79466 0
M  V30 4561 H 420.261 3.72464 -1.39126 0
M  V30 4562 N 421.258 1.00505 1.21394 0
M  V30 4563 C 422.221 0.570459 2.21987 0
M  V30 4564 C 423.221 -0.353211 1.56873 0
M  V30 4565 O 424.411 -0.14349 1.73608 0
M  V30 4566 C 421.543 -0.168555 3.40483 0
M  V30 4567 H 422.736 1.46021 2.6195 0
M  V30 4568 H 420.289 0.793565 1.34656 0
M  V30 4569 H 421.024 -1.07374 3.06009 0
M  V30 4570 H 420.809 0.494823 3.88965 0
M  V30 4571 H 422.299 -0.460362 4.15055 0
M  V30 4572 N 422.737 -1.36956 0.779787 0
M  V30 4573 C 423.985 -1.99097 0.347079 0
M  V30 4574 C 424.306 -1.62206 -1.08232 0
M  V30 4575 O 423.576 -0.891373 -1.74446 0
M  V30 4576 H 422.156 -0.736409 0.125342 0
M  V30 4577 H 424.818 -1.67308 0.999696 0
M  V30 4578 H 423.914 -3.09107 0.431162 0
M  V30 4579 N 424.215 -0.530993 -1.48385 0
M  V30 4580 C 425.445 -0.00133928 -2.066 0
M  V30 4581 C 425.853 1.28599 -1.38777 0
M  V30 4582 O 425.196 1.77599 -0.469495 0
M  V30 4583 C 425.258 0.292137 -3.58311 0
M  V30 4584 C 424.922 -0.901864 -4.48013 0
M  V30 4585 C 425.919 -1.80053 -4.87726 0
M  V30 4586 C 423.604 -1.10915 -4.89901 0
M  V30 4587 C 425.598 -2.89038 -5.68098 0
M  V30 4588 C 423.285 -2.20213 -5.70043 0
M  V30 4589 C 424.283 -3.09107 -6.0905 0
M  V30 4590 O 423.971 -4.16514 -6.87583 0
M  V30 4591 H 423.703 -0.0308475 -0.675296 0
M  V30 4592 H 426.257 -0.736335 -1.91748 0
M  V30 4593 H 424.487 1.08112 -3.7128 0
M  V30 4594 H 426.176 0.763994 -3.98645 0
M  V30 4595 H 426.942 -1.65234 -4.55986 0
M  V30 4596 H 422.821 -0.426498 -4.59023 0
M  V30 4597 H 426.365 -3.58451 -5.98464 0
M  V30 4598 H 422.262 -2.35016 -6.01197 0
M  V30 4599 H 423.03 -4.14237 -7.05939 0
M  V30 4600 N 425.693 1.55336 -0.266172 0
M  V30 4601 C 427.109 1.59356 0.0882065 0
M  V30 4602 C 427.309 1.2834 1.55342 0
M  V30 4603 O 426.365 1.03996 2.30089 0
M  V30 4604 C 427.678 2.99409 -0.278364 0
M  V30 4605 C 429.226 3.12196 -0.224243 0
M  V30 4606 C 429.701 4.545 -0.565123 0
M  V30 4607 N 431.192 4.60313 -0.51634 0
M  V30 4608 C 431.927 5.68434 -0.753013 0
M  V30 4609 N 431.423 6.84738 -1.05383 0
M  V30 4610 N 433.216 5.57942 -0.682414 0
M  V30 4611 H 425.367 1.73764 -1.22147 0
M  V30 4612 H 427.63 0.809822 -0.492841 0
M  V30 4613 H 427.336 3.2691 -1.29703 0
M  V30 4614 H 427.21 3.75228 0.385186 0
M  V30 4615 H 429.597 2.84464 0.78512 0
M  V30 4616 H 429.678 2.38609 -0.921922 0
M  V30 4617 H 429.322 4.82956 -1.57213 0
M  V30 4618 H 429.252 5.26374 0.154248 0
M  V30 4619 H 431.743 3.7676 -0.29335 0
M  V30 4620 H 432.056 7.63088 -1.22133 0
M  V30 4621 H 430.401 6.86375 -1.09151 0
M  V30 4622 H 433.592 4.65958 -0.44731 0
M  V30 4623 H 433.765 6.4213 -0.870248 0
M  V30 4624 N 427.171 -0.0066808 1.57599 0
M  V30 4625 C 428.104 -1.03397 2.03431 0
M  V30 4626 C 429.082 -1.33872 0.922877 0
M  V30 4627 O 430.266 -1.4615 1.19048 0
M  V30 4628 C 427.393 -2.36325 2.42628 0
M  V30 4629 C 426.439 -2.21557 3.64438 0
M  V30 4630 S 427.272 -1.54789 5.12641 0
M  V30 4631 C 428.428 -2.8916 5.55101 0
M  V30 4632 H 428.661 -0.643687 2.90248 0
M  V30 4633 H 426.194 -0.217349 1.52863 0
M  V30 4634 H 428.152 -3.12759 2.65879 0
M  V30 4635 H 426.813 -2.72495 1.56222 0
M  V30 4636 H 426.006 -3.1974 3.89592 0
M  V30 4637 H 425.608 -1.53267 3.41153 0
M  V30 4638 H 427.9 -3.8547 5.57153 0
M  V30 4639 H 428.843 -2.68713 6.55133 0
M  V30 4640 H 429.251 -2.92762 4.82649 0
M  V30 4641 N 428.649 -1.55105 -0.279332 0
M  V30 4642 C 429.879 -1.7917 -1.02867 0
M  V30 4643 C 430.287 -0.56204 -1.80659 0
M  V30 4644 O 429.63 0.478266 -1.77365 0
M  V30 4645 C 429.692 -2.96061 -2.03932 0
M  V30 4646 C 429.356 -4.33341 -1.45137 0
M  V30 4647 C 430.353 -5.12565 -0.870266 0
M  V30 4648 C 428.038 -4.79987 -1.48048 0
M  V30 4649 C 430.032 -6.36565 -0.326097 0
M  V30 4650 C 427.719 -6.03944 -0.932443 0
M  V30 4651 C 428.717 -6.8207 -0.356247 0
M  V30 4652 O 428.405 -8.03691 0.183412 0
M  V30 4653 H 428.137 -0.600796 -0.309872 0
M  V30 4654 H 430.691 -2.02932 -0.317468 0
M  V30 4655 H 428.921 -2.67975 -2.78794 0
M  V30 4656 H 430.61 -3.07506 -2.64943 0
M  V30 4657 H 431.376 -4.77661 -0.840521 0
M  V30 4658 H 427.255 -4.1919 -1.91835 0
M  V30 4659 H 430.799 -6.97489 0.124286 0
M  V30 4660 H 426.696 -6.3833 -0.959407 0
M  V30 4661 H 427.464 -8.18468 0.0721681 0
M  V30 4662 N 430.127 0.543554 -1.4793 0
M  V30 4663 C 431.543 0.870806 -1.3375 0
M  V30 4664 C 431.743 1.9864 -0.338261 0
M  V30 4665 O 430.799 2.51305 0.245371 0
M  V30 4666 C 432.112 1.25114 -2.73435 0
M  V30 4667 C 433.66 1.3618 -2.81823 0
M  V30 4668 C 434.135 1.77563 -4.22179 0
M  V30 4669 N 435.626 1.8469 -4.24787 0
M  V30 4670 C 436.361 2.18067 -5.30315 0
M  V30 4671 N 435.857 2.49963 -6.46135 0
M  V30 4672 N 437.65 2.18958 -5.17701 0
M  V30 4673 H 429.801 -0.19275 -2.11524 0
M  V30 4674 H 432.064 -0.0235777 -0.947707 0
M  V30 4675 H 431.77 0.50514 -3.48053 0
M  V30 4676 H 431.644 2.20431 -3.06088 0
M  V30 4677 H 434.031 2.09859 -2.07468 0
M  V30 4678 H 434.112 0.390169 -2.52807 0
M  V30 4679 H 433.756 1.04449 -4.97044 0
M  V30 4680 H 433.686 2.75753 -4.48629 0
M  V30 4681 H 436.177 1.62372 -3.41239 0
M  V30 4682 H 436.49 2.74497 -7.22406 0
M  V30 4683 H 434.835 2.47513 -6.49432 0
M  V30 4684 H 438.026 1.93488 -4.2624 0
M  V30 4685 H 438.199 2.44639 -6.00047 0
M  V30 4686 N 431.605 1.3629 0.791371 0
M  V30 4687 C 432.552 1.30458 1.90393 0
M  V30 4688 C 433.522 0.173632 1.6519 0
M  V30 4689 O 434.707 0.35983 1.87376 0
M  V30 4690 C 431.847 1.09777 3.27174 0
M  V30 4691 C 430.96 2.31929 3.64462 0
M  V30 4692 C 430.095 2.04276 4.90352 0
M  V30 4693 C 429.134 3.224 5.20312 0
M  V30 4694 N 428.271 2.94424 6.37385 0
M  V30 4695 H 433.111 2.25589 1.94714 0
M  V30 4696 H 430.648 1.12122 0.952216 0
M  V30 4697 H 432.606 0.958133 4.06049 0
M  V30 4698 H 431.236 0.183014 3.22281 0
M  V30 4699 H 430.288 2.56703 2.80727 0
M  V30 4700 H 431.6 3.20085 3.82553 0
M  V30 4701 H 430.754 1.87231 5.77087 0
M  V30 4702 H 429.493 1.13428 4.74326 0
M  V30 4703 H 428.498 3.40005 4.32061 0
M  V30 4704 H 429.723 4.14071 5.38258 0
M  V30 4705 H 427.669 2.06185 6.22755 0
M  V30 4706 H 427.586 3.76118 6.55798 0
M  V30 4707 H 428.854 2.80953 7.27108 0
M  V30 4708 N 433.083 -1.0153 1.20538 0
M  V30 4709 C 434.308 -1.79283 1.04271 0
M  V30 4710 C 434.733 -1.8372 -0.403544 0
M  V30 4711 O 434.091 -1.27321 -1.2907 0
M  V30 4712 C 434.139 -3.21535 1.63241 0
M  V30 4713 O 433.243 -4.03099 0.870908 0
M  V30 4714 H 432.584 -0.55293 0.367647 0
M  V30 4715 H 435.114 -1.27696 1.59859 0
M  V30 4716 H 435.124 -3.72243 1.6703 0
M  V30 4717 H 433.799 -3.1762 2.68497 0
M  V30 4718 H 432.376 -3.61693 0.907323 0
M  V30 4719 N 434.561 -1.01147 -1.20859 0
M  V30 4720 C 435.493 -0.535546 -2.22855 0
M  V30 4721 C 436.506 0.379323 -1.58319 0
M  V30 4722 O 437.695 0.178489 -1.77605 0
M  V30 4723 C 434.795 0.240962 -3.38042 0
M  V30 4724 C 433.968 -0.674562 -4.32167 0
M  V30 4725 C 433.027 0.053467 -5.26173 0
M  V30 4726 O 432.053 -0.567339 -5.66366 0
M  V30 4727 N 433.255 1.32997 -5.65059 0
M  V30 4728 H 436.02 -1.41268 -2.64317 0
M  V30 4729 H 433.581 -0.888386 -1.35349 0
M  V30 4730 H 435.573 0.737115 -3.97931 0
M  V30 4731 H 434.143 1.01935 -2.95513 0
M  V30 4732 H 433.363 -1.35111 -3.70322 0
M  V30 4733 H 434.651 -1.2974 -4.91981 0
M  V30 4734 H 434.049 1.85536 -5.34409 0
M  V30 4735 H 432.606 1.77095 -6.2728 0
M  V30 4736 N 436.039 1.36541 -0.78704 0
M  V30 4737 C 437.267 2.03561 -0.370199 0
M  V30 4738 C 437.682 1.59347 1.01263 0
M  V30 4739 O 437.039 0.781781 1.64907 0
M  V30 4740 C 437.09 3.59033 -0.421614 0
M  V30 4741 O 436.811 4.01634 -1.7499 0
M  V30 4742 C 438.312 4.433 0.00489763 0
M  V30 4743 H 435.532 0.653346 -0.152904 0
M  V30 4744 H 438.076 1.74566 -1.06522 0
M  V30 4745 H 436.231 3.86746 0.224971 0
M  V30 4746 H 436.645 4.96217 -1.69909 0
M  V30 4747 H 438.119 5.51939 -0.0822184 0
M  V30 4748 H 438.596 4.26285 1.05723 0
M  V30 4749 H 439.202 4.20843 -0.614085 0
M  V30 4750 N 437.518 0.538854 1.48102 0
M  V30 4751 C 438.746 0.0123136 2.06896 0
M  V30 4752 C 439.161 -1.27312 1.39417 0
M  V30 4753 O 438.518 -1.75949 0.484582 0
M  V30 4754 C 438.569 -0.206118 3.60912 0
M  V30 4755 O 438.29 1.0284 4.25859 0
M  V30 4756 C 439.791 -0.772033 4.36526 0
M  V30 4757 H 437.011 0.0375239 0.66995 0
M  V30 4758 H 439.555 0.747032 1.90367 0
M  V30 4759 H 437.71 -0.89091 3.77017 0
M  V30 4760 H 438.124 0.814654 5.18135 0
M  V30 4761 H 439.598 -0.874251 5.45033 0
M  V30 4762 H 440.075 -1.77904 4.01555 0
M  V30 4763 H 440.681 -0.123526 4.25121 0
M  V30 4764 N 438.996 -1.55193 0.274407 0
M  V30 4765 C 440.244 -1.99187 -0.341902 0
M  V30 4766 C 440.565 -1.16422 -1.56431 0
M  V30 4767 O 439.835 -0.253573 -1.94252 0
M  V30 4768 H 438.415 -0.735721 -0.129317 0
M  V30 4769 H 441.077 -1.91168 0.379578 0
M  V30 4770 H 440.173 -3.05629 -0.632253 0
M  V30 4771 N 440.474 -0.00167713 -1.576 0
M  V30 4772 C 441.721 0.68282 -1.90641 0
M  V30 4773 C 442.049 1.73686 -0.875415 0
M  V30 4774 O 441.304 1.95334 0.119575 0
M  V30 4775 C 441.603 1.36189 -3.30435 0
M  V30 4776 C 441.269 0.440887 -4.48739 0
M  V30 4777 C 439.931 0.187312 -4.80835 0
M  V30 4778 C 442.283 -0.193134 -5.20842 0
M  V30 4779 C 439.611 -0.70855 -5.82406 0
M  V30 4780 C 441.963 -1.07688 -6.23367 0
M  V30 4781 C 440.627 -1.33962 -6.53919 0
M  V30 4782 H 439.897 0.249862 -0.697603 0
M  V30 4783 H 442.544 -0.0575642 -1.91413 0
M  V30 4784 H 440.849 2.17636 -3.25794 0
M  V30 4785 H 442.546 1.89759 -3.5326 0
M  V30 4786 H 439.136 0.648694 -4.23663 0
M  V30 4787 H 443.32 -0.0102445 -4.96299 0
M  V30 4788 H 438.576 -0.920097 -6.04437 0
M  V30 4789 H 442.75 -1.57451 -6.78367 0
M  V30 4790 H 440.377 -2.03549 -7.32442 0
M  V30 4791 N 441.952 1.55251 0.271103 0
M  V30 4792 C 443.363 1.66635 0.842007 0
M  V30 4793 C 443.714 0.594631 1.86972 0
M  V30 4794 O 442.839 -0.263532 2.14789 0
M  V30 4795 C 443.434 3.02082 1.53401 0
M  V30 4796 C 441.993 3.15487 2.05293 0
M  V30 4797 C 441.14 2.62438 0.895631 0
M  V30 4798 H 444.091 1.58629 0.0474117 0
M  V30 4799 H 444.112 2.95176 2.40107 0
M  V30 4800 H 443.624 3.80062 0.785786 0
M  V30 4801 H 441.725 2.42284 2.83071 0
M  V30 4802 H 441.838 4.22075 2.26693 0
M  V30 4803 H 440.202 2.19644 1.28953 0
M  V30 4804 H 440.985 3.42923 0.160878 0
M  V30 4805 N 443.43 -0.535701 1.48216 0
M  V30 4806 C 444.655 -1.32149 1.59848 0
M  V30 4807 C 445.08 -1.86338 0.256842 0
M  V30 4808 O 444.438 -1.64107 -0.770632 0
M  V30 4809 C 444.486 -2.45224 2.64381 0
M  V30 4810 O 443.59 -3.48093 2.21144 0
M  V30 4811 H 442.931 -0.391634 0.536208 0
M  V30 4812 H 445.461 -0.645202 1.94161 0
M  V30 4813 H 445.471 -2.91491 2.85476 0
M  V30 4814 H 444.146 -2.05143 3.61786 0
M  V30 4815 H 442.723 -3.07984 2.10239 0
M  V30 4816 N 444.908 -1.36708 -0.784132 0
M  V30 4817 C 445.838 -1.34153 -1.91116 0
M  V30 4818 C 446.819 -0.212121 -1.68772 0
M  V30 4819 O 448.004 -0.410581 -1.8981 0
M  V30 4820 C 445.134 -1.13535 -3.28218 0
M  V30 4821 C 444.088 -2.23356 -3.65097 0
M  V30 4822 C 443.414 -1.87875 -5.00607 0
M  V30 4823 C 444.714 -3.65473 -3.73131 0
M  V30 4824 H 446.408 -2.28459 -1.93512 0
M  V30 4825 H 443.954 -1.09973 -0.929618 0
M  V30 4826 H 445.907 -1.10381 -4.06687 0
M  V30 4827 H 444.631 -0.156804 -3.26223 0
M  V30 4828 H 443.29 -2.25645 -2.88929 0
M  V30 4829 H 442.938 -0.885814 -4.95139 0
M  V30 4830 H 442.638 -2.61406 -5.26252 0
M  V30 4831 H 444.162 -1.86286 -5.81489 0
M  V30 4832 H 445.576 -3.65382 -4.41779 0
M  V30 4833 H 443.973 -4.37953 -4.10265 0
M  V30 4834 H 445.043 -3.99995 -2.74102 0
M  V30 4835 N 446.386 1.0089 -1.21074 0
M  V30 4836 C 447.635 1.74019 -1.01981 0
M  V30 4837 C 447.948 1.90408 0.447665 0
M  V30 4838 O 449.154 2.60707 0.757906 0
M  V30 4839 C 447.61 3.13026 -1.77603 0
M  V30 4840 C 447.218 3.04623 -3.28495 0
M  V30 4841 C 448.962 3.90312 -1.66904 0
M  V30 4842 C 446.869 4.38685 -3.96623 0
M  V30 4843 H 445.799 0.652422 -0.377971 0
M  V30 4844 H 448.45 1.12755 -1.44771 0
M  V30 4845 H 446.832 3.74878 -1.27604 0
M  V30 4846 H 448.006 2.52032 -3.85767 0
M  V30 4847 H 446.321 2.40827 -3.39693 0
M  V30 4848 H 448.918 4.8951 -2.15138 0
M  V30 4849 H 449.261 4.11558 -0.62658 0
M  V30 4850 H 449.794 3.35104 -2.14359 0
M  V30 4851 H 446.533 4.22641 -5.01054 0
M  V30 4852 H 446.053 4.91252 -3.4414 0
M  V30 4853 H 447.732 5.075 -4.01314 0
M  V30 4854 N 447.864 1.01787 1.20321 0
M  V30 4855 C 449.092 0.727194 1.937 0
M  V30 4856 C 449.507 -0.712305 1.74848 0
M  V30 4857 O 448.864 -1.48327 1.06327 0
M  V30 4858 C 448.915 1.05497 3.45764 0
M  V30 4859 O 448.636 2.43794 3.64 0
M  V30 4860 C 450.137 0.785534 4.36285 0
M  V30 4861 H 447.357 0.266939 0.615617 0
M  V30 4862 H 449.901 1.35939 1.52777 0
M  V30 4863 H 448.056 0.468158 3.84561 0
M  V30 4864 H 448.47 2.55656 4.57974 0
M  V30 4865 H 449.944 1.06495 5.4163 0
M  V30 4866 H 450.421 -0.280273 4.38305 0
M  V30 4867 H 451.027 1.35456 4.03152 0
M  V30 4868 N 449.342 -1.36122 0.79427 0
M  V30 4869 C 450.591 -1.98361 0.365464 0
M  V30 4870 C 450.904 -1.6374 -1.06997 0
M  V30 4871 O 452.11 -2.19251 -1.60129 0
M  V30 4872 C 450.566 -3.54821 0.602496 0
M  V30 4873 C 450.174 -3.98362 2.04967 0
M  V30 4874 C 451.918 -4.2383 0.238437 0
M  V30 4875 C 449.825 -5.47619 2.2331 0
M  V30 4876 H 448.755 -0.742193 0.13291 0
M  V30 4877 H 451.406 -1.55354 0.976589 0
M  V30 4878 H 449.788 -3.95922 -0.078409 0
M  V30 4879 H 450.962 -3.68447 2.76737 0
M  V30 4880 H 449.277 -3.42206 2.37243 0
M  V30 4881 H 451.874 -5.33529 0.353705 0
M  V30 4882 H 452.217 -4.08264 -0.814006 0
M  V30 4883 H 452.75 -3.88108 0.872769 0
M  V30 4884 H 449.489 -5.68138 3.26955 0
M  V30 4885 H 449.009 -5.79145 1.5605 0
M  V30 4886 H 450.688 -6.13911 2.0426 0
M  V30 4887 N 450.82 -0.546701 -1.47814 0
M  V30 4888 C 452.067 -0.0187407 -2.02491 0
M  V30 4889 C 452.395 1.32685 -1.42215 0
M  V30 4890 O 451.65 1.87413 -0.563454 0
M  V30 4891 C 451.949 0.134869 -3.57145 0
M  V30 4892 C 451.615 -1.13849 -4.3629 0
M  V30 4893 C 450.277 -1.48743 -4.57634 0
M  V30 4894 C 452.629 -1.98277 -4.82012 0
M  V30 4895 C 449.957 -2.67932 -5.21948 0
M  V30 4896 C 452.309 -3.16659 -5.4764 0
M  V30 4897 C 450.973 -3.51879 -5.67219 0
M  V30 4898 H 450.243 -0.0068577 -0.740968 0
M  V30 4899 H 452.89 -0.716097 -1.77607 0
M  V30 4900 H 451.195 0.915118 -3.80963 0
M  V30 4901 H 452.892 0.558556 -3.97091 0
M  V30 4902 H 449.482 -0.856767 -4.19949 0
M  V30 4903 H 453.666 -1.72628 -4.6531 0
M  V30 4904 H 448.922 -2.95401 -5.35302 0
M  V30 4905 H 453.096 -3.82374 -5.82033 0
M  V30 4906 H 450.723 -4.44331 -6.16825 0
M  V30 4907 N 452.299 1.55045 -0.282633 0
M  V30 4908 C 453.524 2.04628 0.337977 0
M  V30 4909 C 453.949 1.15937 1.48123 0
M  V30 4910 O 453.307 0.159532 1.80597 0
M  V30 4911 C 453.355 3.51854 0.78936 0
M  V30 4912 O 452.459 3.66236 1.89592 0
M  V30 4913 H 451.8 0.660434 0.0687261 0
M  V30 4914 H 454.33 2.00261 -0.419124 0
M  V30 4915 H 454.34 3.93361 1.08311 0
M  V30 4916 H 453.015 4.15873 -0.0470419 0
M  V30 4917 H 451.592 3.36633 1.60413 0
M  V30 4918 N 453.777 0.010035 1.57597 0
M  V30 4919 C 454.74 -0.963029 2.07986 0
M  V30 4920 C 455.74 -1.26619 0.991173 0
M  V30 4921 O 456.93 -1.2097 1.25347 0
M  V30 4922 C 454.062 -2.2851 2.52974 0
M  V30 4923 H 455.255 -0.526971 2.95234 0
M  V30 4924 H 452.808 -0.237639 1.54483 0
M  V30 4925 H 453.543 -2.76784 1.69 0
M  V30 4926 H 453.328 -2.07824 3.32493 0
M  V30 4927 H 454.818 -2.98294 2.9225 0
M  V30 4928 N 455.255 -1.55392 -0.262866 0
M  V30 4929 C 456.666 -1.67079 -0.833158 0
M  V30 4930 C 457.017 -0.604539 -1.86654 0
M  V30 4931 O 456.142 0.252138 -2.14926 0
M  V30 4932 C 456.737 -3.02891 -1.51797 0
M  V30 4933 C 455.296 -3.16571 -2.03617 0
M  V30 4934 C 454.443 -2.62909 -0.881701 0
M  V30 4935 H 457.394 -1.58652 -0.0389986 0
M  V30 4936 H 457.415 -2.96445 -2.38538 0
M  V30 4937 H 456.927 -3.80473 -0.765619 0
M  V30 4938 H 455.028 -2.43782 -2.81782 0
M  V30 4939 H 455.141 -4.23271 -2.24452 0
M  V30 4940 H 453.505 -2.20324 -1.27786 0
M  V30 4941 H 454.288 -3.43003 -0.14269 0
M  V30 4942 N 456.733 0.527833 -1.48498 0
M  V30 4943 C 457.681 1.65313 -1.63628 0
M  V30 4944 C 458.675 1.6177 -0.502676 0
M  V30 4945 O 459.881 1.66601 -0.681469 0
M  V30 4946 H 456.256 0.547518 -0.515488 0
M  V30 4947 H 458.227 1.49696 -2.58135 0
M  V30 4948 C 456.976 3.03576 -1.6952 0
M  V30 4949 H 456.299 3.06997 -2.56111 0
M  V30 4950 H 457.739 3.81923 -1.84149 0
M  V30 4951 C 456.198 3.34089 -0.43432 0
M  V30 4952 O 456.728 3.99151 0.451852 0
M  V30 4953 N 454.934 2.88991 -0.305368 0
M  V30 4954 H 454.481 2.36222 -1.02747 0
M  V30 4955 H 454.439 3.09776 0.537249 0
M  V30 4956 N 458.211 1.37122 0.776871 0
M  V30 4957 C 459.441 1.35034 1.56363 0
M  V30 4958 C 459.849 -0.0674681 1.8908 0
M  V30 4959 O 459.192 -1.03826 1.51545 0
M  V30 4960 C 459.254 2.11894 2.90415 0
M  V30 4961 C 458.918 3.60897 2.80362 0
M  V30 4962 C 459.915 4.54887 2.51742 0
M  V30 4963 C 457.6 4.03951 2.98545 0
M  V30 4964 C 459.594 5.89909 2.41426 0
M  V30 4965 C 457.281 5.3906 2.87849 0
M  V30 4966 C 458.279 6.31852 2.5933 0
M  V30 4967 O 457.967 7.64479 2.48651 0
M  V30 4968 H 457.699 0.464402 0.49123 0
M  V30 4969 H 460.253 1.80992 0.971127 0
M  V30 4970 H 458.483 1.60618 3.51765 0
M  V30 4971 H 460.172 2.02505 3.51776 0
M  V30 4972 H 460.938 4.22934 2.37385 0
M  V30 4973 H 456.817 3.3209 3.19746 0
M  V30 4974 H 460.361 6.62304 2.19086 0
M  V30 4975 H 456.258 5.70617 3.01773 0
M  V30 4976 H 457.026 7.74742 2.64039 0
M  V30 4977 N 459.689 -1.00246 1.21608 0
M  V30 4978 C 460.619 -2.10921 1.00172 0
M  V30 4979 C 461.6 -1.69938 -0.0741587 0
M  V30 4980 O 462.785 -1.94009 0.0861753 0
M  V30 4981 C 459.915 -3.42618 0.568355 0
M  V30 4982 C 458.869 -3.97407 1.58909 0
M  V30 4983 C 458.195 -5.25038 1.01187 0
M  V30 4984 C 459.495 -4.2918 2.97661 0
M  V30 4985 H 461.189 -2.29112 1.92739 0
M  V30 4986 H 458.735 -1.10101 0.928102 0
M  V30 4987 H 460.688 -4.19444 0.405555 0
M  V30 4988 H 459.412 -3.24227 -0.392961 0
M  V30 4989 H 458.071 -3.22703 1.73949 0
M  V30 4990 H 457.719 -5.02982 0.0421965 0
M  V30 4991 H 457.419 -5.62661 1.6937 0
M  V30 4992 H 458.943 -6.04507 0.860448 0
M  V30 4993 H 460.357 -4.96839 2.86049 0
M  V30 4994 H 458.754 -4.77952 3.6288 0
M  V30 4995 H 459.824 -3.3735 3.48315 0
M  V30 4996 N 461.167 -1.02423 -1.1978 0
M  V30 4997 C 462.444 -0.632802 -1.85081 0
M  V30 4998 C 462.824 0.888745 -1.9148 0
M  V30 4999 O 462.172 1.78357 -1.42832 0
M  V30 5000 C 462.382 -1.28947 -3.24305 0
M  V30 5001 C 463.73 -1.40976 -4.00513 0
M  V30 5002 O 464.754 -1.24628 -3.33686 0
M  V30 5003 O 463.613 -1.67467 -5.20209 0
M  V30 5004 H 460.707 -0.219348 -0.79738 0
M  V30 5005 H 463.253 -1.12209 -1.27307 0
M  V30 5006 H 462.025 -2.3288 -3.14456 0
M  V30 5007 H 461.648 -0.787748 -3.89718 0
M  V30 5008 N 462.645 1.35699 -0.801477 0
M  V30 5009 C 463.891 1.99208 -0.380022 0
M  V30 5010 C 464.224 1.63445 1.04878 0
M  V30 5011 O 463.499 0.895223 1.72673 0
M  V30 5012 C 463.782 3.55755 -0.557708 0
M  V30 5013 C 463.635 4.01332 -2.03107 0
M  V30 5014 C 464.954 4.40096 0.0197968 0
M  V30 5015 H 462.073 0.723667 -0.139552 0
M  V30 5016 H 464.715 1.60928 -1.01006 0
M  V30 5017 H 462.865 3.88494 -0.0213741 0
M  V30 5018 H 464.537 3.79026 -2.62939 0
M  V30 5019 H 462.78 3.52429 -2.52936 0
M  V30 5020 H 463.451 5.10234 -2.1063 0
M  V30 5021 H 465.927 4.13786 -0.438179 0
M  V30 5022 H 464.803 5.48735 -0.134477 0
M  V30 5023 H 465.064 4.2786 1.11303 0
M  V30 5024 N 464.123 0.554532 1.47522 0
M  V30 5025 C 465.353 0.0342074 2.06572 0
M  V30 5026 C 465.761 -1.26375 1.40805 0
M  V30 5027 O 465.104 -1.7683 0.49769 0
M  V30 5028 C 465.166 -0.235096 3.5873 0
M  V30 5029 C 464.83 0.973024 4.46521 0
M  V30 5030 C 465.827 1.8779 4.848 0
M  V30 5031 C 463.512 1.18694 4.88075 0
M  V30 5032 C 465.506 2.98039 5.63428 0
M  V30 5033 C 463.193 2.29254 5.66468 0
M  V30 5034 C 464.191 3.18757 6.04055 0
M  V30 5035 O 463.879 4.27401 6.8087 0
M  V30 5036 H 463.611 0.041587 0.67472 0
M  V30 5037 H 466.165 0.766748 1.90552 0
M  V30 5038 H 464.395 -1.02191 3.72953 0
M  V30 5039 H 466.084 -0.700477 3.9981 0
M  V30 5040 H 466.85 1.72467 4.53299 0
M  V30 5041 H 462.729 0.49947 4.58286 0
M  V30 5042 H 466.273 3.67926 5.92685 0
M  V30 5043 H 462.17 2.4455 5.97382 0
M  V30 5044 H 462.938 4.25415 6.9926 0
M  V30 5045 N 465.601 -1.54893 0.290851 0
M  V30 5046 C 466.549 -2.24579 -0.605576 0
M  V30 5047 C 467.543 -1.24824 -1.14522 0
M  V30 5048 O 468.749 -1.42706 -1.09704 0
M  V30 5049 H 465.124 -0.720946 -0.213872 0
M  V30 5050 H 467.095 -2.984 0.0048173 0
M  V30 5051 C 465.844 -2.99224 -1.77088 0
M  V30 5052 H 465.167 -3.75782 -1.36484 0
M  V30 5053 H 466.607 -3.51281 -2.3744 0
M  V30 5054 C 465.066 -2.05602 -2.66888 0
M  V30 5055 O 465.596 -1.61745 -3.67698 0
M  V30 5056 N 463.802 -1.71771 -2.34399 0
M  V30 5057 H 463.349 -2.07633 -1.52468 0
M  V30 5058 H 463.307 -1.09403 -2.94751 0
M  V30 5059 N 467.08 -0.0183926 -1.57589 0
M  V30 5060 C 468.028 0.985111 -2.10709 0
M  V30 5061 C 469.022 1.34397 -1.0312 0
M  V30 5062 O 470.228 1.32746 -1.21567 0
M  V30 5063 H 466.603 0.335418 -0.673052 0
M  V30 5064 H 468.574 0.511689 -2.9398 0
M  V30 5065 C 467.323 2.26202 -2.64061 0
M  V30 5066 H 466.646 1.9946 -3.4649 0
M  V30 5067 H 468.086 2.94652 -3.04887 0
M  V30 5068 C 466.545 2.98444 -1.5631 0
M  V30 5069 O 467.075 3.90142 -0.956674 0
M  V30 5070 N 465.281 2.6059 -1.28612 0
M  V30 5071 H 464.828 1.86101 -1.78112 0
M  V30 5072 H 464.786 3.09238 -0.567406 0
M  V30 5073 N 468.558 1.5553 0.254621 0
M  V30 5074 C 469.505 1.89666 1.31512 0
M  V30 5075 C 470.475 0.750057 1.482 0
M  V30 5076 O 471.66 1.00301 1.62309 0
M  V30 5077 C 468.8 2.19009 2.667 0
M  V30 5078 C 467.913 3.46435 2.58083 0
M  V30 5079 C 467.048 3.65386 3.85573 0
M  V30 5080 C 466.087 4.8644 3.71541 0
M  V30 5081 N 465.224 5.01952 4.90906 0
M  V30 5082 H 470.064 2.80109 1.017 0
M  V30 5083 H 467.601 1.38666 0.490938 0
M  V30 5084 H 469.559 2.34025 3.45381 0
M  V30 5085 H 468.189 1.31779 2.94676 0
M  V30 5086 H 467.241 3.39792 1.71013 0
M  V30 5087 H 468.553 4.35258 2.43622 0
M  V30 5088 H 467.707 3.80319 4.72697 0
M  V30 5089 H 466.446 2.74781 4.02922 0
M  V30 5090 H 465.451 4.71491 2.82801 0
M  V30 5091 H 466.676 5.78497 3.55694 0
M  V30 5092 H 464.622 4.14283 5.08631 0
M  V30 5093 H 464.539 5.84851 4.79046 0
M  V30 5094 H 465.807 5.21289 5.7955 0
M  V30 5095 N 470.036 -0.519951 1.48776 0
M  V30 5096 C 470.999 -1.60574 1.6355 0
M  V30 5097 C 471.999 -1.52557 0.508234 0
M  V30 5098 O 473.189 -1.56047 0.774262 0
M  V30 5099 C 470.321 -3.00211 1.61512 0
M  V30 5100 H 471.514 -1.4881 2.60376 0
M  V30 5101 H 469.067 -0.742772 1.37523 0
M  V30 5102 H 469.802 -3.17471 0.662009 0
M  V30 5103 H 469.587 -3.07439 2.43359 0
M  V30 5104 H 471.077 -3.79134 1.75064 0
M  V30 5105 N 471.514 -1.37532 -0.769588 0
M  V30 5106 C 472.477 -1.33292 -1.86456 0
M  V30 5107 C 473.477 -0.236537 -1.59051 0
M  V30 5108 O 474.667 -0.492511 -1.67093 0
M  V30 5109 C 471.799 -1.07118 -3.23633 0
M  V30 5110 H 472.992 -2.30692 -1.91628 0
M  V30 5111 H 470.545 -1.22593 -0.969572 0
M  V30 5112 H 471.28 -0.102578 -3.24138 0
M  V30 5113 H 471.065 -1.86479 -3.44917 0
M  V30 5114 H 472.555 -1.06806 -4.03711 0
M  V30 5115 N 472.992 0.995999 -1.22138 0
M  V30 5116 C 474.238 1.73767 -1.04561 0
M  V30 5117 C 474.571 1.89633 0.418698 0
M  V30 5118 O 473.846 1.43723 1.3105 0
M  V30 5119 C 474.129 3.14505 -1.75382 0
M  V30 5120 C 473.982 3.06306 -3.29388 0
M  V30 5121 C 475.301 4.13615 -1.50369 0
M  V30 5122 H 472.42 0.630728 -0.38125 0
M  V30 5123 H 475.062 1.16057 -1.50435 0
M  V30 5124 H 473.212 3.63775 -1.36383 0
M  V30 5125 H 474.884 2.64681 -3.77812 0
M  V30 5126 H 473.127 2.43186 -3.59226 0
M  V30 5127 H 473.798 4.05884 -3.74116 0
M  V30 5128 H 476.274 3.73089 -1.84239 0
M  V30 5129 H 475.15 5.10212 -2.02421 0
M  V30 5130 H 475.411 4.39949 -0.435611 0
M  V30 5131 N 474.47 1.03057 1.19235 0
M  V30 5132 C 475.4 0.633497 2.24742 0
M  V30 5133 C 476.381 -0.358335 1.66283 0
M  V30 5134 O 477.566 -0.240676 1.92703 0
M  V30 5135 C 474.696 -0.0147648 3.47297 0
M  V30 5136 C 473.65 0.899527 4.18441 0
M  V30 5137 C 472.976 0.116281 5.34574 0
M  V30 5138 C 474.276 2.21404 4.73051 0
M  V30 5139 H 475.97 1.5155 2.58211 0
M  V30 5140 H 473.516 0.73014 1.24117 0
M  V30 5141 H 475.469 -0.304202 4.20301 0
M  V30 5142 H 474.193 -0.931577 3.13032 0
M  V30 5143 H 472.852 1.17319 3.47321 0
M  V30 5144 H 472.5 -0.802619 4.96555 0
M  V30 5145 H 472.2 0.725293 5.83107 0
M  V30 5146 H 473.724 -0.166376 6.10373 0
M  V30 5147 H 475.138 1.98601 5.37802 0
M  V30 5148 H 473.535 2.77512 5.32078 0
M  V30 5149 H 474.605 2.86752 3.91026 0
M  V30 5150 N 475.948 -1.35272 0.808662 0
M  V30 5151 C 476.895 -2.29764 0.218482 0
M  V30 5152 C 477.865 -1.52911 -0.648652 0
M  V30 5153 O 479.05 -1.81341 -0.593297 0
M  V30 5154 C 476.19 -3.39388 -0.625282 0
M  V30 5155 C 475.303 -4.31202 0.262516 0
M  V30 5156 C 474.438 -5.27919 -0.589451 0
M  V30 5157 C 473.477 -6.11371 0.298617 0
M  V30 5158 N 472.614 -7.0022 -0.513443 0
M  V30 5159 H 477.454 -2.79645 1.02968 0
M  V30 5160 H 474.991 -1.37629 0.519303 0
M  V30 5161 H 476.949 -4.01615 -1.12966 0
M  V30 5162 H 475.579 -2.90777 -1.40173 0
M  V30 5163 H 474.631 -3.69962 0.885013 0
M  V30 5164 H 475.943 -4.89748 0.945971 0
M  V30 5165 H 475.097 -5.95529 -1.15888 0
M  V30 5166 H 473.836 -4.69875 -1.30647 0
M  V30 5167 H 472.841 -5.42707 0.880301 0
M  V30 5168 H 474.066 -6.71494 1.01352 0
M  V30 5169 H 472.012 -6.44662 -1.21439 0
M  V30 5170 H 471.929 -7.55917 0.111922 0
M  V30 5171 H 473.197 -7.72175 -1.06608 0
M  V30 5172 N 477.426 -0.562348 -1.47226 0
M  V30 5173 C 478.656 -0.0451619 -2.06551 0
M  V30 5174 C 479.064 1.25626 -1.41473 0
M  V30 5175 O 478.407 1.76563 -0.507061 0
M  V30 5176 C 478.469 0.216068 -3.5885 0
M  V30 5177 C 478.133 -0.996691 -4.45999 0
M  V30 5178 C 479.13 -1.90358 -4.83797 0
M  V30 5179 C 476.815 -1.21281 -4.87438 0
M  V30 5180 C 478.809 -3.01023 -5.6184 0
M  V30 5181 C 476.496 -2.32255 -5.65244 0
M  V30 5182 C 477.494 -3.21956 -6.02356 0
M  V30 5183 O 477.182 -4.31005 -6.78594 0
M  V30 5184 H 476.914 -0.0451646 -0.67449 0
M  V30 5185 H 479.468 -0.776842 -1.90143 0
M  V30 5186 H 477.698 1.00212 -3.7349 0
M  V30 5187 H 479.387 0.679264 -4.00176 0
M  V30 5188 H 480.153 -1.74868 -4.52378 0
M  V30 5189 H 476.032 -0.523767 -4.58015 0
M  V30 5190 H 479.576 -3.71064 -5.90726 0
M  V30 5191 H 475.473 -2.47715 -5.96077 0
M  V30 5192 H 476.241 -4.29118 -6.96994 0
M  V30 5193 N 478.904 1.54736 -0.299062 0
M  V30 5194 C 479.814 2.27127 0.587413 0
M  V30 5195 C 480.83 1.30575 1.15005 0
M  V30 5196 O 482.006 1.63554 1.17525 0
M  V30 5197 C 479.071 2.99645 1.74395 0
M  V30 5198 C 478.132 4.11731 1.21559 0
M  V30 5199 C 477.365 4.80781 2.317 0
M  V30 5200 O 477.588 4.4918 3.51558 0
M  V30 5201 O 476.522 5.68226 1.98501 0
M  V30 5202 H 480.348 3.037 0.000250109 0
M  V30 5203 H 477.933 1.49256 -0.0655919 0
M  V30 5204 H 479.815 3.45138 2.4178 0
M  V30 5205 H 478.49 2.25969 2.31775 0
M  V30 5206 H 477.397 3.70641 0.507514 0
M  V30 5207 H 478.73 4.87379 0.687233 0
M  V30 5208 N 480.382 0.0267497 1.57577 0
M  V30 5209 C 481.33 -0.973923 2.11229 0
M  V30 5210 C 482.324 -1.33849 1.03831 0
M  V30 5211 O 483.53 -1.321 1.22269 0
M  V30 5212 H 479.905 -0.331844 0.674821 0
M  V30 5213 H 481.876 -0.496092 2.94247 0
M  V30 5214 C 480.625 -2.24798 2.65257 0
M  V30 5215 H 479.948 -1.9762 3.47543 0
M  V30 5216 H 481.388 -2.93031 3.06445 0
M  V30 5217 C 479.847 -2.97611 1.57891 0
M  V30 5218 O 480.377 -3.89629 0.97735 0
M  V30 5219 N 478.583 -2.59905 1.29992 0
M  V30 5220 H 478.13 -1.85154 1.79097 0
M  V30 5221 H 478.088 -3.08932 0.583798 0
M  V30 5222 N 481.861 -1.55662 -0.24637 0
M  V30 5223 C 482.809 -1.91186 -1.3248 0
M  V30 5224 C 483.803 -0.790996 -1.49799 0
M  V30 5225 O 485.009 -0.975617 -1.51267 0
M  V30 5226 H 481.384 -0.607207 -0.443626 0
M  V30 5227 H 483.355 -2.81221 -0.997853 0
M  V30 5228 C 482.104 -2.22349 -2.67313 0
M  V30 5229 H 481.427 -3.08097 -2.54786 0
M  V30 5230 H 482.867 -2.51107 -3.41645 0
M  V30 5231 C 481.326 -1.04001 -3.20446 0
M  V30 5232 O 481.856 -0.28828 -4.00664 0
M  V30 5233 N 480.062 -0.830494 -2.7848 0
M  V30 5234 H 479.609 -1.4435 -2.13356 0
M  V30 5235 H 479.567 -0.0403258 -3.14374 0
M  V30 5236 N 483.339 0.512053 -1.4905 0
M  V30 5237 C 484.585 1.26874 -1.58212 0
M  V30 5238 C 484.918 1.9241 -0.263073 0
M  V30 5239 O 484.193 1.80181 0.732476 0
M  V30 5240 C 484.476 2.34428 -2.73341 0
M  V30 5241 C 484.329 1.73466 -4.15006 0
M  V30 5242 C 485.648 3.36073 -2.84154 0
M  V30 5243 H 482.767 0.459924 -0.575881 0
M  V30 5244 H 485.409 0.568587 -1.81293 0
M  V30 5245 H 483.559 2.94146 -2.53792 0
M  V30 5246 H 485.231 1.17661 -4.46042 0
M  V30 5247 H 483.474 1.03921 -4.21168 0
M  V30 5248 H 484.145 2.51426 -4.91415 0
M  V30 5249 H 486.621 2.86332 -3.01916 0
M  V30 5250 H 485.497 4.08703 -3.66406 0
M  V30 5251 H 485.758 3.97725 -1.93048 0
M  V30 5252 N 484.817 1.37938 0.762283 0
M  V30 5253 C 485.75 1.2884 1.88349 0
M  V30 5254 C 486.728 0.167084 1.61739 0
M  V30 5255 O 487.912 0.34292 1.85355 0
M  V30 5256 C 485.039 0.994257 3.23778 0
M  V30 5257 C 484.085 2.13376 3.69287 0
M  V30 5258 S 484.918 3.75439 3.81845 0
M  V30 5259 C 486.074 3.48195 5.20107 0
M  V30 5260 H 486.307 2.23736 1.95779 0
M  V30 5261 H 483.84 1.23672 0.924368 0
M  V30 5262 H 485.798 0.83138 4.01993 0
M  V30 5263 H 484.459 0.0626251 3.14038 0
M  V30 5264 H 483.652 1.88319 4.67495 0
M  V30 5265 H 483.254 2.25726 2.98201 0
M  V30 5266 H 485.546 3.0377 6.05583 0
M  V30 5267 H 486.489 4.45765 5.50181 0
M  V30 5268 H 486.897 2.82905 4.88493 0
M  V30 5269 N 486.295 -0.989507 1.22664 0
M  V30 5270 C 487.243 -2.10148 0.997035 0
M  V30 5271 C 488.237 -1.6929 -0.0609783 0
M  V30 5272 O 489.443 -1.79766 0.0917523 0
M  V30 5273 H 485.818 -0.687256 0.305259 0
M  V30 5274 H 487.789 -2.26685 1.94053 0
M  V30 5275 C 486.538 -3.4257 0.595085 0
M  V30 5276 H 485.861 -3.74453 1.40089 0
M  V30 5277 H 487.301 -4.21344 0.473869 0
M  V30 5278 C 485.76 -3.29638 -0.695725 0
M  V30 5279 O 486.29 -3.61709 -1.74727 0
M  V30 5280 N 484.496 -2.82814 -0.668173 0
M  V30 5281 H 484.043 -2.56914 0.18787 0
M  V30 5282 H 484.001 -2.74544 -1.5321 0
M  V30 5283 N 487.773 -1.03688 -1.18687 0
M  V30 5284 C 489.022 -0.733235 -1.879 0
M  V30 5285 C 489.335 0.741745 -1.8099 0
M  V30 5286 O 490.541 1.15875 -2.4553 0
M  V30 5287 C 488.997 -1.26127 -3.37076 0
M  V30 5288 C 488.605 -2.76461 -3.52524 0
M  V30 5289 C 490.349 -1.03398 -4.11715 0
M  V30 5290 C 488.256 -3.22642 -4.95637 0
M  V30 5291 H 487.186 -0.270584 -0.703776 0
M  V30 5292 H 489.837 -1.25222 -1.34133 0
M  V30 5293 H 488.219 -0.670165 -3.90288 0
M  V30 5294 H 489.393 -3.41296 -3.09602 0
M  V30 5295 H 487.708 -2.97559 -2.91286 0
M  V30 5296 H 490.305 -1.3542 -5.17267 0
M  V30 5297 H 490.648 0.0289246 -4.1629 0
M  V30 5298 H 491.181 -1.5895 -3.64664 0
M  V30 5299 H 487.92 -4.28296 -4.96228 0
M  V30 5300 H 487.44 -2.62539 -5.39289 0
M  V30 5301 H 489.119 -3.16444 -5.64333 0
M  V30 5302 N 489.251 1.34841 -0.815825 0
M  V30 5303 C 490.667 1.51543 -0.500697 0
M  V30 5304 C 490.867 1.76261 0.976444 0
M  V30 5305 O 489.923 1.8094 1.76117 0
M  V30 5306 C 491.236 2.68487 -1.35407 0
M  V30 5307 C 492.784 2.82368 -1.35046 0
M  V30 5308 C 493.259 4.02347 -2.18816 0
M  V30 5309 N 494.75 4.09542 -2.16402 0
M  V30 5310 C 495.485 5.01517 -2.77971 0
M  V30 5311 N 494.981 5.98763 -3.48503 0
M  V30 5312 N 496.774 4.94334 -2.67563 0
M  V30 5313 H 488.925 1.17055 -1.77234 0
M  V30 5314 H 491.188 0.573481 -0.754866 0
M  V30 5315 H 490.894 2.56829 -2.40274 0
M  V30 5316 H 490.768 3.63321 -1.01377 0
M  V30 5317 H 493.155 2.93471 -0.309604 0
M  V30 5318 H 493.236 1.88363 -1.73069 0
M  V30 5319 H 492.88 3.92004 -3.22948 0
M  V30 5320 H 492.81 4.95551 -1.78148 0
M  V30 5321 H 495.301 3.39932 -1.65091 0
M  V30 5322 H 495.614 6.6556 -3.92747 0
M  V30 5323 H 493.959 5.98909 -3.52609 0
M  V30 5324 H 497.15 4.1732 -2.12041 0
M  V30 5325 H 497.323 5.6582 -3.15834 0
M  V30 5326 N 490.729 0.570148 1.46925 0
M  V30 5327 C 491.661 -0.207909 2.28255 0
M  V30 5328 C 492.674 -0.867301 1.37774 0
M  V30 5329 O 493.863 -0.738976 1.62485 0
M  V30 5330 C 490.963 -1.31298 3.12433 0
M  V30 5331 C 490.136 -0.747915 4.30958 0
M  V30 5332 C 489.195 -1.7391 4.9663 0
M  V30 5333 O 488.221 -1.2801 5.54619 0
M  V30 5334 N 489.423 -3.07288 4.92498 0
M  V30 5335 H 492.188 0.489794 2.95671 0
M  V30 5336 H 489.749 0.407076 1.56699 0
M  V30 5337 H 491.741 -1.97507 3.53232 0
M  V30 5338 H 490.311 -1.91373 2.47175 0
M  V30 5339 H 489.531 0.0913066 3.94094 0
M  V30 5340 H 490.819 -0.349958 5.07595 0
M  V30 5341 H 490.217 -3.47213 4.46609 0
M  V30 5342 H 488.774 -3.69021 5.37277 0
M  V30 5343 N 492.207 -1.54576 0.307264 0
M  V30 5344 C 493.454 -2.00263 -0.300167 0
M  V30 5345 C 493.782 -1.19561 -1.53413 0
M  V30 5346 O 493.037 -0.261487 -1.93945 0
M  V30 5347 C 493.336 -3.50572 -0.695253 0
M  V30 5348 C 493.002 -4.48771 0.437679 0
M  V30 5349 C 491.664 -4.7534 0.748681 0
M  V30 5350 C 494.016 -5.0721 1.19949 0
M  V30 5351 C 491.344 -5.5761 1.8245 0
M  V30 5352 C 493.696 -5.90651 2.26527 0
M  V30 5353 C 492.36 -6.15528 2.58227 0
M  V30 5354 H 491.63 -0.732814 -0.109839 0
M  V30 5355 H 494.277 -1.86664 0.427661 0
M  V30 5356 H 492.582 -3.61814 -1.50326 0
M  V30 5357 H 494.279 -3.83352 -1.17653 0
M  V30 5358 H 490.869 -4.282 0.185187 0
M  V30 5359 H 495.053 -4.86679 0.972474 0
M  V30 5360 H 490.309 -5.75121 2.07476 0
M  V30 5361 H 494.483 -6.34957 2.86011 0
M  V30 5362 H 492.11 -6.79066 3.4172 0
M  V30 5363 N 493.685 -0.035106 -1.57561 0
M  V30 5364 C 494.633 0.962707 -2.11742 0
M  V30 5365 C 495.627 1.33296 -1.0454 0
M  V30 5366 O 496.833 1.31449 -1.22968 0
M  V30 5367 H 493.208 0.32826 -0.676572 0
M  V30 5368 H 495.179 0.48048 -2.94506 0
M  V30 5369 C 493.928 2.23388 -2.66445 0
M  V30 5370 H 493.251 1.95774 -3.48587 0
M  V30 5371 H 494.691 2.91402 -3.07995 0
M  V30 5372 C 493.15 2.96769 -1.59467 0
M  V30 5373 O 493.68 3.89105 -0.998 0
M  V30 5374 N 491.886 2.59212 -1.31369 0
M  V30 5375 H 491.433 1.84202 -1.80076 0
M  V30 5376 H 491.391 3.08618 -0.600173 0
M  V30 5377 N 495.163 1.55791 0.238111 0
M  V30 5378 C 496.403 1.79801 0.972163 0
M  V30 5379 C 496.767 0.606027 1.82185 0
M  V30 5380 O 497.968 0.725079 2.58836 0
M  V30 5381 C 496.239 3.08608 1.80266 0
M  V30 5382 S 497.798 3.53872 2.59461 0
M  V30 5383 H 494.616 0.631418 0.326852 0
M  V30 5384 H 497.218 1.94031 0.239212 0
M  V30 5385 H 495.922 3.93419 1.1683 0
M  V30 5386 H 495.453 2.9714 2.57821 0
M  V30 5387 H 497.468 3.15899 3.82651 0
M  V30 5388 N 496.642 -0.504142 1.49319 0
M  V30 5389 C 497.867 -1.28729 1.62615 0
M  V30 5390 C 498.292 -1.85752 0.296309 0
M  V30 5391 O 497.65 -1.65704 -0.735649 0
M  V30 5392 C 497.698 -2.39561 2.69524 0
M  V30 5393 O 496.802 -3.43324 2.28478 0
M  V30 5394 H 496.143 -0.380172 0.544395 0
M  V30 5395 H 498.673 -0.603872 1.95485 0
M  V30 5396 H 498.683 -2.8537 2.91595 0
M  V30 5397 H 497.358 -1.97423 3.66056 0
M  V30 5398 H 495.935 -3.03455 2.16725 0
M  V30 5399 N 498.12 -1.38341 -0.754957 0
M  V30 5400 C 499.531 -1.30803 -1.3322 0
M  V30 5401 C 499.882 0.0368 -1.96165 0
M  V30 5402 O 499.007 0.938844 -1.94974 0
M  V30 5403 C 499.602 -2.3688 -2.42225 0
M  V30 5404 C 498.161 -2.32925 -2.95674 0
M  V30 5405 C 497.308 -2.19819 -1.69042 0
M  V30 5406 H 500.259 -1.48719 -0.553937 0
M  V30 5407 H 500.28 -2.02517 -3.22129 0
M  V30 5408 H 499.792 -3.34747 -1.96383 0
M  V30 5409 H 497.893 -1.38635 -3.45848 0
M  V30 5410 H 498.006 -3.27008 -3.50146 0
M  V30 5411 H 496.37 -1.66648 -1.92615 0
M  V30 5412 H 497.153 -3.19625 -1.25279 0
M  V30 5413 N 499.598 0.982988 -1.23187 0
M  V30 5414 C 500.548 2.05962 -0.977942 0
M  V30 5415 C 501.532 1.60725 0.0751148 0
M  V30 5416 O 502.724 1.76471 -0.136683 0
M  V30 5417 C 499.853 3.38564 -0.568276 0
M  V30 5418 C 498.939 3.90407 -1.6566 0
M  V30 5419 N 499.33 4.15359 -2.88635 0
M  V30 5420 C 497.628 4.18915 -1.53058 0
M  V30 5421 C 498.329 4.57642 -3.5908 0
M  V30 5422 N 497.305 4.6192 -2.86584 0
M  V30 5423 H 501.107 2.23208 -1.91195 0
M  V30 5424 H 498.621 1.16555 -1.13087 0
M  V30 5425 H 500.618 4.15276 -0.36764 0
M  V30 5426 H 499.278 3.22712 0.358713 0
M  V30 5427 H 500.289 4.03258 -3.24966 0
M  V30 5428 H 496.966 4.12081 -0.670506 0
M  V30 5429 H 498.356 4.85488 -4.6449 0
M  V30 5430 N 501.076 1.04316 1.18135 0
M  V30 5431 C 502.487 0.775505 1.69832 0
M  V30 5432 C 502.838 -0.703348 1.8316 0
M  V30 5433 O 501.963 -1.54729 1.51287 0
M  V30 5434 C 502.558 1.40112 3.0847 0
M  V30 5435 C 501.117 1.18172 3.57368 0
M  V30 5436 C 500.264 1.49022 2.33854 0
M  V30 5437 H 503.215 1.20925 1.02775 0
M  V30 5438 H 503.236 0.805672 3.71873 0
M  V30 5439 H 502.748 2.47744 2.98738 0
M  V30 5440 H 500.849 0.124258 3.72393 0
M  V30 5441 H 500.962 1.8805 4.40652 0
M  V30 5442 H 499.326 0.909995 2.37889 0
M  V30 5443 H 500.109 2.57768 2.26738 0
M  V30 5444 N 502.554 -1.34406 0.822964 0
M  V30 5445 C 503.784 -2.02214 0.423424 0
M  V30 5446 C 504.192 -1.62124 -0.975322 0
M  V30 5447 O 503.535 -0.822452 -1.6426 0
M  V30 5448 C 503.597 -3.56721 0.446107 0
M  V30 5449 C 503.261 -4.20136 1.79819 0
M  V30 5450 C 504.258 -4.4065 2.75904 0
M  V30 5451 C 501.943 -4.56906 2.08669 0
M  V30 5452 C 503.937 -4.9706 3.99012 0
M  V30 5453 C 501.624 -5.13026 3.32036 0
M  V30 5454 C 502.622 -5.33047 4.27024 0
M  V30 5455 O 502.31 -5.87979 5.48211 0
M  V30 5456 H 502.042 -0.654748 0.168169 0
M  V30 5457 H 504.596 -1.72659 1.11257 0
M  V30 5458 H 502.826 -3.85537 -0.299734 0
M  V30 5459 H 504.515 -4.05845 0.0666114 0
M  V30 5460 H 505.281 -4.12607 2.54912 0
M  V30 5461 H 501.16 -4.40626 1.35535 0
M  V30 5462 H 504.704 -5.12603 4.73164 0
M  V30 5463 H 500.601 -5.40498 3.52891 0
M  V30 5464 H 501.369 -6.06413 5.49732 0
M  V30 5465 N 504.032 -0.577932 -1.46621 0
M  V30 5466 C 505.278 -0.0700937 -2.03279 0
M  V30 5467 C 505.633 1.27376 -1.44198 0
M  V30 5468 O 504.926 1.82097 -0.595911 0
M  V30 5469 C 505.12 0.0590832 -3.57351 0
M  V30 5470 C 504.949 -1.2707 -4.31374 0
M  V30 5471 C 503.719 -1.84357 -4.70469 0
M  V30 5472 C 505.917 -2.19278 -4.65211 0
M  V30 5473 N 503.899 -3.11124 -5.29221 0
M  V30 5474 C 505.27 -3.30631 -5.24484 0
M  V30 5475 C 507.325 -2.19018 -4.47142 0
M  V30 5476 C 506.028 -4.41849 -5.67593 0
M  V30 5477 C 508.054 -3.29262 -4.91264 0
M  V30 5478 C 507.416 -4.39335 -5.50604 0
M  V30 5479 H 503.515 -0.0683127 -0.779011 0
M  V30 5480 H 506.099 -0.76978 -1.78836 0
M  V30 5481 H 504.27 0.727929 -3.81518 0
M  V30 5482 H 506.002 0.57087 -4.00653 0
M  V30 5483 H 502.757 -1.37906 -4.53077 0
M  V30 5484 H 503.181 -3.75794 -5.63123 0
M  V30 5485 H 507.823 -1.35191 -4.00604 0
M  V30 5486 H 505.541 -5.26421 -6.13112 0
M  V30 5487 H 509.127 -3.30172 -4.79038 0
M  V30 5488 H 508.007 -5.23233 -5.84121 0
M  V30 5489 N 505.51 1.54411 -0.315457 0
M  V30 5490 C 506.44 2.27002 0.547039 0
M  V30 5491 C 507.421 1.27492 1.12605 0
M  V30 5492 O 508.606 1.5629 1.15269 0
M  V30 5493 C 505.736 3.02171 1.71201 0
M  V30 5494 C 504.69 4.0895 1.26268 0
M  V30 5495 C 504.016 4.71915 2.51396 0
M  V30 5496 C 505.316 5.20891 0.383419 0
M  V30 5497 H 507.01 2.99343 -0.0584517 0
M  V30 5498 H 504.556 1.4397 -0.0295527 0
M  V30 5499 H 506.509 3.51681 2.32161 0
M  V30 5500 H 505.233 2.27433 2.34397 0
M  V30 5501 H 503.892 3.60312 0.676062 0
M  V30 5502 H 503.54 3.93801 3.12937 0
M  V30 5503 H 503.24 5.44039 2.22026 0
M  V30 5504 H 504.764 5.24195 3.13133 0
M  V30 5505 H 506.178 5.66206 0.899082 0
M  V30 5506 H 504.575 5.99821 0.182857 0
M  V30 5507 H 505.645 4.81324 -0.587821 0
M  V30 5508 N 506.988 0.0434614 1.5754 0
M  V30 5509 C 508.399 -0.493343 1.80064 0
M  V30 5510 C 508.75 -1.71388 0.955023 0
M  V30 5511 O 507.875 -2.15736 0.169434 0
M  V30 5512 C 508.47 -0.90179 3.26578 0
M  V30 5513 C 507.029 -1.38362 3.50047 0
M  V30 5514 C 506.176 -0.355129 2.75017 0
M  V30 5515 H 509.127 0.2694 1.56397 0
M  V30 5516 H 509.148 -1.76523 3.37075 0
M  V30 5517 H 508.66 -0.013271 3.88098 0
M  V30 5518 H 506.761 -2.29159 2.93798 0
M  V30 5519 H 506.874 -1.3811 4.58762 0
M  V30 5520 H 505.238 -0.826348 2.40922 0
M  V30 5521 H 506.021 0.525172 3.39259 0
M  V30 5522 N 508.466 -1.55915 -0.229846 0
M  V30 5523 C 509.414 -1.9258 -1.30444 0
M  V30 5524 C 510.408 -0.806839 -1.48951 0
M  V30 5525 O 511.614 -0.991606 -1.50224 0
M  V30 5526 H 507.989 -0.611878 -0.437161 0
M  V30 5527 H 509.96 -2.82264 -0.96797 0
M  V30 5528 C 508.709 -2.25171 -2.6494 0
M  V30 5529 H 508.032 -3.10782 -2.51504 0
M  V30 5530 H 509.472 -2.54716 -3.38963 0
M  V30 5531 C 507.931 -1.07394 -3.19324 0
M  V30 5532 O 508.461 -0.330759 -4.00336 0
M  V30 5533 N 506.667 -0.859984 -2.77584 0
M  V30 5534 H 506.214 -1.46605 -2.11813 0
M  V30 5535 H 506.172 -0.0736671 -3.14314 0
M  V30 5536 N 509.944 0.496216 -1.49584 0
M  V30 5537 C 511.191 1.25003 -1.59312 0
M  V30 5538 C 511.519 1.92445 -0.28198 0
M  V30 5539 O 510.774 1.81557 0.730452 0
M  V30 5540 C 511.073 2.3359 -2.705 0
M  V30 5541 C 510.739 1.83574 -4.11839 0
M  V30 5542 C 509.401 1.69653 -4.50302 0
M  V30 5543 C 511.753 1.46193 -5.00277 0
M  V30 5544 C 509.081 1.16736 -5.74969 0
M  V30 5545 C 511.433 0.947265 -6.25468 0
M  V30 5546 C 510.097 0.794485 -6.62755 0
M  V30 5547 H 509.367 0.45742 -0.582965 0
M  V30 5548 H 512.014 0.549996 -1.83432 0
M  V30 5549 H 510.319 3.09401 -2.40371 0
M  V30 5550 H 512.016 2.91627 -2.75235 0
M  V30 5551 H 508.606 1.9537 -3.81482 0
M  V30 5552 H 512.79 1.55793 -4.71214 0
M  V30 5553 H 508.046 1.03623 -6.02555 0
M  V30 5554 H 512.22 0.648846 -6.93371 0
M  V30 5555 H 509.847 0.382271 -7.59238 0
M  V30 5556 N 511.423 1.38739 0.74761 0
M  V30 5557 C 512.356 1.3083 1.86972 0
M  V30 5558 C 513.334 0.184229 1.61553 0
M  V30 5559 O 514.518 0.36256 1.8498 0
M  V30 5560 C 511.645 1.02854 3.22705 0
M  V30 5561 C 510.691 2.17281 3.67003 0
M  V30 5562 S 511.524 3.79468 3.77842 0
M  V30 5563 C 512.68 3.53692 5.16385 0
M  V30 5564 H 512.913 2.258 1.93395 0
M  V30 5565 H 510.446 1.24646 0.911199 0
M  V30 5566 H 512.404 0.87397 4.01089 0
M  V30 5567 H 511.065 0.0959295 3.13953 0
M  V30 5568 H 510.258 1.93267 4.65472 0
M  V30 5569 H 509.86 2.28876 2.9579 0
M  V30 5570 H 512.152 3.10176 6.02327 0
M  V30 5571 H 513.095 4.51576 5.45422 0
M  V30 5572 H 513.503 2.8807 4.85464 0
M  V30 5573 N 512.901 -0.976442 1.23707 0
M  V30 5574 C 514.178 -1.69296 0.979699 0
M  V30 5575 C 514.558 -2.0508 -0.500555 0
M  V30 5576 O 513.906 -1.74708 -1.47273 0
M  V30 5577 C 514.116 -2.93143 1.89389 0
M  V30 5578 C 515.464 -3.65572 2.15968 0
M  V30 5579 O 516.488 -3.03184 1.86971 0
M  V30 5580 O 515.347 -4.77859 2.65167 0
M  V30 5581 H 512.441 -0.739708 0.369812 0
M  V30 5582 H 514.987 -1.03131 1.34767 0
M  V30 5583 H 513.759 -2.63327 2.89439 0
M  V30 5584 H 513.382 -3.67044 1.52854 0
M  V30 5585 N 514.379 -1.04941 -1.1758 0
M  V30 5586 C 515.625 -0.759112 -1.88057 0
M  V30 5587 C 515.958 0.711918 -1.8068 0
M  V30 5588 O 515.233 1.52035 -1.21308 0
M  V30 5589 C 515.516 -1.237 -3.38187 0
M  V30 5590 C 515.369 -2.77078 -3.54327 0
M  V30 5591 C 516.688 -0.834014 -4.32125 0
M  V30 5592 H 513.807 -0.277237 -0.682868 0
M  V30 5593 H 516.449 -1.30296 -1.38286 0
M  V30 5594 H 514.599 -0.774337 -3.80705 0
M  V30 5595 H 516.271 -3.31449 -3.20842 0
M  V30 5596 H 514.514 -3.16477 -2.96689 0
M  V30 5597 H 515.185 -3.05577 -4.59703 0
M  V30 5598 H 517.661 -1.23228 -3.97434 0
M  V30 5599 H 516.537 -1.19603 -5.35711 0
M  V30 5600 H 516.798 0.262195 -4.41322 0
M  V30 5601 N 515.857 1.33968 -0.830081 0
M  V30 5602 C 517.104 1.98063 -0.421566 0
M  V30 5603 C 517.432 1.65787 1.0171 0
M  V30 5604 O 516.687 0.925348 1.72441 0
M  V30 5605 C 516.986 3.52679 -0.57898 0
M  V30 5606 C 516.652 4.04884 -1.98443 0
M  V30 5607 C 515.314 4.18852 -2.36888 0
M  V30 5608 C 517.666 4.32879 -2.90285 0
M  V30 5609 C 514.994 4.58145 -3.66497 0
M  V30 5610 C 517.346 4.7362 -4.19364 0
M  V30 5611 C 516.01 4.85794 -4.57778 0
M  V30 5612 H 515.28 0.724765 -0.154262 0
M  V30 5613 H 517.927 1.59792 -1.05541 0
M  V30 5614 H 516.232 3.91556 0.138219 0
M  V30 5615 H 517.929 4.00261 -0.243317 0
M  V30 5616 H 514.519 3.9448 -1.67581 0
M  V30 5617 H 518.703 4.21619 -2.61823 0
M  V30 5618 H 513.959 4.65762 -3.96075 0
M  V30 5619 H 518.133 4.9424 -4.90612 0
M  V30 5620 H 515.76 5.15998 -5.58256 0
M  V30 5621 N 517.335 0.585699 1.46312 0
M  V30 5622 C 518.563 0.0781299 2.06752 0
M  V30 5623 C 518.978 -1.22812 1.43396 0
M  V30 5624 O 518.335 -1.74318 0.540314 0
M  V30 5625 C 518.386 -0.0911927 3.61385 0
M  V30 5626 O 518.107 1.16336 4.22371 0
M  V30 5627 C 519.608 -0.632765 4.38761 0
M  V30 5628 H 516.828 0.0588188 0.668417 0
M  V30 5629 H 519.372 0.807218 1.87894 0
M  V30 5630 H 517.527 -0.770514 3.7966 0
M  V30 5631 H 517.941 0.979082 5.15281 0
M  V30 5632 H 519.415 -0.70041 5.47538 0
M  V30 5633 H 519.892 -1.65039 4.07012 0
M  V30 5634 H 520.498 0.0117856 4.25298 0
M  V30 5635 N 518.813 -1.54241 0.323641 0
M  V30 5636 C 520.059 -2.01572 -0.272089 0
M  V30 5637 C 520.414 -1.20774 -1.49771 0
M  V30 5638 O 519.707 -0.281821 -1.89516 0
M  V30 5639 C 519.901 -3.5129 -0.658031 0
M  V30 5640 C 519.73 -4.46582 0.528645 0
M  V30 5641 C 518.5 -4.94737 1.02777 0
M  V30 5642 C 520.698 -4.95416 1.38086 0
M  V30 5643 N 518.68 -5.73933 2.17885 0
M  V30 5644 C 520.051 -5.72537 2.3791 0
M  V30 5645 C 522.106 -4.77559 1.40861 0
M  V30 5646 C 520.809 -6.33702 3.40314 0
M  V30 5647 C 522.835 -5.39559 2.42136 0
M  V30 5648 C 522.197 -6.16532 3.40688 0
M  V30 5649 H 518.296 -0.779425 -0.0634072 0
M  V30 5650 H 520.88 -1.8922 0.458697 0
M  V30 5651 H 519.051 -3.63888 -1.35795 0
M  V30 5652 H 520.783 -3.85388 -1.23524 0
M  V30 5653 H 517.538 -4.69796 0.599046 0
M  V30 5654 H 517.962 -6.18209 2.75947 0
M  V30 5655 H 522.604 -4.17611 0.660352 0
M  V30 5656 H 520.322 -6.9277 4.16047 0
M  V30 5657 H 523.908 -5.27659 2.45086 0
M  V30 5658 H 522.788 -6.63655 4.1777 0
M  V30 5659 N 520.291 -0.0518155 -1.57515 0
M  V30 5660 C 521.516 0.634896 -1.97443 0
M  V30 5661 C 521.941 1.63546 -0.929207 0
M  V30 5662 O 521.299 1.80981 0.107484 0
M  V30 5663 C 521.347 1.29765 -3.36442 0
M  V30 5664 O 520.451 2.41333 -3.34413 0
M  V30 5665 H 519.792 0.164994 -0.643174 0
M  V30 5666 H 522.322 -0.120407 -2.04245 0
M  V30 5667 H 522.332 1.64918 -3.73184 0
M  V30 5668 H 521.007 0.564361 -4.12053 0
M  V30 5669 H 519.584 2.08122 -3.09418 0
M  V30 5670 N 521.769 1.56035 0.221574 0
M  V30 5671 C 522.699 1.95434 1.2778 0
M  V30 5672 C 523.68 0.822564 1.48889 0
M  V30 5673 O 524.865 1.08486 1.61072 0
M  V30 5674 C 521.995 2.27102 2.62759 0
M  V30 5675 C 520.949 3.4277 2.56306 0
M  V30 5676 C 520.275 3.60043 3.95314 0
M  V30 5677 C 521.575 4.77742 2.11093 0
M  V30 5678 H 523.269 2.83912 0.950504 0
M  V30 5679 H 520.815 1.36596 0.455791 0
M  V30 5680 H 522.768 2.53256 3.36807 0
M  V30 5681 H 521.492 1.35478 2.97176 0
M  V30 5682 H 520.151 3.16664 1.84715 0
M  V30 5683 H 519.799 2.65794 4.27039 0
M  V30 5684 H 519.499 4.37841 3.91879 0
M  V30 5685 H 521.023 3.88545 4.71025 0
M  V30 5686 H 522.437 5.03102 2.74885 0
M  V30 5687 H 520.834 5.58823 2.18716 0
M  V30 5688 H 521.904 4.731 1.06321 0
M  V30 5689 N 523.247 -0.488276 1.49845 0
M  V30 5690 C 524.658 -1.06955 1.53028 0
M  V30 5691 C 525.009 -1.9351 0.323797 0
M  V30 5692 O 524.134 -2.08891 -0.565116 0
M  V30 5693 C 524.729 -1.94643 2.77307 0
M  V30 5694 C 523.288 -2.4791 2.83227 0
M  V30 5695 C 522.435 -1.25833 2.47106 0
M  V30 5696 H 525.386 -0.271626 1.56358 0
M  V30 5697 H 525.407 -2.79496 2.5819 0
M  V30 5698 H 524.919 -1.31621 3.65099 0
M  V30 5699 H 523.02 -3.14535 1.99745 0
M  V30 5700 H 523.133 -2.84193 3.85709 0
M  V30 5701 H 521.497 -1.58764 1.99163 0
M  V30 5702 H 522.28 -0.644993 3.37186 0
M  V30 5703 N 524.725 -1.39134 -0.740242 0
M  V30 5704 C 525.972 -1.36071 -1.49969 0
M  V30 5705 C 526.3 0.0450245 -1.94448 0
M  V30 5706 O 525.555 1.02482 -1.66721 0
M  V30 5707 C 525.854 -2.27457 -2.75678 0
M  V30 5708 C 525.52 -3.75185 -2.50094 0
M  V30 5709 C 524.182 -4.15439 -2.42825 0
M  V30 5710 C 526.534 -4.68643 -2.28086 0
M  V30 5711 C 523.862 -5.4722 -2.11584 0
M  V30 5712 C 526.214 -6.00695 -1.98363 0
M  V30 5713 C 524.878 -6.40018 -1.8956 0
M  V30 5714 H 524.148 -0.497921 -0.548777 0
M  V30 5715 H 526.795 -1.71599 -0.85007 0
M  V30 5716 H 525.1 -1.8503 -3.45356 0
M  V30 5717 H 526.797 -2.22384 -3.33686 0
M  V30 5718 H 523.387 -3.43279 -2.56627 0
M  V30 5719 H 527.571 -4.3838 -2.32672 0
M  V30 5720 H 522.827 -5.76615 -2.03287 0
M  V30 5721 H 527.001 -6.72644 -1.80341 0
M  V30 5722 H 524.628 -7.42051 -1.65117 0
M  V30 5723 N 526.204 0.969867 -1.24223 0
M  V30 5724 C 527.45 1.7151 -1.08223 0
M  V30 5725 C 527.783 1.90478 0.37838 0
M  V30 5726 O 527.058 1.4647 1.27971 0
M  V30 5727 C 527.341 3.10714 -1.82013 0
M  V30 5728 C 527.194 2.9925 -3.35811 0
M  V30 5729 C 528.513 4.10332 -1.59108 0
M  V30 5730 H 525.632 0.622499 -0.394543 0
M  V30 5731 H 528.274 1.1284 -1.52863 0
M  V30 5732 H 526.424 3.608 -1.44068 0
M  V30 5733 H 528.096 2.56608 -3.83341 0
M  V30 5734 H 526.339 2.35512 -3.64303 0
M  V30 5735 H 527.01 3.97857 -3.82641 0
M  V30 5736 H 529.486 3.69097 -1.92111 0
M  V30 5737 H 528.362 5.05804 -2.13198 0
M  V30 5738 H 528.623 4.38926 -0.528832 0
M  V30 5739 N 527.682 1.05563 1.17022 0
M  V30 5740 C 528.93 0.76642 1.87004 0
M  V30 5741 C 529.251 -0.708854 1.8166 0
M  V30 5742 O 528.521 -1.51242 1.2451 0
M  V30 5743 H 527.101 0.280516 0.692329 0
M  V30 5744 H 529.763 1.33557 1.41945 0
M  V30 5745 H 528.859 1.08472 2.92644 0
M  V30 5746 N 529.16 -1.33526 0.837174 0
M  V30 5747 C 530.07 -2.33023 0.271568 0
M  V30 5748 C 531.086 -1.63272 -0.601514 0
M  V30 5749 O 532.262 -1.94939 -0.506038 0
M  V30 5750 C 529.327 -3.42382 -0.545448 0
M  V30 5751 C 528.388 -4.27857 0.351709 0
M  V30 5752 C 527.621 -5.31994 -0.426409 0
M  V30 5753 O 527.844 -5.45763 -1.65828 0
M  V30 5754 O 526.778 -6.01572 0.1987 0
M  V30 5755 H 530.604 -2.83256 1.09545 0
M  V30 5756 H 528.189 -1.36837 0.599655 0
M  V30 5757 H 530.071 -4.09122 -1.00979 0
M  V30 5758 H 528.746 -2.94369 -1.34641 0
M  V30 5759 H 527.653 -3.6399 0.863853 0
M  V30 5760 H 528.986 -4.79349 1.1174 0
M  V30 5761 N 530.638 -0.59345 -1.46 0
M  V30 5762 C 531.585 0.133618 -2.30413 0
M  V30 5763 C 532.555 0.873736 -1.41262 0
M  V30 5764 O 533.74 0.862279 -1.70204 0
M  V30 5765 C 530.88 1.13434 -3.25924 0
M  V30 5766 C 529.993 0.39656 -4.30176 0
M  V30 5767 C 529.128 1.38575 -5.12806 0
M  V30 5768 C 528.167 0.634984 -6.08797 0
M  V30 5769 N 527.304 1.57276 -6.84258 0
M  V30 5770 H 532.144 -0.592252 -2.92055 0
M  V30 5771 H 529.681 -0.303874 -1.43927 0
M  V30 5772 H 531.639 1.72752 -3.79753 0
M  V30 5773 H 530.269 1.82779 -2.66067 0
M  V30 5774 H 529.321 -0.311861 -3.79119 0
M  V30 5775 H 530.633 -0.189869 -4.98438 0
M  V30 5776 H 529.787 2.05141 -5.70966 0
M  V30 5777 H 528.526 2.00611 -4.44529 0
M  V30 5778 H 527.531 -0.0443925 -5.49782 0
M  V30 5779 H 528.756 0.0198678 -6.79097 0
M  V30 5780 H 526.702 2.18103 -6.18682 0
M  V30 5781 H 526.619 1.03941 -7.48821 0
M  V30 5782 H 527.887 2.22844 -7.46968 0
M  V30 5783 N 532.116 1.54067 -0.331816 0
M  V30 5784 C 533.362 2.01012 0.268667 0
M  V30 5785 C 533.695 1.2195 1.51136 0
M  V30 5786 O 532.97 0.303972 1.9211 0
M  V30 5787 C 533.253 3.55158 0.59456 0
M  V30 5788 C 533.106 4.4494 -0.659409 0
M  V30 5789 C 534.425 4.16939 1.4089 0
M  V30 5790 H 531.544 0.730698 0.0961756 0
M  V30 5791 H 534.186 1.84593 -0.450031 0
M  V30 5792 H 532.336 3.6928 1.20685 0
M  V30 5793 H 534.008 4.42675 -1.29756 0
M  V30 5794 H 532.251 4.1428 -1.28665 0
M  V30 5795 H 532.922 5.50643 -0.386804 0
M  V30 5796 H 535.398 4.06443 0.891272 0
M  V30 5797 H 534.274 5.24889 1.60569 0
M  V30 5798 H 534.535 3.70798 2.40752 0
M  V30 5799 N 533.594 0.0601682 1.57485 0
M  V30 5800 C 534.822 -0.620937 1.97363 0
M  V30 5801 C 535.237 -1.63846 0.938082 0
M  V30 5802 O 534.594 -1.82339 -0.0766578 0
M  V30 5803 C 534.645 -1.29987 3.37321 0
M  V30 5804 O 534.366 -0.323081 4.36907 0
M  V30 5805 C 535.867 -2.06989 3.92008 0
M  V30 5806 H 533.087 -0.169135 0.649334 0
M  V30 5807 H 535.631 0.129132 2.04092 0
M  V30 5808 H 533.786 -2.0011 3.31715 0
M  V30 5809 H 534.2 -0.808754 5.18227 0
M  V30 5810 H 535.674 -2.49901 4.92192 0
M  V30 5811 H 536.151 -2.92173 3.2792 0
M  V30 5812 H 536.757 -1.41757 4.0098 0
M  V30 5813 N 535.072 -1.5615 -0.213296 0
M  V30 5814 C 535.982 -1.96265 -1.28519 0
M  V30 5815 C 536.998 -0.86765 -1.50824 0
M  V30 5816 O 538.174 -1.17191 -1.63793 0
M  V30 5817 C 535.239 -2.27836 -2.61327 0
M  V30 5818 C 534.3 -3.50949 -2.47252 0
M  V30 5819 C 533.533 -3.81004 -3.73727 0
M  V30 5820 O 533.756 -3.12612 -4.77106 0
M  V30 5821 O 532.69 -4.74477 -3.70344 0
M  V30 5822 H 536.516 -2.87631 -0.974795 0
M  V30 5823 H 534.101 -1.43467 -0.416832 0
M  V30 5824 H 535.983 -2.49299 -3.39747 0
M  V30 5825 H 534.658 -1.39643 -2.9203 0
M  V30 5826 H 533.565 -3.34754 -1.67004 0
M  V30 5827 H 534.898 -4.39551 -2.21486 0
M  V30 5828 N 536.55 0.480323 -1.50102 0
M  V30 5829 C 537.483 1.59789 -1.62919 0
M  V30 5830 C 538.461 1.55429 -0.477557 0
M  V30 5831 O 539.645 1.75186 -0.695851 0
M  V30 5832 C 536.772 2.98351 -1.60325 0
M  V30 5833 C 535.818 3.20899 -2.80938 0
M  V30 5834 S 536.651 3.01791 -4.4236 0
M  V30 5835 C 537.807 4.42712 -4.42444 0
M  V30 5836 H 538.04 1.48676 -2.57454 0
M  V30 5837 H 535.573 0.666996 -1.3925 0
M  V30 5838 H 537.531 3.7824 -1.59514 0
M  V30 5839 H 536.192 3.06862 -0.670419 0
M  V30 5840 H 535.385 4.22102 -2.75401 0
M  V30 5841 H 534.987 2.48768 -2.79268 0
M  V30 5842 H 537.279 5.3518 -4.15438 0
M  V30 5843 H 538.222 4.53294 -5.43995 0
M  V30 5844 H 538.63 4.24359 -3.72263 0
M  V30 5845 N 538.028 1.39524 0.732853 0
M  V30 5846 C 538.958 1.41153 1.86005 0
M  V30 5847 C 539.939 0.274614 1.67869 0
M  V30 5848 O 541.124 0.480745 1.88155 0
M  V30 5849 C 538.254 1.25638 3.23778 0
M  V30 5850 C 537.208 2.36752 3.56556 0
M  V30 5851 C 536.534 2.06326 4.93289 0
M  V30 5852 C 537.834 3.79069 3.5931 0
M  V30 5853 H 539.528 2.35484 1.84899 0
M  V30 5854 H 537.074 1.13348 0.888162 0
M  V30 5855 H 539.027 1.25398 4.0231 0
M  V30 5856 H 537.751 0.277772 3.25417 0
M  V30 5857 H 536.41 2.36213 2.80355 0
M  V30 5858 H 536.058 1.06897 4.9151 0
M  V30 5859 H 535.758 2.80757 5.16187 0
M  V30 5860 H 537.282 2.07739 5.74175 0
M  V30 5861 H 538.696 3.81526 4.27914 0
M  V30 5862 H 537.093 4.52878 3.93728 0
M  V30 5863 H 538.163 4.09893 2.59068 0
M  V30 5864 N 539.506 -0.963266 1.24736 0
M  V30 5865 C 540.752 -1.70933 1.09131 0
M  V30 5866 C 541.085 -1.90676 -0.368273 0
M  V30 5867 O 540.36 -1.47147 -1.27193 0
M  V30 5868 C 540.643 -3.09744 1.83658 0
M  V30 5869 C 540.496 -2.97465 3.37394 0
M  V30 5870 C 541.815 -4.09483 1.61282 0
M  V30 5871 H 538.934 -0.620398 0.397838 0
M  V30 5872 H 541.576 -1.12028 1.53459 0
M  V30 5873 H 539.726 -3.60031 1.4598 0
M  V30 5874 H 541.398 -2.54571 3.84696 0
M  V30 5875 H 539.641 -2.33576 3.65547 0
M  V30 5876 H 540.312 -3.95822 3.84745 0
M  V30 5877 H 542.788 -3.68073 1.94066 0
M  V30 5878 H 541.664 -5.04666 2.15878 0
M  V30 5879 H 541.925 -4.38639 0.552102 0
M  V30 5880 N 540.985 -1.06182 -1.16461 0
M  V30 5881 C 541.933 -0.665716 -2.2287 0
M  V30 5882 C 542.927 0.317822 -1.66392 0
M  V30 5883 O 544.133 0.182807 -1.79069 0
M  V30 5884 H 540.508 -0.197148 -0.725697 0
M  V30 5885 H 542.479 -1.57307 -2.53569 0
M  V30 5886 C 541.228 -0.0669803 -3.47635 0
M  V30 5887 H 540.551 -0.814899 -3.91407 0
M  V30 5888 H 541.991 0.172669 -4.23648 0
M  V30 5889 C 540.45 1.18913 -3.15216 0
M  V30 5890 O 540.98 2.27723 -3.30916 0
M  V30 5891 N 539.186 1.09066 -2.69357 0
M  V30 5892 H 538.733 0.20518 -2.56782 0
M  V30 5893 H 538.691 1.93195 -2.48039 0
M  V30 5894 N 542.463 1.3308 -0.844243 0
M  V30 5895 C 543.709 1.97898 -0.443206 0
M  V30 5896 C 544.042 1.66699 0.99625 0
M  V30 5897 O 543.317 0.949704 1.69738 0
M  V30 5898 C 543.6 3.53801 -0.670606 0
M  V30 5899 C 543.453 3.94667 -2.15772 0
M  V30 5900 C 544.772 4.39936 -0.120226 0
M  V30 5901 H 541.891 0.718861 -0.162504 0
M  V30 5902 H 544.533 1.57633 -1.06075 0
M  V30 5903 H 542.683 3.88229 -0.14496 0
M  V30 5904 H 544.355 3.70469 -2.74865 0
M  V30 5905 H 542.598 3.44203 -2.6402 0
M  V30 5906 H 543.269 5.03275 -2.26757 0
M  V30 5907 H 545.745 4.12183 -0.5696 0
M  V30 5908 H 544.621 5.4803 -0.308984 0
M  V30 5909 H 544.882 4.31184 0.976347 0
M  V30 5910 N 543.941 0.601185 1.45683 0
M  V30 5911 C 544.871 -0.108824 2.33246 0
M  V30 5912 C 545.852 -0.865223 1.46451 0
M  V30 5913 O 547.037 -0.83704 1.75235 0
M  V30 5914 C 544.167 -1.11101 3.2905 0
M  V30 5915 C 543.121 -0.468244 4.25431 0
M  V30 5916 C 542.447 -1.57822 5.10878 0
M  V30 5917 C 543.747 0.606469 5.18767 0
M  V30 5918 H 545.441 0.622306 2.92861 0
M  V30 5919 H 542.987 0.300714 1.40825 0
M  V30 5920 H 544.94 -1.61622 3.89174 0
M  V30 5921 H 543.664 -1.87265 2.67581 0
M  V30 5922 H 542.323 0.0160484 3.66596 0
M  V30 5923 H 541.971 -2.32998 4.45781 0
M  V30 5924 H 541.671 -1.15369 5.76163 0
M  V30 5925 H 543.195 -2.08583 5.73869 0
M  V30 5926 H 544.609 0.185589 5.73 0
M  V30 5927 H 543.006 0.952381 5.92494 0
M  V30 5928 H 544.076 1.48559 4.61582 0
M  V30 5929 N 545.419 -1.53889 0.339982 0
M  V30 5930 C 546.367 -2.26391 -0.533822 0
M  V30 5931 C 547.361 -1.28404 -1.10493 0
M  V30 5932 O 548.567 -1.46124 -1.05108 0
M  V30 5933 H 544.942 -0.727385 -0.190828 0
M  V30 5934 H 546.913 -2.98233 0.0997484 0
M  V30 5935 C 545.662 -3.04707 -1.67479 0
M  V30 5936 H 544.985 -3.79934 -1.2446 0
M  V30 5937 H 546.425 -3.58657 -2.26144 0
M  V30 5938 C 544.884 -2.13989 -2.60212 0
M  V30 5939 O 545.414 -1.73361 -3.62366 0
M  V30 5940 N 543.62 -1.79141 -2.28816 0
M  V30 5941 H 543.167 -2.12378 -1.45785 0
M  V30 5942 H 543.125 -1.18725 -2.91121 0
M  V30 5943 N 546.897 -0.0685191 -1.57451 0
M  V30 5944 C 548.146 0.600898 -1.92541 0
M  V30 5945 C 548.459 1.70967 -0.950239 0
M  V30 5946 O 549.665 2.43844 -1.19384 0
M  V30 5947 C 548.121 1.12019 -3.42023 0
M  V30 5948 C 547.729 0.0426028 -4.4798 0
M  V30 5949 C 549.473 1.76386 -3.86119 0
M  V30 5950 C 547.38 0.575759 -5.88591 0
M  V30 5951 H 546.31 0.228225 -0.71863 0
M  V30 5952 H 548.961 -0.140223 -1.82963 0
M  V30 5953 H 547.343 1.91418 -3.46663 0
M  V30 5954 H 548.517 -0.73182 -4.54952 0
M  V30 5955 H 546.832 -0.504642 -4.13331 0
M  V30 5956 H 549.429 2.17302 -4.88553 0
M  V30 5957 H 549.772 2.62255 -3.23308 0
M  V30 5958 H 550.305 1.03615 -3.84069 0
M  V30 5959 H 547.044 -0.245691 -6.55039 0
M  V30 5960 H 546.564 1.31778 -5.85145 0
M  V30 5961 H 548.243 1.0532 -6.3837 0
M  V30 5962 N 548.375 1.56261 0.205012 0
M  V30 5963 C 549.615 1.81823 0.933806 0
M  V30 5964 C 549.979 0.644534 1.80858 0
M  V30 5965 O 551.18 0.779819 2.5724 0
M  V30 5966 C 549.451 3.12362 1.7368 0
M  V30 5967 S 551.01 3.59296 2.51897 0
M  V30 5968 H 547.828 0.638209 0.313386 0
M  V30 5969 H 550.43 1.94495 0.198001 0
M  V30 5970 H 549.134 3.95809 1.08459 0
M  V30 5971 H 548.665 3.02542 2.5146 0
M  V30 5972 H 550.68 3.23945 3.75864 0
M  V30 5973 N 549.853 -0.472356 1.50355 0
M  V30 5974 C 551.078 -1.25251 1.65309 0
M  V30 5975 C 551.503 -1.85081 0.335643 0
M  V30 5976 O 550.861 -1.67227 -0.700335 0
M  V30 5977 C 550.909 -2.3379 2.74544 0
M  V30 5978 O 550.013 -3.38401 2.35709 0
M  V30 5979 H 549.354 -0.368539 0.552336 0
M  V30 5980 H 551.884 -0.562271 1.96722 0
M  V30 5981 H 551.894 -2.79121 2.97583 0
M  V30 5982 H 550.569 -1.89614 3.70161 0
M  V30 5983 H 549.146 -2.9879 2.23112 0
M  V30 5984 N 551.331 -1.39911 -0.725443 0
M  V30 5985 C 552.608 -1.28158 -1.47766 0
M  V30 5986 C 552.988 0.104545 -2.10841 0
M  V30 5987 O 552.336 1.11657 -1.99361 0
M  V30 5988 C 552.546 -2.41306 -2.52135 0
M  V30 5989 C 553.894 -2.81076 -3.18247 0
M  V30 5990 O 554.918 -2.40827 -2.62452 0
M  V30 5991 O 553.777 -3.50581 -4.19231 0
M  V30 5992 H 550.871 -0.502761 -0.656628 0
M  V30 5993 H 553.417 -1.51808 -0.758456 0
M  V30 5994 H 552.189 -3.33932 -2.03974 0
M  V30 5995 H 551.812 -2.19374 -3.31603 0
M  V30 5996 N 552.809 0.956637 -1.25245 0
M  V30 5997 C 554.086 1.67716 -1.00651 0
M  V30 5998 C 554.466 2.0585 0.467866 0
M  V30 5999 O 553.814 1.77029 1.44475 0
M  V30 6000 C 554.024 2.90093 -1.94028 0
M  V30 6001 C 555.372 3.6209 -2.21756 0
M  V30 6002 O 556.396 3.00171 -1.9177 0
M  V30 6003 O 555.255 4.7358 -2.72735 0
M  V30 6004 H 552.349 0.733731 -0.381533 0
M  V30 6005 H 554.895 1.00974 -1.3639 0
M  V30 6006 H 553.667 2.58689 -2.93591 0
M  V30 6007 H 553.29 3.64566 -1.58674 0
M  V30 6008 N 554.287 1.06798 1.15896 0
M  V30 6009 C 555.197 0.694564 2.24083 0
M  V30 6010 C 556.213 -0.291687 1.71538 0
M  V30 6011 O 557.389 -0.139723 2.00915 0
M  V30 6012 C 554.454 0.0921014 3.46578 0
M  V30 6013 C 553.515 1.13087 4.14137 0
M  V30 6014 C 552.748 0.557064 5.30785 0
M  V30 6015 O 552.971 -0.628623 5.66925 0
M  V30 6016 O 551.905 1.29924 5.8771 0
M  V30 6017 H 555.731 1.59663 2.58344 0
M  V30 6018 H 553.316 0.840575 1.2351 0
M  V30 6019 H 555.198 -0.241884 4.20705 0
M  V30 6020 H 553.873 -0.78337 3.14078 0
M  V30 6021 H 552.78 1.51712 3.41957 0
M  V30 6022 H 554.113 1.97805 4.50704 0
M  V30 6023 N 555.766 -1.3263 0.851289 0
M  V30 6024 C 556.696 -2.31449 0.308771 0
M  V30 6025 C 557.677 -1.59531 -0.590255 0
M  V30 6026 O 558.862 -1.87351 -0.511205 0
M  V30 6027 C 555.992 -3.43586 -0.506548 0
M  V30 6028 C 554.946 -4.26963 0.297753 0
M  V30 6029 C 554.272 -5.30831 -0.642094 0
M  V30 6030 C 555.572 -4.99643 1.52166 0
M  V30 6031 H 557.266 -2.77074 1.13447 0
M  V30 6032 H 554.812 -1.33207 0.546971 0
M  V30 6033 H 556.765 -4.11754 -0.896474 0
M  V30 6034 H 555.489 -2.96681 -1.36558 0
M  V30 6035 H 554.148 -3.60437 0.669391 0
M  V30 6036 H 553.796 -4.8018 -1.49788 0
M  V30 6037 H 553.496 -5.87501 -0.107968 0
M  V30 6038 H 555.02 -6.01862 -1.02927 0
M  V30 6039 H 556.434 -5.6051 1.20421 0
M  V30 6040 H 554.831 -5.66022 1.99347 0
M  V30 6041 H 555.901 -4.27701 2.28474 0
M  V30 6042 N 557.244 -0.608902 -1.45362 0
M  V30 6043 C 558.492 -0.104401 -2.0183 0
M  V30 6044 C 558.813 1.27007 -1.47967 0
M  V30 6045 O 558.083 1.83924 -0.674455 0
M  V30 6046 H 556.663 -0.0356042 -0.746151 0
M  V30 6047 H 559.325 -0.790596 -1.78145 0
M  V30 6048 H 558.421 -0.0551793 -3.12051 0
M  V30 6049 N 558.722 1.53707 -0.348139 0
M  V30 6050 C 559.947 2.05877 0.250883 0
M  V30 6051 C 560.372 1.22115 1.43072 0
M  V30 6052 O 559.73 0.235986 1.79758 0
M  V30 6053 C 559.778 3.54886 0.639416 0
M  V30 6054 O 558.882 3.73948 1.73888 0
M  V30 6055 H 558.223 0.662754 0.040653 0
M  V30 6056 H 560.753 1.98303 -0.503685 0
M  V30 6057 H 560.763 3.97601 0.915295 0
M  V30 6058 H 559.438 4.153 -0.223386 0
M  V30 6059 H 558.015 3.43134 1.45991 0
M  V30 6060 N 560.2 0.0768682 1.57412 0
M  V30 6061 C 561.11 -0.903207 2.16516 0
M  V30 6062 C 562.126 -1.32341 1.12968 0
M  V30 6063 O 563.302 -1.39507 1.45258 0
M  V30 6064 C 560.367 -2.1508 2.71922 0
M  V30 6065 C 559.428 -1.78653 3.90361 0
M  V30 6066 C 558.661 -2.97465 4.43114 0
M  V30 6067 O 558.884 -4.11638 3.94854 0
M  V30 6068 O 557.818 -2.76987 5.3438 0
M  V30 6069 H 561.644 -0.430427 3.00634 0
M  V30 6070 H 559.229 -0.146485 1.4868 0
M  V30 6071 H 561.111 -2.8823 3.07411 0
M  V30 6072 H 559.786 -2.61446 1.9086 0
M  V30 6073 H 558.693 -1.0274 3.59716 0
M  V30 6074 H 560.026 -1.37066 4.7273 0
M  V30 6075 N 561.678 -1.56367 -0.196722 0
M  V30 6076 C 562.588 -1.97617 -1.2643 0
M  V30 6077 C 563.604 -0.883598 -1.49895 0
M  V30 6078 O 564.78 -1.18921 -1.62541 0
M  V30 6079 C 561.845 -2.30595 -2.58895 0
M  V30 6080 C 560.906 -3.53551 -2.43516 0
M  V30 6081 C 560.139 -3.84946 -3.69665 0
M  V30 6082 O 560.362 -3.17655 -4.73763 0
M  V30 6083 O 559.296 -4.78379 -3.65291 0
M  V30 6084 H 563.122 -2.88648 -0.944233 0
M  V30 6085 H 560.707 -1.43901 -0.401592 0
M  V30 6086 H 562.589 -2.52889 -3.37083 0
M  V30 6087 H 561.264 -1.42732 -2.90533 0
M  V30 6088 H 560.171 -3.36507 -1.63445 0
M  V30 6089 H 561.504 -4.41875 -2.16812 0
M  V30 6090 N 563.156 0.464375 -1.50603 0
M  V30 6091 C 564.433 1.22549 -1.5245 0
M  V30 6092 C 564.813 2.09327 -0.273035 0
M  V30 6093 O 564.161 2.16074 0.743242 0
M  V30 6094 C 564.371 2.05074 -2.82393 0
M  V30 6095 C 565.719 2.63036 -3.33313 0
M  V30 6096 O 566.743 2.1531 -2.8376 0
M  V30 6097 O 565.602 3.5001 -4.19709 0
M  V30 6098 H 562.696 0.556471 -0.611775 0
M  V30 6099 H 565.242 0.475648 -1.62898 0
M  V30 6100 H 564.014 1.41169 -3.64948 0
M  V30 6101 H 563.637 2.87179 -2.7498 0
M  V30 6102 N 564.634 1.40294 0.718013 0
M  V30 6103 C 565.882 1.38167 1.47494 0
M  V30 6104 C 566.203 -0.01607 1.94993 0
M  V30 6105 O 565.473 -0.970396 1.70177 0
M  V30 6106 H 564.053 0.508505 0.547203 0
M  V30 6107 H 566.715 1.75324 0.851322 0
M  V30 6108 H 565.811 2.05503 2.34894 0
M  V30 6109 N 566.112 -0.949982 1.2575 0
M  V30 6110 C 567.359 -1.69515 1.10774 0
M  V30 6111 C 567.687 -1.91316 -0.350479 0
M  V30 6112 O 566.942 -1.48515 -1.27443 0
M  V30 6113 C 567.241 -3.08039 1.81237 0
M  V30 6114 C 566.907 -3.06023 3.31151 0
M  V30 6115 C 565.569 -3.0518 3.72047 0
M  V30 6116 C 567.921 -2.98998 4.26907 0
M  V30 6117 C 565.249 -2.95067 5.07102 0
M  V30 6118 C 567.601 -2.90426 5.61992 0
M  V30 6119 C 566.265 -2.87922 6.0221 0
M  V30 6120 H 565.535 -0.6203 0.405351 0
M  V30 6121 H 568.182 -1.10953 1.56082 0
M  V30 6122 H 566.487 -3.70172 1.28373 0
M  V30 6123 H 568.184 -3.64526 1.67098 0
M  V30 6124 H 564.774 -3.07453 2.98614 0
M  V30 6125 H 568.958 -2.98764 3.963 0
M  V30 6126 H 564.214 -2.915 5.37436 0
M  V30 6127 H 568.388 -2.83952 6.35881 0
M  V30 6128 H 566.015 -2.79841 7.06819 0
M  V30 6129 N 567.59 -1.07411 -1.15328 0
M  V30 6130 C 568.867 -0.710732 -1.82231 0
M  V30 6131 C 569.247 0.806732 -1.95077 0
M  V30 6132 O 568.595 1.72139 -1.50268 0
M  V30 6133 C 568.805 -1.42586 -3.18544 0
M  V30 6134 C 570.153 -1.57836 -3.94174 0
M  V30 6135 O 571.177 -1.38669 -3.281 0
M  V30 6136 O 570.036 -1.8938 -5.12638 0
M  V30 6137 H 567.13 -0.25297 -0.78736 0
M  V30 6138 H 569.676 -1.17508 -1.22434 0
M  V30 6139 H 568.448 -2.46008 -3.04296 0
M  V30 6140 H 568.071 -0.952332 -3.86026 0
M  V30 6141 N 569.068 1.32177 -0.85831 0
M  V30 6142 C 570.316 1.96735 -0.462568 0
M  V30 6143 C 570.637 1.6824 0.985911 0
M  V30 6144 O 569.907 0.991564 1.68952 0
M  V30 6145 H 568.487 0.727849 -0.168064 0
M  V30 6146 H 571.149 1.61195 -1.09554 0
M  V30 6147 H 570.245 3.06068 -0.610647 0
M  V30 6148 N 570.547 0.616602 1.45037 0
M  V30 6149 C 571.51 -0.0871112 2.29034 0
M  V30 6150 C 572.51 -0.786414 1.40258 0
M  V30 6151 O 573.7 -0.633207 1.62284 0
M  V30 6152 C 570.832 -1.13369 3.21497 0
M  V30 6153 H 572.025 0.651497 2.92738 0
M  V30 6154 H 569.578 0.376058 1.51709 0
M  V30 6155 H 570.313 -1.90277 2.62612 0
M  V30 6156 H 570.098 -0.636358 3.86902 0
M  V30 6157 H 571.588 -1.62627 3.84633 0
M  V30 6158 N 572.025 -1.5352 0.356285 0
M  V30 6159 C 573.253 -2.05534 -0.237328 0
M  V30 6160 C 573.668 -1.23043 -1.43199 0
M  V30 6161 O 573.025 -0.268821 -1.80509 0
M  V30 6162 C 573.076 -3.55791 -0.639933 0
M  V30 6163 O 572.797 -4.35154 0.507233 0
M  V30 6164 C 574.298 -4.24027 -1.29292 0
M  V30 6165 H 571.518 -0.669585 -0.0435572 0
M  V30 6166 H 574.062 -1.97988 0.511963 0
M  V30 6167 H 572.217 -3.63518 -1.33915 0
M  V30 6168 H 572.631 -5.24178 0.18375 0
M  V30 6169 H 574.105 -5.30509 -1.52527 0
M  V30 6170 H 574.582 -3.77166 -2.25039 0
M  V30 6171 H 575.188 -4.20527 -0.63539 0
M  V30 6172 N 573.503 -0.0852151 -1.57369 0
M  V30 6173 C 574.466 0.8627 -2.12344 0
M  V30 6174 C 575.466 1.21746 -1.05046 0
M  V30 6175 O 576.656 1.14852 -1.30976 0
M  V30 6176 C 573.788 2.1618 -2.63589 0
M  V30 6177 H 574.981 0.385511 -2.97412 0
M  V30 6178 H 572.534 0.163663 -1.55441 0
M  V30 6179 H 573.269 2.68406 -1.82013 0
M  V30 6180 H 573.054 1.91723 -3.4203 0
M  V30 6181 H 574.544 2.84011 -3.06149 0
M  V30 6182 N 574.981 1.5647 0.188427 0
M  V30 6183 C 575.944 1.9421 1.21718 0
M  V30 6184 C 576.944 0.823901 1.38089 0
M  V30 6185 O 578.134 1.09122 1.35787 0
M  V30 6186 C 575.266 2.22197 2.58537 0
M  V30 6187 H 576.459 2.86252 0.894418 0
M  V30 6188 H 574.012 1.50263 0.430211 0
M  V30 6189 H 574.747 1.32814 2.95856 0
M  V30 6190 H 574.532 3.03688 2.48025 0
M  V30 6191 H 576.022 2.52376 3.3271 0
M  V30 6192 N 576.459 -0.456382 1.50847 0
M  V30 6193 C 577.422 -1.53493 1.70213 0
M  V30 6194 C 578.422 -1.50264 0.572481 0
M  V30 6195 O 579.612 -1.52623 0.839751 0
M  V30 6196 C 576.744 -2.93091 1.741 0
M  V30 6197 H 577.937 -1.37633 2.66453 0
M  V30 6198 H 575.49 -0.683776 1.4055 0
M  V30 6199 H 576.225 -3.14378 0.796063 0
M  V30 6200 H 576.01 -2.9684 2.5618 0
M  V30 6201 H 577.5 -3.71368 1.90987 0
M  V30 6202 N 577.937 -1.40673 -0.710563 0
M  V30 6203 C 579.353 -1.22813 -1.01928 0
M  V30 6204 C 579.553 -0.10687 -2.01216 0
M  V30 6205 O 578.609 0.533614 -2.46797 0
M  V30 6206 C 579.922 -2.57178 -1.5582 0
M  V30 6207 C 581.47 -2.64233 -1.67779 0
M  V30 6208 C 581.945 -3.98879 -2.25076 0
M  V30 6209 N 583.436 -4.00647 -2.32456 0
M  V30 6210 C 584.171 -5.01621 -2.77784 0
M  V30 6211 N 583.667 -6.12989 -3.22826 0
M  V30 6212 N 585.46 -4.88988 -2.77213 0
M  V30 6213 H 577.611 -2.12335 -0.05253 0
M  V30 6214 H 579.874 -0.9441 -0.085898 0
M  V30 6215 H 579.58 -3.39903 -0.903249 0
M  V30 6216 H 579.454 -2.78618 -2.54267 0
M  V30 6217 H 581.841 -1.81876 -2.3239 0
M  V30 6218 H 581.922 -2.46619 -0.679178 0
M  V30 6219 H 581.566 -4.81678 -1.61086 0
M  V30 6220 H 581.496 -4.13826 -3.25661 0
M  V30 6221 H 583.987 -3.20231 -2.0065 0
M  V30 6222 H 584.3 -6.85921 -3.55995 0
M  V30 6223 H 582.645 -6.16547 -3.20773 0
M  V30 6224 H 585.836 -4.01075 -2.41363 0
M  V30 6225 H 586.009 -5.67822 -3.12221 0
M  V30 6226 N 579.415 0.9433 -1.26252 0
M  V30 6227 C 580.362 2.0417 -1.07625 0
M  V30 6228 C 581.332 1.6609 0.0180738 0
M  V30 6229 O 582.517 1.90276 -0.141289 0
M  V30 6230 C 579.657 3.37653 -0.713043 0
M  V30 6231 C 578.77 3.88783 -1.8834 0
M  V30 6232 C 577.905 5.10642 -1.4635 0
M  V30 6233 C 576.944 5.54028 -2.60229 0
M  V30 6234 N 576.081 6.67092 -2.18936 0
M  V30 6235 H 580.921 2.19436 -2.01623 0
M  V30 6236 H 578.458 1.07519 -1.00389 0
M  V30 6237 H 580.416 4.14391 -0.483358 0
M  V30 6238 H 579.046 3.22241 0.18996 0
M  V30 6239 H 578.098 3.08464 -2.22608 0
M  V30 6240 H 579.41 4.16922 -2.73821 0
M  V30 6241 H 578.564 5.94832 -1.19414 0
M  V30 6242 H 577.303 4.84244 -0.579568 0
M  V30 6243 H 576.308 4.68396 -2.87898 0
M  V30 6244 H 577.533 5.82429 -3.49219 0
M  V30 6245 H 575.479 6.42381 -1.32974 0
M  V30 6246 H 575.396 6.94806 -2.97961 0
M  V30 6247 H 576.664 7.54662 -1.95206 0
M  V30 6248 N 580.893 1.08022 1.14757 0
M  V30 6249 C 581.803 0.718292 2.23333 0
M  V30 6250 C 582.819 -0.273477 1.71837 0
M  V30 6251 O 583.995 -0.118406 2.01052 0
M  V30 6252 C 581.06 0.128855 3.4646 0
M  V30 6253 C 580.121 1.17473 4.12915 0
M  V30 6254 C 579.354 0.61333 5.30164 0
M  V30 6255 O 579.577 -0.568458 5.6756 0
M  V30 6256 O 578.511 1.3615 5.86299 0
M  V30 6257 H 582.337 1.62394 2.56636 0
M  V30 6258 H 579.922 0.853628 1.22611 0
M  V30 6259 H 581.804 -0.197249 4.20938 0
M  V30 6260 H 580.479 -0.750014 3.14891 0
M  V30 6261 H 579.386 1.5533 3.40328 0
M  V30 6262 H 580.719 2.02574 4.48581 0
M  V30 6263 N 582.371 -1.3172 0.865308 0
M  V30 6264 C 583.617 -1.97168 0.474633 0
M  V30 6265 C 583.95 -1.68263 -0.969604 0
M  V30 6266 O 583.225 -0.976588 -1.68205 0
M  V30 6267 C 583.508 -3.52689 0.726808 0
M  V30 6268 C 583.361 -3.91185 2.22024 0
M  V30 6269 C 584.68 -4.39689 0.190201 0
M  V30 6270 H 581.799 -0.716185 0.17392 0
M  V30 6271 H 584.441 -1.55925 1.08569 0
M  V30 6272 H 582.591 -3.8795 0.206705 0
M  V30 6273 H 584.263 -3.66049 2.80724 0
M  V30 6274 H 582.506 -3.3996 2.69462 0
M  V30 6275 H 583.177 -4.99604 2.34735 0
M  V30 6276 H 585.653 -4.11225 0.635103 0
M  V30 6277 H 584.529 -5.47469 0.396132 0
M  V30 6278 H 584.79 -4.32683 -0.907625 0
M  V30 6279 N 583.85 -0.624285 -1.44708 0
M  V30 6280 C 585.099 -0.123539 -2.01321 0
M  V30 6281 C 585.412 1.25966 -1.49639 0
M  V30 6282 O 586.618 1.85405 -1.98336 0
M  V30 6283 C 585.074 -0.170124 -3.59498 0
M  V30 6284 C 584.682 -1.55421 -4.20176 0
M  V30 6285 C 586.426 0.274513 -4.23611 0
M  V30 6286 C 584.332 -1.55628 -5.70556 0
M  V30 6287 H 583.263 -0.0424183 -0.752806 0
M  V30 6288 H 585.913 -0.782076 -1.65999 0
M  V30 6289 H 584.296 0.555385 -3.92086 0
M  V30 6290 H 585.47 -2.30276 -3.99136 0
M  V30 6291 H 583.784 -1.94235 -3.68323 0
M  V30 6292 H 586.382 0.292402 -5.339 0
M  V30 6293 H 586.725 1.3005 -3.95465 0
M  V30 6294 H 587.258 -0.398275 -3.95801 0
M  V30 6295 H 583.997 -2.56041 -6.03426 0
M  V30 6296 H 583.517 -0.850563 -5.93739 0
M  V30 6297 H 585.196 -1.28721 -6.34066 0
M  V30 6298 N 585.328 1.53329 -0.364422 0
M  V30 6299 C 586.744 1.59594 -0.0133165 0
M  V30 6300 C 586.944 1.37959 1.46865 0
M  V30 6301 O 586 1.18418 2.2301 0
M  V30 6302 C 587.313 2.97032 -0.468213 0
M  V30 6303 C 588.861 3.10138 -0.422334 0
M  V30 6304 C 589.336 4.49986 -0.853024 0
M  V30 6305 N 590.827 4.56098 -0.808037 0
M  V30 6306 C 591.562 5.62495 -1.11299 0
M  V30 6307 N 591.058 6.7665 -1.48717 0
M  V30 6308 N 592.851 5.52473 -1.03586 0
M  V30 6309 H 585.002 1.65644 -1.32951 0
M  V30 6310 H 587.265 0.77684 -0.543345 0
M  V30 6311 H 586.971 3.18 -1.5023 0
M  V30 6312 H 586.845 3.76918 0.145775 0
M  V30 6313 H 589.232 2.88881 0.602622 0
M  V30 6314 H 589.313 2.32263 -1.0718 0
M  V30 6315 H 588.957 4.7198 -1.87609 0
M  V30 6316 H 588.887 5.26289 -0.180819 0
M  V30 6317 H 591.378 3.74131 -0.532361 0
M  V30 6318 H 591.691 7.53776 -1.70415 0
M  V30 6319 H 590.036 6.78044 -1.52581 0
M  V30 6320 H 593.227 4.6217 -0.742736 0
M  V30 6321 H 593.4 6.35295 -1.27686 0
M  V30 6322 N 586.806 0.0935595 1.57322 0
M  V30 6323 C 587.754 -0.883457 2.15169 0
M  V30 6324 C 588.748 -1.29324 1.09415 0
M  V30 6325 O 589.954 -1.26795 1.27762 0
M  V30 6326 H 586.329 -0.302923 0.688289 0
M  V30 6327 H 588.3 -0.370845 2.96087 0
M  V30 6328 C 587.049 -2.13345 2.74552 0
M  V30 6329 H 586.372 -1.82702 3.55612 0
M  V30 6330 H 587.812 -2.7977 3.18598 0
M  V30 6331 C 586.271 -2.90646 1.70371 0
M  V30 6332 O 586.801 -3.85133 1.14173 0
M  V30 6333 N 585.007 -2.54157 1.40899 0
M  V30 6334 H 584.554 -1.77391 1.86789 0
M  V30 6335 H 584.512 -3.06178 0.714301 0
M  V30 6336 N 588.284 -1.56567 -0.180126 0
M  V30 6337 C 589.231 -1.95725 -1.22313 0
M  V30 6338 C 590.201 -0.819911 -1.44453 0
M  V30 6339 O 591.386 -1.07931 -1.57339 0
M  V30 6340 C 588.526 -2.31484 -2.55947 0
M  V30 6341 C 587.639 -3.58354 -2.4126 0
M  V30 6342 C 586.774 -3.83366 -3.67701 0
M  V30 6343 C 585.813 -5.03612 -3.47909 0
M  V30 6344 N 584.95 -5.24802 -4.66398 0
M  V30 6345 H 589.79 -2.84642 -0.882198 0
M  V30 6346 H 587.327 -1.4085 -0.42422 0
M  V30 6347 H 589.285 -2.50237 -3.33822 0
M  V30 6348 H 587.915 -1.45689 -2.88053 0
M  V30 6349 H 586.967 -3.47565 -1.54606 0
M  V30 6350 H 588.279 -4.46386 -2.22577 0
M  V30 6351 H 587.433 -4.02439 -4.54013 0
M  V30 6352 H 586.172 -2.93692 -3.89353 0
M  V30 6353 H 585.177 -4.84447 -2.59983 0
M  V30 6354 H 586.402 -5.94809 -3.27688 0
M  V30 6355 H 584.348 -4.38079 -4.88286 0
M  V30 6356 H 584.265 -6.07041 -4.50596 0
M  V30 6357 H 585.533 -5.48346 -5.54019 0
M  V30 6358 N 589.762 0.448376 -1.51087 0
M  V30 6359 C 591.011 1.19561 -1.62444 0
M  V30 6360 C 591.324 1.92602 -0.341151 0
M  V30 6361 O 592.53 2.69439 -0.333936 0
M  V30 6362 C 590.986 2.17373 -2.8684 0
M  V30 6363 C 590.594 1.5003 -4.22131 0
M  V30 6364 C 592.338 2.92597 -3.0755 0
M  V30 6365 C 590.245 2.46262 -5.37689 0
M  V30 6366 H 589.175 0.449975 -0.605011 0
M  V30 6367 H 591.826 0.463735 -1.77544 0
M  V30 6368 H 590.208 2.93948 -2.65349 0
M  V30 6369 H 591.382 0.790886 -4.53962 0
M  V30 6370 H 589.697 0.870011 -4.0721 0
M  V30 6371 H 592.294 3.64663 -3.91056 0
M  V30 6372 H 592.637 3.53306 -2.20183 0
M  V30 6373 H 593.17 2.23131 -3.29329 0
M  V30 6374 H 589.909 1.90258 -6.27281 0
M  V30 6375 H 589.429 3.15289 -5.10248 0
M  V30 6376 H 591.108 3.07623 -5.6919 0
M  V30 6377 N 591.24 1.41047 0.703093 0
M  V30 6378 C 592.656 1.23351 1.01275 0
M  V30 6379 C 592.856 0.11754 2.01157 0
M  V30 6380 O 591.912 -0.520518 2.47077 0
M  V30 6381 C 593.225 2.58001 1.54454 0
M  V30 6382 C 594.773 2.65119 1.66376 0
M  V30 6383 C 595.248 4.00067 2.22958 0
M  V30 6384 N 596.739 4.01875 2.30328 0
M  V30 6385 C 597.474 5.03087 2.75119 0
M  V30 6386 N 596.97 6.14692 3.19571 0
M  V30 6387 N 598.763 4.90451 2.74616 0
M  V30 6388 H 590.914 2.1236 0.0412686 0
M  V30 6389 H 593.177 0.944543 0.08089 0
M  V30 6390 H 592.883 3.40378 0.88521 0
M  V30 6391 H 592.757 2.79962 2.52786 0
M  V30 6392 H 595.144 1.83106 2.31422 0
M  V30 6393 H 595.225 2.46975 0.666089 0
M  V30 6394 H 594.869 4.82526 1.58529 0
M  V30 6395 H 594.799 4.15547 3.23462 0
M  V30 6396 H 597.29 3.21291 1.98949 0
M  V30 6397 H 597.603 6.87799 3.52352 0
M  V30 6398 H 595.948 6.18239 3.17498 0
M  V30 6399 H 599.139 4.0235 2.39233 0
M  V30 6400 H 599.312 5.6947 3.09206 0
M  V30 6401 N 592.718 -0.936591 1.26751 0
M  V30 6402 C 593.681 -2.01752 1.08761 0
M  V30 6403 C 594.681 -1.60763 0.0344435 0
M  V30 6404 O 595.871 -1.71963 0.278258 0
M  V30 6405 C 593.003 -3.34543 0.655271 0
M  V30 6406 H 594.196 -2.19143 2.04735 0
M  V30 6407 H 591.749 -1.11618 1.09413 0
M  V30 6408 H 592.484 -3.22851 -0.30626 0
M  V30 6409 H 592.269 -3.65647 1.41578 0
M  V30 6410 H 593.759 -4.13944 0.551378 0
M  V30 6411 N 594.196 -1.08629 -1.14182 0
M  V30 6412 C 595.445 -0.812271 -1.84621 0
M  V30 6413 C 595.758 0.664313 -1.83973 0
M  V30 6414 O 596.964 1.05357 -2.50224 0
M  V30 6415 C 595.42 -1.4031 -3.31423 0
M  V30 6416 C 595.028 -2.91164 -3.40481 0
M  V30 6417 C 596.772 -1.20767 -4.06959 0
M  V30 6418 C 594.679 -3.43373 -4.81507 0
M  V30 6419 H 593.609 -0.30019 -0.691666 0
M  V30 6420 H 596.26 -1.30798 -1.28701 0
M  V30 6421 H 594.642 -0.835096 -3.87094 0
M  V30 6422 H 595.816 -3.5412 -2.94848 0
M  V30 6423 H 594.131 -3.09646 -2.78403 0
M  V30 6424 H 596.728 -1.57237 -5.11058 0
M  V30 6425 H 597.071 -0.147664 -4.16038 0
M  V30 6426 H 597.604 -1.74274 -3.57594 0
M  V30 6427 H 594.343 -4.48958 -4.77616 0
M  V30 6428 H 593.863 -2.85176 -5.27669 0
M  V30 6429 H 595.542 -3.40095 -5.50404 0
M  V30 6430 N 595.674 1.31259 -0.872281 0
M  V30 6431 C 596.922 1.96233 -0.483409 0
M  V30 6432 C 597.243 1.69276 0.968012 0
M  V30 6433 O 596.513 1.00943 1.67891 0
M  V30 6434 H 595.093 0.726025 -0.175774 0
M  V30 6435 H 597.755 1.60024 -1.11258 0
M  V30 6436 H 596.851 3.05403 -0.643075 0
M  V30 6437 N 597.152 0.631951 1.44375 0
M  V30 6438 C 598.099 -0.0724807 2.30686 0
M  V30 6439 C 599.069 -0.835975 1.43529 0
M  V30 6440 O 600.254 -0.816849 1.7243 0
M  V30 6441 C 597.394 -1.04753 3.28817 0
M  V30 6442 C 596.507 -0.282367 4.31076 0
M  V30 6443 C 595.642 -1.2493 5.163 0
M  V30 6444 C 594.681 -0.473349 6.10267 0
M  V30 6445 N 593.818 -1.39079 6.88187 0
M  V30 6446 H 598.658 0.669477 2.90383 0
M  V30 6447 H 596.195 0.341927 1.43071 0
M  V30 6448 H 598.153 -1.62623 3.842 0
M  V30 6449 H 596.783 -1.75661 2.70819 0
M  V30 6450 H 595.835 0.412268 3.78159 0
M  V30 6451 H 597.147 0.321955 4.9776 0
M  V30 6452 H 596.301 -1.89931 5.76204 0
M  V30 6453 H 595.04 -1.88755 4.49692 0
M  V30 6454 H 594.045 0.190142 5.49471 0
M  V30 6455 H 595.27 0.16019 6.78911 0
M  V30 6456 H 593.216 -2.01623 6.24247 0
M  V30 6457 H 593.133 -0.840513 7.51313 0
M  V30 6458 H 594.401 -2.02961 7.52613 0
M  V30 6459 N 598.631 -1.53133 0.372548 0
M  V30 6460 C 599.564 -2.22328 -0.514361 0
M  V30 6461 C 600.542 -1.21776 -1.07747 0
M  V30 6462 O 601.726 -1.50704 -1.13228 0
M  V30 6463 C 598.853 -2.92343 -1.71035 0
M  V30 6464 C 597.899 -4.07026 -1.27405 0
M  V30 6465 S 598.732 -5.34821 -0.269526 0
M  V30 6466 C 599.888 -6.08352 -1.47168 0
M  V30 6467 H 600.121 -2.9721 0.0732683 0
M  V30 6468 H 597.654 -1.53603 0.156673 0
M  V30 6469 H 599.612 -3.33296 -2.39634 0
M  V30 6470 H 598.273 -2.17173 -2.26925 0
M  V30 6471 H 597.466 -4.55056 -2.16656 0
M  V30 6472 H 597.068 -3.68001 -0.66719 0
M  V30 6473 H 599.36 -6.33507 -2.40157 0
M  V30 6474 H 600.303 -7.0053 -1.03263 0
M  V30 6475 H 600.711 -5.38893 -1.6809 0
M  V30 6476 N 600.109 -0.101901 -1.5727 0
M  V30 6477 C 601.072 0.840129 -2.13247 0
M  V30 6478 C 602.072 1.20625 -1.06331 0
M  V30 6479 O 603.262 1.13456 -1.32186 0
M  V30 6480 C 600.394 2.13372 -2.65867 0
M  V30 6481 H 601.587 0.353945 -2.97804 0
M  V30 6482 H 599.14 0.147167 -1.55606 0
M  V30 6483 H 599.875 2.66461 -1.84849 0
M  V30 6484 H 599.66 1.88085 -3.44044 0
M  V30 6485 H 601.15 2.80748 -3.09145 0
M  V30 6486 N 601.587 1.56661 0.17182 0
M  V30 6487 C 603.003 1.50768 0.52357 0
M  V30 6488 C 603.203 0.806072 1.84675 0
M  V30 6489 O 602.259 0.366233 2.4983 0
M  V30 6490 C 603.572 2.955 0.556793 0
M  V30 6491 C 605.12 3.06303 0.644029 0
M  V30 6492 C 605.595 4.52492 0.708148 0
M  V30 6493 N 607.086 4.56737 0.771051 0
M  V30 6494 C 607.821 5.67196 0.841229 0
M  V30 6495 N 607.317 6.87287 0.872272 0
M  V30 6496 N 609.11 5.55165 0.88021 0
M  V30 6497 H 601.261 2.00679 -0.695817 0
M  V30 6498 H 603.524 0.914219 -0.250814 0
M  V30 6499 H 603.23 3.49986 -0.346774 0
M  V30 6500 H 603.104 3.50119 1.40346 0
M  V30 6501 H 605.491 2.51851 1.53802 0
M  V30 6502 H 605.572 2.5477 -0.229297 0
M  V30 6503 H 605.216 5.07575 -0.181585 0
M  V30 6504 H 605.146 5.01781 1.59761 0
M  V30 6505 H 607.637 3.70274 0.755364 0
M  V30 6506 H 607.95 7.6722 0.92698 0
M  V30 6507 H 606.295 6.89898 0.840557 0
M  V30 6508 H 609.486 4.60263 0.852956 0
M  V30 6509 H 609.659 6.41271 0.931439 0
M  V30 6510 N 603.065 -0.440357 1.51323 0
M  V30 6511 C 604.311 -1.19181 1.64085 0
M  V30 6512 C 604.644 -1.90936 0.354575 0
M  V30 6513 O 603.919 -1.8347 -0.645675 0
M  V30 6514 C 604.202 -2.2112 2.84215 0
M  V30 6515 C 604.055 -1.53468 4.22809 0
M  V30 6516 C 605.374 -3.22133 2.99864 0
M  V30 6517 H 602.493 -0.431924 0.597169 0
M  V30 6518 H 605.135 -0.481443 1.83799 0
M  V30 6519 H 603.285 -2.81703 2.67537 0
M  V30 6520 H 604.957 -0.962455 4.51148 0
M  V30 6521 H 603.2 -0.837086 4.25647 0
M  V30 6522 H 603.871 -2.27694 5.02852 0
M  V30 6523 H 606.347 -2.71601 3.15233 0
M  V30 6524 H 605.223 -3.90756 3.85488 0
M  V30 6525 H 605.484 -3.88061 2.11804 0
M  V30 6526 N 604.543 -1.41418 -0.695603 0
M  V30 6527 C 605.79 -1.40774 -1.45564 0
M  V30 6528 C 606.118 -0.0168604 -1.94493 0
M  V30 6529 O 605.373 0.971259 -1.69897 0
M  V30 6530 C 605.672 -2.36112 -2.68302 0
M  V30 6531 C 605.338 -3.82952 -2.38031 0
M  V30 6532 C 604 -4.22954 -2.29486 0
M  V30 6533 C 606.352 -4.75662 -2.13061 0
M  V30 6534 C 603.68 -5.53674 -1.94067 0
M  V30 6535 C 606.032 -6.06702 -1.79151 0
M  V30 6536 C 604.696 -6.45725 -1.69102 0
M  V30 6537 H 603.966 -0.515128 -0.532658 0
M  V30 6538 H 606.613 -1.74216 -0.795047 0
M  V30 6539 H 604.918 -1.95924 -3.39295 0
M  V30 6540 H 606.615 -2.32887 -3.26442 0
M  V30 6541 H 603.205 -3.5127 -2.45576 0
M  V30 6542 H 607.389 -4.45561 -2.18608 0
M  V30 6543 H 602.645 -5.8279 -1.8484 0
M  V30 6544 H 606.819 -6.78041 -1.5885 0
M  V30 6545 H 604.446 -7.46929 -1.41426 0
M  V30 6546 N 606.021 0.929856 -1.27246 0
M  V30 6547 C 607.246 1.71674 -1.16374 0
M  V30 6548 C 607.671 1.86064 0.276024 0
M  V30 6549 O 607.029 1.3591 1.19992 0
M  V30 6550 C 607.077 3.09526 -1.85003 0
M  V30 6551 O 606.181 3.96142 -1.14653 0
M  V30 6552 H 605.522 0.52629 -0.404863 0
M  V30 6553 H 608.052 1.16381 -1.68276 0
M  V30 6554 H 608.062 3.59852 -1.92276 0
M  V30 6555 H 606.737 2.98369 -2.89739 0
M  V30 6556 H 605.314 3.54584 -1.15433 0
M  V30 6557 N 607.499 1.09233 1.13605 0
M  V30 6558 C 608.745 0.828385 1.8511 0
M  V30 6559 C 609.078 -0.64437 1.83198 0
M  V30 6560 O 608.353 -1.47428 1.26867 0
M  V30 6561 C 608.636 1.36167 3.33363 0
M  V30 6562 C 608.489 2.90038 3.438 0
M  V30 6563 C 609.808 0.993819 4.28732 0
M  V30 6564 H 606.927 0.30239 0.672108 0
M  V30 6565 H 609.569 1.35339 1.33355 0
M  V30 6566 H 607.719 0.9151 3.77569 0
M  V30 6567 H 609.391 3.43128 3.08319 0
M  V30 6568 H 607.634 3.27271 2.84739 0
M  V30 6569 H 608.305 3.22428 4.48045 0
M  V30 6570 H 610.781 1.37893 3.92587 0
M  V30 6571 H 609.657 1.39403 5.30903 0
M  V30 6572 H 609.918 -0.0982206 4.41991 0
M  V30 6573 N 608.977 -1.30795 0.87923 0
M  V30 6574 C 609.907 -2.30742 0.357796 0
M  V30 6575 C 610.888 -1.60747 -0.556283 0
M  V30 6576 O 612.073 -1.88393 -0.47135 0
M  V30 6577 C 609.203 -3.44583 -0.433555 0
M  V30 6578 C 608.157 -4.26235 0.388251 0
M  V30 6579 C 607.483 -5.32073 -0.529352 0
M  V30 6580 C 608.783 -4.96303 1.62729 0
M  V30 6581 H 610.477 -2.74605 1.19299 0
M  V30 6582 H 608.023 -1.32017 0.575104 0
M  V30 6583 H 609.976 -4.13563 -0.808934 0
M  V30 6584 H 608.7 -2.99511 -1.30234 0
M  V30 6585 H 607.359 -3.58936 0.745695 0
M  V30 6586 H 607.007 -4.83249 -1.39569 0
M  V30 6587 H 606.707 -5.87598 0.0166741 0
M  V30 6588 H 608.231 -6.0391 -0.901373 0
M  V30 6589 H 609.645 -5.5783 1.32283 0
M  V30 6590 H 608.042 -5.61666 2.11309 0
M  V30 6591 H 609.112 -4.22758 2.37494 0
M  V30 6592 N 610.455 -0.639598 -1.44038 0
M  V30 6593 C 611.871 -0.305953 -1.5664 0
M  V30 6594 C 612.071 1.19055 -1.62567 0
M  V30 6595 O 611.127 1.97492 -1.57331 0
M  V30 6596 C 612.44 -1.00533 -2.83397 0
M  V30 6597 C 613.988 -0.984278 -2.97121 0
M  V30 6598 C 614.463 -1.66428 -4.26691 0
M  V30 6599 N 615.954 -1.63127 -4.33525 0
M  V30 6600 C 616.689 -2.12629 -5.32519 0
M  V30 6601 N 616.185 -2.70359 -6.3787 0
M  V30 6602 N 617.978 -2.03208 -5.24083 0
M  V30 6603 H 610.129 -1.6109 -1.38434 0
M  V30 6604 H 612.392 -0.676672 -0.663942 0
M  V30 6605 H 612.098 -2.06034 -2.85032 0
M  V30 6606 H 611.972 -0.548362 -3.73193 0
M  V30 6607 H 614.359 0.0622792 -2.95034 0
M  V30 6608 H 614.44 -1.47981 -2.08651 0
M  V30 6609 H 614.084 -2.71034 -4.29538 0
M  V30 6610 H 614.014 -1.14351 -5.14034 0
M  V30 6611 H 616.505 -1.20987 -3.58009 0
M  V30 6612 H 616.818 -3.05842 -7.09704 0
M  V30 6613 H 615.163 -2.74414 -6.38531 0
M  V30 6614 H 618.354 -1.57823 -4.40692 0
M  V30 6615 H 618.527 -2.42097 -6.01077 0
M  V30 6616 N 611.933 1.52934 -0.380664 0
M  V30 6617 C 612.843 2.29921 0.466192 0
M  V30 6618 C 613.859 1.36488 1.07922 0
M  V30 6619 O 615.035 1.69553 1.0869 0
M  V30 6620 C 612.1 3.08468 1.58266 0
M  V30 6621 C 611.161 4.17595 0.995627 0
M  V30 6622 C 610.394 4.92387 2.05889 0
M  V30 6623 O 610.617 4.67184 3.27254 0
M  V30 6624 O 609.551 5.77949 1.68102 0
M  V30 6625 H 613.377 3.03274 -0.160735 0
M  V30 6626 H 610.962 1.48698 -0.144617 0
M  V30 6627 H 612.844 3.57469 2.23145 0
M  V30 6628 H 611.519 2.37937 2.19471 0
M  V30 6629 H 610.426 3.72811 0.310332 0
M  V30 6630 H 611.759 4.90336 0.427918 0
M  V30 6631 N 613.412 0.11024 1.57214 0
M  V30 6632 C 614.322 -0.857077 2.18383 0
M  V30 6633 C 615.338 -1.29915 1.1575 0
M  V30 6634 O 616.514 -1.36394 1.48184 0
M  V30 6635 C 613.579 -2.09264 2.76423 0
M  V30 6636 C 612.64 -1.70333 3.94063 0
M  V30 6637 C 611.873 -2.87999 4.49324 0
M  V30 6638 O 612.096 -4.0317 4.03497 0
M  V30 6639 O 611.03 -2.6559 5.40135 0
M  V30 6640 H 614.856 -0.366561 3.0148 0
M  V30 6641 H 612.441 -0.114914 1.48957 0
M  V30 6642 H 614.323 -2.81644 3.13456 0
M  V30 6643 H 612.998 -2.57339 1.96363 0
M  V30 6644 H 611.905 -0.950864 3.61814 0
M  V30 6645 H 613.238 -1.27007 4.75531 0
M  V30 6646 N 614.89 -1.56749 -0.16351 0
M  V30 6647 C 616.115 -1.86938 -0.898264 0
M  V30 6648 C 616.54 -0.697456 -1.74692 0
M  V30 6649 O 615.898 0.353327 -1.77824 0
M  V30 6650 C 615.946 -3.15599 -1.74441 0
M  V30 6651 O 615.05 -2.98371 -2.8469 0
M  V30 6652 H 614.391 -0.614659 -0.251178 0
M  V30 6653 H 616.921 -2.03979 -0.159298 0
M  V30 6654 H 616.931 -3.47202 -2.14277 0
M  V30 6655 H 615.606 -4.00505 -1.1211 0
M  V30 6656 H 614.183 -2.7814 -2.4838 0
M  V30 6657 N 616.368 0.432326 -1.51554 0
M  V30 6658 C 617.278 1.55023 -1.76082 0
M  V30 6659 C 618.294 1.61593 -0.645265 0
M  V30 6660 O 619.47 1.78742 -0.928086 0
M  V30 6661 C 616.535 2.90964 -1.88523 0
M  V30 6662 C 615.596 2.9447 -3.12388 0
M  V30 6663 C 614.829 4.23926 -3.24225 0
M  V30 6664 O 615.052 5.16576 -2.4188 0
M  V30 6665 O 613.986 4.33818 -4.17235 0
M  V30 6666 H 617.812 1.37238 -2.70923 0
M  V30 6667 H 615.397 0.615845 -1.36117 0
M  V30 6668 H 617.279 3.71633 -1.98662 0
M  V30 6669 H 615.954 3.08865 -0.9687 0
M  V30 6670 H 614.861 2.12737 -3.07723 0
M  V30 6671 H 616.194 2.81514 -4.03746 0
M  V30 6672 N 617.846 1.41785 0.688094 0
M  V30 6673 C 619.071 1.45117 1.48175 0
M  V30 6674 C 619.496 0.060129 1.88004 0
M  V30 6675 O 618.854 -0.938385 1.55126 0
M  V30 6676 C 618.902 2.37224 2.71583 0
M  V30 6677 O 618.006 1.83443 3.69354 0
M  V30 6678 H 617.347 0.492208 0.445676 0
M  V30 6679 H 619.877 1.86329 0.845145 0
M  V30 6680 H 619.887 2.53353 3.19806 0
M  V30 6681 H 618.562 3.38293 2.41931 0
M  V30 6682 H 617.139 1.76802 3.28322 0
M  V30 6683 N 619.324 -0.923095 1.27737 0
M  V30 6684 C 620.57 -1.67375 1.14514 0
M  V30 6685 C 620.903 -1.91751 -0.307424 0
M  V30 6686 O 620.178 -1.51119 -1.22447 0
M  V30 6687 C 620.461 -3.03745 1.9342 0
M  V30 6688 C 620.314 -2.86581 3.46686 0
M  V30 6689 C 621.633 -4.04144 1.74228 0
M  V30 6690 H 618.752 -0.607427 0.417374 0
M  V30 6691 H 621.394 -1.07089 1.56946 0
M  V30 6692 H 619.544 -3.55204 1.5736 0
M  V30 6693 H 621.216 -2.42203 3.92601 0
M  V30 6694 H 619.459 -2.21829 3.72793 0
M  V30 6695 H 620.13 -3.83381 3.97143 0
M  V30 6696 H 622.606 -3.61712 2.05678 0
M  V30 6697 H 621.482 -4.97543 2.31824 0
M  V30 6698 H 621.743 -4.36661 0.691373 0
M  V30 6699 N 620.802 -1.09834 -1.13024 0
M  V30 6700 C 621.732 -0.763451 -2.20666 0
M  V30 6701 C 622.713 0.260778 -1.68089 0
M  V30 6702 O 623.898 0.127915 -1.93778 0
M  V30 6703 C 621.028 -0.187744 -3.46792 0
M  V30 6704 C 619.982 -1.14196 -4.12484 0
M  V30 6705 C 619.308 -0.427755 -5.32986 0
M  V30 6706 C 620.608 -2.48607 -4.59338 0
M  V30 6707 H 622.302 -1.66347 -2.48936 0
M  V30 6708 H 619.848 -0.801261 -1.19649 0
M  V30 6709 H 621.801 0.0586375 -4.21359 0
M  V30 6710 H 620.525 0.747485 -3.17931 0
M  V30 6711 H 619.184 -1.37369 -3.3989 0
M  V30 6712 H 618.832 0.511747 -5.0039 0
M  V30 6713 H 618.532 -1.06403 -5.77886 0
M  V30 6714 H 620.056 -0.189772 -6.10305 0
M  V30 6715 H 621.47 -2.29618 -5.25308 0
M  V30 6716 H 619.867 -3.08062 -5.14993 0
M  V30 6717 H 620.937 -3.09062 -3.73642 0
M  V30 6718 N 622.28 1.30327 -0.886154 0
M  V30 6719 C 623.508 2.00254 -0.520176 0
M  V30 6720 C 623.923 1.66419 0.891637 0
M  V30 6721 O 623.28 0.901951 1.58654 0
M  V30 6722 C 623.331 3.54916 -0.686775 0
M  V30 6723 O 623.052 3.87547 -2.04301 0
M  V30 6724 C 624.553 4.42115 -0.323945 0
M  V30 6725 H 621.773 0.640204 -0.200947 0
M  V30 6726 H 624.317 1.66183 -1.19178 0
M  V30 6727 H 622.472 3.8735 -0.0625273 0
M  V30 6728 H 622.886 4.82247 -2.06249 0
M  V30 6729 H 624.36 5.49808 -0.491407 0
M  V30 6730 H 624.837 4.32953 0.73811 0
M  V30 6731 H 625.443 4.15129 -0.924565 0
M  V30 6732 N 623.758 0.647228 1.43697 0
M  V30 6733 C 624.688 -0.0345631 2.33474 0
M  V30 6734 C 625.669 -0.818193 1.4913 0
M  V30 6735 O 626.854 -0.780867 1.77809 0
M  V30 6736 C 623.984 -1.00576 3.32418 0
M  V30 6737 C 622.938 -0.33266 4.26705 0
M  V30 6738 C 622.264 -1.41489 5.1564 0
M  V30 6739 C 623.564 0.771204 5.16575 0
M  V30 6740 H 625.258 0.715163 2.90733 0
M  V30 6741 H 622.804 0.345364 1.39797 0
M  V30 6742 H 624.757 -1.49159 3.94119 0
M  V30 6743 H 623.481 -1.78657 2.73403 0
M  V30 6744 H 622.14 0.13267 3.6636 0
M  V30 6745 H 621.788 -2.18698 4.52968 0
M  V30 6746 H 621.488 -0.969799 5.79542 0
M  V30 6747 H 623.012 -1.9022 5.80214 0
M  V30 6748 H 624.426 0.36779 5.72119 0
M  V30 6749 H 622.823 1.1404 5.89165 0
M  V30 6750 H 623.893 1.63169 4.56622 0
M  V30 6751 N 625.236 -1.5273 0.388769 0
M  V30 6752 C 626.183 -2.26437 -0.446639 0
M  V30 6753 C 627.153 -1.28025 -1.05824 0
M  V30 6754 O 628.338 -1.56852 -1.08637 0
M  V30 6755 C 625.478 -3.07407 -1.56828 0
M  V30 6756 C 624.591 -4.20747 -0.979589 0
M  V30 6757 C 623.726 -4.89113 -2.07224 0
M  V30 6758 C 622.765 -5.94447 -1.45942 0
M  V30 6759 N 621.902 -6.56411 -2.49135 0
M  V30 6760 H 626.742 -2.97404 0.18837 0
M  V30 6761 H 624.279 -1.46727 0.104725 0
M  V30 6762 H 626.237 -3.52642 -2.22934 0
M  V30 6763 H 624.867 -2.3865 -2.17361 0
M  V30 6764 H 623.919 -3.7983 -0.208151 0
M  V30 6765 H 625.231 -4.9637 -0.491747 0
M  V30 6766 H 624.385 -5.3765 -2.81101 0
M  V30 6767 H 623.124 -4.13013 -2.59368 0
M  V30 6768 H 622.129 -5.4525 -0.705894 0
M  V30 6769 H 623.354 -6.7248 -0.945932 0
M  V30 6770 H 621.3 -5.83152 -3.00449 0
M  V30 6771 H 621.217 -7.27645 -2.05105 0
M  V30 6772 H 622.485 -7.09592 -3.22644 0
M  V30 6773 N 626.714 -0.118576 -1.57153 0
M  V30 6774 C 627.962 0.538461 -1.94795 0
M  V30 6775 C 628.283 1.67243 -1.00274 0
M  V30 6776 O 627.553 1.95811 -0.0589692 0
M  V30 6777 H 626.133 0.201904 -0.719197 0
M  V30 6778 H 628.795 -0.187418 -1.93997 0
M  V30 6779 H 627.891 0.933315 -2.97818 0
M  V30 6780 N 628.193 1.56834 0.155195 0
M  V30 6781 C 629.123 2.00678 1.19376 0
M  V30 6782 C 630.104 0.884973 1.45266 0
M  V30 6783 O 631.289 1.1522 1.56326 0
M  V30 6784 C 628.419 2.38042 2.5289 0
M  V30 6785 C 627.373 3.53332 2.41538 0
M  V30 6786 C 626.699 3.76485 3.79688 0
M  V30 6787 C 627.999 4.86265 1.9064 0
M  V30 6788 H 629.693 2.87688 0.829232 0
M  V30 6789 H 627.239 1.38407 0.397445 0
M  V30 6790 H 629.192 2.67314 3.25763 0
M  V30 6791 H 627.916 1.4796 2.91162 0
M  V30 6792 H 626.575 3.24213 1.71117 0
M  V30 6793 H 626.223 2.83667 4.15382 0
M  V30 6794 H 625.923 4.54068 3.72956 0
M  V30 6795 H 627.447 4.08174 4.54122 0
M  V30 6796 H 628.861 5.14308 2.53299 0
M  V30 6797 H 627.258 5.67597 1.94818 0
M  V30 6798 H 628.328 4.77184 0.861596 0
M  V30 6799 N 629.671 -0.424282 1.51781 0
M  V30 6800 C 630.899 -1.1947 1.68921 0
M  V30 6801 C 631.314 -1.84683 0.39213 0
M  V30 6802 O 630.671 -1.71261 -0.630554 0
M  V30 6803 C 630.722 -2.26909 2.81416 0
M  V30 6804 O 630.443 -1.64361 4.061 0
M  V30 6805 C 631.944 -3.16945 3.09937 0
M  V30 6806 H 629.164 -0.359591 0.566511 0
M  V30 6807 H 631.708 -0.501139 1.98265 0
M  V30 6808 H 629.863 -2.91959 2.54635 0
M  V30 6809 H 630.277 -2.35468 4.68674 0
M  V30 6810 H 631.751 -3.88437 3.922 0
M  V30 6811 H 632.228 -3.78451 2.22871 0
M  V30 6812 H 632.834 -2.57581 3.38426 0
M  V30 6813 N 631.149 -1.42148 -0.680565 0
M  V30 6814 C 632.56 -1.3768 -1.26099 0
M  V30 6815 C 632.911 -0.0672348 -1.96085 0
M  V30 6816 O 632.036 0.834172 -1.99676 0
M  V30 6817 C 632.631 -2.49387 -2.29328 0
M  V30 6818 C 631.19 -2.4827 -2.82911 0
M  V30 6819 C 630.337 -2.2847 -1.57152 0
M  V30 6820 H 633.288 -1.51446 -0.474326 0
M  V30 6821 H 633.309 -2.19307 -3.10941 0
M  V30 6822 H 632.821 -3.44686 -1.78363 0
M  V30 6823 H 630.922 -1.56773 -3.38013 0
M  V30 6824 H 631.035 -3.45109 -3.3232 0
M  V30 6825 H 629.399 -1.76623 -1.83511 0
M  V30 6826 H 630.182 -3.25816 -1.0816 0
M  V30 6827 N 632.627 0.916307 -1.28225 0
M  V30 6828 C 633.855 1.69901 -1.18073 0
M  V30 6829 C 634.27 1.86988 0.260968 0
M  V30 6830 O 633.627 1.39505 1.17663 0
M  V30 6831 C 633.678 3.09254 -1.87201 0
M  V30 6832 O 633.399 2.92959 -3.2574 0
M  V30 6833 C 634.9 4.0362 -1.83319 0
M  V30 6834 H 632.12 0.531181 -0.409985 0
M  V30 6835 H 634.664 1.14703 -1.69303 0
M  V30 6836 H 632.819 3.61277 -1.39848 0
M  V30 6837 H 633.233 3.81139 -3.60324 0
M  V30 6838 H 634.707 4.98873 -2.36282 0
M  V30 6839 H 635.184 4.3176 -0.805007 0
M  V30 6840 H 635.79 3.57524 -2.3034 0
M  V30 6841 N 634.105 1.10431 1.1244 0
M  V30 6842 C 635.353 0.845045 1.83585 0
M  V30 6843 C 635.674 -0.631168 1.84503 0
M  V30 6844 O 634.944 -1.45825 1.30813 0
M  V30 6845 H 633.524 0.309628 0.679809 0
M  V30 6846 H 636.186 1.39458 1.36153 0
M  V30 6847 H 635.282 1.20786 2.8778 0
M  V30 6848 N 635.583 -1.29855 0.893053 0
M  V30 6849 C 636.516 -2.26079 0.3104 0
M  V30 6850 C 637.494 -1.52145 -0.573644 0
M  V30 6851 O 638.678 -1.8113 -0.521937 0
M  V30 6852 C 635.805 -3.34069 -0.558179 0
M  V30 6853 C 634.851 -4.25721 0.257638 0
M  V30 6854 S 635.684 -5.09409 1.65114 0
M  V30 6855 C 636.84 -6.20903 0.789307 0
M  V30 6856 H 637.073 -2.75151 1.12602 0
M  V30 6857 H 634.606 -1.37975 0.692978 0
M  V30 6858 H 636.564 -3.9675 -1.05355 0
M  V30 6859 H 635.225 -2.83705 -1.34797 0
M  V30 6860 H 634.418 -5.02366 -0.405562 0
M  V30 6861 H 634.02 -3.67656 0.685917 0
M  V30 6862 H 636.312 -6.77499 0.00978451 0
M  V30 6863 H 637.255 -6.91426 1.52762 0
M  V30 6864 H 637.663 -5.63435 0.346634 0
M  V30 6865 N 637.061 -0.65484 -1.43351 0
M  V30 6866 C 637.991 0.0221809 -2.33489 0
M  V30 6867 C 638.972 0.810272 -1.49561 0
M  V30 6868 O 640.157 0.771426 -1.78221 0
M  V30 6869 C 637.287 0.988117 -3.32947 0
M  V30 6870 C 636.241 0.310026 -4.26876 0
M  V30 6871 C 635.567 1.38752 -5.16384 0
M  V30 6872 C 636.867 -0.798589 -5.16159 0
M  V30 6873 H 638.561 -0.730571 -2.9035 0
M  V30 6874 H 636.107 -0.352773 -1.39612 0
M  V30 6875 H 638.06 1.47067 -3.94904 0
M  V30 6876 H 636.784 1.77205 -2.74346 0
M  V30 6877 H 635.443 -0.152097 -3.66284 0
M  V30 6878 H 635.091 2.16293 -4.54121 0
M  V30 6879 H 634.791 0.939051 -5.80048 0
M  V30 6880 H 636.315 1.87141 -5.81215 0
M  V30 6881 H 637.729 -0.398126 -5.71916 0
M  V30 6882 H 636.126 -1.17163 -5.88552 0
M  V30 6883 H 637.196 -1.65588 -4.55751 0
M  V30 6884 N 638.539 1.52521 -0.396863 0
M  V30 6885 C 639.95 1.86547 0.0754868 0
M  V30 6886 C 640.301 1.31621 1.45501 0
M  V30 6887 O 639.426 0.650563 2.0639 0
M  V30 6888 C 640.021 3.38495 0.143754 0
M  V30 6889 C 638.58 3.72205 0.560413 0
M  V30 6890 C 637.727 2.75954 -0.272856 0
M  V30 6891 H 640.678 1.46323 -0.614434 0
M  V30 6892 H 640.699 3.68153 0.961425 0
M  V30 6893 H 640.211 3.78442 -0.860415 0
M  V30 6894 H 638.312 3.3783 1.57167 0
M  V30 6895 H 638.425 4.78074 0.313314 0
M  V30 6896 H 636.789 2.53339 0.263 0
M  V30 6897 H 637.572 3.1874 -1.27515 0
M  V30 6898 N 640.017 0.126909 1.57088 0
M  V30 6899 C 641.242 -0.53997 2.00248 0
M  V30 6900 C 641.667 -1.58927 1.00618 0
M  V30 6901 O 641.025 -1.81288 -0.0210131 0
M  V30 6902 C 641.073 -1.13565 3.4225 0
M  V30 6903 O 640.177 -2.25103 3.45547 0
M  V30 6904 H 639.518 -0.13412 0.650314 0
M  V30 6905 H 642.048 0.217718 2.03438 0
M  V30 6906 H 642.058 -1.46925 3.80627 0
M  V30 6907 H 640.733 -0.367122 4.14277 0
M  V30 6908 H 639.31 -1.93123 3.18995 0
M  V30 6909 N 641.495 -1.56914 -0.146875 0
M  V30 6910 C 642.743 -1.82994 -0.85777 0
M  V30 6911 C 643.064 -0.707814 -1.817 0
M  V30 6912 O 642.334 0.270521 -1.94023 0
M  V30 6913 H 640.914 -0.675106 -0.319751 0
M  V30 6914 H 643.576 -1.9439 -0.140849 0
M  V30 6915 H 642.672 -2.77928 -1.41994 0
M  V30 6916 N 642.974 0.416227 -1.52004 0
M  V30 6917 C 644.22 1.16555 -1.6596 0
M  V30 6918 C 644.553 1.90347 -0.384906 0
M  V30 6919 O 643.828 1.84474 0.616405 0
M  V30 6920 C 644.111 2.1657 -2.87696 0
M  V30 6921 C 643.964 1.46722 -4.25197 0
M  V30 6922 C 645.283 3.17321 -3.04951 0
M  V30 6923 H 642.402 0.422369 -0.603965 0
M  V30 6924 H 645.044 0.452141 -1.84542 0
M  V30 6925 H 643.194 2.77411 -2.71985 0
M  V30 6926 H 644.866 0.89056 -4.52622 0
M  V30 6927 H 643.109 0.769263 -4.26925 0
M  V30 6928 H 643.78 2.19665 -5.0641 0
M  V30 6929 H 646.256 2.66552 -3.19514 0
M  V30 6930 H 645.132 3.84573 -3.91656 0
M  V30 6931 H 645.393 3.84643 -2.17951 0
M  V30 6932 N 644.452 1.42507 0.673017 0
M  V30 6933 C 645.382 1.48916 1.79851 0
M  V30 6934 C 646.363 0.345566 1.66553 0
M  V30 6935 O 647.548 0.560116 1.85947 0
M  V30 6936 C 644.678 1.39258 3.18158 0
M  V30 6937 C 643.632 2.51662 3.46194 0
M  V30 6938 C 642.958 2.27062 4.84094 0
M  V30 6939 C 644.258 3.93968 3.42909 0
M  V30 6940 H 645.952 2.43114 1.74745 0
M  V30 6941 H 643.498 1.17013 0.839288 0
M  V30 6942 H 645.451 1.42349 3.96629 0
M  V30 6943 H 644.175 0.415542 3.23946 0
M  V30 6944 H 642.834 2.47891 2.70084 0
M  V30 6945 H 642.482 1.27648 4.86534 0
M  V30 6946 H 642.182 3.02398 5.03815 0
M  V30 6947 H 643.706 2.31905 5.64847 0
M  V30 6948 H 645.12 3.99332 4.11347 0
M  V30 6949 H 643.517 4.6917 3.74165 0
M  V30 6950 H 644.587 4.20512 2.41449 0
M  V30 6951 N 645.93 -0.909495 1.28709 0
M  V30 6952 C 647.155 -1.69801 1.1909 0
M  V30 6953 C 647.58 -1.86479 -0.246388 0
M  V30 6954 O 646.938 -1.37802 -1.17815 0
M  V30 6955 C 646.986 -3.06543 1.89904 0
M  V30 6956 O 646.09 -3.94268 1.2094 0
M  V30 6957 H 645.431 -0.519783 0.413185 0
M  V30 6958 H 647.961 -1.13689 1.70106 0
M  V30 6959 H 647.971 -3.56748 1.97977 0
M  V30 6960 H 646.646 -2.93722 2.94449 0
M  V30 6961 H 645.223 -3.52702 1.2106 0
M  V30 6962 N 647.408 -1.11026 -1.11852 0
M  V30 6963 C 648.656 -0.854769 -1.83134 0
M  V30 6964 C 648.977 0.621375 -1.84835 0
M  V30 6965 O 648.247 1.45129 -1.31584 0
M  V30 6966 H 646.827 -0.313229 -0.678157 0
M  V30 6967 H 649.489 -1.40178 -1.35411 0
M  V30 6968 H 648.585 -1.22311 -2.87135 0
M  V30 6969 N 648.886 1.2938 -0.899927 0
M  V30 6970 C 650.134 1.95164 -0.524924 0
M  V30 6971 C 650.455 1.71292 0.931888 0
M  V30 6972 O 649.725 1.04481 1.65712 0
M  V30 6973 H 648.305 0.722133 -0.191135 0
M  V30 6974 H 650.967 1.57628 -1.14627 0
M  V30 6975 H 650.063 3.0397 -0.707711 0
M  V30 6976 N 650.364 0.662433 1.43002 0
M  V30 6977 C 651.311 -0.0235324 2.30788 0
M  V30 6978 C 652.281 -0.805342 1.4527 0
M  V30 6979 O 653.466 -0.78009 1.74124 0
M  V30 6980 C 650.606 -0.977545 3.30965 0
M  V30 6981 C 649.719 -0.190865 4.31578 0
M  V30 6982 C 648.854 -1.13951 5.18834 0
M  V30 6983 C 647.893 -0.343796 6.11134 0
M  V30 6984 N 647.03 -1.2445 6.90982 0
M  V30 6985 H 651.87 0.730921 2.88897 0
M  V30 6986 H 649.407 0.372197 1.42313 0
M  V30 6987 H 651.365 -1.54437 3.87563 0
M  V30 6988 H 649.995 -1.69877 2.74484 0
M  V30 6989 H 649.047 0.492388 3.772 0
M  V30 6990 H 650.359 0.427464 4.96965 0
M  V30 6991 H 649.513 -1.77666 5.80103 0
M  V30 6992 H 648.252 -1.79174 4.53595 0
M  V30 6993 H 647.257 0.30665 5.48944 0
M  V30 6994 H 648.482 0.304161 6.78419 0
M  V30 6995 H 646.428 -1.88336 6.28383 0
M  V30 6996 H 646.345 -0.680959 7.52927 0
M  V30 6997 H 647.613 -1.86952 7.56749 0
M  V30 6998 N 651.842 -1.52309 0.404946 0
M  V30 6999 C 652.774 -2.24579 -0.45791 0
M  V30 7000 C 653.787 -1.2739 -1.01369 0
M  V30 7001 O 654.976 -1.53363 -0.91335 0
M  V30 7002 C 652.076 -2.9608 -1.64893 0
M  V30 7003 C 651.249 -4.20106 -1.21777 0
M  V30 7004 C 650.308 -4.74468 -2.27523 0
M  V30 7005 O 649.334 -5.37157 -1.88285 0
M  V30 7006 N 650.536 -4.55678 -3.59635 0
M  V30 7007 H 653.301 -2.99265 0.161341 0
M  V30 7008 H 650.862 -1.60228 0.232107 0
M  V30 7009 H 652.854 -3.29344 -2.35191 0
M  V30 7010 H 651.424 -2.24606 -2.17419 0
M  V30 7011 H 650.644 -3.92704 -0.343071 0
M  V30 7012 H 651.932 -5.00658 -0.906596 0
M  V30 7013 H 651.33 -4.05673 -3.94266 0
M  V30 7014 H 649.887 -4.9339 -4.25922 0
M  V30 7015 N 653.32 -0.135238 -1.57019 0
M  V30 7016 C 654.548 0.526066 -2.001 0
M  V30 7017 C 654.963 1.59184 -1.01519 0
M  V30 7018 O 654.32 1.82497 -0.0104258 0
M  V30 7019 C 654.371 1.13744 -3.43139 0
M  V30 7020 O 654.092 0.114259 -4.37951 0
M  V30 7021 C 655.593 1.8805 -4.01438 0
M  V30 7022 H 652.813 0.137962 -0.656664 0
M  V30 7023 H 655.357 -0.226359 -2.03243 0
M  V30 7024 H 653.512 1.84056 -3.40885 0
M  V30 7025 H 653.926 0.56058 -5.21496 0
M  V30 7026 H 655.4 2.26133 -5.03555 0
M  V30 7027 H 655.877 2.76194 -3.41487 0
M  V30 7028 H 656.483 1.22464 -4.07287 0
M  V30 7029 N 654.798 1.5699 0.138552 0
M  V30 7030 C 655.728 2.01933 1.17241 0
M  V30 7031 C 656.709 0.90033 1.44319 0
M  V30 7032 O 657.894 1.16872 1.55095 0
M  V30 7033 C 655.024 2.40711 2.50351 0
M  V30 7034 C 653.978 3.55874 2.37776 0
M  V30 7035 C 653.304 3.80491 3.75674 0
M  V30 7036 C 654.604 4.8826 1.85472 0
M  V30 7037 H 656.298 2.88551 0.798672 0
M  V30 7038 H 653.844 1.3882 0.382743 0
M  V30 7039 H 655.797 2.70754 3.22909 0
M  V30 7040 H 654.521 1.5104 2.89576 0
M  V30 7041 H 653.18 3.2601 1.67669 0
M  V30 7042 H 652.828 2.88057 4.12349 0
M  V30 7043 H 652.528 4.57998 3.68119 0
M  V30 7044 H 654.052 4.12967 4.49767 0
M  V30 7045 H 655.466 5.16965 2.4783 0
M  V30 7046 H 653.863 5.69631 1.88787 0
M  V30 7047 H 654.933 4.78071 0.810935 0
M  V30 7048 N 656.276 -0.40816 1.52223 0
M  V30 7049 C 657.208 -1.51642 1.71864 0
M  V30 7050 C 658.221 -1.51378 0.599056 0
M  V30 7051 O 659.41 -1.55626 0.874239 0
M  V30 7052 C 656.51 -2.90534 1.74481 0
M  V30 7053 C 655.683 -3.14979 3.03491 0
M  V30 7054 C 654.742 -4.33749 2.97907 0
M  V30 7055 O 653.768 -4.30982 3.71811 0
M  V30 7056 N 654.97 -5.38912 2.15764 0
M  V30 7057 H 657.735 -1.35188 2.67478 0
M  V30 7058 H 655.296 -0.597468 1.50472 0
M  V30 7059 H 657.288 -3.68056 1.68275 0
M  V30 7060 H 655.858 -3.00441 0.863363 0
M  V30 7061 H 655.078 -2.25492 3.23337 0
M  V30 7062 H 656.366 -3.28156 3.88833 0
M  V30 7063 H 655.764 -5.44008 1.55152 0
M  V30 7064 H 654.321 -6.15174 2.15415 0
M  V30 7065 N 657.755 -1.42862 -0.66545 0
M  V30 7066 C 658.98 -1.47456 -1.45848 0
M  V30 7067 C 659.405 -0.0900312 -1.87884 0
M  V30 7068 O 658.763 0.913587 -1.56599 0
M  V30 7069 C 658.811 -2.41514 -2.67774 0
M  V30 7070 O 657.915 -1.89296 -3.66389 0
M  V30 7071 H 657.256 -0.499236 -0.437789 0
M  V30 7072 H 659.786 -1.8765 -0.815394 0
M  V30 7073 H 659.796 -2.58409 -3.15735 0
M  V30 7074 H 658.471 -3.42099 -2.36519 0
M  V30 7075 H 657.048 -1.82003 -3.25468 0
M  V30 7076 N 659.233 0.902656 -1.29189 0
M  V30 7077 C 660.196 1.98797 -1.14071 0
M  V30 7078 C 661.196 1.60615 -0.0770549 0
M  V30 7079 O 662.386 1.71165 -0.323753 0
M  V30 7080 C 659.518 3.32688 -0.743739 0
M  V30 7081 H 660.711 2.13637 -2.10473 0
M  V30 7082 H 658.264 1.08678 -1.12334 0
M  V30 7083 H 658.999 3.23549 0.220554 0
M  V30 7084 H 658.784 3.61765 -1.51223 0
M  V30 7085 H 660.274 4.12337 -0.660935 0
M  V30 7086 N 660.711 1.11618 1.11262 0
M  V30 7087 C 661.939 0.888739 1.8684 0
M  V30 7088 C 662.354 -0.561558 1.80255 0
M  V30 7089 O 661.711 -1.38782 1.18515 0
M  V30 7090 C 661.762 1.34422 3.35579 0
M  V30 7091 O 661.483 2.73766 3.42029 0
M  V30 7092 C 662.984 1.15246 4.28058 0
M  V30 7093 H 660.204 0.318152 0.590779 0
M  V30 7094 H 662.748 1.48398 1.40707 0
M  V30 7095 H 660.903 0.79239 3.7921 0
M  V30 7096 H 661.317 2.9355 4.34659 0
M  V30 7097 H 662.791 1.52015 5.30656 0
M  V30 7098 H 663.268 0.0922007 4.39103 0
M  V30 7099 H 663.874 1.69136 3.90222 0
M  V30 7100 N 662.189 -1.289 0.906776 0
M  V30 7101 C 663.435 -1.95558 0.53712 0
M  V30 7102 C 663.768 -1.71262 -0.915582 0
M  V30 7103 O 663.043 -1.02961 -1.65013 0
M  V30 7104 C 663.326 -3.50198 0.838645 0
M  V30 7105 C 663.179 -3.83923 2.34357 0
M  V30 7106 C 664.498 -4.38861 0.329988 0
M  V30 7107 H 661.617 -0.710289 0.196617 0
M  V30 7108 H 664.259 -1.52392 1.13475 0
M  V30 7109 H 662.409 -3.87096 0.330024 0
M  V30 7110 H 664.081 -3.56933 2.92227 0
M  V30 7111 H 662.324 -3.31215 2.80141 0
M  V30 7112 H 662.995 -4.91883 2.5051 0
M  V30 7113 H 665.471 -4.08996 0.765609 0
M  V30 7114 H 664.347 -5.45931 0.570105 0
M  V30 7115 H 664.608 -4.35352 -0.769511 0
M  V30 7116 N 663.667 -0.670007 -1.42649 0
M  V30 7117 C 664.577 0.0114788 -2.34597 0
M  V30 7118 C 665.593 0.794055 -1.54825 0
M  V30 7119 O 666.769 0.737472 -1.87412 0
M  V30 7120 C 663.834 0.954436 -3.33304 0
M  V30 7121 C 662.895 0.166925 -4.28975 0
M  V30 7122 C 662.128 1.06497 -5.22967 0
M  V30 7123 O 662.351 2.30446 -5.21777 0
M  V30 7124 O 661.285 0.528347 -5.99577 0
M  V30 7125 H 665.111 -0.745794 -2.944 0
M  V30 7126 H 662.696 -0.430228 -1.43071 0
M  V30 7127 H 664.578 1.49589 -3.93956 0
M  V30 7128 H 663.253 1.69164 -2.7598 0
M  V30 7129 H 662.16 -0.418515 -3.71752 0
M  V30 7130 H 663.493 -0.531067 -4.89327 0
M  V30 7131 N 665.145 1.52092 -0.413018 0
M  V30 7132 C 666.108 2.25706 0.398687 0
M  V30 7133 C 667.108 1.28221 0.970368 0
M  V30 7134 O 668.298 1.52131 0.848635 0
M  V30 7135 C 665.43 3.03029 1.5616 0
M  V30 7136 H 666.623 2.98888 -0.246131 0
M  V30 7137 H 664.176 1.5542 -0.165622 0
M  V30 7138 H 664.911 2.34205 2.24317 0
M  V30 7139 H 664.696 3.74606 1.15812 0
M  V30 7140 H 666.186 3.58857 2.13569 0
M  V30 7141 N 666.623 0.143563 1.56945 0
M  V30 7142 C 667.872 -0.50835 1.95189 0
M  V30 7143 C 668.185 -1.66239 1.03073 0
M  V30 7144 O 669.391 -2.3787 1.30882 0
M  V30 7145 C 667.847 -0.955735 3.46978 0
M  V30 7146 C 667.455 0.171183 4.47673 0
M  V30 7147 C 669.199 -1.57763 3.94095 0
M  V30 7148 C 667.106 -0.294279 5.90667 0
M  V30 7149 H 666.036 -0.193679 0.728701 0
M  V30 7150 H 668.687 0.227357 1.82086 0
M  V30 7151 H 667.069 -1.7466 3.55401 0
M  V30 7152 H 668.243 0.948049 4.50942 0
M  V30 7153 H 666.558 0.701273 4.10452 0
M  V30 7154 H 669.155 -1.93745 4.98364 0
M  V30 7155 H 669.498 -2.46531 3.35452 0
M  V30 7156 H 670.031 -0.851728 3.88575 0
M  V30 7157 H 666.77 0.557939 6.53121 0
M  V30 7158 H 666.29 -1.0371 5.90766 0
M  V30 7159 H 667.969 -0.747426 6.42668 0
M  V30 7160 N 668.101 -1.57061 -0.130224 0
M  V30 7161 C 669.011 -2.02802 -1.17934 0
M  V30 7162 C 670.027 -0.946378 -1.46013 0
M  V30 7163 O 671.203 -1.25708 -1.57351 0
M  V30 7164 C 668.268 -2.41368 -2.48882 0
M  V30 7165 C 667.329 -3.63561 -2.28301 0
M  V30 7166 C 666.562 -4.00279 -3.53005 0
M  V30 7167 O 666.785 -3.37463 -4.59864 0
M  V30 7168 O 665.719 -4.93441 -3.44673 0
M  V30 7169 H 669.545 -2.92394 -0.820958 0
M  V30 7170 H 667.13 -1.45475 -0.340197 0
M  V30 7171 H 669.012 -2.66958 -3.26054 0
M  V30 7172 H 667.687 -1.54926 -2.84217 0
M  V30 7173 H 666.594 -3.43136 -1.49025 0
M  V30 7174 H 667.927 -4.50673 -1.97875 0
M  V30 7175 N 669.579 0.400081 -1.52437 0
M  V30 7176 C 670.542 1.4707 -1.75793 0
M  V30 7177 C 671.542 1.48036 -0.627856 0
M  V30 7178 O 672.732 1.49401 -0.895817 0
M  V30 7179 C 669.864 2.86427 -1.84858 0
M  V30 7180 H 671.057 1.27649 -2.71377 0
M  V30 7181 H 668.61 0.631141 -1.42991 0
M  V30 7182 H 669.345 3.11207 -0.912194 0
M  V30 7183 H 669.13 2.87128 -2.6702 0
M  V30 7184 H 670.62 3.64023 -2.04638 0
M  V30 7185 N 671.057 1.43213 0.657864 0
M  V30 7186 C 672.334 1.35063 1.41483 0
M  V30 7187 C 672.714 -0.0038314 2.111 0
M  V30 7188 O 672.062 -1.02018 2.04462 0
M  V30 7189 C 672.272 2.53061 2.40335 0
M  V30 7190 C 673.62 2.9594 3.04474 0
M  V30 7191 O 674.644 2.53074 2.50663 0
M  V30 7192 O 673.503 3.70184 4.02027 0
M  V30 7193 H 670.597 0.533517 0.631893 0
M  V30 7194 H 673.143 1.55253 0.685162 0
M  V30 7195 H 671.915 3.43283 1.87809 0
M  V30 7196 H 671.538 2.34945 3.20759 0
M  V30 7197 N 672.536 -0.895792 1.29666 0
M  V30 7198 C 673.446 -2.03329 1.17024 0
M  V30 7199 C 674.462 -1.73753 0.0925962 0
M  V30 7200 O 675.638 -1.99071 0.305431 0
M  V30 7201 C 672.703 -3.36072 0.851841 0
M  V30 7202 C 671.764 -3.7914 2.01373 0
M  V30 7203 C 670.997 -5.05549 1.71043 0
M  V30 7204 O 671.22 -5.66874 0.633213 0
M  V30 7205 O 670.154 -5.44764 2.5596 0
M  V30 7206 H 673.98 -2.16918 2.12556 0
M  V30 7207 H 671.565 -1.02007 1.09156 0
M  V30 7208 H 673.447 -4.15729 0.689006 0
M  V30 7209 H 672.122 -3.23616 -0.0736634 0
M  V30 7210 H 671.029 -3.00233 2.23183 0
M  V30 7211 H 672.362 -3.96186 2.92058 0
M  V30 7212 N 674.014 -1.12206 -1.10668 0
M  V30 7213 C 674.977 -0.790867 -2.15123 0
M  V30 7214 C 675.977 0.193618 -1.5963 0
M  V30 7215 O 677.167 -0.0318728 -1.74171 0
M  V30 7216 C 674.299 -0.174797 -3.40452 0
M  V30 7217 H 675.492 -1.7163 -2.45933 0
M  V30 7218 H 673.045 -0.924993 -1.2599 0
M  V30 7219 H 673.78 0.760478 -3.15257 0
M  V30 7220 H 673.565 -0.88358 -3.82015 0
M  V30 7221 H 675.055 0.0405162 -4.1758 0
M  V30 7222 N 675.492 1.28418 -0.913599 0
M  V30 7223 C 676.741 1.94265 -0.542572 0
M  V30 7224 C 677.054 1.72709 0.918207 0
M  V30 7225 O 678.26 2.32778 1.39738 0
M  V30 7226 C 676.716 3.47956 -0.919507 0
M  V30 7227 C 676.324 3.78291 -2.4 0
M  V30 7228 C 678.068 4.19962 -0.619057 0
M  V30 7229 C 675.975 5.2529 -2.71707 0
M  V30 7230 H 674.905 0.727213 -0.199192 0
M  V30 7231 H 677.556 1.45931 -1.11249 0
M  V30 7232 H 675.938 3.9502 -0.278372 0
M  V30 7233 H 677.112 3.42035 -3.08786 0
M  V30 7234 H 675.427 3.19456 -2.67089 0
M  V30 7235 H 678.024 5.28178 -0.832623 0
M  V30 7236 H 678.367 4.13935 0.443126 0
M  V30 7237 H 678.9 3.78674 -1.21865 0
M  V30 7238 H 675.639 5.36394 -3.76778 0
M  V30 7239 H 675.159 5.62743 -2.07559 0
M  V30 7240 H 676.838 5.93027 -2.58703 0
M  V30 7241 N 676.97 0.677563 1.42291 0
M  V30 7242 C 677.917 0.000947061 2.308 0
M  V30 7243 C 678.887 -0.789889 1.46116 0
M  V30 7244 O 680.072 -0.761578 1.74942 0
M  V30 7245 C 677.212 -0.942387 3.31984 0
M  V30 7246 C 676.325 -0.14508 4.31756 0
M  V30 7247 C 675.46 -1.08442 5.20013 0
M  V30 7248 C 674.499 -0.278958 6.11464 0
M  V30 7249 N 673.636 -1.17115 6.92263 0
M  V30 7250 H 678.476 0.761521 2.88106 0
M  V30 7251 H 676.013 0.38727 1.41911 0
M  V30 7252 H 677.971 -1.50317 3.89179 0
M  V30 7253 H 676.601 -1.66956 2.76271 0
M  V30 7254 H 675.653 0.532368 3.76656 0
M  V30 7255 H 676.965 0.48015 4.96484 0
M  V30 7256 H 676.119 -1.71504 5.81955 0
M  V30 7257 H 674.858 -1.74353 4.55469 0
M  V30 7258 H 673.863 0.364856 5.48588 0
M  V30 7259 H 675.088 0.376099 6.78058 0
M  V30 7260 H 673.034 -1.81661 6.30345 0
M  V30 7261 H 672.951 -0.601063 7.53607 0
M  V30 7262 H 674.219 -1.78915 7.58689 0
M  V30 7263 N 678.448 -1.51871 0.421078 0
M  V30 7264 C 679.696 -2.01539 -0.150492 0
M  V30 7265 C 680.017 -1.30803 -1.44623 0
M  V30 7266 O 679.287 -0.437568 -1.90951 0
M  V30 7267 H 677.867 -0.744698 -0.0586041 0
M  V30 7268 H 680.529 -1.8668 0.560059 0
M  V30 7269 H 679.625 -3.10264 -0.338068 0
M  V30 7270 N 679.926 -0.151884 -1.56866 0
M  V30 7271 C 681.173 0.498004 -1.96281 0
M  V30 7272 C 681.501 1.64551 -1.03698 0
M  V30 7273 O 680.756 1.95585 -0.0671497 0
M  V30 7274 C 681.055 1.04074 -3.41911 0
M  V30 7275 C 680.721 0.0111688 -4.50899 0
M  V30 7276 C 679.383 -0.271844 -4.80432 0
M  V30 7277 C 681.735 -0.68869 -5.1663 0
M  V30 7278 C 679.063 -1.26044 -5.73001 0
M  V30 7279 C 681.415 -1.66613 -6.10264 0
M  V30 7280 C 680.079 -1.9568 -6.38174 0
M  V30 7281 H 679.349 0.182233 -0.718242 0
M  V30 7282 H 681.996 -0.239746 -1.89993 0
M  V30 7283 H 680.301 1.85592 -3.45055 0
M  V30 7284 H 681.998 1.55224 -3.69738 0
M  V30 7285 H 678.588 0.241932 -4.27917 0
M  V30 7286 H 682.772 -0.48324 -4.93942 0
M  V30 7287 H 678.028 -1.49202 -5.92915 0
M  V30 7288 H 682.202 -2.21392 -6.60272 0
M  V30 7289 H 679.829 -2.72434 -7.09707 0
M  V30 7290 N 681.404 1.57128 0.121893 0
M  V30 7291 C 682.629 1.89254 0.848385 0
M  V30 7292 C 683.054 0.743527 1.72781 0
M  V30 7293 O 682.412 -0.306056 1.78698 0
M  V30 7294 C 682.46 3.20113 1.66012 0
M  V30 7295 O 681.564 3.05815 2.76679 0
M  V30 7296 H 680.905 0.621103 0.234793 0
M  V30 7297 H 683.435 2.0433 0.10516 0
M  V30 7298 H 683.445 3.52761 2.04996 0
M  V30 7299 H 682.12 4.03336 1.01452 0
M  V30 7300 H 680.697 2.84627 2.40918 0
M  V30 7301 N 682.882 -0.391992 1.52647 0
M  V30 7302 C 684.293 -0.970064 1.5952 0
M  V30 7303 C 684.644 -1.91059 0.446207 0
M  V30 7304 O 683.769 -2.12062 -0.431125 0
M  V30 7305 C 684.364 -1.76614 2.89125 0
M  V30 7306 C 682.923 -2.29396 2.9842 0
M  V30 7307 C 682.07 -1.09864 2.54608 0
M  V30 7308 H 685.021 -0.171638 1.57769 0
M  V30 7309 H 685.042 -2.62511 2.75442 0
M  V30 7310 H 684.554 -1.08135 3.72731 0
M  V30 7311 H 682.655 -3.01196 2.19344 0
M  V30 7312 H 682.768 -2.59088 4.03002 0
M  V30 7313 H 681.132 -1.45777 2.08857 0
M  V30 7314 H 681.915 -0.429249 3.40606 0
M  V30 7315 N 684.36 -1.4356 -0.65026 0
M  V30 7316 C 685.292 -1.44918 -1.77571 0
M  V30 7317 C 686.305 -0.344925 -1.59104 0
M  V30 7318 O 687.494 -0.609537 -1.6777 0
M  V30 7319 C 684.594 -1.24914 -3.15039 0
M  V30 7320 C 683.767 -2.48232 -3.60138 0
M  V30 7321 C 682.826 -2.23409 -4.76419 0
M  V30 7322 O 681.852 -2.9678 -4.85706 0
M  V30 7323 N 683.054 -1.25259 -5.66825 0
M  V30 7324 H 685.819 -2.41935 -1.76883 0
M  V30 7325 H 683.38 -1.38754 -0.834202 0
M  V30 7326 H 685.372 -1.06185 -3.90521 0
M  V30 7327 H 683.942 -0.363319 -3.10481 0
M  V30 7328 H 683.162 -2.82366 -2.75069 0
M  V30 7329 H 684.45 -3.30296 -3.87017 0
M  V30 7330 H 683.848 -0.646246 -5.61997 0
M  V30 7331 H 682.405 -1.12513 -6.42016 0
M  V30 7332 N 685.838 0.888903 -1.30139 0
M  V30 7333 C 686.788 1.9814 -1.12803 0
M  V30 7334 C 687.772 1.60839 -0.0443137 0
M  V30 7335 O 688.964 1.74971 -0.267208 0
M  V30 7336 C 686.093 3.33416 -0.817849 0
M  V30 7337 C 685.179 3.77043 -1.94163 0
M  V30 7338 N 685.57 3.92805 -3.18651 0
M  V30 7339 C 683.868 4.06407 -1.8371 0
M  V30 7340 C 684.569 4.29746 -3.92038 0
M  V30 7341 N 683.545 4.3939 -3.20059 0
M  V30 7342 H 687.347 2.08411 -2.07225 0
M  V30 7343 H 684.861 1.07845 -1.21421 0
M  V30 7344 H 686.858 4.11405 -0.674668 0
M  V30 7345 H 685.518 3.24484 0.118344 0
M  V30 7346 H 686.529 3.78042 -3.53984 0
M  V30 7347 H 683.206 4.05972 -0.974331 0
M  V30 7348 H 684.596 4.49695 -4.99223 0
M  V30 7349 N 687.317 1.12792 1.10072 0
M  V30 7350 C 688.264 0.79921 2.16521 0
M  V30 7351 C 689.234 -0.235726 1.64419 0
M  V30 7352 O 690.419 -0.109457 1.90486 0
M  V30 7353 C 687.559 0.264091 3.44088 0
M  V30 7354 C 686.672 1.35729 4.10124 0
M  V30 7355 C 685.807 0.781212 5.25424 0
M  V30 7356 C 684.846 1.85327 5.8337 0
M  V30 7357 N 683.983 1.29564 6.90042 0
M  V30 7358 H 688.823 1.71105 2.43981 0
M  V30 7359 H 686.36 0.854225 1.19756 0
M  V30 7360 H 688.318 -0.0642423 4.17151 0
M  V30 7361 H 686.948 -0.610901 3.16967 0
M  V30 7362 H 686 1.80234 3.34993 0
M  V30 7363 H 687.312 2.16782 4.4923 0
M  V30 7364 H 686.466 0.403769 6.05355 0
M  V30 7365 H 685.205 -0.0604686 4.87663 0
M  V30 7366 H 684.21 2.23986 5.02106 0
M  V30 7367 H 685.435 2.69824 6.23195 0
M  V30 7368 H 683.381 0.475844 6.54272 0
M  V30 7369 H 683.298 2.04271 7.2788 0
M  V30 7370 H 684.566 0.945545 7.73744 0
M  V30 7371 N 688.795 -1.27931 0.920396 0
M  V30 7372 C 690.044 -1.93975 0.552867 0
M  V30 7373 C 690.357 -1.73193 -0.909035 0
M  V30 7374 O 691.563 -2.33515 -1.38502 0
M  V30 7375 C 690.019 -3.47463 0.937947 0
M  V30 7376 C 689.627 -3.77013 2.42003 0
M  V30 7377 C 691.371 -4.19628 0.64132 0
M  V30 7378 C 689.278 -5.23841 2.74489 0
M  V30 7379 H 688.208 -0.726146 0.203046 0
M  V30 7380 H 690.859 -1.45339 1.12022 0
M  V30 7381 H 689.241 -3.94867 0.299317 0
M  V30 7382 H 690.415 -3.40393 3.10595 0
M  V30 7383 H 688.73 -3.18035 2.6878 0
M  V30 7384 H 691.327 -5.27729 0.860622 0
M  V30 7385 H 691.67 -4.14164 -0.421168 0
M  V30 7386 H 692.203 -3.78022 1.23872 0
M  V30 7387 H 688.942 -5.34388 3.79618 0
M  V30 7388 H 688.462 -5.61634 2.1054 0
M  V30 7389 H 690.141 -5.91647 2.61845 0
M  V30 7390 N 690.273 -0.685099 -1.4193 0
M  V30 7391 C 691.501 -0.220372 -2.05723 0
M  V30 7392 C 691.916 1.12642 -1.51516 0
M  V30 7393 O 691.273 1.70182 -0.659114 0
M  V30 7394 C 691.324 -0.157974 -3.61155 0
M  V30 7395 O 691.045 -1.45156 -4.13354 0
M  V30 7396 C 692.546 0.329009 -4.42077 0
M  V30 7397 H 689.766 -0.104725 -0.662777 0
M  V30 7398 H 692.31 -0.934736 -1.81887 0
M  V30 7399 H 690.465 0.507144 -3.84066 0
M  V30 7400 H 690.879 -1.33172 -5.07312 0
M  V30 7401 H 692.353 0.321559 -5.51063 0
M  V30 7402 H 692.83 1.36608 -4.17414 0
M  V30 7403 H 693.436 -0.304737 -4.24207 0
M  V30 7404 N 691.751 1.51645 -0.429126 0
M  V30 7405 C 692.976 2.06917 0.141399 0
M  V30 7406 C 693.401 1.29527 1.36398 0
M  V30 7407 O 692.759 0.33094 1.78254 0
M  V30 7408 C 692.807 3.57776 0.4504 0
M  V30 7409 O 691.911 3.82639 1.53821 0
M  V30 7410 H 691.252 0.663978 0.0054647 0
M  V30 7411 H 693.782 1.95355 -0.608093 0
M  V30 7412 H 693.792 4.01894 0.703249 0
M  V30 7413 H 692.467 4.13532 -0.443213 0
M  V30 7414 H 691.044 3.5039 1.27597 0
M  V30 7415 N 693.229 0.160201 1.56784 0
M  V30 7416 C 694.476 -0.487588 1.96542 0
M  V30 7417 C 694.804 -1.63999 1.04569 0
M  V30 7418 O 694.059 -1.95546 0.0775211 0
M  V30 7419 C 694.358 -1.02259 3.42459 0
M  V30 7420 C 694.024 0.0127436 4.50898 0
M  V30 7421 C 692.686 0.297318 4.80281 0
M  V30 7422 C 695.038 0.716078 5.16257 0
M  V30 7423 C 692.366 1.29081 5.72324 0
M  V30 7424 C 694.718 1.69847 6.09372 0
M  V30 7425 C 693.382 1.99061 6.37127 0
M  V30 7426 H 692.652 -0.178421 0.719199 0
M  V30 7427 H 695.299 0.249818 1.89864 0
M  V30 7428 H 693.604 -1.8376 3.46034 0
M  V30 7429 H 695.301 -1.53261 3.70556 0
M  V30 7430 H 691.891 -0.219235 4.28039 0
M  V30 7431 H 696.075 0.509428 4.93679 0
M  V30 7432 H 691.331 1.52344 5.92116 0
M  V30 7433 H 695.505 2.2489 6.59088 0
M  V30 7434 H 693.132 2.76194 7.08252 0
M  V30 7435 N 694.707 -1.5719 -0.113559 0
M  V30 7436 C 695.617 -2.04041 -1.15777 0
M  V30 7437 C 696.633 -0.961812 -1.45001 0
M  V30 7438 O 697.809 -1.2737 -1.56009 0
M  V30 7439 C 694.874 -2.43994 -2.46308 0
M  V30 7440 C 693.935 -3.65962 -2.24433 0
M  V30 7441 C 693.168 -4.04 -3.4874 0
M  V30 7442 O 693.391 -3.42321 -4.56259 0
M  V30 7443 O 692.325 -4.97069 -3.3942 0
M  V30 7444 H 696.151 -2.93248 -0.789899 0
M  V30 7445 H 693.736 -1.45828 -0.324748 0
M  V30 7446 H 695.618 -2.70401 -3.23204 0
M  V30 7447 H 694.293 -1.57932 -2.82558 0
M  V30 7448 H 693.2 -3.44697 -1.45377 0
M  V30 7449 H 694.533 -4.52746 -1.93084 0
M  V30 7450 N 696.185 0.383891 -1.52853 0
M  V30 7451 C 697.095 1.49343 -1.80925 0
M  V30 7452 C 698.111 1.59458 -0.696348 0
M  V30 7453 O 699.287 1.75698 -0.984481 0
M  V30 7454 C 696.352 2.84819 -1.97684 0
M  V30 7455 C 695.413 2.84382 -3.21598 0
M  V30 7456 C 694.646 4.13397 -3.37548 0
M  V30 7457 O 694.869 5.08619 -2.58192 0
M  V30 7458 O 693.803 4.20325 -4.30826 0
M  V30 7459 H 697.629 1.2855 -2.75152 0
M  V30 7460 H 695.214 0.572229 -1.38007 0
M  V30 7461 H 697.096 3.65125 -2.10385 0
M  V30 7462 H 695.771 3.05627 -1.06647 0
M  V30 7463 H 694.678 2.0284 -3.14336 0
M  V30 7464 H 696.011 2.68526 -4.12498 0
M  V30 7465 N 697.663 1.43903 0.642637 0
M  V30 7466 C 698.626 1.49538 1.73698 0
M  V30 7467 C 699.626 0.378776 1.56275 0
M  V30 7468 O 700.816 0.64095 1.6198 0
M  V30 7469 C 697.948 1.35821 3.12675 0
M  V30 7470 H 699.141 2.47008 1.70079 0
M  V30 7471 H 696.694 1.30824 0.85526 0
M  V30 7472 H 697.429 0.393994 3.21898 0
M  V30 7473 H 697.214 2.16776 3.26727 0
M  V30 7474 H 698.704 1.4272 3.92455 0
M  V30 7475 N 699.141 -0.881989 1.30609 0
M  V30 7476 C 700.088 -1.98803 1.17244 0
M  V30 7477 C 701.058 -1.65987 0.0611905 0
M  V30 7478 O 702.243 -1.89385 0.231911 0
M  V30 7479 C 699.383 -3.33867 0.87333 0
M  V30 7480 C 698.496 -3.79354 2.06675 0
M  V30 7481 C 697.631 -5.03078 1.70547 0
M  V30 7482 C 696.67 -5.40981 2.86366 0
M  V30 7483 N 695.807 -6.55886 2.50514 0
M  V30 7484 H 700.647 -2.09566 2.11863 0
M  V30 7485 H 698.184 -1.02607 1.05405 0
M  V30 7486 H 700.142 -4.11612 0.680519 0
M  V30 7487 H 698.772 -3.2278 -0.0359983 0
M  V30 7488 H 697.824 -2.97492 2.37071 0
M  V30 7489 H 699.136 -4.03382 2.93401 0
M  V30 7490 H 698.29 -5.88457 1.47658 0
M  V30 7491 H 697.029 -4.80927 0.809947 0
M  V30 7492 H 696.034 -4.54127 3.09917 0
M  V30 7493 H 697.259 -5.65104 3.76609 0
M  V30 7494 H 695.205 -6.35306 1.63471 0
M  V30 7495 H 695.122 -6.79799 3.30771 0
M  V30 7496 H 696.39 -7.44489 2.30989 0
M  V30 7497 N 700.619 -1.13374 -1.09472 0
M  V30 7498 C 701.867 -0.893422 -1.8128 0
M  V30 7499 C 702.188 0.582029 -1.86111 0
M  V30 7500 O 701.458 1.42305 -1.34633 0
M  V30 7501 H 700.038 -0.327543 -0.67136 0
M  V30 7502 H 702.7 -1.43018 -1.32408 0
M  V30 7503 H 701.796 -1.28374 -2.84476 0
M  V30 7504 N 702.098 1.27442 -0.927168 0
M  V30 7505 C 703.028 2.29256 -0.443188 0
M  V30 7506 C 704.009 1.62701 0.49624 0
M  V30 7507 O 705.194 1.90013 0.401105 0
M  V30 7508 C 702.324 3.45955 0.305366 0
M  V30 7509 C 701.278 4.24501 -0.546178 0
M  V30 7510 C 700.604 5.33671 0.331512 0
M  V30 7511 C 701.904 4.89921 -1.81037 0
M  V30 7512 H 703.598 2.69988 -1.29409 0
M  V30 7513 H 701.144 1.29792 -0.623705 0
M  V30 7514 H 703.097 4.1628 0.654885 0
M  V30 7515 H 701.821 3.04138 1.19029 0
M  V30 7516 H 700.48 3.55921 -0.878398 0
M  V30 7517 H 700.128 4.88096 1.21537 0
M  V30 7518 H 699.828 5.87131 -0.234746 0
M  V30 7519 H 701.352 6.0684 0.676614 0
M  V30 7520 H 702.766 5.52536 -1.52895 0
M  V30 7521 H 701.163 5.53436 -2.32009 0
M  V30 7522 H 702.233 4.13652 -2.53021 0
M  V30 7523 N 703.576 0.692616 1.41565 0
M  V30 7524 C 704.853 0.150496 1.9502 0
M  V30 7525 C 705.233 -1.33881 1.63215 0
M  V30 7526 O 704.581 -2.08378 0.937598 0
M  V30 7527 C 704.791 0.438636 3.46233 0
M  V30 7528 C 706.139 0.364777 4.2303 0
M  V30 7529 O 707.163 0.373383 3.54238 0
M  V30 7530 O 706.022 0.32234 5.45549 0
M  V30 7531 H 703.116 0.0132454 0.826894 0
M  V30 7532 H 705.662 0.768574 1.51298 0
M  V30 7533 H 704.434 1.46962 3.62654 0
M  V30 7534 H 704.057 -0.210562 3.97042 0
M  V30 7535 N 705.054 -1.51416 0.437162 0
M  V30 7536 C 706.47 -1.59349 0.0894459 0
M  V30 7537 C 706.67 -1.44809 -1.40116 0
M  V30 7538 O 705.726 -1.28924 -2.17106 0
M  V30 7539 C 707.039 -2.9446 0.609398 0
M  V30 7540 C 708.587 -3.07769 0.569824 0
M  V30 7541 C 709.062 -4.45404 1.06675 0
M  V30 7542 N 710.553 -4.51723 1.02473 0
M  V30 7543 C 711.288 -5.56544 1.3801 0
M  V30 7544 N 710.784 -6.68784 1.80831 0
M  V30 7545 N 712.577 -5.46901 1.29828 0
M  V30 7546 H 704.728 -1.59112 1.40703 0
M  V30 7547 H 706.991 -0.750031 0.579791 0
M  V30 7548 H 706.697 -3.1047 1.65231 0
M  V30 7549 H 706.571 -3.77184 0.0342236 0
M  V30 7550 H 708.958 -2.91428 -0.464107 0
M  V30 7551 H 709.039 -2.26885 1.1814 0
M  V30 7552 H 708.683 -4.62492 2.09914 0
M  V30 7553 H 708.613 -5.24827 0.431712 0
M  V30 7554 H 711.104 -3.71165 0.710258 0
M  V30 7555 H 711.417 -7.44787 2.06185 0
M  V30 7556 H 709.762 -6.69992 1.84757 0
M  V30 7557 H 712.953 -4.581 0.962397 0
M  V30 7558 H 713.126 -6.2848 1.57851 0
M  V30 7559 N 706.532 -0.168513 -1.56696 0
M  V30 7560 C 707.781 0.477233 -1.95973 0
M  V30 7561 C 708.094 1.64578 -1.05704 0
M  V30 7562 O 709.3 2.35758 -1.3465 0
M  V30 7563 C 707.756 0.900413 -3.48455 0
M  V30 7564 C 707.364 -0.242382 -4.47344 0
M  V30 7565 C 709.108 1.51474 -3.96555 0
M  V30 7566 C 707.015 0.200272 -5.91061 0
M  V30 7567 H 705.945 0.182061 -0.73169 0
M  V30 7568 H 708.596 -0.256297 -1.81701 0
M  V30 7569 H 706.978 1.68984 -3.58135 0
M  V30 7570 H 708.152 -1.01967 -4.49377 0
M  V30 7571 H 706.467 -0.766484 -4.09285 0
M  V30 7572 H 709.064 1.85792 -5.01384 0
M  V30 7573 H 709.407 2.41163 -3.39332 0
M  V30 7574 H 709.94 0.789802 -3.89881 0
M  V30 7575 H 706.679 -0.661775 -6.52151 0
M  V30 7576 H 706.199 0.942979 -5.92341 0
M  V30 7577 H 707.878 0.645088 -6.43776 0
M  V30 7578 N 708.01 1.57248 0.105221 0
M  V30 7579 C 708.958 2.02337 1.14728 0
M  V30 7580 C 709.952 0.922652 1.42069 0
M  V30 7581 O 711.158 1.10785 1.41869 0
M  V30 7582 H 707.533 0.644682 0.387155 0
M  V30 7583 H 709.504 2.89063 0.740607 0
M  V30 7584 C 708.253 2.45513 2.46209 0
M  V30 7585 H 707.576 3.29785 2.26013 0
M  V30 7586 H 709.016 2.80846 3.1765 0
M  V30 7587 C 707.475 1.3243 3.09781 0
M  V30 7588 O 708.005 0.647841 3.96442 0
M  V30 7589 N 706.211 1.07785 2.69872 0
M  V30 7590 H 705.758 1.62973 1.99493 0
M  V30 7591 H 705.716 0.323204 3.12734 0
M  V30 7592 N 709.488 -0.375779 1.53054 0
M  V30 7593 C 710.398 -1.48381 1.81715 0
M  V30 7594 C 711.414 -1.59087 0.704795 0
M  V30 7595 O 712.59 -1.75174 0.993785 0
M  V30 7596 C 709.655 -2.83767 1.99192 0
M  V30 7597 C 708.716 -2.82673 3.23102 0
M  V30 7598 C 707.949 -4.11601 3.39736 0
M  V30 7599 O 708.172 -5.07243 2.60885 0
M  V30 7600 O 707.106 -4.18034 4.33049 0
M  V30 7601 H 710.932 -1.27089 2.7583 0
M  V30 7602 H 708.517 -0.564902 1.38308 0
M  V30 7603 H 710.399 -3.64004 2.12318 0
M  V30 7604 H 709.074 -3.05057 1.08267 0
M  V30 7605 H 707.981 -2.0117 3.15407 0
M  V30 7606 H 709.314 -2.66335 4.13916 0
M  V30 7607 N 710.966 -1.44241 -0.634997 0
M  V30 7608 C 712.382 -1.28043 -0.952742 0
M  V30 7609 C 712.582 -0.21338 -2.00367 0
M  V30 7610 O 711.638 0.402042 -2.49279 0
M  V30 7611 C 712.951 -2.65076 -1.41968 0
M  V30 7612 C 714.499 -2.72755 -1.53537 0
M  V30 7613 C 714.974 -4.10249 -2.03616 0
M  V30 7614 N 716.465 -4.12406 -2.10892 0
M  V30 7615 C 717.2 -5.15641 -2.50803 0
M  V30 7616 N 716.696 -6.29239 -2.89879 0
M  V30 7617 N 718.489 -5.02995 -2.50903 0
M  V30 7618 H 710.64 -2.12315 0.060098 0
M  V30 7619 H 712.903 -0.947326 -0.0357325 0
M  V30 7620 H 712.609 -3.44213 -0.721804 0
M  V30 7621 H 712.483 -2.91704 -2.39141 0
M  V30 7622 H 714.87 -1.93939 -2.22422 0
M  V30 7623 H 714.951 -2.49872 -0.547496 0
M  V30 7624 H 714.595 -4.8954 -1.35327 0
M  V30 7625 H 714.525 -4.30507 -3.03268 0
M  V30 7626 H 717.016 -3.30417 -1.83393 0
M  V30 7627 H 717.329 -7.03827 -3.19135 0
M  V30 7628 H 715.674 -6.32683 -2.8764 0
M  V30 7629 H 718.865 -4.13306 -2.19763 0
M  V30 7630 H 719.038 -5.83574 -2.81683 0
M  V30 7631 N 712.444 0.87505 -1.31075 0
M  V30 7632 C 713.377 1.98471 -1.12625 0
M  V30 7633 C 714.355 1.6257 -0.0311379 0
M  V30 7634 O 715.539 1.87574 -0.186594 0
M  V30 7635 C 712.666 3.30963 -0.719799 0
M  V30 7636 C 711.712 3.85849 -1.81722 0
M  V30 7637 S 712.545 4.11926 -3.42165 0
M  V30 7638 C 713.701 5.47423 -3.03445 0
M  V30 7639 H 713.934 2.13817 -2.06566 0
M  V30 7640 H 711.467 1.02463 -1.15502 0
M  V30 7641 H 713.425 4.07541 -0.492035 0
M  V30 7642 H 712.086 3.1346 0.200413 0
M  V30 7643 H 711.279 4.81616 -1.48533 0
M  V30 7644 H 710.881 3.16046 -1.99977 0
M  V30 7645 H 713.173 6.28881 -2.52023 0
M  V30 7646 H 714.116 5.85557 -3.98157 0
M  V30 7647 H 714.524 5.10455 -2.41031 0
M  V30 7648 N 713.922 1.13953 1.08869 0
M  V30 7649 C 715.333 0.916649 1.62648 0
M  V30 7650 C 715.684 -0.545589 1.88462 0
M  V30 7651 O 714.809 -1.41351 1.63856 0
M  V30 7652 C 715.404 1.65751 2.95486 0
M  V30 7653 C 713.963 1.48034 3.46068 0
M  V30 7654 C 713.11 1.68305 2.20383 0
M  V30 7655 H 716.061 1.292 0.921572 0
M  V30 7656 H 716.082 1.11794 3.63707 0
M  V30 7657 H 715.594 2.72171 2.76667 0
M  V30 7658 H 713.695 0.439416 3.7 0
M  V30 7659 H 713.808 2.24719 4.23129 0
M  V30 7660 H 712.172 1.10833 2.29321 0
M  V30 7661 H 712.955 2.76057 2.04077 0
M  V30 7662 N 715.4 -1.26948 0.933913 0
M  V30 7663 C 716.811 -1.76058 0.621324 0
M  V30 7664 C 717.162 -1.76175 -0.863522 0
M  V30 7665 O 716.287 -1.36921 -1.67576 0
M  V30 7666 C 716.882 -3.19713 1.12111 0
M  V30 7667 C 715.441 -3.66465 0.859074 0
M  V30 7668 C 714.588 -2.46186 1.27624 0
M  V30 7669 H 717.539 -1.13127 1.11301 0
M  V30 7670 H 717.56 -3.77566 0.471608 0
M  V30 7671 H 717.072 -3.19596 2.20182 0
M  V30 7672 H 715.173 -3.72021 -0.207566 0
M  V30 7673 H 715.286 -4.55636 1.48098 0
M  V30 7674 H 713.65 -2.45042 0.694727 0
M  V30 7675 H 714.433 -2.48774 2.36572 0
M  V30 7676 N 716.879 -0.700114 -1.41195 0
M  V30 7677 C 718.295 -0.372114 -1.55201 0
M  V30 7678 C 718.495 1.12053 -1.6747 0
M  V30 7679 O 717.551 1.90642 -1.65566 0
M  V30 7680 C 718.864 -1.12462 -2.78878 0
M  V30 7681 C 720.412 -1.10941 -2.92679 0
M  V30 7682 C 720.887 -1.84376 -4.19249 0
M  V30 7683 N 722.378 -1.81368 -4.26216 0
M  V30 7684 C 723.113 -2.35024 -5.23021 0
M  V30 7685 N 722.609 -2.9717 -6.25829 0
M  V30 7686 N 724.402 -2.25254 -5.14992 0
M  V30 7687 H 716.553 -1.66816 -1.31477 0
M  V30 7688 H 718.816 -0.704223 -0.634644 0
M  V30 7689 H 718.522 -2.17937 -2.76037 0
M  V30 7690 H 718.396 -0.706152 -3.70531 0
M  V30 7691 H 720.783 -0.062911 -2.95033 0
M  V30 7692 H 720.864 -1.56698 -2.02187 0
M  V30 7693 H 720.508 -2.89008 -4.17656 0
M  V30 7694 H 720.438 -1.3605 -5.08722 0
M  V30 7695 H 722.929 -1.36062 -3.52556 0
M  V30 7696 H 723.242 -3.35668 -6.96094 0
M  V30 7697 H 721.587 -3.01249 -6.26318 0
M  V30 7698 H 724.778 -1.76372 -4.33602 0
M  V30 7699 H 724.951 -2.67373 -5.90268 0
M  V30 7700 N 718.357 1.51182 -0.445186 0
M  V30 7701 C 719.773 1.59299 -0.0978954 0
M  V30 7702 C 719.973 1.4555 1.39346 0
M  V30 7703 O 719.029 1.30073 2.16419 0
M  V30 7704 C 720.342 2.94133 -0.625005 0
M  V30 7705 C 721.89 3.07463 -0.586137 0
M  V30 7706 C 722.365 4.44832 -1.09035 0
M  V30 7707 N 723.856 4.51173 -1.04867 0
M  V30 7708 C 724.591 5.55804 -1.40959 0
M  V30 7709 N 724.087 6.67816 -1.84375 0
M  V30 7710 N 725.88 5.46205 -1.32726 0
M  V30 7711 H 718.031 1.58363 -1.41544 0
M  V30 7712 H 720.294 0.746946 -0.58376 0
M  V30 7713 H 720 3.09589 -1.66876 0
M  V30 7714 H 719.874 3.77161 -0.0542262 0
M  V30 7715 H 722.261 2.9167 0.448646 0
M  V30 7716 H 722.342 2.26255 -1.19341 0
M  V30 7717 H 721.986 4.61372 -2.12364 0
M  V30 7718 H 721.916 5.24591 -0.459539 0
M  V30 7719 H 724.407 3.70783 -0.729932 0
M  V30 7720 H 724.72 7.43683 -2.10131 0
M  V30 7721 H 723.065 6.69003 -1.88308 0
M  V30 7722 H 726.256 4.57583 -0.986678 0
M  V30 7723 H 726.429 6.27634 -1.61182 0
M  V30 7724 N 719.835 0.176821 1.56605 0
M  V30 7725 C 721.112 -0.513365 1.88743 0
M  V30 7726 C 721.492 -1.80929 1.08757 0
M  V30 7727 O 720.84 -2.27765 0.183127 0
M  V30 7728 C 721.05 -0.749925 3.40848 0
M  V30 7729 C 722.398 -1.07747 4.10701 0
M  V30 7730 O 723.422 -0.838277 3.46196 0
M  V30 7731 O 722.281 -1.52901 5.24675 0
M  V30 7732 H 719.375 -0.265296 0.783292 0
M  V30 7733 H 721.921 0.215669 1.68324 0
M  V30 7734 H 720.693 0.16599 3.90948 0
M  V30 7735 H 720.316 -1.53208 3.66897 0
M  V30 7736 N 721.313 -1.57302 -0.09688 0
M  V30 7737 C 722.276 -2.00976 -1.10188 0
M  V30 7738 C 723.276 -0.903009 -1.3305 0
M  V30 7739 O 724.466 -1.16853 -1.29194 0
M  V30 7740 C 721.598 -2.36893 -2.45142 0
M  V30 7741 H 722.791 -2.9098 -0.726003 0
M  V30 7742 H 720.344 -1.52515 -0.341872 0
M  V30 7743 H 721.079 -1.49837 -2.8761 0
M  V30 7744 H 720.864 -3.17632 -2.29897 0
M  V30 7745 H 722.354 -2.71345 -3.1743 0
M  V30 7746 N 722.791 0.367657 -1.53252 0
M  V30 7747 C 723.724 1.47264 -1.74323 0
M  V30 7748 C 724.702 1.51458 -0.591535 0
M  V30 7749 O 725.886 1.69542 -0.823883 0
M  V30 7750 C 723.013 2.85637 -1.82015 0
M  V30 7751 C 722.059 2.99176 -3.03967 0
M  V30 7752 S 722.892 2.68147 -4.63527 0
M  V30 7753 C 724.048 4.08673 -4.74065 0
M  V30 7754 H 724.281 1.29169 -2.67773 0
M  V30 7755 H 721.814 0.561866 -1.43814 0
M  V30 7756 H 723.772 3.65365 -1.87132 0
M  V30 7757 H 722.433 3.01043 -0.896195 0
M  V30 7758 H 721.626 4.00511 -3.05953 0
M  V30 7759 H 721.228 2.27367 -2.96952 0
M  V30 7760 H 723.52 5.02889 -4.53992 0
M  V30 7761 H 724.463 4.11693 -5.7612 0
M  V30 7762 H 724.871 3.95576 -4.02716 0
M  V30 7763 N 724.269 1.44576 0.627338 0
M  V30 7764 C 725.68 1.42266 1.20902 0
M  V30 7765 C 726.031 0.139964 1.957 0
M  V30 7766 O 725.156 -0.759489 2.02634 0
M  V30 7767 C 725.751 2.57727 2.19914 0
M  V30 7768 C 724.31 2.58599 2.73502 0
M  V30 7769 C 723.457 2.34145 1.48564 0
M  V30 7770 H 726.408 1.53102 0.417791 0
M  V30 7771 H 726.429 2.30697 3.02588 0
M  V30 7772 H 725.941 3.51068 1.65447 0
M  V30 7773 H 724.042 1.6921 3.31962 0
M  V30 7774 H 724.155 3.57205 3.19282 0
M  V30 7775 H 722.519 1.83313 1.76829 0
M  V30 7776 H 723.302 3.29606 0.959935 0
M  V30 7777 N 725.747 -0.868086 1.31537 0
M  V30 7778 C 726.972 -1.65926 1.24432 0
M  V30 7779 C 727.397 -1.87169 -0.186936 0
M  V30 7780 O 726.755 -1.4148 -1.13371 0
M  V30 7781 C 726.803 -3.00347 1.9956 0
M  V30 7782 O 725.907 -3.90221 1.33422 0
M  V30 7783 H 725.248 -0.506375 0.429512 0
M  V30 7784 H 727.778 -1.0822 1.73637 0
M  V30 7785 H 727.788 -3.50269 2.09226 0
M  V30 7786 H 726.463 -2.84205 3.03645 0
M  V30 7787 H 725.04 -3.48672 1.32219 0
M  V30 7788 N 727.225 -1.14528 -1.08264 0
M  V30 7789 C 728.502 -0.825185 -1.77342 0
M  V30 7790 C 728.882 0.681037 -1.99813 0
M  V30 7791 O 728.23 1.62234 -1.60912 0
M  V30 7792 C 728.44 -1.62556 -3.08831 0
M  V30 7793 C 729.788 -1.82585 -3.83338 0
M  V30 7794 O 730.812 -1.59254 -3.18617 0
M  V30 7795 O 729.671 -2.21598 -4.99556 0
M  V30 7796 H 726.765 -0.302531 -0.769678 0
M  V30 7797 H 729.311 -1.25056 -1.14713 0
M  V30 7798 H 728.083 -2.64862 -2.88035 0
M  V30 7799 H 727.706 -1.1959 -3.79189 0
M  V30 7800 N 728.703 1.26451 -0.940633 0
M  V30 7801 C 729.666 2.24651 -0.454378 0
M  V30 7802 C 730.666 1.54826 0.434222 0
M  V30 7803 O 731.856 1.72628 0.233477 0
M  V30 7804 C 728.988 3.39148 0.345192 0
M  V30 7805 H 730.181 2.69182 -1.32217 0
M  V30 7806 H 727.734 1.38596 -0.722547 0
M  V30 7807 H 728.469 3.00018 1.23125 0
M  V30 7808 H 728.254 3.9101 -0.292107 0
M  V30 7809 H 729.744 4.12103 0.675341 0
M  V30 7810 N 730.181 0.707592 1.40822 0
M  V30 7811 C 731.129 0.0386643 2.32568 0
M  V30 7812 C 732.123 -0.755653 1.51612 0
M  V30 7813 O 733.329 -0.659921 1.67467 0
M  V30 7814 H 729.704 -0.00629912 0.751974 0
M  V30 7815 H 731.675 0.8293 2.86645 0
M  V30 7816 C 730.424 -0.87496 3.36511 0
M  V30 7817 H 729.747 -0.273157 3.98866 0
M  V30 7818 H 731.187 -1.31111 4.03219 0
M  V30 7819 C 729.646 -1.99672 2.71353 0
M  V30 7820 O 730.176 -3.08676 2.57064 0
M  V30 7821 N 728.382 -1.77799 2.29861 0
M  V30 7822 H 727.929 -0.89147 2.41683 0
M  V30 7823 H 727.887 -2.53036 1.86601 0
M  V30 7824 N 731.66 -1.50943 0.453197 0
M  V30 7825 C 732.59 -2.31005 -0.34044 0
M  V30 7826 C 733.571 -1.37112 -1.00669 0
M  V30 7827 O 734.756 -1.66033 -1.0073 0
M  V30 7828 C 731.886 -3.16358 -1.433 0
M  V30 7829 C 730.84 -4.18658 -0.889363 0
M  V30 7830 C 730.166 -4.92633 -2.07887 0
M  V30 7831 C 731.466 -5.22227 0.0871142 0
M  V30 7832 H 733.16 -2.97601 0.327723 0
M  V30 7833 H 730.706 -1.43119 0.159054 0
M  V30 7834 H 732.659 -3.71155 -1.99555 0
M  V30 7835 H 731.383 -2.47613 -2.12968 0
M  V30 7836 H 730.042 -3.64936 -0.348915 0
M  V30 7837 H 729.69 -4.20376 -2.76211 0
M  V30 7838 H 729.39 -5.61819 -1.72143 0
M  V30 7839 H 730.914 -5.50258 -2.64666 0
M  V30 7840 H 732.328 -5.72001 -0.385656 0
M  V30 7841 H 730.725 -5.99032 0.357926 0
M  V30 7842 H 731.795 -4.74077 1.01879 0
M  V30 7843 N 733.138 -0.185124 -1.56509 0
M  V30 7844 C 734.086 0.756505 -2.19954 0
M  V30 7845 C 735.08 1.22725 -1.16769 0
M  V30 7846 O 736.286 1.1913 -1.34937 0
M  V30 7847 H 732.661 0.262279 -0.704779 0
M  V30 7848 H 734.632 0.197587 -2.97745 0
M  V30 7849 C 733.381 1.96975 -2.86524 0
M  V30 7850 H 732.704 1.61658 -3.65659 0
M  V30 7851 H 734.144 2.60719 -3.34367 0
M  V30 7852 C 732.603 2.80219 -1.87027 0
M  V30 7853 O 733.133 3.77821 -1.36433 0
M  V30 7854 N 731.339 2.4551 -1.55477 0
M  V30 7855 H 730.886 1.66199 -1.96813 0
M  V30 7856 H 730.844 3.01493 -0.891597 0
M  V30 7857 N 734.616 1.57351 0.0885366 0
M  V30 7858 C 735.841 1.91011 0.80805 0
M  V30 7859 C 736.266 0.780009 1.71165 0
M  V30 7860 O 735.624 -0.268083 1.79307 0
M  V30 7861 C 735.672 3.23562 1.59185 0
M  V30 7862 O 734.776 3.11615 2.7013 0
M  V30 7863 H 734.117 0.625943 0.221565 0
M  V30 7864 H 736.647 2.04507 0.0617954 0
M  V30 7865 H 736.657 3.5703 1.97468 0
M  V30 7866 H 735.332 4.05398 0.928741 0
M  V30 7867 H 733.909 2.89673 2.34827 0
M  V30 7868 N 736.094 -0.359525 1.53444 0
M  V30 7869 C 737.343 -1.09886 1.69139 0
M  V30 7870 C 737.656 -1.90285 0.452863 0
M  V30 7871 O 738.862 -2.67033 0.490459 0
M  V30 7872 C 737.318 -2.0028 2.99025 0
M  V30 7873 C 736.926 -1.25164 4.30161 0
M  V30 7874 C 738.67 -2.74168 3.24086 0
M  V30 7875 C 736.577 -2.14494 5.51132 0
M  V30 7876 H 735.507 -0.413936 0.630217 0
M  V30 7877 H 738.158 -0.359434 1.79945 0
M  V30 7878 H 736.54 -2.77978 2.82036 0
M  V30 7879 H 737.714 -0.524867 4.57801 0
M  V30 7880 H 736.029 -0.631116 4.11589 0
M  V30 7881 H 738.626 -3.41243 4.11652 0
M  V30 7882 H 738.969 -3.39868 2.40407 0
M  V30 7883 H 739.502 -2.0355 3.41778 0
M  V30 7884 H 736.241 -1.53362 6.37307 0
M  V30 7885 H 735.761 -2.85004 5.27762 0
M  V30 7886 H 737.44 -2.73914 5.86157 0
M  V30 7887 N 737.572 -1.44907 -0.619662 0
M  V30 7888 C 738.52 -1.52971 -1.75222 0
M  V30 7889 C 739.514 -0.400531 -1.64597 0
M  V30 7890 O 740.72 -0.575952 -1.70537 0
M  V30 7891 H 737.095 -0.480241 -0.578682 0
M  V30 7892 H 739.066 -2.48269 -1.65545 0
M  V30 7893 C 737.815 -1.50204 -3.13583 0
M  V30 7894 H 737.138 -2.36412 -3.22412 0
M  V30 7895 H 738.578 -1.59905 -3.92691 0
M  V30 7896 C 737.037 -0.22455 -3.36151 0
M  V30 7897 O 737.567 0.700574 -3.95544 0
M  V30 7898 N 735.773 -0.124052 -2.90335 0
M  V30 7899 H 735.32 -0.87774 -2.42185 0
M  V30 7900 H 735.278 0.729914 -3.0581 0
M  V30 7901 N 739.05 0.861098 -1.31996 0
M  V30 7902 C 739.997 1.96912 -1.20392 0
M  V30 7903 C 740.967 1.65869 -0.0875899 0
M  V30 7904 O 742.152 1.88992 -0.262011 0
M  V30 7905 C 739.292 3.32435 -0.926335 0
M  V30 7906 C 738.405 3.76018 -2.12684 0
M  V30 7907 C 737.54 5.00301 -1.78529 0
M  V30 7908 C 736.579 5.36357 -2.94937 0
M  V30 7909 N 735.716 6.51818 -2.60917 0
M  V30 7910 H 740.556 2.06169 -2.1517 0
M  V30 7911 H 738.093 1.00917 -1.07024 0
M  V30 7912 H 740.051 4.10478 -0.745917 0
M  V30 7913 H 738.681 3.22796 -0.0153578 0
M  V30 7914 H 737.733 2.93683 -2.41774 0
M  V30 7915 H 739.045 3.98664 -2.99781 0
M  V30 7916 H 738.199 5.86034 -1.57001 0
M  V30 7917 H 736.938 4.79578 -0.886356 0
M  V30 7918 H 735.943 4.49139 -3.17103 0
M  V30 7919 H 737.168 5.59041 -3.85552 0
M  V30 7920 H 735.114 6.32624 -1.73558 0
M  V30 7921 H 735.031 6.7445 -3.41544 0
M  V30 7922 H 736.299 7.4072 -2.42804 0
M  V30 7923 N 740.528 1.15101 1.07655 0
M  V30 7924 C 741.491 0.847625 2.12951 0
M  V30 7925 C 742.491 -0.151227 1.60087 0
M  V30 7926 O 743.681 0.0780399 1.74025 0
M  V30 7927 C 740.813 0.265 3.39868 0
M  V30 7928 H 742.006 1.7809 2.41296 0
M  V30 7929 H 739.559 0.958072 1.23494 0
M  V30 7930 H 740.294 -0.676625 3.17163 0
M  V30 7931 H 740.079 0.984554 3.79538 0
M  V30 7932 H 741.569 0.0702121 4.17541 0
M  V30 7933 N 742.006 -1.2595 0.947325 0
M  V30 7934 C 742.936 -2.28521 0.479604 0
M  V30 7935 C 743.917 -1.63469 -0.470293 0
M  V30 7936 O 745.102 -1.90627 -0.370824 0
M  V30 7937 C 742.232 -3.46397 -0.250289 0
M  V30 7938 C 741.186 -4.23578 0.613643 0
M  V30 7939 C 740.512 -5.34131 -0.246568 0
M  V30 7940 C 741.812 -4.86979 1.88809 0
M  V30 7941 H 743.506 -2.67895 1.33688 0
M  V30 7942 H 741.052 -1.28783 0.644274 0
M  V30 7943 H 743.005 -4.17269 -0.588576 0
M  V30 7944 H 741.729 -3.05993 -1.14175 0
M  V30 7945 H 740.388 -3.54478 0.93491 0
M  V30 7946 H 740.036 -4.89968 -1.13756 0
M  V30 7947 H 739.736 -5.86683 0.328123 0
M  V30 7948 H 741.26 -6.07839 -0.579986 0
M  V30 7949 H 742.674 -5.50034 1.61666 0
M  V30 7950 H 741.071 -5.49675 2.40784 0
M  V30 7951 H 742.141 -4.09575 2.5957 0
M  V30 7952 N 743.484 -0.715051 -1.40445 0
M  V30 7953 C 744.712 -0.263959 -2.05209 0
M  V30 7954 C 745.127 1.09403 -1.53871 0
M  V30 7955 O 744.484 1.68746 -0.695064 0
M  V30 7956 C 744.535 -0.234545 -3.60738 0
M  V30 7957 O 744.256 -1.53891 -4.10182 0
M  V30 7958 C 745.757 0.235164 -4.42676 0
M  V30 7959 H 742.977 -0.11876 -0.660407 0
M  V30 7960 H 745.521 -0.973107 -1.79864 0
M  V30 7961 H 743.676 0.425563 -3.85055 0
M  V30 7962 H 744.09 -1.43903 -5.04373 0
M  V30 7963 H 745.564 0.204598 -5.51621 0
M  V30 7964 H 746.041 1.27724 -4.20218 0
M  V30 7965 H 746.647 -0.394649 -4.23465 0
M  V30 7966 N 744.962 1.50701 -0.461195 0
M  V30 7967 C 746.187 2.07171 0.0974773 0
M  V30 7968 C 746.612 1.32391 1.3362 0
M  V30 7969 O 745.97 0.368676 1.77512 0
M  V30 7970 C 746.018 3.58651 0.374409 0
M  V30 7971 O 745.122 3.85816 1.4567 0
M  V30 7972 H 744.463 0.663944 -0.00862047 0
M  V30 7973 H 746.993 1.94021 -0.649394 0
M  V30 7974 H 747.003 4.03295 0.617843 0
M  V30 7975 H 745.678 4.12498 -0.530829 0
M  V30 7976 H 744.255 3.53018 1.20136 0
M  V30 7977 N 746.441 0.193421 1.56409 0
M  V30 7978 C 747.351 -0.740112 2.2262 0
M  V30 7979 C 748.367 -1.23597 1.22474 0
M  V30 7980 O 749.543 -1.28348 1.55206 0
M  V30 7981 C 746.608 -1.94317 2.87127 0
M  V30 7982 C 745.669 -1.49205 4.02538 0
M  V30 7983 C 744.902 -2.63776 4.63959 0
M  V30 7984 O 745.125 -3.81215 4.24301 0
M  V30 7985 O 744.059 -2.36585 5.53454 0
M  V30 7986 H 747.885 -0.206238 3.02999 0
M  V30 7987 H 745.47 -0.0357938 1.49357 0
M  V30 7988 H 747.352 -2.64633 3.27944 0
M  V30 7989 H 746.027 -2.46568 2.09728 0
M  V30 7990 H 744.934 -0.757738 3.66346 0
M  V30 7991 H 746.267 -1.01622 4.81595 0
M  V30 7992 N 747.919 -1.57396 -0.0801906 0
M  V30 7993 C 749.147 -1.91055 -0.794075 0
M  V30 7994 C 749.562 -0.788583 -1.71542 0
M  V30 7995 O 748.919 0.238587 -1.80934 0
M  V30 7996 C 748.97 -3.24418 -1.59484 0
M  V30 7997 O 748.691 -4.323 -0.710532 0
M  V30 7998 C 750.192 -3.72037 -2.41046 0
M  V30 7999 H 747.412 -0.63171 -0.226238 0
M  V30 8000 H 749.956 -2.04431 -0.0529685 0
M  V30 8001 H 748.111 -3.12595 -2.2883 0
M  V30 8002 H 748.525 -5.08976 -1.26663 0
M  V30 8003 H 749.999 -4.68006 -2.92702 0
M  V30 8004 H 750.476 -3.00624 -3.2019 0
M  V30 8005 H 751.082 -3.86777 -1.76871 0
M  V30 8006 N 749.397 0.351382 -1.53633 0
M  V30 8007 C 750.345 1.45142 -1.8176 0
M  V30 8008 C 751.339 1.54819 -0.687571 0
M  V30 8009 O 752.545 1.57536 -0.870772 0
M  V30 8010 H 748.92 0.483789 -0.575719 0
M  V30 8011 H 750.891 1.1863 -2.73806 0
M  V30 8012 C 749.64 2.81779 -2.03706 0
M  V30 8013 H 748.963 2.75097 -2.90107 0
M  V30 8014 H 750.403 3.5789 -2.27356 0
M  V30 8015 C 748.862 3.26762 -0.820271 0
M  V30 8016 O 749.392 4.01697 -0.0158603 0
M  V30 8017 N 747.598 2.83472 -0.639699 0
M  V30 8018 H 747.145 2.22655 -1.29547 0
M  V30 8019 H 747.103 3.13924 0.172995 0
M  V30 8020 N 750.875 1.45233 0.611969 0
M  V30 8021 C 752.123 1.48727 1.36838 0
M  V30 8022 C 752.444 0.128616 1.94575 0
M  V30 8023 O 751.714 -0.84149 1.76906 0
M  V30 8024 H 750.294 0.547695 0.507976 0
M  V30 8025 H 752.956 1.81156 0.718925 0
M  V30 8026 H 752.052 2.2236 2.19003 0
M  V30 8027 N 752.353 -0.854086 1.3245 0
M  V30 8028 C 753.581 -1.64074 1.26045 0
M  V30 8029 C 753.996 -1.8802 -0.171456 0
M  V30 8030 O 753.353 -1.4496 -1.10873 0
M  V30 8031 C 753.404 -2.9997 2.01743 0
M  V30 8032 O 753.125 -2.77084 3.39346 0
M  V30 8033 C 754.626 -3.94414 2.02368 0
M  V30 8034 H 751.846 -0.511015 0.434862 0
M  V30 8035 H 754.39 -1.06494 1.74583 0
M  V30 8036 H 752.545 -3.54193 1.56926 0
M  V30 8037 H 752.959 -3.63514 3.78098 0
M  V30 8038 H 754.433 -4.87032 2.59815 0
M  V30 8039 H 754.91 -4.27427 1.01009 0
M  V30 8040 H 755.516 -3.46127 2.47135 0
M  V30 8041 N 753.831 -1.1567 -1.07043 0
M  V30 8042 C 755.108 -0.843948 -1.76456 0
M  V30 8043 C 755.488 0.659806 -2.00524 0
M  V30 8044 O 754.836 1.60518 -1.62623 0
M  V30 8045 C 755.046 -1.65822 -3.0709 0
M  V30 8046 C 756.394 -1.8664 -3.8138 0
M  V30 8047 O 757.418 -1.62624 -3.1691 0
M  V30 8048 O 756.277 -2.26884 -4.97178 0
M  V30 8049 H 753.371 -0.310677 -0.766426 0
M  V30 8050 H 755.917 -1.26266 -1.1338 0
M  V30 8051 H 754.689 -2.67902 -2.85209 0
M  V30 8052 H 754.312 -1.23605 -3.77899 0
M  V30 8053 N 755.309 1.25446 -0.953992 0
M  V30 8054 C 756.534 1.97755 -0.625129 0
M  V30 8055 C 756.959 1.70437 0.795787 0
M  V30 8056 O 756.317 0.95992 1.53803 0
M  V30 8057 C 756.365 3.49463 -0.889251 0
M  V30 8058 O 755.469 4.12387 0.0322757 0
M  V30 8059 H 754.81 0.61998 -0.237742 0
M  V30 8060 H 757.34 1.59582 -1.28041 0
M  V30 8061 H 757.35 3.99772 -0.815263 0
M  V30 8062 H 756.025 3.68676 -1.92487 0
M  V30 8063 H 754.602 3.72782 -0.0938625 0
M  V30 8064 N 756.787 0.722489 1.40064 0
M  V30 8065 C 757.735 0.063329 2.32514 0
M  V30 8066 C 758.729 -0.73953 1.52405 0
M  V30 8067 O 759.935 -0.642122 1.68157 0
M  V30 8068 H 756.31 0.00167692 0.751998 0
M  V30 8069 H 758.281 0.859656 2.85749 0
M  V30 8070 C 757.03 -0.839219 3.3742 0
M  V30 8071 H 756.353 -0.230836 3.99133 0
M  V30 8072 H 757.793 -1.26827 4.04587 0
M  V30 8073 C 756.252 -1.96783 2.73456 0
M  V30 8074 O 756.782 -3.05933 2.60323 0
M  V30 8075 N 754.988 -1.75351 2.31734 0
M  V30 8076 H 754.535 -0.865787 2.42615 0
M  V30 8077 H 754.493 -2.51043 1.89275 0
M  V30 8078 N 758.265 -1.50454 0.469181 0
M  V30 8079 C 759.513 -2.01916 -0.0862982 0
M  V30 8080 C 759.834 -1.35337 -1.40388 0
M  V30 8081 O 759.104 -0.498096 -1.89462 0
M  V30 8082 H 757.684 -0.746185 -0.0348825 0
M  V30 8083 H 760.346 -1.84804 0.619167 0
M  V30 8084 H 759.442 -3.11182 -0.239189 0
M  V30 8085 N 759.743 -0.201713 -1.56304 0
M  V30 8086 C 760.968 0.443815 -2.02596 0
M  V30 8087 C 761.393 1.53945 -1.08086 0
M  V30 8088 O 760.751 1.81182 -0.0655056 0
M  V30 8089 C 760.799 0.971066 -3.47279 0
M  V30 8090 O 759.903 2.0836 -3.55893 0
M  V30 8091 H 759.244 0.10294 -0.655972 0
M  V30 8092 H 761.774 -0.314533 -2.02168 0
M  V30 8093 H 761.784 1.28598 -3.87204 0
M  V30 8094 H 760.459 0.169048 -4.15556 0
M  V30 8095 H 759.036 1.77683 -3.27846 0
M  V30 8096 N 761.222 1.57436 0.0718424 0
M  V30 8097 C 762.17 2.04725 1.10411 0
M  V30 8098 C 763.164 0.952579 1.4008 0
M  V30 8099 O 764.37 1.13769 1.39487 0
M  V30 8100 H 760.745 0.652749 0.373393 0
M  V30 8101 H 762.716 2.90569 0.679126 0
M  V30 8102 C 761.465 2.5068 2.40946 0
M  V30 8103 H 760.788 3.34505 2.18967 0
M  V30 8104 H 762.228 2.87521 3.11621 0
M  V30 8105 C 760.687 1.38971 3.06902 0
M  V30 8106 O 761.217 0.731786 3.94978 0
M  V30 8107 N 759.423 1.13485 2.67525 0
M  V30 8108 H 758.97 1.67168 1.95991 0
M  V30 8109 H 758.928 0.389467 3.11978 0
M  V30 8110 N 762.7 -0.34323 1.53817 0
M  V30 8111 C 763.925 -1.1079 1.75329 0
M  V30 8112 C 764.35 -1.81571 0.491293 0
M  V30 8113 O 763.708 -1.72561 -0.556089 0
M  V30 8114 C 763.756 -2.09681 2.9337 0
M  V30 8115 O 762.86 -3.17207 2.63541 0
M  V30 8116 H 762.201 -0.320402 0.581583 0
M  V30 8117 H 764.731 -0.393525 2.0078 0
M  V30 8118 H 764.741 -2.52897 3.20168 0
M  V30 8119 H 763.416 -1.5756 3.84899 0
M  V30 8120 H 761.993 -2.78806 2.47632 0
M  V30 8121 N 764.178 -1.45556 -0.604258 0
M  V30 8122 C 765.403 -1.53509 -1.39462 0
M  V30 8123 C 765.828 -0.169638 -1.87333 0
M  V30 8124 O 765.186 0.846346 -1.60333 0
M  V30 8125 C 765.234 -2.52654 -2.5729 0
M  V30 8126 O 764.338 -2.04666 -3.5803 0
M  V30 8127 H 763.679 -0.517355 -0.416221 0
M  V30 8128 H 766.209 -1.90939 -0.735072 0
M  V30 8129 H 766.219 -2.71568 -3.04491 0
M  V30 8130 H 764.894 -3.51823 -2.21797 0
M  V30 8131 H 763.471 -1.95643 -3.17456 0
M  V30 8132 N 765.656 0.84705 -1.32902 0
M  V30 8133 C 766.604 1.97765 -1.22441 0
M  V30 8134 C 767.598 1.68919 -0.127546 0
M  V30 8135 O 768.804 1.77633 -0.290973 0
M  V30 8136 H 765.179 0.649072 -0.379748 0
M  V30 8137 H 767.15 2.03713 -2.18044 0
M  V30 8138 C 765.899 3.33834 -0.972125 0
M  V30 8139 H 765.222 3.56564 -1.80837 0
M  V30 8140 H 766.662 4.13467 -0.939209 0
M  V30 8141 C 765.121 3.35328 0.325059 0
M  V30 8142 O 765.651 3.78887 1.33445 0
M  V30 8143 N 763.857 2.88488 0.349718 0
M  V30 8144 H 763.404 2.53234 -0.472236 0
M  V30 8145 H 763.362 2.8987 1.21748 0
M  V30 8146 N 767.134 1.16236 1.06428 0
M  V30 8147 C 768.383 0.937523 1.78587 0
M  V30 8148 C 768.696 -0.536 1.88113 0
M  V30 8149 O 769.902 -0.878697 2.56887 0
M  V30 8150 C 768.358 1.62808 3.2097 0
M  V30 8151 C 767.966 3.13927 3.19615 0
M  V30 8152 C 769.71 1.48515 3.97673 0
M  V30 8153 C 767.617 3.75727 4.56709 0
M  V30 8154 H 766.547 0.347125 0.669343 0
M  V30 8155 H 769.198 1.39353 1.19385 0
M  V30 8156 H 767.58 1.09977 3.80422 0
M  V30 8157 H 768.754 3.7359 2.69753 0
M  V30 8158 H 767.069 3.28089 2.56411 0
M  V30 8159 H 769.666 1.92069 4.99013 0
M  V30 8160 H 770.009 0.433913 4.14032 0
M  V30 8161 H 770.542 1.98494 3.44739 0
M  V30 8162 H 767.281 4.80793 4.45554 0
M  V30 8163 H 766.801 3.20849 5.0677 0
M  V30 8164 H 768.48 3.77203 5.25668 0
M  V30 8165 N 768.612 -1.24939 0.960631 0
M  V30 8166 C 769.544 -2.24879 0.442937 0
M  V30 8167 C 770.557 -1.56615 -0.444464 0
M  V30 8168 O 771.746 -1.76715 -0.251776 0
M  V30 8169 C 768.846 -3.36757 -0.380537 0
M  V30 8170 C 768.019 -4.34587 0.495283 0
M  V30 8171 C 767.078 -5.25502 -0.270995 0
M  V30 8172 O 766.104 -5.68227 0.332661 0
M  V30 8173 N 767.306 -5.59077 -1.56249 0
M  V30 8174 H 770.071 -2.69932 1.30218 0
M  V30 8175 H 767.632 -1.38907 0.83166 0
M  V30 8176 H 769.624 -3.94542 -0.90103 0
M  V30 8177 H 768.194 -2.91045 -1.14067 0
M  V30 8178 H 767.414 -3.75593 1.19682 0
M  V30 8179 H 768.702 -4.96925 1.09285 0
M  V30 8180 H 768.1 -5.2628 -2.07476 0
M  V30 8181 H 766.657 -6.19421 -2.02882 0
M  V30 8182 O 770.129 -0.867795 -1.36204 0
M  V30 8183 H 770.82 -0.466586 -1.87996 0
M  V30 END ATOM
M  V30 BEGIN BOND
M  V30 END BOND
M  V30 END CTAB
M  END
$$$$
