drugbank_target|Q9UI32 Glutaminase liver isoform, mitochondrial (DB00142)
 OpenBabel12092119223D

  0  0  0     0  0            999 V3000
M  V30 BEGIN CTAB
M  V30 COUNTS 9248 9343 0 0 0
M  V30 BEGIN ATOM
M  V30 1 H -0.908 1.98254 -0.117106 0
M  V30 2 N 0 1.576 0 0
M  V30 3 C 0.933 2.03868 1.02534 0
M  V30 4 C 1.911 0.928543 1.3348 0
M  V30 5 O 3.095 1.19667 1.45644 0
M  V30 6 C 0.222 2.43627 2.35294 0
M  V30 7 C -0.732 3.65373 2.2001 0
M  V30 8 S 0.101 5.13292 1.52614 0
M  V30 9 C 1.257 5.56322 2.86805 0
M  V30 10 H 1.49 2.90518 0.631377 0
M  V30 11 H -0.977 1.52953 0.210867 0
M  V30 12 H 0.981 2.67203 3.11629 0
M  V30 13 H -0.358 1.57376 2.7183 0
M  V30 14 H -1.165 3.90944 3.18086 0
M  V30 15 H -1.563 3.418 1.51819 0
M  V30 16 H 0.729 5.58782 3.83104 0
M  V30 17 H 1.672 6.56266 2.65933 0
M  V30 18 H 2.08 4.83886 2.90714 0
M  V30 19 N 1.4781 -0.272755 1.55222 0
M  V30 20 C 2.8941 -0.619959 1.47067 0
M  V30 21 C 3.0941 -1.895 0.684978 0
M  V30 22 O 2.1501 -2.51675 0.203931 0
M  V30 23 C 3.4631 -0.746693 2.91282 0
M  V30 24 C 5.0111 -0.840731 3.01497 0
M  V30 25 C 5.4861 -0.99924 4.46967 0
M  V30 26 N 6.9771 -1.06476 4.50796 0
M  V30 27 C 7.7121 -1.20621 5.6057 0
M  V30 28 N 7.2081 -1.31483 6.80209 0
M  V30 29 N 9.0011 -1.23733 5.48312 0
M  V30 30 H 1.1521 0.564606 2.04758 0
M  V30 31 H 3.4151 0.191177 0.928523 0
M  V30 32 H 3.1211 0.119753 3.51496 0
M  V30 33 H 2.9951 -1.6269 3.40311 0
M  V30 34 H 5.3821 -1.69764 2.41379 0
M  V30 35 H 5.4631 0.0640874 2.5572 0
M  V30 36 H 5.1071 -0.146984 5.07687 0
M  V30 37 H 5.0371 -1.91871 4.90401 0
M  V30 38 H 7.5281 -0.993196 3.64615 0
M  V30 39 H 7.8411 -1.42111 7.59621 0
M  V30 40 H 6.1861 -1.28487 6.8302 0
M  V30 41 H 9.3771 -1.14877 4.53785 0
M  V30 42 H 9.5501 -1.34412 6.33906 0
M  V30 43 N 2.9562 -1.48159 -0.537278 0
M  V30 44 C 4.1812 -1.59707 -1.32319 0
M  V30 45 C 4.6062 -0.254859 -1.86365 0
M  V30 46 O 3.9642 0.772378 -1.64024 0
M  V30 47 C 4.0122 -2.6412 -2.45505 0
M  V30 48 O 3.1162 -2.20774 -3.48328 0
M  V30 49 H 2.4572 -0.535791 -0.392204 0
M  V30 50 H 4.9872 -1.94092 -0.647268 0
M  V30 51 H 4.9972 -2.85166 -2.91795 0
M  V30 52 H 3.6722 -3.61567 -2.05528 0
M  V30 53 H 2.2492 -2.09911 -3.08207 0
M  V30 54 N 4.4343 0.785586 -1.36625 0
M  V30 55 C 5.3673 1.90509 -1.25625 0
M  V30 56 C 6.3453 1.62 -0.139607 0
M  V30 57 O 7.5293 1.8591 -0.31141 0
M  V30 58 C 4.6563 3.25419 -0.939158 0
M  V30 59 C 3.7023 3.72856 -2.07077 0
M  V30 60 S 4.5353 3.88162 -3.68904 0
M  V30 61 C 5.6913 5.25942 -3.39317 0
M  V30 62 H 5.9243 1.99549 -2.20381 0
M  V30 63 H 3.4573 0.945226 -1.22085 0
M  V30 64 H 5.4153 4.03346 -0.763029 0
M  V30 65 H 4.0763 3.14099 -0.00931402 0
M  V30 66 H 3.2693 4.70624 -1.80357 0
M  V30 67 H 2.8713 3.01989 -2.20632 0
M  V30 68 H 5.1633 6.10651 -2.93447 0
M  V30 69 H 6.1063 5.57668 -4.36363 0
M  V30 70 H 6.5143 4.93224 -2.74573 0
M  V30 71 N 5.9124 1.20967 1.01018 0
M  V30 72 C 6.8594 0.964281 2.09691 0
M  V30 73 C 7.8294 -0.107853 1.65749 0
M  V30 74 O 9.0144 0.0381987 1.90762 0
M  V30 75 C 6.1544 0.52943 3.41015 0
M  V30 76 C 5.2674 1.67043 3.98398 0
M  V30 77 C 4.4024 1.18525 5.17808 0
M  V30 78 C 3.4414 2.29892 5.67288 0
M  V30 79 N 2.5784 1.82546 6.77954 0
M  V30 80 H 7.4184 1.89463 2.30017 0
M  V30 81 H 4.9554 0.944289 1.1279 0
M  V30 82 H 6.9134 0.258588 4.16398 0
M  V30 83 H 5.5434 -0.363919 3.20742 0
M  V30 84 H 4.5954 2.05603 3.20049 0
M  V30 85 H 5.9074 2.50877 4.31117 0
M  V30 86 H 5.0614 0.870762 6.00419 0
M  V30 87 H 3.8004 0.316887 4.86669 0
M  V30 88 H 2.8054 2.6215 4.83278 0
M  V30 89 H 4.0304 3.17216 6.00459 0
M  V30 90 H 1.9764 0.980454 6.48632 0
M  V30 91 H 1.8934 2.59956 7.09901 0
M  V30 92 H 3.1614 1.54115 7.64113 0
M  V30 93 N 7.3905 -1.2043 1.01659 0
M  V30 94 C 8.3535 -2.21433 0.591616 0
M  V30 95 C 9.3535 -1.57203 -0.338226 0
M  V30 96 O 10.5435 -1.73737 -0.126918 0
M  V30 97 C 7.6755 -3.40628 -0.136058 0
M  V30 98 H 8.8685 -2.60545 1.48514 0
M  V30 99 H 6.4215 -1.33893 0.806379 0
M  V30 100 H 7.1565 -3.07019 -1.04449 0
M  V30 101 H 6.9415 -3.88475 0.531917 0
M  V30 102 H 8.4315 -4.15475 -0.420735 0
M  V30 103 N 8.8686 -0.792821 -1.36206 0
M  V30 104 C 9.7986 -0.207853 -2.32573 0
M  V30 105 C 10.7796 0.659055 -1.56813 0
M  V30 106 O 11.9646 0.592176 -1.84951 0
M  V30 107 C 9.0946 0.655449 -3.41059 0
M  V30 108 C 8.0486 -0.111842 -4.27854 0
M  V30 109 C 7.3746 0.872274 -5.27537 0
M  V30 110 C 8.6746 -1.30299 -5.05786 0
M  V30 111 H 10.3686 -1.01294 -2.81744 0
M  V30 112 H 7.9146 -0.48854 -1.3546 0
M  V30 113 H 9.8676 1.07464 -4.07467 0
M  V30 114 H 8.5916 1.49328 -2.90463 0
M  V30 115 H 7.2506 -0.512053 -3.63006 0
M  V30 116 H 6.8986 1.70523 -4.73214 0
M  V30 117 H 6.5986 0.363291 -5.86476 0
M  V30 118 H 8.1226 1.28996 -5.96818 0
M  V30 119 H 9.5366 -0.959379 -5.65216 0
M  V30 120 H 7.9336 -1.7455 -5.74154 0
M  V30 121 H 9.0036 -2.09663 -4.37229 0
M  V30 122 N 10.3467 1.47872 -0.545128 0
M  V30 123 C 11.2787 2.27869 0.246621 0
M  V30 124 C 12.2917 1.36282 0.890561 0
M  V30 125 O 13.4807 1.61207 0.766449 0
M  V30 126 C 10.5807 3.10159 1.36582 0
M  V30 127 C 9.7537 4.29627 0.820954 0
M  V30 128 C 8.8127 4.93607 1.82314 0
M  V30 129 O 7.8387 5.52366 1.37406 0
M  V30 130 N 9.0407 4.87211 3.15603 0
M  V30 131 H 11.8057 2.96459 -0.439539 0
M  V30 132 H 9.3667 1.57367 -0.380421 0
M  V30 133 H 11.3587 3.49829 2.03474 0
M  V30 134 H 9.9287 2.43891 1.9554 0
M  V30 135 H 9.1487 3.94192 -0.0244032 0
M  V30 136 H 10.4367 5.06928 0.436063 0
M  V30 137 H 9.8347 4.40651 3.54744 0
M  V30 138 H 8.3917 5.30937 3.78087 0
M  V30 139 N 11.8248 0.280983 1.55075 0
M  V30 140 C 12.7718 -0.603937 2.22758 0
M  V30 141 C 13.7418 -1.1452 1.20309 0
M  V30 142 O 14.9268 -1.19343 1.48869 0
M  V30 143 C 12.0668 -1.77947 2.95684 0
M  V30 144 C 11.1798 -1.2715 4.12864 0
M  V30 145 C 10.3148 -2.4093 4.7342 0
M  V30 146 C 9.3538 -1.87165 5.82783 0
M  V30 147 N 8.4908 -2.94441 6.37377 0
M  V30 148 H 13.3308 -0.020124 2.97993 0
M  V30 149 H 10.8678 0.00183425 1.471 0
M  V30 150 H 12.8258 -2.47055 3.36184 0
M  V30 151 H 11.4558 -2.33522 2.22861 0
M  V30 152 H 10.5078 -0.473331 3.77444 0
M  V30 153 H 11.8198 -0.837751 4.91715 0
M  V30 154 H 10.9738 -3.18021 5.1667 0
M  V30 155 H 9.7128 -2.87623 3.93859 0
M  V30 156 H 8.7178 -1.08556 5.38976 0
M  V30 157 H 9.9428 -1.41401 6.64216 0
M  V30 158 H 7.8888 -3.40505 5.60707 0
M  V30 159 H 7.8058 -2.55501 7.11516 0
M  V30 160 H 9.0738 -3.71489 6.85285 0
M  V30 161 N 13.3029 -1.57598 0.00835791 0
M  V30 162 C 14.2659 -2.07884 -0.965242 0
M  V30 163 C 15.2659 -0.989825 -1.26725 0
M  V30 164 O 16.4559 -1.25218 -1.21104 0
M  V30 165 C 13.5879 -2.52731 -2.28779 0
M  V30 166 H 14.7809 -2.95178 -0.530112 0
M  V30 167 H 12.3339 -1.54458 -0.239283 0
M  V30 168 H 13.0689 -1.68705 -2.76964 0
M  V30 169 H 12.8539 -3.32272 -2.08177 0
M  V30 170 H 14.3439 -2.91933 -2.98605 0
M  V30 171 N 14.781 0.264519 -1.55364 0
M  V30 172 C 15.711 1.33121 -1.91836 0
M  V30 173 C 16.692 1.51101 -0.781192 0
M  V30 174 O 17.877 1.64003 -1.04003 0
M  V30 175 C 15.007 2.68921 -2.19769 0
M  V30 176 C 13.961 2.65661 -3.35571 0
M  V30 177 C 13.287 4.05093 -3.49004 0
M  V30 178 C 14.587 2.24187 -4.71739 0
M  V30 179 H 16.281 1.02844 -2.81182 0
M  V30 180 H 13.827 0.493286 -1.35287 0
M  V30 181 H 15.78 3.43663 -2.43872 0
M  V30 182 H 14.504 3.00799 -1.27231 0
M  V30 183 H 13.163 1.93377 -3.1145 0
M  V30 184 H 12.811 4.34206 -2.53917 0
M  V30 185 H 12.511 4.03804 -4.26868 0
M  V30 186 H 14.035 4.81561 -3.75408 0
M  V30 187 H 15.449 2.88654 -4.9533 0
M  V30 188 H 13.846 2.34044 -5.52579 0
M  V30 189 H 14.916 1.19327 -4.69988 0
M  V30 190 N 16.2591 1.48442 0.529413 0
M  V30 191 C 17.4841 1.60406 1.31471 0
M  V30 192 C 17.9091 0.264738 1.86228 0
M  V30 193 O 17.2671 -0.763668 1.64432 0
M  V30 194 C 17.3151 2.65419 2.44101 0
M  V30 195 O 16.4191 2.22618 3.47153 0
M  V30 196 H 15.7601 0.537863 0.389357 0
M  V30 197 H 18.2901 1.94432 0.636965 0
M  V30 198 H 18.3001 2.86709 2.90279 0
M  V30 199 H 16.9751 3.62652 2.03608 0
M  V30 200 H 15.5521 2.11543 3.0709 0
M  V30 201 N 17.7372 -0.778329 1.37039 0
M  V30 202 C 19.1532 -1.07796 1.17695 0
M  V30 203 C 19.3532 -2.01498 0.00860115 0
M  V30 204 O 18.4092 -2.43901 -0.653352 0
M  V30 205 C 19.7222 -1.68178 2.49272 0
M  V30 206 C 21.2702 -1.80467 2.55735 0
M  V30 207 C 21.7452 -2.44263 3.87427 0
M  V30 208 N 23.2362 -2.51721 3.88833 0
M  V30 209 C 23.9712 -3.01919 4.87476 0
M  V30 210 N 23.4672 -3.5234 5.96513 0
M  V30 211 N 25.2602 -3.00733 4.74885 0
M  V30 212 H 17.4112 -0.156032 2.11826 0
M  V30 213 H 19.6742 -0.131844 0.938787 0
M  V30 214 H 19.3802 -1.06796 3.35093 0
M  V30 215 H 19.2542 -2.67554 2.65885 0
M  V30 216 H 21.6412 -2.40984 1.70325 0
M  V30 217 H 21.7222 -0.798656 2.43013 0
M  V30 218 H 21.3662 -1.84388 4.73248 0
M  V30 219 H 21.2962 -3.45458 3.9745 0
M  V30 220 H 23.7872 -2.1603 3.10063 0
M  V30 221 H 24.1002 -3.89027 6.67741 0
M  V30 222 H 22.4452 -3.50462 6.00168 0
M  V30 223 H 25.6362 -2.60638 3.88826 0
M  V30 224 H 25.8092 -3.39545 5.51918 0
M  V30 225 N 19.2153 -1.21501 -1.00376 0
M  V30 226 C 20.1783 -0.976927 -2.07337 0
M  V30 227 C 21.1783 0.0525322 -1.60714 0
M  V30 228 O 22.3683 -0.184869 -1.73216 0
M  V30 229 C 19.5003 -0.473423 -3.37597 0
M  V30 230 H 20.6933 -1.92587 -2.29892 0
M  V30 231 H 18.2463 -1.03217 -1.17371 0
M  V30 232 H 18.9813 0.480379 -3.20722 0
M  V30 233 H 18.7663 -1.216 -3.72768 0
M  V30 234 H 20.2563 -0.32675 -4.1632 0
M  V30 235 N 20.6934 1.19889 -1.02296 0
M  V30 236 C 21.9414 1.89046 -0.714558 0
M  V30 237 C 22.2624 1.79636 0.758681 0
M  V30 238 O 21.5324 1.20292 1.54618 0
M  V30 239 H 20.1124 0.699802 -0.261317 0
M  V30 240 H 22.7744 1.45574 -1.29592 0
M  V30 241 H 21.8704 2.95524 -1.0036 0
M  V30 242 N 22.1715 0.800033 1.35784 0
M  V30 243 C 23.3965 0.388511 2.03729 0
M  V30 244 C 23.8215 -0.990481 1.5991 0
M  V30 245 O 23.1795 -1.64013 0.772612 0
M  V30 246 C 23.2275 0.4726 3.5749 0
M  V30 247 O 22.3315 -0.51646 4.09153 0
M  V30 248 H 21.6725 0.163271 0.643614 0
M  V30 249 H 24.2025 1.0841 1.73518 0
M  V30 250 H 24.2125 0.34003 4.06581 0
M  V30 251 H 22.8875 1.47848 3.88734 0
M  V30 252 H 21.4645 -0.344673 3.71304 0
M  V30 253 N 23.6496 -1.47581 0.552962 0
M  V30 254 C 24.5996 -2.26961 -0.217423 0
M  V30 255 C 25.5836 -1.34099 -0.889168 0
M  V30 256 O 26.7756 -1.58483 -0.788176 0
M  V30 257 C 23.9046 -3.19756 -1.24944 0
M  V30 258 C 22.9906 -4.20097 -0.581327 0
M  V30 259 N 23.3816 -5.04614 0.346171 0
M  V30 260 C 21.6796 -4.38099 -0.835767 0
M  V30 261 C 22.3806 -5.77052 0.733854 0
M  V30 262 N 21.3566 -5.43526 0.0896567 0
M  V30 263 H 25.1586 -2.89688 0.495761 0
M  V30 264 H 22.6726 -1.58068 0.372597 0
M  V30 265 H 24.6696 -3.75305 -1.81527 0
M  V30 266 H 23.3296 -2.58585 -1.96376 0
M  V30 267 H 24.3406 -5.12869 0.720098 0
M  V30 268 H 21.0176 -3.88102 -1.53892 0
M  V30 269 H 22.4076 -6.5504 1.49574 0
M  V30 270 N 25.1277 -0.289203 -1.54924 0
M  V30 271 C 26.3677 0.324536 -2.01807 0
M  V30 272 C 26.7317 1.5199 -1.17316 0
M  V30 273 O 27.9327 2.20422 -1.53843 0
M  V30 274 C 26.2037 0.683578 -3.50802 0
M  V30 275 S 27.7627 1.28185 -4.19659 0
M  V30 276 H 24.5807 0.100236 -0.703899 0
M  V30 277 H 27.1827 -0.414325 -1.91059 0
M  V30 278 H 25.8867 -0.195073 -4.09936 0
M  V30 279 H 25.4177 1.45354 -3.65562 0
M  V30 280 H 27.4327 2.57006 -4.24456 0
M  V30 281 N 26.6058 1.57591 -0.0167156 0
M  V30 282 C 27.8538 1.90906 0.663285 0
M  V30 283 C 28.1748 0.892509 1.73376 0
M  V30 284 O 27.4448 -0.0677623 1.95783 0
M  V30 285 H 26.0248 0.704637 0.247983 0
M  V30 286 H 28.6868 1.94803 -0.0615909 0
M  V30 287 H 27.7828 2.9116 1.12393 0
M  V30 288 N 28.0839 -0.256276 1.55502 0
M  V30 289 C 29.4999 -0.604325 1.47716 0
M  V30 290 C 29.6999 -1.88763 0.705039 0
M  V30 291 O 28.7559 -2.51445 0.230613 0
M  V30 292 C 30.0689 -0.715756 2.92057 0
M  V30 293 C 31.6169 -0.808706 3.02372 0
M  V30 294 C 32.0919 -0.951777 4.48001 0
M  V30 295 N 33.5829 -1.01688 4.519 0
M  V30 296 C 34.3179 -1.14668 5.61817 0
M  V30 297 N 33.8139 -1.24261 6.81565 0
M  V30 298 N 35.6069 -1.1791 5.49594 0
M  V30 299 H 27.7579 0.586291 2.04148 0
M  V30 300 H 30.0209 0.201015 0.926443 0
M  V30 301 H 29.7269 0.157027 3.51349 0
M  V30 302 H 29.6009 -1.59071 3.42018 0
M  V30 303 H 31.9879 -1.67195 2.43166 0
M  V30 304 H 32.0689 0.0912063 2.55637 0
M  V30 305 H 31.7129 -0.0931291 5.07815 0
M  V30 306 H 31.6429 -1.86659 4.92408 0
M  V30 307 H 34.1339 -0.954468 3.65648 0
M  V30 308 H 34.4469 -1.34046 7.61086 0
M  V30 309 H 32.7919 -1.21236 6.84344 0
M  V30 310 H 35.9829 -1.10057 4.54978 0
M  V30 311 H 36.1559 -1.27681 6.35296 0
M  V30 312 N 29.562 -1.4872 -0.521534 0
M  V30 313 C 30.81 -1.56857 -1.27437 0
M  V30 314 C 31.131 -0.247982 -1.93417 0
M  V30 315 O 30.401 0.731151 -1.81744 0
M  V30 316 H 28.981 -0.577885 -0.473347 0
M  V30 317 H 31.643 -1.85233 -0.606205 0
M  V30 318 H 30.739 -2.35402 -2.0492 0
M  V30 319 N 31.0401 0.771051 -1.3745 0
M  V30 320 C 32.2881 1.52661 -1.32435 0
M  V30 321 C 32.6091 1.9479 0.0905024 0
M  V30 322 O 31.8791 1.66348 1.03466 0
M  V30 323 H 30.4591 0.566218 -0.487244 0
M  V30 324 H 33.1211 0.917636 -1.71946 0
M  V30 325 H 32.2171 2.42568 -1.96385 0
M  V30 326 N 32.5182 1.22032 0.997298 0
M  V30 327 C 33.7642 1.05382 1.73972 0
M  V30 328 C 34.1192 -0.407419 1.88037 0
M  V30 329 O 33.4122 -1.29811 1.40924 0
M  V30 330 C 33.6062 1.69345 3.14733 0
M  V30 331 C 33.4352 3.21537 3.14395 0
M  V30 332 C 32.2052 3.9062 3.20537 0
M  V30 333 C 34.4032 4.18527 2.98897 0
M  V30 334 N 32.3852 5.29935 3.09906 0
M  V30 335 C 33.7562 5.44645 2.96247 0
M  V30 336 C 35.8112 4.09476 2.83255 0
M  V30 337 C 34.5142 6.62752 2.79557 0
M  V30 338 C 36.5402 5.27228 2.67926 0
M  V30 339 C 35.9022 6.52262 2.65959 0
M  V30 340 H 32.0012 0.440018 0.646458 0
M  V30 341 H 34.5852 1.54505 1.18475 0
M  V30 342 H 32.7562 1.22778 3.68484 0
M  V30 343 H 34.4882 1.45828 3.77513 0
M  V30 344 H 31.2432 3.41592 3.28043 0
M  V30 345 H 31.6672 6.02926 3.07912 0
M  V30 346 H 36.3092 3.13598 2.83577 0
M  V30 347 H 34.0272 7.58783 2.77982 0
M  V30 348 H 37.6132 5.22053 2.56812 0
M  V30 349 H 36.4932 7.41844 2.54239 0
M  V30 350 N 33.9963 -1.19345 1.0293 0
M  V30 351 C 35.2443 -1.88665 0.724574 0
M  V30 352 C 35.5653 -1.80036 -0.749144 0
M  V30 353 O 34.8353 -1.2111 -1.53978 0
M  V30 354 H 33.4153 -0.698406 0.265025 0
M  V30 355 H 36.0773 -1.44885 1.30362 0
M  V30 356 H 35.1733 -2.94987 1.01926 0
M  V30 357 N 35.4744 -0.807222 -1.35358 0
M  V30 358 C 36.4244 -0.190706 -2.27201 0
M  V30 359 C 37.4084 0.635838 -1.47804 0
M  V30 360 O 38.6004 0.492991 -1.69996 0
M  V30 361 C 35.7294 0.659337 -3.36909 0
M  V30 362 C 34.8154 -0.176971 -4.23731 0
M  V30 363 N 35.2064 -1.24029 -4.90357 0
M  V30 364 C 33.5044 0.0412953 -4.45981 0
M  V30 365 C 34.2054 -1.75092 -5.54723 0
M  V30 366 N 33.1814 -1.05727 -5.33219 0
M  V30 367 H 36.9834 -1.0043 -2.76208 0
M  V30 368 H 34.4974 -0.648445 -1.48892 0
M  V30 369 H 36.4944 1.11706 -4.01656 0
M  V30 370 H 35.1544 1.47127 -2.89454 0
M  V30 371 H 36.1654 -1.62295 -4.91814 0
M  V30 372 H 32.8424 0.82232 -4.09322 0
M  V30 373 H 34.2324 -2.63963 -6.17878 0
M  V30 374 N 36.9525 1.47285 -0.560781 0
M  V30 375 C 38.3635 1.86258 -0.128343 0
M  V30 376 C 38.7145 1.46699 1.30284 0
M  V30 377 O 37.8395 0.871698 1.98067 0
M  V30 378 C 38.4345 3.38044 -0.22614 0
M  V30 379 C 36.9935 3.76096 0.151283 0
M  V30 380 C 36.1405 2.71335 -0.572084 0
M  V30 381 H 39.0915 1.38752 -0.770297 0
M  V30 382 H 39.1125 3.76441 0.554322 0
M  V30 383 H 38.6245 3.66806 -1.26788 0
M  V30 384 H 36.7255 3.52951 1.19399 0
M  V30 385 H 36.8385 4.78641 -0.209765 0
M  V30 386 H 35.2025 2.54696 -0.0147653 0
M  V30 387 H 35.9855 3.02938 -1.61504 0
M  V30 388 N 38.4306 0.297415 1.54768 0
M  V30 389 C 39.6556 -0.318435 2.04941 0
M  V30 390 C 40.0806 -1.4701 1.17345 0
M  V30 391 O 39.4386 -1.80436 0.176758 0
M  V30 392 C 39.4866 -0.755749 3.52592 0
M  V30 393 O 38.5906 -1.86088 3.68028 0
M  V30 394 H 37.9316 -0.062421 0.661059 0
M  V30 395 H 40.4616 0.438215 1.99852 0
M  V30 396 H 40.4716 -1.04552 3.94376 0
M  V30 397 H 39.1466 0.0867233 4.1581 0
M  V30 398 H 37.7236 -1.57193 3.38149 0
M  V30 399 N 39.9087 -1.5758 0.0250728 0
M  V30 400 C 41.3247 -1.56124 -0.331282 0
M  V30 401 C 41.5247 -1.03029 -1.73169 0
M  V30 402 O 40.5807 -0.675215 -2.43305 0
M  V30 403 C 41.8937 -3.00139 -0.183584 0
M  V30 404 C 43.4417 -3.11946 -0.256654 0
M  V30 405 C 43.9167 -4.57793 -0.137792 0
M  V30 406 N 45.4077 -4.6279 -0.194904 0
M  V30 407 C 46.1427 -5.7326 -0.126655 0
M  V30 408 N 45.6387 -6.928 -0.00755288 0
M  V30 409 N 47.4317 -5.61811 -0.180348 0
M  V30 410 H 39.5827 -1.90424 0.94087 0
M  V30 411 H 41.8457 -0.875761 0.362968 0
M  V30 412 H 41.5517 -3.4292 0.780927 0
M  V30 413 H 41.4257 -3.64899 -0.955448 0
M  V30 414 H 43.8127 -2.69079 -1.21162 0
M  V30 415 H 43.8937 -2.49915 0.545517 0
M  V30 416 H 43.5377 -5.01339 0.813739 0
M  V30 417 H 43.4677 -5.17798 -0.958775 0
M  V30 418 H 45.9587 -3.76807 -0.287267 0
M  V30 419 H 46.2717 -7.72791 0.0379428 0
M  V30 420 H 44.6167 -6.94995 0.0271731 0
M  V30 421 H 47.8077 -4.6731 -0.271767 0
M  V30 422 H 47.9807 -6.47882 -0.123697 0
M  V30 423 N 41.3868 0.248026 -1.55636 0
M  V30 424 C 42.6118 0.998028 -1.81808 0
M  V30 425 C 43.0368 1.78207 -0.601979 0
M  V30 426 O 42.3948 1.75653 0.448961 0
M  V30 427 C 42.4428 1.9125 -3.05705 0
M  V30 428 O 41.5468 3.00406 -2.82542 0
M  V30 429 H 40.8878 0.284045 -0.600179 0
M  V30 430 H 43.4178 0.269357 -2.02819 0
M  V30 431 H 43.4278 2.32737 -3.35108 0
M  V30 432 H 42.1028 1.33602 -3.93857 0
M  V30 433 H 40.6798 2.63056 -2.64303 0
M  V30 434 N 42.8649 1.48995 0.513639 0
M  V30 435 C 44.2759 1.5119 1.09537 0
M  V30 436 C 44.6269 0.290906 1.94031 0
M  V30 437 O 43.7519 -0.60049 2.07902 0
M  V30 438 C 44.3469 2.73964 1.99322 0
M  V30 439 C 42.9059 2.78978 2.52682 0
M  V30 440 C 42.0529 2.44934 1.30009 0
M  V30 441 H 45.0039 1.55875 0.298125 0
M  V30 442 H 45.0249 2.53409 2.83838 0
M  V30 443 H 44.5369 3.62813 1.37799 0
M  V30 444 H 42.6379 1.94378 3.1788 0
M  V30 445 H 42.7509 3.8083 2.90698 0
M  V30 446 H 41.1149 1.9644 1.62122 0
M  V30 447 H 41.8979 3.36043 0.702131 0
M  V30 448 N 44.343 -0.763751 1.37857 0
M  V30 449 C 45.273 -1.89103 1.36975 0
M  V30 450 C 46.254 -1.68439 0.237152 0
M  V30 451 O 47.439 -1.8918 0.438713 0
M  V30 452 C 44.569 -3.26496 1.18395 0
M  V30 453 C 43.523 -3.61741 2.28751 0
M  V30 454 C 42.849 -4.97762 1.95286 0
M  V30 455 C 44.149 -3.67665 3.70972 0
M  V30 456 H 45.843 -1.90099 2.31307 0
M  V30 457 H 43.389 -0.91319 1.11341 0
M  V30 458 H 45.342 -4.05003 1.16406 0
M  V30 459 H 44.066 -3.25955 0.205215 0
M  V30 460 H 42.725 -2.85547 2.29909 0
M  V30 461 H 42.373 -4.93769 0.959221 0
M  V30 462 H 42.073 -5.22313 2.69189 0
M  V30 463 H 43.597 -5.7866 1.94898 0
M  V30 464 H 45.011 -4.36307 3.719 0
M  V30 465 H 43.408 -4.03718 4.43995 0
M  V30 466 H 44.478 -2.68134 4.0402 0
M  V30 467 N 45.8211 -1.22559 -0.990812 0
M  V30 468 C 46.7511 -1.0218 -2.09956 0
M  V30 469 C 47.7321 0.0579394 -1.70001 0
M  V30 470 O 48.9171 -0.104684 -1.93918 0
M  V30 471 C 46.0471 -0.601023 -3.4206 0
M  V30 472 C 45.0011 -1.62694 -3.95872 0
M  V30 473 C 44.3271 -1.06193 -5.24049 0
M  V30 474 C 45.6271 -3.01743 -4.2632 0
M  V30 475 H 47.3211 -1.94916 -2.27262 0
M  V30 476 H 44.8671 -0.938566 -1.09211 0
M  V30 477 H 46.8201 -0.445561 -4.19038 0
M  V30 478 H 45.5441 0.362005 -3.24588 0
M  V30 479 H 44.2031 -1.77021 -3.21028 0
M  V30 480 H 43.8511 -0.0901903 -5.02919 0
M  V30 481 H 43.5511 -1.74732 -5.61019 0
M  V30 482 H 45.0751 -0.918092 -6.03658 0
M  V30 483 H 46.4891 -2.90777 -4.94087 0
M  V30 484 H 44.8861 -3.67425 -4.74467 0
M  V30 485 H 45.9561 -3.51518 -3.34011 0
M  V30 486 N 47.2992 1.18797 -1.03562 0
M  V30 487 C 48.5472 1.88278 -0.734569 0
M  V30 488 C 48.8682 1.8043 0.739586 0
M  V30 489 O 48.1382 1.21925 1.53333 0
M  V30 490 H 46.7182 0.696991 -0.268725 0
M  V30 491 H 49.3802 1.44192 -1.31129 0
M  V30 492 H 48.4762 2.94443 -1.03489 0
M  V30 493 N 48.7773 0.814389 1.34928 0
M  V30 494 C 50.0253 0.397636 1.9815 0
M  V30 495 C 50.3463 -1.04069 1.64908 0
M  V30 496 O 49.6163 -1.72121 0.93548 0
M  V30 497 H 48.1963 0.144043 0.732981 0
M  V30 498 H 50.8583 1.04195 1.6471 0
M  V30 499 H 49.9543 0.509688 3.0791 0
M  V30 500 N 50.2554 -1.46986 0.568584 0
M  V30 501 C 51.5034 -2.02041 0.0487022 0
M  V30 502 C 51.8244 -1.44408 -1.31039 0
M  V30 503 O 51.0944 -0.623477 -1.85714 0
M  V30 504 H 49.6744 -0.746849 0.015014 0
M  V30 505 H 52.3364 -1.80257 0.741168 0
M  V30 506 H 51.4324 -3.12085 -0.0308961 0
M  V30 507 N 51.7335 -0.305618 -1.54608 0
M  V30 508 C 52.9795 0.302746 -2.00528 0
M  V30 509 C 53.3125 1.53184 -1.19367 0
M  V30 510 O 52.5875 1.92598 -0.271321 0
M  V30 511 C 52.8705 0.654756 -3.54097 0
M  V30 512 C 52.7235 -0.583793 -4.45995 0
M  V30 513 C 54.0425 1.47947 -4.14487 0
M  V30 514 H 51.1615 0.108564 -0.72896 0
M  V30 515 H 53.8035 -0.418634 -1.85331 0
M  V30 516 H 51.9535 1.26935 -3.67178 0
M  V30 517 H 53.6255 -1.22224 -4.44814 0
M  V30 518 H 51.8685 -1.21615 -4.16404 0
M  V30 519 H 52.5395 -0.293287 -5.5122 0
M  V30 520 H 55.0155 0.96013 -4.04871 0
M  V30 521 H 53.8915 1.69454 -5.22088 0
M  V30 522 H 54.1525 2.47011 -3.66658 0
M  V30 523 N 53.2116 1.57565 -0.0334293 0
M  V30 524 C 54.6276 1.56297 0.322997 0
M  V30 525 C 54.8276 1.03945 1.7262 0
M  V30 526 O 53.8836 0.688109 2.42943 0
M  V30 527 C 55.1966 3.00232 0.167664 0
M  V30 528 C 56.7446 3.12078 0.240107 0
M  V30 529 C 57.2196 4.57859 0.113513 0
M  V30 530 N 58.7106 4.62887 0.170359 0
M  V30 531 C 59.4456 5.73319 0.0962517 0
M  V30 532 N 58.9416 6.92794 -0.0291881 0
M  V30 533 N 60.7346 5.61898 0.150551 0
M  V30 534 H 52.8856 1.89923 -0.950956 0
M  V30 535 H 55.1486 0.873824 -0.367608 0
M  V30 536 H 54.8546 3.42501 -0.799102 0
M  V30 537 H 54.7286 3.654 0.936083 0
M  V30 538 H 57.1156 2.69718 1.19733 0
M  V30 539 H 57.1966 2.49623 -0.558763 0
M  V30 540 H 56.8406 5.009 -0.840314 0
M  V30 541 H 56.7706 5.18299 0.931302 0
M  V30 542 H 59.2616 3.76954 0.26728 0
M  V30 543 H 59.5746 7.7276 -0.0789252 0
M  V30 544 H 57.9196 6.94971 -0.0640299 0
M  V30 545 H 61.1106 4.67448 0.246981 0
M  V30 546 H 61.2836 6.47938 0.0893365 0
M  V30 547 N 54.6897 -0.239769 1.55765 0
M  V30 548 C 55.6397 -1.30002 1.87306 0
M  V30 549 C 56.6237 -1.43156 0.73452 0
M  V30 550 O 57.8157 -1.46277 0.99659 0
M  V30 551 C 54.9447 -2.65409 2.17745 0
M  V30 552 C 54.0307 -2.56231 3.37945 0
M  V30 553 N 54.4217 -2.16689 4.57033 0
M  V30 554 C 52.7197 -2.87229 3.41197 0
M  V30 555 C 53.4207 -2.18318 5.39177 0
M  V30 556 N 52.3967 -2.58098 4.78421 0
M  V30 557 H 56.1987 -0.984912 2.76906 0
M  V30 558 H 53.7127 -0.448381 1.56087 0
M  V30 559 H 55.7097 -3.41934 2.38509 0
M  V30 560 H 54.3697 -2.97781 1.29448 0
M  V30 561 H 55.3807 -1.88116 4.82528 0
M  V30 562 H 52.0577 -3.24094 2.63191 0
M  V30 563 H 53.4477 -1.90025 6.44469 0
M  V30 564 N 56.1678 -1.49265 -0.50573 0
M  V30 565 C 57.1178 -1.6198 -1.60457 0
M  V30 566 C 58.1018 -0.47568 -1.53708 0
M  V30 567 O 59.2938 -0.728392 -1.61318 0
M  V30 568 C 56.4228 -1.68526 -2.99089 0
M  V30 569 C 55.5088 -2.885 -3.10852 0
M  V30 570 N 55.8998 -4.12635 -2.92517 0
M  V30 571 C 54.1978 -2.86338 -3.41945 0
M  V30 572 C 54.8988 -4.93258 -3.08337 0
M  V30 573 N 53.8748 -4.26533 -3.37003 0
M  V30 574 H 57.6768 -2.55681 -1.44928 0
M  V30 575 H 55.1908 -1.45972 -0.711752 0
M  V30 576 H 57.1878 -1.75732 -3.78053 0
M  V30 577 H 55.8478 -0.759584 -3.1569 0
M  V30 578 H 56.8588 -4.42689 -2.68787 0
M  V30 579 H 53.5358 -2.03129 -3.64753 0
M  V30 580 H 54.9258 -6.01856 -2.98695 0
M  V30 581 N 57.6459 0.756429 -1.3826 0
M  V30 582 C 58.5759 1.88374 -1.37976 0
M  V30 583 C 59.5569 1.68311 -0.246082 0
M  V30 584 O 60.7419 1.88944 -0.44874 0
M  V30 585 C 57.8719 3.25864 -1.20125 0
M  V30 586 C 56.8259 3.60523 -2.30666 0
M  V30 587 C 56.1519 4.9672 -1.97923 0
M  V30 588 C 57.4519 3.65692 -3.72916 0
M  V30 589 H 59.1459 1.88869 -2.32312 0
M  V30 590 H 56.6919 0.907272 -1.11824 0
M  V30 591 H 58.6449 4.0438 -1.18552 0
M  V30 592 H 57.3689 3.25841 -0.222498 0
M  V30 593 H 56.0279 2.84324 -2.3142 0
M  V30 594 H 55.6759 4.93253 -0.985393 0
M  V30 595 H 55.3759 5.20878 -2.71955 0
M  V30 596 H 56.8999 5.77618 -1.97964 0
M  V30 597 H 58.3139 4.34328 -3.74208 0
M  V30 598 H 56.7109 4.01358 -4.4613 0
M  V30 599 H 57.7809 2.65987 -4.05436 0
M  V30 600 N 59.124 1.23083 0.984299 0
M  V30 601 C 60.349 1.088 1.76571 0
M  V30 602 C 60.774 -0.356657 1.84688 0
M  V30 603 O 60.132 -1.25788 1.30565 0
M  V30 604 C 60.18 1.71371 3.17277 0
M  V30 605 O 59.284 0.973213 4.00752 0
M  V30 606 H 58.625 0.381599 0.543395 0
M  V30 607 H 61.155 1.63057 1.23587 0
M  V30 608 H 61.165 1.76449 3.67872 0
M  V30 609 H 59.84 2.76493 3.10684 0
M  V30 610 H 58.417 0.999078 3.59267 0
M  V30 611 N 60.6021 -1.18246 1.0419 0
M  V30 612 C 61.5121 -2.25574 0.644476 0
M  V30 613 C 62.5281 -1.70845 -0.329826 0
M  V30 614 O 63.7041 -2.00554 -0.184443 0
M  V30 615 C 60.7691 -3.46697 0.014877 0
M  V30 616 C 59.8301 -4.16554 1.03834 0
M  V30 617 C 59.0631 -5.31894 0.438692 0
M  V30 618 O 59.2861 -5.65385 -0.754752 0
M  V30 619 O 58.2201 -5.90459 1.168 0
M  V30 620 H 62.0461 -2.61836 1.53869 0
M  V30 621 H 59.6311 -1.25352 0.812854 0
M  V30 622 H 61.5131 -4.20062 -0.335538 0
M  V30 623 H 60.1881 -3.12255 -0.853138 0
M  V30 624 H 59.0951 -3.45251 1.44057 0
M  V30 625 H 60.4281 -4.54998 1.87716 0
M  V30 626 N 62.0802 -0.821533 -1.34494 0
M  V30 627 C 63.0432 -0.247847 -2.27856 0
M  V30 628 C 64.0432 0.573453 -1.50227 0
M  V30 629 O 65.2332 0.389759 -1.69784 0
M  V30 630 C 62.3652 0.652698 -3.34593 0
M  V30 631 H 63.5582 -1.07146 -2.80107 0
M  V30 632 H 61.1112 -0.593291 -1.44602 0
M  V30 633 H 61.8462 1.49943 -2.87555 0
M  V30 634 H 61.6312 0.065292 -3.92046 0
M  V30 635 H 63.1212 1.04793 -4.04238 0
M  V30 636 N 63.5583 1.46682 -0.576371 0
M  V30 637 C 64.5213 2.28707 0.150239 0
M  V30 638 C 65.5213 1.38035 0.824794 0
M  V30 639 O 66.7113 1.60476 0.677719 0
M  V30 640 C 63.8433 3.18248 1.22192 0
M  V30 641 H 65.0363 2.94423 -0.570521 0
M  V30 642 H 62.5893 1.52688 -0.334078 0
M  V30 643 H 63.3243 2.57265 1.97447 0
M  V30 644 H 63.1093 3.85 0.742812 0
M  V30 645 H 64.5993 3.80001 1.73172 0
M  V30 646 N 65.0364 0.313813 1.54444 0
M  V30 647 C 65.9994 -0.54379 2.22656 0
M  V30 648 C 66.9994 -1.05124 1.21678 0
M  V30 649 O 68.1894 -0.945225 1.46325 0
M  V30 650 C 65.3214 -1.75427 2.92298 0
M  V30 651 H 66.5144 0.0523599 2.99854 0
M  V30 652 H 64.0674 0.0647834 1.56166 0
M  V30 653 H 64.8024 -2.38991 2.19211 0
M  V30 654 H 64.5874 -1.39791 3.66334 0
M  V30 655 H 66.0774 -2.36325 3.44297 0
M  V30 656 N 66.5145 -1.57545 0.0417849 0
M  V30 657 C 67.4465 -2.07904 -0.964799 0
M  V30 658 C 68.4595 -1.00497 -1.28079 0
M  V30 659 O 69.6485 -1.28087 -1.24322 0
M  V30 660 C 66.7485 -2.49928 -2.28887 0
M  V30 661 C 65.9215 -3.80562 -2.15619 0
M  V30 662 C 64.9805 -4.08999 -3.31069 0
M  V30 663 O 64.0065 -4.79061 -3.0739 0
M  V30 664 N 65.2085 -3.6017 -4.55256 0
M  V30 665 H 67.9735 -2.94886 -0.535029 0
M  V30 666 H 65.5345 -1.61252 -0.144681 0
M  V30 667 H 67.5265 -2.66034 -3.04972 0
M  V30 668 H 66.0965 -1.68245 -2.63463 0
M  V30 669 H 65.3165 -3.74129 -1.24183 0
M  V30 670 H 66.6045 -4.66126 -2.03971 0
M  V30 671 H 66.0025 -3.03512 -4.77386 0
M  V30 672 H 64.5595 -3.81532 -5.28466 0
M  V30 673 N 67.9926 0.231505 -1.5589 0
M  V30 674 C 69.2406 0.955461 -1.78088 0
M  V30 675 C 69.5616 1.85262 -0.608533 0
M  V30 676 O 68.8316 1.92277 0.375035 0
M  V30 677 H 67.4116 0.355787 -0.656829 0
M  V30 678 H 70.0736 0.245751 -1.93344 0
M  V30 679 H 69.1696 1.56814 -2.69844 0
M  V30 680 N 69.4707 1.49531 0.497807 0
M  V30 681 C 70.8867 1.36365 0.829266 0
M  V30 682 C 71.0867 0.399184 1.97506 0
M  V30 683 O 70.1427 -0.167977 2.51941 0
M  V30 684 C 71.4557 2.77153 1.16647 0
M  V30 685 C 73.0037 2.85877 1.27449 0
M  V30 686 C 73.4787 4.2744 1.64497 0
M  V30 687 N 74.9697 4.30265 1.7154 0
M  V30 688 C 75.7047 5.3677 2.01656 0
M  V30 689 N 75.2007 6.53516 2.29976 0
M  V30 690 N 76.9937 5.24189 2.02934 0
M  V30 691 H 69.1447 2.10831 -0.257703 0
M  V30 692 H 71.4077 0.946534 -0.0527091 0
M  V30 693 H 71.1137 3.49442 0.397872 0
M  V30 694 H 70.9877 3.12722 2.10915 0
M  V30 695 H 73.3747 2.13824 2.0338 0
M  V30 696 H 73.4557 2.53887 0.312244 0
M  V30 697 H 73.0997 5.00021 0.891151 0
M  V30 698 H 73.0297 4.56896 2.61827 0
M  V30 699 H 75.5207 3.4607 1.51802 0
M  V30 700 H 75.8337 7.30506 2.52153 0
M  V30 701 H 74.1787 6.56737 2.27425 0
M  V30 702 H 77.3697 4.31988 1.80289 0
M  V30 703 H 77.5427 6.07286 2.26071 0
M  V30 704 N 70.9488 -0.749086 1.3866 0
M  V30 705 C 71.8588 -1.89358 1.38494 0
M  V30 706 C 72.8748 -1.71708 0.281476 0
M  V30 707 O 74.0508 -1.94554 0.520643 0
M  V30 708 C 71.1158 -3.24782 1.21316 0
M  V30 709 C 70.1768 -3.54926 2.41508 0
M  V30 710 C 69.4098 -4.83888 2.2514 0
M  V30 711 O 69.6328 -5.56592 1.24746 0
M  V30 712 O 68.5668 -5.13612 3.13826 0
M  V30 713 H 72.3928 -1.92452 2.34938 0
M  V30 714 H 69.9778 -0.894981 1.19626 0
M  V30 715 H 71.8598 -4.05739 1.13814 0
M  V30 716 H 70.5348 -3.2249 0.279592 0
M  V30 717 H 69.4418 -2.74112 2.54585 0
M  V30 718 H 70.7748 -3.61983 3.3351 0
M  V30 719 N 72.4269 -1.23603 -0.977757 0
M  V30 720 C 73.6549 -1.09646 -1.75458 0
M  V30 721 C 74.0699 0.351859 -1.85492 0
M  V30 722 O 73.4269 1.24327 -1.336 0
M  V30 723 C 73.4779 -1.71895 -3.18016 0
M  V30 724 O 73.1989 -3.11063 -3.08498 0
M  V30 725 C 74.6999 -1.63415 -4.12081 0
M  V30 726 H 71.9199 -0.38359 -0.550545 0
M  V30 727 H 74.4639 -1.63507 -1.22824 0
M  V30 728 H 72.6189 -1.22061 -3.67668 0
M  V30 729 H 73.0329 -3.41305 -3.9826 0
M  V30 730 H 74.5069 -2.11669 -5.09804 0
M  V30 731 H 74.9839 -0.593462 -4.35172 0
M  V30 732 H 75.5899 -2.12628 -3.68334 0
M  V30 733 N 73.905 1.17692 -1.04816 0
M  V30 734 C 75.316 1.69501 -0.782698 0
M  V30 735 C 75.667 1.83456 0.695577 0
M  V30 736 O 74.792 1.51942 1.54086 0
M  V30 737 C 75.387 3.07874 -1.41419 0
M  V30 738 C 73.946 3.56864 -1.19686 0
M  V30 739 C 73.093 2.3322 -1.50012 0
M  V30 740 H 76.044 1.02262 -1.2136 0
M  V30 741 H 76.065 3.71528 -0.821428 0
M  V30 742 H 75.577 2.97685 -2.49009 0
M  V30 743 H 73.678 3.72337 -0.140043 0
M  V30 744 H 73.791 4.39851 -1.89916 0
M  V30 745 H 72.155 2.37501 -0.920071 0
M  V30 746 H 72.938 2.25644 -2.58727 0
M  V30 747 N 75.3831 0.828654 1.34056 0
M  V30 748 C 76.3331 0.226828 2.26869 0
M  V30 749 C 77.3171 -0.612243 1.48796 0
M  V30 750 O 78.5091 -0.465884 1.70759 0
M  V30 751 C 75.6381 -0.605654 3.37915 0
M  V30 752 C 74.7241 0.244361 4.23395 0
M  V30 753 N 75.1151 1.31815 4.88322 0
M  V30 754 C 73.4131 0.0296616 4.4599 0
M  V30 755 C 74.1141 1.83895 5.51867 0
M  V30 756 N 73.0901 1.14196 5.3147 0
M  V30 757 H 76.8921 1.04811 2.74576 0
M  V30 758 H 74.4061 0.67205 1.47842 0
M  V30 759 H 76.4031 -1.05302 4.03382 0
M  V30 760 H 75.0631 -1.42504 2.91758 0
M  V30 761 H 76.0741 1.70099 4.8917 0
M  V30 762 H 72.7511 -0.757097 4.10578 0
M  V30 763 H 74.1411 2.7376 6.136 0
M  V30 764 N 76.8612 -1.46375 0.584142 0
M  V30 765 C 78.0862 -2.07268 0.0740405 0
M  V30 766 C 78.5112 -1.42979 -1.22223 0
M  V30 767 O 77.8692 -0.514092 -1.73859 0
M  V30 768 C 77.9172 -3.60518 -0.0767769 0
M  V30 769 O 77.0212 -3.96533 -1.13292 0
M  V30 770 H 76.3622 -0.660961 0.0634524 0
M  V30 771 H 78.8922 -1.87991 0.807492 0
M  V30 772 H 78.9022 -4.07021 -0.282489 0
M  V30 773 H 77.5772 -4.06702 0.86986 0
M  V30 774 H 76.1542 -3.61738 -0.905553 0
M  V30 775 N 78.3393 -0.321999 -1.54275 0
M  V30 776 C 79.2893 0.560185 -2.21011 0
M  V30 777 C 80.2733 1.08283 -1.19011 0
M  V30 778 O 81.4653 1.02011 -1.44647 0
M  V30 779 C 78.5943 1.72137 -2.97025 0
M  V30 780 C 77.6803 1.21369 -4.06363 0
M  V30 781 N 78.0713 0.425566 -5.04007 0
M  V30 782 C 76.3693 1.49255 -4.20284 0
M  V30 783 C 77.0703 0.152601 -5.815 0
M  V30 784 N 76.0463 0.738294 -5.38563 0
M  V30 785 H 79.8483 -0.049265 -2.93859 0
M  V30 786 H 77.3623 -0.127779 -1.61897 0
M  V30 787 H 79.3593 2.36512 -3.43319 0
M  V30 788 H 78.0193 2.33431 -2.25699 0
M  V30 789 H 79.0303 0.068551 -5.17855 0
M  V30 790 H 75.7073 2.11145 -3.60172 0
M  V30 791 H 77.0973 -0.481764 -6.70171 0
M  V30 792 N 79.8174 1.5752 -0.0501392 0
M  V30 793 C 80.7494 2.08413 0.95376 0
M  V30 794 C 81.7624 1.01175 1.27544 0
M  V30 795 O 82.9514 1.28744 1.23641 0
M  V30 796 C 80.0514 2.51138 2.27559 0
M  V30 797 C 79.2244 3.817 2.13598 0
M  V30 798 C 78.2834 4.10749 3.28895 0
M  V30 799 O 77.3094 4.80685 3.04845 0
M  V30 800 N 78.5114 3.62579 4.5334 0
M  V30 801 H 81.2764 2.95165 0.519383 0
M  V30 802 H 78.8374 1.61327 0.136127 0
M  V30 803 H 80.8294 2.67648 3.03557 0
M  V30 804 H 79.3994 1.6964 2.62567 0
M  V30 805 H 78.6194 3.74782 1.22197 0
M  V30 806 H 79.9074 4.67201 2.01496 0
M  V30 807 H 79.3054 3.06039 4.75769 0
M  V30 808 H 77.8624 3.84329 5.26436 0
M  V30 809 N 81.2955 -0.223234 1.56011 0
M  V30 810 C 82.7065 -0.790368 1.69145 0
M  V30 811 C 83.0575 -1.85055 0.651845 0
M  V30 812 O 82.1825 -2.15498 -0.197359 0
M  V30 813 C 82.7775 -1.4404 3.06656 0
M  V30 814 C 81.3365 -1.95494 3.2165 0
M  V30 815 C 80.4835 -0.814506 2.65068 0
M  V30 816 H 83.4345 0.00139011 1.587 0
M  V30 817 H 83.4555 -2.30916 3.0242 0
M  V30 818 H 82.9675 -0.668543 3.82298 0
M  V30 819 H 81.0685 -2.75487 2.50874 0
M  V30 820 H 81.1815 -2.13607 4.28846 0
M  V30 821 H 79.5455 -1.22137 2.23505 0
M  V30 822 H 80.3285 -0.0553515 3.43255 0
M  V30 823 N 82.7736 -1.49793 -0.48987 0
M  V30 824 C 83.7056 -1.63413 -1.60713 0
M  V30 825 C 84.7186 -0.516329 -1.54395 0
M  V30 826 O 85.9076 -0.788812 -1.60125 0
M  V30 827 C 83.0076 -1.58516 -2.99543 0
M  V30 828 C 82.1806 -2.86016 -3.30928 0
M  V30 829 C 81.2396 -2.74018 -4.49222 0
M  V30 830 O 80.2656 -3.47964 -4.50455 0
M  V30 831 N 81.4676 -1.86309 -5.4979 0
M  V30 832 H 84.2326 -2.59777 -1.49452 0
M  V30 833 H 81.7936 -1.47022 -0.677955 0
M  V30 834 H 83.7856 -1.48128 -3.76617 0
M  V30 835 H 82.3556 -0.69965 -3.0467 0
M  V30 836 H 81.5756 -3.10672 -2.42645 0
M  V30 837 H 82.8636 -3.70521 -3.487 0
M  V30 838 H 82.2616 -1.2551 -5.51601 0
M  V30 839 H 80.8186 -1.81837 -6.25922 0
M  V30 840 N 84.2517 0.741722 -1.39055 0
M  V30 841 C 85.2017 1.84661 -1.33732 0
M  V30 842 C 86.1857 1.59397 -0.219401 0
M  V30 843 O 87.3777 1.71015 -0.456375 0
M  V30 844 C 84.5067 3.22512 -1.17647 0
M  V30 845 C 83.5927 3.53628 -2.34112 0
M  V30 846 N 83.9837 3.55723 -3.59576 0
M  V30 847 C 82.2817 3.83956 -2.26923 0
M  V30 848 C 82.9827 3.84443 -4.36553 0
M  V30 849 N 81.9587 4.01877 -3.66055 0
M  V30 850 H 85.7607 1.84576 -2.28711 0
M  V30 851 H 83.2747 0.939647 -1.32455 0
M  V30 852 H 85.2717 4.01597 -1.11917 0
M  V30 853 H 83.9317 3.2384 -0.236124 0
M  V30 854 H 84.9427 3.37196 -3.93089 0
M  V30 855 H 81.6197 3.92929 -1.41113 0
M  V30 856 H 83.0097 3.92588 -5.45274 0
M  V30 857 N 85.7298 1.2412 0.971189 0
M  V30 858 C 86.6618 0.988349 2.06795 0
M  V30 859 C 87.6748 -0.0409541 1.62748 0
M  V30 860 O 88.8638 0.195673 1.77424 0
M  V30 861 C 85.9638 0.469023 3.35639 0
M  V30 862 C 85.1368 1.56065 4.08611 0
M  V30 863 C 84.1958 1.04458 5.15728 0
M  V30 864 O 83.2218 1.73553 5.42096 0
M  V30 865 N 84.4238 -0.122817 5.8037 0
M  V30 866 H 87.1888 1.93265 2.29061 0
M  V30 867 H 84.7498 1.15102 1.13856 0
M  V30 868 H 86.7418 0.108613 4.04554 0
M  V30 869 H 85.3118 -0.380919 3.1027 0
M  V30 870 H 84.5318 2.09341 3.34021 0
M  V30 871 H 85.8198 2.29449 4.54126 0
M  V30 872 H 85.2178 -0.700563 5.61345 0
M  V30 873 H 83.7748 -0.424404 6.50417 0
M  V30 874 N 87.2079 -1.17134 1.05439 0
M  V30 875 C 88.4849 -1.83411 0.679699 0
M  V30 876 C 88.8649 -1.9368 -0.839726 0
M  V30 877 O 88.2129 -1.47325 -1.74664 0
M  V30 878 C 88.4229 -3.20918 1.37159 0
M  V30 879 C 89.7709 -3.96796 1.51123 0
M  V30 880 O 90.7949 -3.30406 1.3308 0
M  V30 881 O 89.6539 -5.15778 1.80651 0
M  V30 882 H 86.7479 -0.79154 0.239569 0
M  V30 883 H 89.2939 -1.24411 1.15413 0
M  V30 884 H 88.0659 -3.08428 2.40807 0
M  V30 885 H 87.6889 -3.87587 0.886674 0
M  V30 886 N 88.686 -0.835752 -1.33615 0
M  V30 887 C 89.636 -0.238856 -2.26745 0
M  V30 888 C 90.62 0.604343 -1.49119 0
M  V30 889 O 91.812 0.456822 -1.71003 0
M  V30 890 C 88.941 0.587725 -3.38232 0
M  V30 891 C 88.027 -0.266811 -4.2326 0
M  V30 892 N 88.418 -1.34403 -4.87616 0
M  V30 893 C 86.716 -0.0533131 -4.45968 0
M  V30 894 C 87.417 -1.86819 -5.50884 0
M  V30 895 N 86.393 -1.17013 -5.30857 0
M  V30 896 H 90.195 -1.06266 -2.74016 0
M  V30 897 H 87.709 -0.679881 -1.47483 0
M  V30 898 H 89.706 1.03161 -4.03935 0
M  V30 899 H 88.366 1.40954 -2.9251 0
M  V30 900 H 89.377 -1.7269 -4.88261 0
M  V30 901 H 86.054 0.735312 -4.10974 0
M  V30 902 H 87.444 -2.7701 -6.1214 0
M  V30 903 N 90.1641 1.46063 -0.591896 0
M  V30 904 C 91.4411 1.95595 -0.0137119 0
M  V30 905 C 91.8211 1.5345 1.4497 0
M  V30 906 O 91.1691 0.789543 2.14426 0
M  V30 907 C 91.3791 3.48453 -0.195373 0
M  V30 908 C 92.7271 4.24546 -0.0679765 0
M  V30 909 O 93.7511 3.55982 -0.124681 0
M  V30 910 O 92.6101 5.46467 0.0600579 0
M  V30 911 H 89.7041 0.825795 0.0446279 0
M  V30 912 H 92.2501 1.56303 -0.660859 0
M  V30 913 H 91.0221 3.72045 -1.21235 0
M  V30 914 H 90.6451 3.94597 0.487775 0
M  V30 915 N 91.6422 0.330177 1.54103 0
M  V30 916 C 92.8672 -0.274893 2.0557 0
M  V30 917 C 93.2922 -1.44487 1.20437 0
M  V30 918 O 92.6502 -1.80021 0.214991 0
M  V30 919 C 92.6982 -0.68079 3.54115 0
M  V30 920 O 91.8022 -1.7824 3.71893 0
M  V30 921 H 91.1432 -0.0483849 0.662235 0
M  V30 922 H 93.6732 0.480508 1.98878 0
M  V30 923 H 93.6832 -0.961635 3.96505 0
M  V30 924 H 92.3582 0.174903 4.15532 0
M  V30 925 H 90.9352 -1.49985 3.41407 0
M  V30 926 N 93.1203 -1.57491 0.0584922 0
M  V30 927 C 94.3453 -1.97711 -0.62652 0
M  V30 928 C 94.7703 -0.936132 -1.63151 0
M  V30 929 O 94.1283 0.099811 -1.81025 0
M  V30 930 C 94.1763 -3.36989 -1.28338 0
M  V30 931 O 93.2803 -3.35433 -2.39913 0
M  V30 932 H 92.6213 -0.643868 -0.162266 0
M  V30 933 H 95.1513 -2.04193 0.129064 0
M  V30 934 H 95.1613 -3.73879 -1.63335 0
M  V30 935 H 93.8363 -4.12289 -0.546889 0
M  V30 936 H 92.4133 -3.10298 -2.06809 0
M  V30 937 N 94.5984 0.214957 -1.56127 0
M  V30 938 C 95.5084 1.28727 -1.96129 0
M  V30 939 C 96.5244 1.50916 -0.866044 0
M  V30 940 O 97.7004 1.63918 -1.17016 0
M  V30 941 C 94.7654 2.61569 -2.27558 0
M  V30 942 C 93.8264 2.47625 -3.50685 0
M  V30 943 C 93.0594 3.74132 -3.80606 0
M  V30 944 O 93.2824 4.77438 -3.12104 0
M  V30 945 O 92.2164 3.70849 -4.74083 0
M  V30 946 H 96.0424 0.977855 -2.87527 0
M  V30 947 H 93.6274 0.418358 -1.43423 0
M  V30 948 H 95.5094 3.40012 -2.48938 0
M  V30 949 H 94.1844 2.92178 -1.39332 0
M  V30 950 H 93.0914 1.67361 -3.34576 0
M  V30 951 H 94.4244 2.21954 -4.39315 0
M  V30 952 N 96.0765 1.50051 0.48192 0
M  V30 953 C 97.3015 1.64508 1.26301 0
M  V30 954 C 97.7265 0.323851 1.85291 0
M  V30 955 O 97.0845 -0.710969 1.66778 0
M  V30 956 C 97.1325 2.7305 2.35533 0
M  V30 957 O 96.2365 2.3355 3.39895 0
M  V30 958 H 95.5775 0.549978 0.372048 0
M  V30 959 H 98.1075 1.9636 0.574786 0
M  V30 960 H 98.1175 2.95799 2.8101 0
M  V30 961 H 96.7925 3.68946 1.91967 0
M  V30 962 H 95.3695 2.21205 3.00204 0
M  V30 963 N 97.5546 -0.734337 1.39446 0
M  V30 964 C 98.8026 -1.49096 1.36436 0
M  V30 965 C 99.1236 -1.94961 -0.0388255 0
M  V30 966 O 98.3936 -1.69033 -0.990191 0
M  V30 967 H 96.9736 -0.5531 0.502085 0
M  V30 968 H 99.6356 -0.871725 1.74319 0
M  V30 969 H 98.7316 -2.37276 2.02747 0
M  V30 970 N 99.0327 -1.24633 -0.964593 0
M  V30 971 C 99.9657 -0.984662 -2.05863 0
M  V30 972 C 100.944 0.0826554 -1.6239 0
M  V30 973 O 102.128 -0.0549296 -1.8842 0
M  V30 974 C 99.2547 -0.486529 -3.35187 0
M  V30 975 C 98.3007 -1.54286 -3.97615 0
M  V30 976 S 99.1337 -3.12513 -4.34851 0
M  V30 977 C 100.29 -2.6441 -5.67308 0
M  V30 978 H 100.523 -1.91104 -2.27743 0
M  V30 979 H 98.0557 -1.08052 -1.10291 0
M  V30 980 H 100.014 -0.205757 -4.09984 0
M  V30 981 H 98.6747 0.419186 -3.1129 0
M  V30 982 H 97.8677 -1.14481 -4.90826 0
M  V30 983 H 97.4697 -1.7738 -3.2926 0
M  V30 984 H 99.7617 -2.07416 -6.44969 0
M  V30 985 H 100.705 -3.56222 -6.11973 0
M  V30 986 H 101.113 -2.04734 -5.26065 0
M  V30 987 N 100.511 1.16574 -1.06058 0
M  V30 988 C 101.441 2.23057 -0.690488 0
M  V30 989 C 102.422 1.67141 0.315901 0
M  V30 990 O 103.607 1.93253 0.191556 0
M  V30 991 C 100.737 3.47222 -0.073625 0
M  V30 992 C 99.6908 4.16016 -1.00573 0
M  V30 993 C 99.0168 5.34104 -0.252289 0
M  V30 994 C 100.317 4.67264 -2.33371 0
M  V30 995 H 102.011 2.54271 -1.58072 0
M  V30 996 H 99.5568 1.22218 -0.76149 0
M  V30 997 H 101.51 4.20939 0.19714 0
M  V30 998 H 100.234 3.15302 0.85161 0
M  V30 999 H 98.8928 3.44223 -1.2612 0
M  V30 1000 H 98.5408 4.98437 0.675988 0
M  V30 1001 H 98.2408 5.81072 -0.873455 0
M  V30 1002 H 99.7648 6.10599 0.0109857 0
M  V30 1003 H 101.179 5.32573 -2.12223 0
M  V30 1004 H 99.5758 5.24843 -2.90963 0
M  V30 1005 H 100.646 3.83602 -2.96611 0
M  V30 1006 N 101.989 0.842826 1.3317 0
M  V30 1007 C 103.214 0.453129 2.02389 0
M  V30 1008 C 103.639 -0.939105 1.6298 0
M  V30 1009 O 102.997 -1.61472 0.8244 0
M  V30 1010 C 103.045 0.586094 3.55805 0
M  V30 1011 O 102.149 -0.386029 4.10589 0
M  V30 1012 H 101.49 0.183664 0.638094 0
M  V30 1013 H 104.02 1.13875 1.69981 0
M  V30 1014 H 104.03 0.469209 4.05293 0
M  V30 1015 H 102.705 1.6014 3.83833 0
M  V30 1016 H 101.282 -0.226371 3.72212 0
M  V30 1017 N 103.467 -1.45747 0.599634 0
M  V30 1018 C 104.883 -1.57424 0.26264 0
M  V30 1019 C 105.083 -1.59222 -1.23493 0
M  V30 1020 O 104.139 -1.51825 -2.01756 0
M  V30 1021 C 105.452 -2.86061 0.926795 0
M  V30 1022 C 107 -2.99722 0.901967 0
M  V30 1023 C 107.475 -4.31119 1.54598 0
M  V30 1024 N 108.966 -4.37858 1.5111 0
M  V30 1025 C 109.701 -5.3818 1.97863 0
M  V30 1026 N 109.197 -6.45083 2.52666 0
M  V30 1027 N 110.99 -5.29487 1.88679 0
M  V30 1028 H 103.141 -1.42823 1.57211 0
M  V30 1029 H 105.404 -0.68235 0.658105 0
M  V30 1030 H 105.11 -2.90605 1.98095 0
M  V30 1031 H 104.984 -3.74563 0.445238 0
M  V30 1032 H 107.371 -2.9475 -0.143617 0
M  V30 1033 H 107.452 -2.12652 1.42171 0
M  V30 1034 H 107.096 -4.36849 2.59085 0
M  V30 1035 H 107.026 -5.16992 1.00132 0
M  V30 1036 H 109.517 -3.61209 1.11068 0
M  V30 1037 H 109.83 -7.17869 2.86155 0
M  V30 1038 H 108.175 -6.45856 2.56701 0
M  V30 1039 H 111.366 -4.44877 1.4561 0
M  V30 1040 H 111.539 -6.07524 2.25429 0
M  V30 1041 N 104.945 -0.338344 -1.53925 0
M  V30 1042 C 105.875 0.51328 -2.27789 0
M  V30 1043 C 106.856 1.107 -1.29149 0
M  V30 1044 O 108.041 1.12937 -1.57984 0
M  V30 1045 C 105.171 1.66697 -3.04679 0
M  V30 1046 C 104.125 1.20183 -4.1078 0
M  V30 1047 C 103.451 2.44363 -4.75595 0
M  V30 1048 C 104.751 0.30605 -5.21403 0
M  V30 1049 H 106.445 -0.102883 -2.99223 0
M  V30 1050 H 103.991 -0.0509219 -1.4391 0
M  V30 1051 H 105.944 2.26915 -3.55088 0
M  V30 1052 H 104.668 2.30995 -2.30887 0
M  V30 1053 H 103.327 0.622499 -3.61276 0
M  V30 1054 H 102.975 3.07057 -3.98403 0
M  V30 1055 H 102.675 2.13925 -5.47275 0
M  V30 1056 H 104.199 3.05317 -5.28786 0
M  V30 1057 H 105.613 0.814929 -5.67478 0
M  V30 1058 H 104.01 0.0937929 -6.00027 0
M  V30 1059 H 105.08 -0.65921 -4.80398 0
M  V30 1060 N 106.423 1.57458 -0.0668435 0
M  V30 1061 C 107.671 1.92919 0.602214 0
M  V30 1062 C 107.992 0.947215 1.70449 0
M  V30 1063 O 107.262 -0.00544117 1.95899 0
M  V30 1064 H 105.842 0.71217 0.22544 0
M  V30 1065 H 108.504 1.94508 -0.123535 0
M  V30 1066 H 107.6 2.94589 1.03073 0
M  V30 1067 N 107.901 -0.206675 1.56239 0
M  V30 1068 C 109.178 -0.954051 1.70755 0
M  V30 1069 C 109.558 -2.01841 0.618353 0
M  V30 1070 O 108.906 -2.25444 -0.372434 0
M  V30 1071 C 109.116 -1.551 3.12642 0
M  V30 1072 C 110.464 -2.03757 3.72516 0
M  V30 1073 O 111.488 -1.64965 3.15698 0
M  V30 1074 O 110.347 -2.75103 4.72208 0
M  V30 1075 H 107.441 -0.446636 0.696021 0
M  V30 1076 H 109.987 -0.197283 1.68549 0
M  V30 1077 H 108.759 -0.783212 3.83382 0
M  V30 1078 H 108.382 -2.37291 3.19028 0
M  V30 1079 N 109.379 -1.50304 -0.473955 0
M  V30 1080 C 110.309 -1.71886 -1.58042 0
M  V30 1081 C 111.29 -0.567799 -1.60344 0
M  V30 1082 O 112.475 -0.806623 -1.76656 0
M  V30 1083 C 109.605 -1.81036 -2.96384 0
M  V30 1084 C 108.559 -2.962 -3.08949 0
M  V30 1085 C 107.885 -2.9049 -4.48909 0
M  V30 1086 C 109.185 -4.36752 -2.86434 0
M  V30 1087 H 110.879 -2.64527 -1.40234 0
M  V30 1088 H 108.425 -1.27295 -0.673201 0
M  V30 1089 H 110.378 -1.94719 -3.73714 0
M  V30 1090 H 109.102 -0.850147 -3.15341 0
M  V30 1091 H 107.761 -2.82164 -2.3405 0
M  V30 1092 H 107.409 -1.92321 -4.64781 0
M  V30 1093 H 107.109 -3.67802 -4.58253 0
M  V30 1094 H 108.633 -3.06218 -5.28264 0
M  V30 1095 H 110.047 -4.5133 -3.53517 0
M  V30 1096 H 108.444 -5.15493 -3.07225 0
M  V30 1097 H 109.514 -4.49321 -1.82316 0
M  V30 1098 N 110.857 0.726932 -1.39834 0
M  V30 1099 C 111.787 1.85405 -1.41941 0
M  V30 1100 C 112.768 1.67751 -0.281728 0
M  V30 1101 O 113.953 1.8795 -0.488717 0
M  V30 1102 C 111.083 3.23243 -1.2701 0
M  V30 1103 C 110.037 3.55549 -2.38262 0
M  V30 1104 C 109.363 4.9241 -2.08415 0
M  V30 1105 C 110.663 3.577 -3.80589 0
M  V30 1106 H 112.357 1.83899 -2.36266 0
M  V30 1107 H 109.903 0.883349 -1.13723 0
M  V30 1108 H 111.856 4.01775 -1.27103 0
M  V30 1109 H 110.58 3.25296 -0.291564 0
M  V30 1110 H 109.239 2.79351 -2.37399 0
M  V30 1111 H 108.887 4.91052 -1.0898 0
M  V30 1112 H 108.587 5.14992 -2.82943 0
M  V30 1113 H 110.111 5.73289 -2.10171 0
M  V30 1114 H 111.525 4.26293 -3.83337 0
M  V30 1115 H 109.922 3.91804 -4.54543 0
M  V30 1116 H 110.992 2.57328 -4.10987 0
M  V30 1117 N 112.336 1.25143 0.95797 0
M  V30 1118 C 113.583 1.09692 1.70217 0
M  V30 1119 C 113.911 -0.362654 1.91089 0
M  V30 1120 O 113.166 -1.28386 1.47701 0
M  V30 1121 C 113.465 1.79272 3.09187 0
M  V30 1122 C 113.131 3.29196 3.08125 0
M  V30 1123 C 111.793 3.70096 3.07543 0
M  V30 1124 C 114.145 4.24995 3.0171 0
M  V30 1125 C 111.473 5.05213 2.9829 0
M  V30 1126 C 113.825 5.60132 2.93999 0
M  V30 1127 C 112.489 6.00365 2.9175 0
M  V30 1128 H 111.759 0.401393 0.622868 0
M  V30 1129 H 114.406 1.55372 1.11945 0
M  V30 1130 H 112.711 1.26014 3.70982 0
M  V30 1131 H 114.408 1.64773 3.65583 0
M  V30 1132 H 110.998 2.96651 3.09348 0
M  V30 1133 H 115.182 3.9439 3.01281 0
M  V30 1134 H 110.438 5.35569 2.94916 0
M  V30 1135 H 114.612 6.3406 2.87996 0
M  V30 1136 H 112.239 7.05023 2.84336 0
M  V30 1137 N 113.814 -1.1601 1.06675 0
M  V30 1138 C 115.044 -1.90251 0.805497 0
M  V30 1139 C 115.452 -1.77891 -0.64431 0
M  V30 1140 O 114.795 -1.12383 -1.45313 0
M  V30 1141 C 114.857 -3.41419 1.12576 0
M  V30 1142 C 114.521 -3.77564 2.57477 0
M  V30 1143 C 115.518 -3.79161 3.55715 0
M  V30 1144 C 113.203 -4.08079 2.92877 0
M  V30 1145 C 115.197 -4.10767 4.8739 0
M  V30 1146 C 112.884 -4.39351 4.24751 0
M  V30 1147 C 113.882 -4.40675 5.21818 0
M  V30 1148 O 113.57 -4.71202 6.51325 0
M  V30 1149 H 113.302 -0.610018 0.291297 0
M  V30 1150 H 115.856 -1.47958 1.4247 0
M  V30 1151 H 114.086 -3.84079 0.449503 0
M  V30 1152 H 115.775 -3.9694 0.84814 0
M  V30 1153 H 116.541 -3.55693 3.29708 0
M  V30 1154 H 112.42 -4.06211 2.17976 0
M  V30 1155 H 115.964 -4.11715 5.63148 0
M  V30 1156 H 111.861 -4.62285 4.50514 0
M  V30 1157 H 112.629 -4.88996 6.56373 0
M  V30 1158 N 115.292 -0.849877 -1.32721 0
M  V30 1159 C 116.52 -0.464754 -2.01613 0
M  V30 1160 C 116.935 0.937191 -1.63897 0
M  V30 1161 O 116.292 1.61081 -0.857856 0
M  V30 1162 C 116.343 -0.588638 -3.56675 0
M  V30 1163 O 116.064 -1.93535 -3.93034 0
M  V30 1164 C 117.565 -0.2019 -4.4284 0
M  V30 1165 H 114.785 -0.183215 -0.645502 0
M  V30 1166 H 117.329 -1.1455 -1.69407 0
M  V30 1167 H 115.484 0.0443159 -3.87375 0
M  V30 1168 H 115.898 -1.92871 -4.87751 0
M  V30 1169 H 117.372 -0.339599 -5.50954 0
M  V30 1170 H 117.849 0.857224 -4.30753 0
M  V30 1171 H 118.455 -0.809733 -4.17521 0
M  V30 1172 N 116.77 1.45427 -0.607355 0
M  V30 1173 C 118.019 2.01452 -0.100036 0
M  V30 1174 C 118.332 1.48159 1.27704 0
M  V30 1175 O 119.538 1.96159 1.87707 0
M  V30 1176 C 117.994 3.59672 -0.128158 0
M  V30 1177 C 117.602 4.21962 -1.50507 0
M  V30 1178 C 119.346 4.23262 0.323932 0
M  V30 1179 C 117.253 5.72333 -1.48959 0
M  V30 1180 H 116.183 0.75325 -0.0336299 0
M  V30 1181 H 118.834 1.66901 -0.76265 0
M  V30 1182 H 117.216 3.91411 0.601105 0
M  V30 1183 H 118.39 4.01796 -2.25602 0
M  V30 1184 H 116.705 3.70565 -1.89923 0
M  V30 1185 H 119.302 5.33522 0.354691 0
M  V30 1186 H 119.645 3.93921 1.34656 0
M  V30 1187 H 120.178 3.96239 -0.352056 0
M  V30 1188 H 116.917 6.06373 -2.48981 0
M  V30 1189 H 116.437 5.94691 -0.781214 0
M  V30 1190 H 118.116 6.35525 -1.21313 0
M  V30 1191 N 118.248 0.346503 1.53744 0
M  V30 1192 C 119.211 -0.496439 2.23759 0
M  V30 1193 C 120.211 -1.0252 1.2388 0
M  V30 1194 O 121.401 -0.913974 1.48297 0
M  V30 1195 C 118.533 -1.69187 2.95954 0
M  V30 1196 H 119.726 0.115952 2.99676 0
M  V30 1197 H 117.279 0.0978939 1.55993 0
M  V30 1198 H 118.014 -2.34288 2.24231 0
M  V30 1199 H 117.799 -1.31989 3.69217 0
M  V30 1200 H 119.289 -2.28969 3.49232 0
M  V30 1201 N 119.726 -1.57421 0.075193 0
M  V30 1202 C 120.636 -2.1642 -0.905511 0
M  V30 1203 C 121.652 -1.12828 -1.32461 0
M  V30 1204 O 122.828 -1.45109 -1.39661 0
M  V30 1205 C 119.893 -2.71693 -2.15369 0
M  V30 1206 C 118.954 -3.90171 -1.79068 0
M  V30 1207 C 118.187 -4.42798 -2.97936 0
M  V30 1208 O 118.41 -3.94416 -4.12058 0
M  V30 1209 O 117.344 -5.34085 -2.77555 0
M  V30 1210 H 121.17 -3.00588 -0.433626 0
M  V30 1211 H 118.755 -1.48664 -0.148067 0
M  V30 1212 H 120.637 -3.07104 -2.88557 0
M  V30 1213 H 119.312 -1.90582 -2.61649 0
M  V30 1214 H 118.219 -3.59606 -1.03122 0
M  V30 1215 H 119.552 -4.72584 -1.37569 0
M  V30 1216 N 121.204 0.198386 -1.56346 0
M  V30 1217 C 122.452 0.91747 -1.80075 0
M  V30 1218 C 122.773 1.83929 -0.647692 0
M  V30 1219 O 122.043 1.93029 0.334166 0
M  V30 1220 H 120.623 0.341774 -0.664228 0
M  V30 1221 H 123.285 0.204684 -1.93822 0
M  V30 1222 H 122.381 1.51055 -2.7311 0
M  V30 1223 N 122.682 1.50554 0.465978 0
M  V30 1224 C 123.614 1.65949 1.58093 0
M  V30 1225 C 124.627 0.540827 1.53554 0
M  V30 1226 O 125.816 0.814187 1.5885 0
M  V30 1227 C 122.916 1.63261 2.96983 0
M  V30 1228 C 122.089 2.91245 3.26336 0
M  V30 1229 C 121.148 2.8113 4.44806 0
M  V30 1230 O 120.174 3.55086 4.44862 0
M  V30 1231 N 121.376 1.95032 5.46756 0
M  V30 1232 H 124.141 2.62122 1.45301 0
M  V30 1233 H 121.702 1.48082 0.65448 0
M  V30 1234 H 123.694 1.54101 3.74212 0
M  V30 1235 H 122.264 0.748032 3.03518 0
M  V30 1236 H 121.484 3.14493 2.37672 0
M  V30 1237 H 122.772 3.76022 3.42761 0
M  V30 1238 H 122.17 1.3427 5.49534 0
M  V30 1239 H 120.727 1.91772 6.2295 0
M  V30 1240 N 124.16 -0.719506 1.40217 0
M  V30 1241 C 125.07 -1.86378 1.42479 0
M  V30 1242 C 126.086 -1.71073 0.317834 0
M  V30 1243 O 127.262 -1.93406 0.561794 0
M  V30 1244 C 124.327 -3.22136 1.28178 0
M  V30 1245 C 123.388 -3.49723 2.48982 0
M  V30 1246 C 122.621 -4.79004 2.35353 0
M  V30 1247 O 122.844 -5.53821 1.36524 0
M  V30 1248 O 121.778 -5.06839 3.2465 0
M  V30 1249 H 125.604 -1.87425 2.38968 0
M  V30 1250 H 123.189 -0.869405 1.21498 0
M  V30 1251 H 125.071 -4.03234 1.22395 0
M  V30 1252 H 123.746 -3.21825 0.347934 0
M  V30 1253 H 122.653 -2.6865 2.60342 0
M  V30 1254 H 123.986 -3.54828 3.41113 0
M  V30 1255 N 125.638 -1.25649 -0.95132 0
M  V30 1256 C 127.054 -1.02542 -1.223 0
M  V30 1257 C 127.254 0.255715 -1.99871 0
M  V30 1258 O 126.31 0.967558 -2.33226 0
M  V30 1259 C 127.623 -2.25065 -1.99415 0
M  V30 1260 C 129.171 -2.29861 -2.12446 0
M  V30 1261 C 129.646 -3.52048 -2.92961 0
M  V30 1262 N 131.137 -3.52465 -3.00538 0
M  V30 1263 C 131.872 -4.43672 -3.63239 0
M  V30 1264 N 131.368 -5.45157 -4.27523 0
M  V30 1265 N 133.161 -4.31346 -3.60412 0
M  V30 1266 H 125.312 -2.07951 -0.432471 0
M  V30 1267 H 127.575 -0.91339 -0.253816 0
M  V30 1268 H 127.281 -3.18194 -1.49817 0
M  V30 1269 H 127.155 -2.28502 -3.00111 0
M  V30 1270 H 129.542 -1.37252 -2.61239 0
M  V30 1271 H 129.623 -2.3044 -1.11044 0
M  V30 1272 H 129.267 -4.44981 -2.44856 0
M  V30 1273 H 129.197 -3.48715 -3.94596 0
M  V30 1274 H 131.688 -2.79056 -2.54826 0
M  V30 1275 H 132.001 -6.10958 -4.73234 0
M  V30 1276 H 130.346 -5.49025 -4.26141 0
M  V30 1277 H 133.537 -3.51288 -3.09377 0
M  V30 1278 H 133.71 -5.02624 -4.0899 0
M  V30 1279 N 127.117 1.15442 -1.07289 0
M  V30 1280 C 128.366 1.85557 -0.790669 0
M  V30 1281 C 128.679 1.83186 0.685739 0
M  V30 1282 O 129.885 2.48977 1.0827 0
M  V30 1283 C 128.341 3.33038 -1.36433 0
M  V30 1284 C 127.949 3.43856 -2.8717 0
M  V30 1285 C 129.693 4.0834 -1.1601 0
M  V30 1286 C 127.6 4.85482 -3.3773 0
M  V30 1287 H 126.53 0.695122 -0.292098 0
M  V30 1288 H 129.181 1.30219 -1.29287 0
M  V30 1289 H 127.563 3.88043 -0.789864 0
M  V30 1290 H 128.737 2.98961 -3.50655 0
M  V30 1291 H 127.052 2.81998 -3.06376 0
M  V30 1292 H 129.649 5.12859 -1.51262 0
M  V30 1293 H 129.992 4.16182 -0.0991007 0
M  V30 1294 H 130.525 3.59603 -1.70089 0
M  V30 1295 H 127.264 4.82823 -4.43353 0
M  V30 1296 H 126.784 5.30961 -2.78999 0
M  V30 1297 H 128.463 5.54335 -3.33648 0
M  V30 1298 N 128.595 0.856903 1.32268 0
M  V30 1299 C 130.006 0.515711 1.79436 0
M  V30 1300 C 130.357 -0.966586 1.70738 0
M  V30 1301 O 129.482 -1.75409 1.26731 0
M  V30 1302 C 130.077 0.929335 3.25805 0
M  V30 1303 C 128.636 0.640006 3.70919 0
M  V30 1304 C 127.783 1.12784 2.53328 0
M  V30 1305 H 130.734 1.04389 1.19535 0
M  V30 1306 H 130.755 0.246633 3.797 0
M  V30 1307 H 130.267 2.00821 3.32103 0
M  V30 1308 H 128.368 -0.428051 3.70133 0
M  V30 1309 H 128.481 1.20788 4.63624 0
M  V30 1310 H 126.845 0.548033 2.48734 0
M  V30 1311 H 127.628 2.21387 2.62379 0
M  V30 1312 N 130.073 -1.45103 0.615059 0
M  V30 1313 C 131.322 -2.01396 0.110718 0
M  V30 1314 C 131.635 -1.48834 -1.26916 0
M  V30 1315 O 132.841 -1.97152 -1.86664 0
M  V30 1316 C 131.297 -3.59599 0.14723 0
M  V30 1317 C 130.905 -4.21158 1.52743 0
M  V30 1318 C 132.649 -4.23428 -0.30148 0
M  V30 1319 C 130.556 -5.71535 1.51992 0
M  V30 1320 H 129.486 -0.753061 0.0376241 0
M  V30 1321 H 132.137 -1.66494 0.77149 0
M  V30 1322 H 130.519 -3.91724 -0.580339 0
M  V30 1323 H 131.693 -4.00594 2.2773 0
M  V30 1324 H 130.008 -3.69552 1.91886 0
M  V30 1325 H 132.605 -5.33703 -0.326392 0
M  V30 1326 H 132.948 -3.94629 -1.32565 0
M  V30 1327 H 133.481 -3.96047 0.373065 0
M  V30 1328 H 130.22 -6.05044 2.52193 0
M  V30 1329 H 129.74 -5.94268 0.81274 0
M  V30 1330 H 131.419 -6.34873 1.24681 0
M  V30 1331 N 131.551 -0.354651 -1.53558 0
M  V30 1332 C 132.501 0.513179 -2.2215 0
M  V30 1333 C 133.485 1.05734 -1.21281 0
M  V30 1334 O 134.677 0.989202 -1.46778 0
M  V30 1335 C 131.806 1.65798 -3.00609 0
M  V30 1336 C 130.892 1.12722 -4.08845 0
M  V30 1337 N 131.283 0.318563 -5.04796 0
M  V30 1338 C 129.581 1.40307 -4.23356 0
M  V30 1339 C 130.282 0.0292224 -5.81693 0
M  V30 1340 N 129.258 0.623891 -5.40008 0
M  V30 1341 H 133.06 -0.111586 -2.93688 0
M  V30 1342 H 130.574 -0.162091 -1.61589 0
M  V30 1343 H 132.571 2.29176 -3.48258 0
M  V30 1344 H 131.231 2.28591 -2.306 0
M  V30 1345 H 132.242 -0.0413091 -5.17884 0
M  V30 1346 H 128.919 2.03458 -3.6457 0
M  V30 1347 H 130.309 -0.623808 -6.68998 0
M  V30 1348 N 133.029 1.57378 -0.0835403 0
M  V30 1349 C 133.976 2.13384 0.879539 0
M  V30 1350 C 134.946 1.04936 1.28754 0
M  V30 1351 O 136.131 1.32662 1.37133 0
M  V30 1352 C 133.271 2.70932 2.13752 0
M  V30 1353 C 132.384 3.93575 1.7811 0
M  V30 1354 C 131.519 4.39326 2.98607 0
M  V30 1355 C 130.558 5.54587 2.59037 0
M  V30 1356 N 129.695 5.95243 3.72331 0
M  V30 1357 H 134.535 2.9537 0.395076 0
M  V30 1358 H 132.072 1.45953 0.183349 0
M  V30 1359 H 134.03 3.02411 2.87408 0
M  V30 1360 H 132.66 1.91693 2.59718 0
M  V30 1361 H 131.712 3.68483 0.94469 0
M  V30 1362 H 133.024 4.77258 1.45005 0
M  V30 1363 H 132.178 4.72528 3.80529 0
M  V30 1364 H 130.917 3.5452 3.34913 0
M  V30 1365 H 129.922 5.21024 1.75539 0
M  V30 1366 H 131.147 6.41133 2.23887 0
M  V30 1367 H 129.093 5.13385 4.08378 0
M  V30 1368 H 129.01 6.73694 3.43034 0
M  V30 1369 H 130.278 6.33072 4.54797 0
M  V30 1370 N 134.507 -0.190092 1.56449 0
M  V30 1371 C 135.754 -0.909705 1.80916 0
M  V30 1372 C 136.082 -1.83047 0.657583 0
M  V30 1373 O 135.337 -1.92428 -0.356356 0
M  V30 1374 C 135.636 -1.75382 3.1141 0
M  V30 1375 C 135.302 -0.983606 4.40041 0
M  V30 1376 C 133.964 -0.770967 4.74984 0
M  V30 1377 C 136.316 -0.442024 5.19322 0
M  V30 1378 C 133.644 -0.0053448 5.867 0
M  V30 1379 C 135.996 0.310412 6.31838 0
M  V30 1380 C 134.66 0.534023 6.6536 0
M  V30 1381 H 133.93 -0.332885 0.662019 0
M  V30 1382 H 136.577 -0.175762 1.90692 0
M  V30 1383 H 134.882 -2.55659 2.96893 0
M  V30 1384 H 136.579 -2.31331 3.27547 0
M  V30 1385 H 133.169 -1.15936 4.12622 0
M  V30 1386 H 137.353 -0.593693 4.92736 0
M  V30 1387 H 132.609 0.177825 6.11141 0
M  V30 1388 H 136.783 0.737419 6.92485 0
M  V30 1389 H 134.41 1.12918 7.51767 0
M  V30 1390 N 135.985 -1.50799 -0.457987 0
M  V30 1391 C 137.213 -1.66218 -1.23203 0
M  V30 1392 C 137.628 -0.350894 -1.85511 0
M  V30 1393 O 136.985 0.668546 -1.69814 0
M  V30 1394 C 137.036 -2.76291 -2.33121 0
M  V30 1395 O 136.757 -4.02338 -1.73366 0
M  V30 1396 C 138.258 -3.028 -3.2377 0
M  V30 1397 H 135.478 -0.558361 -0.372121 0
M  V30 1398 H 138.022 -1.97099 -0.545179 0
M  V30 1399 H 136.177 -2.48068 -2.97558 0
M  V30 1400 H 136.591 -4.63312 -2.4585 0
M  V30 1401 H 138.065 -3.8345 -3.97077 0
M  V30 1402 H 138.542 -2.14385 -3.83322 0
M  V30 1403 H 139.148 -3.32604 -2.65056 0
M  V30 1404 N 137.463 0.71206 -1.40597 0
M  V30 1405 C 138.691 1.50111 -1.42388 0
M  V30 1406 C 139.106 1.88784 -0.0245395 0
M  V30 1407 O 138.463 1.55681 0.952351 0
M  V30 1408 C 138.514 2.7742 -2.31776 0
M  V30 1409 O 138.235 2.40382 -3.66262 0
M  V30 1410 C 139.736 3.7129 -2.42196 0
M  V30 1411 H 136.956 0.46314 -0.485533 0
M  V30 1412 H 139.5 0.878068 -1.8469 0
M  V30 1413 H 137.655 3.36001 -1.92827 0
M  V30 1414 H 138.069 3.22324 -4.13772 0
M  V30 1415 H 139.543 4.57448 -3.08943 0
M  V30 1416 H 140.02 4.14641 -1.44809 0
M  V30 1417 H 140.626 3.18619 -2.81712 0
M  V30 1418 N 138.941 1.26152 0.944643 0
M  V30 1419 C 139.904 1.07474 2.0244 0
M  V30 1420 C 140.904 0.0242064 1.60782 0
M  V30 1421 O 142.094 0.267302 1.72137 0
M  V30 1422 C 139.226 0.633956 3.34953 0
M  V30 1423 H 140.419 2.03336 2.20442 0
M  V30 1424 H 137.972 1.087 1.12312 0
M  V30 1425 H 138.707 -0.326811 3.22649 0
M  V30 1426 H 138.492 1.39247 3.66542 0
M  V30 1427 H 139.982 0.52501 4.14287 0
M  V30 1428 N 140.419 -1.14872 1.07899 0
M  V30 1429 C 141.349 -2.2193 0.725887 0
M  V30 1430 C 142.33 -1.67622 -0.28927 0
M  V30 1431 O 143.515 -1.93533 -0.160787 0
M  V30 1432 C 140.645 -3.47061 0.128856 0
M  V30 1433 C 139.599 -4.14363 1.07178 0
M  V30 1434 C 138.925 -5.33636 0.337229 0
M  V30 1435 C 140.225 -4.63492 2.40775 0
M  V30 1436 H 141.919 -2.51724 1.62097 0
M  V30 1437 H 139.465 -1.20991 0.780838 0
M  V30 1438 H 141.418 -4.21199 -0.130147 0
M  V30 1439 H 140.142 -3.16617 -0.80134 0
M  V30 1440 H 138.801 -3.42173 1.3158 0
M  V30 1441 H 138.449 -4.99449 -0.596606 0
M  V30 1442 H 138.149 -5.79609 0.965788 0
M  V30 1443 H 139.673 -6.10539 0.0861567 0
M  V30 1444 H 141.087 -5.2913 2.20669 0
M  V30 1445 H 139.484 -5.20148 2.99276 0
M  V30 1446 H 140.554 -3.78834 3.02676 0
M  V30 1447 N 141.898 -0.863906 -1.31812 0
M  V30 1448 C 142.845 -0.313303 -2.28664 0
M  V30 1449 C 143.815 0.584868 -1.55462 0
M  V30 1450 O 145 0.517805 -1.83639 0
M  V30 1451 C 142.14 0.48441 -3.41683 0
M  V30 1452 C 141.253 -0.440594 -4.29747 0
M  V30 1453 C 140.388 0.370652 -5.29905 0
M  V30 1454 C 139.427 -0.551164 -6.09613 0
M  V30 1455 N 138.564 0.223462 -7.01744 0
M  V30 1456 H 143.404 -1.14444 -2.75148 0
M  V30 1457 H 140.941 -0.575769 -1.35364 0
M  V30 1458 H 142.899 0.962627 -4.05943 0
M  V30 1459 H 141.529 1.28029 -2.96325 0
M  V30 1460 H 140.581 -1.03724 -3.65986 0
M  V30 1461 H 141.893 -1.14767 -4.85417 0
M  V30 1462 H 141.047 0.911638 -5.99812 0
M  V30 1463 H 139.786 1.11105 -4.74876 0
M  V30 1464 H 138.791 -1.10396 -5.38603 0
M  V30 1465 H 140.016 -1.29032 -6.66729 0
M  V30 1466 H 137.962 0.946787 -6.49132 0
M  V30 1467 H 137.879 -0.424399 -7.54808 0
M  V30 1468 H 139.147 0.745876 -7.75923 0
M  V30 1469 N 143.376 1.44774 -0.622745 0
M  V30 1470 C 144.339 2.29069 0.0774015 0
M  V30 1471 C 145.339 1.4059 0.780461 0
M  V30 1472 O 146.529 1.62551 0.626322 0
M  V30 1473 C 143.661 3.21974 1.12006 0
M  V30 1474 H 144.854 2.92459 -0.663901 0
M  V30 1475 H 142.407 1.51548 -0.382486 0
M  V30 1476 H 143.142 2.63417 1.89162 0
M  V30 1477 H 142.927 3.87168 0.619951 0
M  V30 1478 H 144.417 3.85318 1.60995 0
M  V30 1479 N 144.854 0.36279 1.53368 0
M  V30 1480 C 146.082 -0.228613 2.05633 0
M  V30 1481 C 146.497 -1.42676 1.23649 0
M  V30 1482 O 145.854 -1.80394 0.27647 0
M  V30 1483 C 145.905 -0.624845 3.56059 0
M  V30 1484 O 145.626 0.525675 4.34935 0
M  V30 1485 C 147.127 -1.27493 4.24571 0
M  V30 1486 H 144.347 -0.0407183 0.669763 0
M  V30 1487 H 146.891 0.520352 1.97769 0
M  V30 1488 H 145.046 -1.32373 3.64083 0
M  V30 1489 H 145.46 0.205969 5.24095 0
M  V30 1490 H 146.934 -1.50277 5.31151 0
M  V30 1491 H 147.411 -2.23439 3.78116 0
M  V30 1492 H 148.017 -0.617558 4.20792 0
M  V30 1493 N 146.332 -1.57332 0.0918853 0
M  V30 1494 C 147.58 -1.93853 -0.571446 0
M  V30 1495 C 147.901 -0.974212 -1.6892 0
M  V30 1496 O 147.171 -0.0257254 -1.95883 0
M  V30 1497 H 145.751 -0.715666 -0.214082 0
M  V30 1498 H 148.413 -1.94287 0.154464 0
M  V30 1499 H 147.509 -2.96191 -0.983729 0
M  V30 1500 N 147.81 0.181792 -1.56548 0
M  V30 1501 C 148.74 1.22765 -1.98623 0
M  V30 1502 C 149.721 1.46747 -0.860189 0
M  V30 1503 O 150.906 1.58259 -1.12551 0
M  V30 1504 C 148.036 2.56894 -2.33715 0
M  V30 1505 C 146.99 2.475 -3.49182 0
M  V30 1506 C 146.316 3.86023 -3.69986 0
M  V30 1507 C 147.616 1.98866 -4.82959 0
M  V30 1508 H 149.31 0.877942 -2.86239 0
M  V30 1509 H 146.856 0.42088 -1.37712 0
M  V30 1510 H 148.809 3.30253 -2.61746 0
M  V30 1511 H 147.533 2.93632 -1.42997 0
M  V30 1512 H 146.192 1.76596 -3.21262 0
M  V30 1513 H 145.84 4.20136 -2.76576 0
M  V30 1514 H 145.54 3.80609 -4.47672 0
M  V30 1515 H 147.064 4.60984 -4.00407 0
M  V30 1516 H 148.478 2.61992 -5.09934 0
M  V30 1517 H 146.875 2.04424 -5.64208 0
M  V30 1518 H 147.945 0.942465 -4.75653 0
M  V30 1519 N 149.288 1.51039 0.449983 0
M  V30 1520 C 150.22 1.67617 1.56324 0
M  V30 1521 C 151.233 0.557083 1.52972 0
M  V30 1522 O 152.422 0.830989 1.57977 0
M  V30 1523 C 149.522 1.66402 2.95235 0
M  V30 1524 C 148.695 2.9469 3.23229 0
M  V30 1525 C 147.754 2.85832 4.41799 0
M  V30 1526 O 146.78 3.59785 4.41071 0
M  V30 1527 N 147.982 2.00821 5.44657 0
M  V30 1528 H 150.747 2.63648 1.42512 0
M  V30 1529 H 148.308 1.48767 0.638737 0
M  V30 1530 H 150.3 1.58062 3.72557 0
M  V30 1531 H 148.87 0.780182 3.02708 0
M  V30 1532 H 148.09 3.16996 2.34323 0
M  V30 1533 H 149.378 3.79636 3.38754 0
M  V30 1534 H 148.776 1.40091 5.48079 0
M  V30 1535 H 147.333 1.98368 6.20881 0
M  V30 1536 N 150.766 -0.704594 1.40972 0
M  V30 1537 C 151.994 -1.49354 1.43182 0
M  V30 1538 C 152.409 -1.88768 0.0345508 0
M  V30 1539 O 151.766 -1.56184 -0.944081 0
M  V30 1540 C 151.817 -2.76187 2.33244 0
M  V30 1541 O 151.538 -2.38436 3.67532 0
M  V30 1542 C 153.039 -3.7 2.44162 0
M  V30 1543 H 150.259 -0.460559 0.487982 0
M  V30 1544 H 152.803 -0.868261 1.85153 0
M  V30 1545 H 150.958 -3.34974 1.94606 0
M  V30 1546 H 151.372 -3.20126 4.15475 0
M  V30 1547 H 152.846 -4.55803 3.11364 0
M  V30 1548 H 153.323 -4.13867 1.47006 0
M  V30 1549 H 153.929 -3.17121 2.83398 0
M  V30 1550 N 152.244 -1.26651 -0.937939 0
M  V30 1551 C 153.469 -1.15279 -1.72411 0
M  V30 1552 C 153.894 0.287866 -1.85884 0
M  V30 1553 O 153.252 1.20855 -1.35143 0
M  V30 1554 C 153.3 -1.83028 -3.10698 0
M  V30 1555 O 152.404 -1.12128 -3.96864 0
M  V30 1556 H 151.745 -0.401504 -0.528858 0
M  V30 1557 H 154.275 -1.67531 -1.1745 0
M  V30 1558 H 154.285 -1.89981 -3.6107 0
M  V30 1559 H 152.96 -2.87833 -3.00208 0
M  V30 1560 H 151.537 -1.13173 -3.55312 0
M  V30 1561 N 153.722 1.14298 -1.08507 0
M  V30 1562 C 154.999 1.81544 -0.728088 0
M  V30 1563 C 155.379 1.95838 0.78808 0
M  V30 1564 O 154.727 1.51904 1.70697 0
M  V30 1565 C 154.937 3.17169 -1.45619 0
M  V30 1566 C 156.285 3.9265 -1.61591 0
M  V30 1567 O 157.309 3.26762 -1.41793 0
M  V30 1568 O 156.168 5.10807 -1.94263 0
M  V30 1569 H 153.262 0.78491 -0.260471 0
M  V30 1570 H 155.808 1.21307 -1.18671 0
M  V30 1571 H 154.58 3.01934 -2.489 0
M  V30 1572 H 154.203 3.851 -0.989124 0
M  V30 1573 N 155.201 0.870884 1.31352 0
M  V30 1574 C 156.612 0.534714 1.78879 0
M  V30 1575 C 156.963 -0.948423 1.71754 0
M  V30 1576 O 156.088 -1.74055 1.28584 0
M  V30 1577 C 156.683 0.963839 3.24801 0
M  V30 1578 C 155.242 0.679311 3.70219 0
M  V30 1579 C 154.389 1.15465 2.52117 0
M  V30 1580 H 157.34 1.05651 1.18421 0
M  V30 1581 H 157.361 0.286892 3.79417 0
M  V30 1582 H 156.873 2.04332 3.29955 0
M  V30 1583 H 154.974 -0.388769 3.70566 0
M  V30 1584 H 155.087 1.25698 4.62317 0
M  V30 1585 H 153.451 0.574383 2.48139 0
M  V30 1586 H 154.234 2.24157 2.60016 0
M  V30 1587 N 156.679 -1.44442 0.630414 0
M  V30 1588 C 158.095 -1.56832 0.295973 0
M  V30 1589 C 158.295 -1.61806 -1.20088 0
M  V30 1590 O 157.351 -1.5607 -1.9849 0
M  V30 1591 C 158.664 -2.84031 0.987264 0
M  V30 1592 C 160.212 -2.97742 0.96534 0
M  V30 1593 C 160.687 -4.27743 1.63708 0
M  V30 1594 N 162.178 -4.34555 1.60364 0
M  V30 1595 C 162.913 -5.33862 2.09234 0
M  V30 1596 N 162.409 -6.39578 2.66292 0
M  V30 1597 N 164.202 -5.25366 1.99867 0
M  V30 1598 H 156.353 -1.39457 1.60205 0
M  V30 1599 H 158.616 -0.668237 0.672431 0
M  V30 1600 H 158.322 -2.86338 2.04215 0
M  V30 1601 H 158.196 -3.73534 0.524588 0
M  V30 1602 H 160.583 -2.94989 -0.0810639 0
M  V30 1603 H 160.664 -2.09589 1.4665 0
M  V30 1604 H 160.308 -4.31255 2.68293 0
M  V30 1605 H 160.238 -5.14752 1.11076 0
M  V30 1606 H 162.729 -3.58772 1.18705 0
M  V30 1607 H 163.042 -7.11637 3.01317 0
M  V30 1608 H 161.387 -6.40265 2.70343 0
M  V30 1609 H 164.578 -4.41688 1.55013 0
M  V30 1610 H 164.751 -6.02606 2.38265 0
M  V30 1611 N 158.157 -0.370918 -1.53173 0
M  V30 1612 C 159.087 0.464847 -2.28826 0
M  V30 1613 C 160.068 1.07936 -1.31468 0
M  V30 1614 O 161.253 1.0956 -1.60344 0
M  V30 1615 C 158.383 1.60196 -3.08147 0
M  V30 1616 C 157.337 1.11443 -4.13237 0
M  V30 1617 C 156.663 2.3422 -4.80672 0
M  V30 1618 C 157.963 0.195384 -5.21934 0
M  V30 1619 H 159.657 -0.166329 -2.98938 0
M  V30 1620 H 157.203 -0.0814359 -1.4377 0
M  V30 1621 H 159.156 2.19332 -3.59822 0
M  V30 1622 H 157.88 2.26045 -2.35735 0
M  V30 1623 H 156.539 0.545727 -3.62515 0
M  V30 1624 H 156.187 2.98537 -4.04827 0
M  V30 1625 H 155.887 2.02269 -5.51689 0
M  V30 1626 H 157.411 2.94032 -5.35143 0
M  V30 1627 H 158.825 0.694375 -5.69079 0
M  V30 1628 H 157.222 -0.0335027 -6.00091 0
M  V30 1629 H 158.292 -0.760961 -4.78892 0
M  V30 1630 N 159.635 1.57281 -0.100228 0
M  V30 1631 C 161.051 1.57527 0.256416 0
M  V30 1632 C 161.251 1.11173 1.68056 0
M  V30 1633 O 160.307 0.79053 2.39806 0
M  V30 1634 C 161.62 3.00673 0.0401747 0
M  V30 1635 C 163.168 3.12815 0.107528 0
M  V30 1636 C 163.643 4.57929 -0.0807834 0
M  V30 1637 N 165.134 4.63193 -0.0261207 0
M  V30 1638 C 165.869 5.73212 -0.146999 0
M  V30 1639 N 165.365 6.92047 -0.322999 0
M  V30 1640 N 167.158 5.62031 -0.0879044 0
M  V30 1641 H 159.309 1.85718 -1.03065 0
M  V30 1642 H 161.572 0.857446 -0.404339 0
M  V30 1643 H 161.278 3.38804 -0.943649 0
M  V30 1644 H 161.152 3.69042 0.780262 0
M  V30 1645 H 163.539 2.74554 1.08186 0
M  V30 1646 H 163.62 2.47028 -0.664134 0
M  V30 1647 H 163.264 4.96886 -1.05201 0
M  V30 1648 H 163.194 5.21783 0.710635 0
M  V30 1649 H 165.685 3.77748 0.107161 0
M  V30 1650 H 165.998 7.7173 -0.406608 0
M  V30 1651 H 164.343 6.94074 -0.358733 0
M  V30 1652 H 167.534 4.68075 0.048498 0
M  V30 1653 H 167.707 6.47734 -0.185557 0
M  V30 1654 N 161.113 -0.173488 1.56642 0
M  V30 1655 C 162.39 -0.917617 1.7274 0
M  V30 1656 C 162.77 -2.00484 0.661027 0
M  V30 1657 O 162.118 -2.26184 -0.32453 0
M  V30 1658 C 162.328 -1.48433 3.15862 0
M  V30 1659 C 163.676 -1.95809 3.76754 0
M  V30 1660 O 164.7 -1.58231 3.19126 0
M  V30 1661 O 163.559 -2.65024 4.77938 0
M  V30 1662 H 160.653 -0.431772 0.705338 0
M  V30 1663 H 163.199 -0.161487 1.6893 0
M  V30 1664 H 161.971 -0.701715 3.84957 0
M  V30 1665 H 161.594 -2.30471 3.23989 0
M  V30 1666 N 162.591 -1.51276 -0.441967 0
M  V30 1667 C 163.831 -1.65372 -1.20132 0
M  V30 1668 C 164.195 -0.359871 -1.88597 0
M  V30 1669 O 165.396 -0.376551 -2.66149 0
M  V30 1670 C 163.667 -2.8207 -2.1948 0
M  V30 1671 S 165.226 -3.16467 -3.03964 0
M  V30 1672 H 162.044 -0.582669 -0.407453 0
M  V30 1673 H 164.646 -1.89166 -0.493609 0
M  V30 1674 H 163.35 -3.74523 -1.67812 0
M  V30 1675 H 162.881 -2.6045 -2.94838 0
M  V30 1676 H 164.896 -2.62543 -4.21053 0
M  V30 1677 N 164.069 0.697108 -1.41344 0
M  V30 1678 C 165.002 1.82134 -1.37486 0
M  V30 1679 C 165.98 1.60784 -0.242351 0
M  V30 1680 O 167.164 1.83553 -0.429012 0
M  V30 1681 C 164.291 3.18788 -1.14421 0
M  V30 1682 C 163.337 3.58932 -2.3037 0
M  V30 1683 S 164.17 3.63916 -3.92843 0
M  V30 1684 C 165.326 5.03298 -3.72078 0
M  V30 1685 H 165.559 1.85129 -2.32625 0
M  V30 1686 H 163.092 0.865671 -1.2785 0
M  V30 1687 H 165.05 3.97677 -1.018 0
M  V30 1688 H 163.711 3.13404 -0.20905 0
M  V30 1689 H 162.904 4.58202 -2.09922 0
M  V30 1690 H 162.506 2.87347 -2.39391 0
M  V30 1691 H 164.798 5.90753 -3.31688 0
M  V30 1692 H 165.741 5.28788 -4.70945 0
M  V30 1693 H 166.149 4.74764 -3.05384 0
M  V30 1694 N 165.547 1.27147 0.931209 0
M  V30 1695 C 166.772 1.16191 1.71797 0
M  V30 1696 C 167.197 -0.278004 1.86034 0
M  V30 1697 O 166.555 -1.20137 1.35782 0
M  V30 1698 C 166.603 1.84673 3.09723 0
M  V30 1699 O 165.707 1.14231 3.96264 0
M  V30 1700 H 165.048 0.404303 0.526721 0
M  V30 1701 H 167.578 1.68152 1.1656 0
M  V30 1702 H 167.588 1.91893 3.60057 0
M  V30 1703 H 166.263 2.89421 2.98677 0
M  V30 1704 H 164.84 1.15056 3.54706 0
M  V30 1705 N 167.025 -1.13721 1.09112 0
M  V30 1706 C 167.935 -2.22638 0.73957 0
M  V30 1707 C 168.951 -1.72091 -0.257068 0
M  V30 1708 O 170.127 -2.01155 -0.0992154 0
M  V30 1709 C 167.192 -3.46322 0.16191 0
M  V30 1710 C 166.253 -4.11775 1.21408 0
M  V30 1711 C 165.486 -5.29555 0.663891 0
M  V30 1712 O 165.709 -5.68077 -0.514274 0
M  V30 1713 O 164.643 -5.84973 1.41738 0
M  V30 1714 H 168.469 -2.55074 1.64836 0
M  V30 1715 H 166.054 -1.21791 0.865289 0
M  V30 1716 H 167.936 -4.21107 -0.157073 0
M  V30 1717 H 166.611 -3.15593 -0.719932 0
M  V30 1718 H 165.518 -3.3883 1.58571 0
M  V30 1719 H 166.851 -4.46627 2.06845 0
M  V30 1720 N 168.503 -0.877838 -1.30888 0
M  V30 1721 C 169.436 -0.283995 -2.26426 0
M  V30 1722 C 170.414 0.591361 -1.51465 0
M  V30 1723 O 171.598 0.54304 -1.80509 0
M  V30 1724 C 168.725 0.597129 -3.33395 0
M  V30 1725 C 167.771 -0.207937 -4.25993 0
M  V30 1726 S 168.604 -1.59158 -5.11301 0
M  V30 1727 C 169.76 -0.716791 -6.21782 0
M  V30 1728 H 169.993 -1.09383 -2.76446 0
M  V30 1729 H 167.526 -0.676828 -1.38775 0
M  V30 1730 H 169.484 1.09978 -3.95493 0
M  V30 1731 H 168.145 1.38099 -2.82113 0
M  V30 1732 H 167.338 0.464163 -5.01858 0
M  V30 1733 H 166.94 -0.642963 -3.68432 0
M  V30 1734 H 169.232 0.0692833 -6.77465 0
M  V30 1735 H 170.175 -1.44682 -6.93161 0
M  V30 1736 H 170.583 -0.280855 -5.63801 0
M  V30 1737 N 169.982 1.44106 -0.638065 0
M  V30 1738 C 170.932 2.27843 0.0847285 0
M  V30 1739 C 171.916 1.39055 0.809471 0
M  V30 1740 O 173.108 1.62808 0.694435 0
M  V30 1741 C 170.237 3.26497 1.06089 0
M  V30 1742 C 169.323 4.22772 0.33541 0
M  V30 1743 N 169.714 5.01737 -0.639787 0
M  V30 1744 C 168.012 4.42227 0.578921 0
M  V30 1745 C 168.713 5.71792 -1.06904 0
M  V30 1746 N 167.689 5.42079 -0.406395 0
M  V30 1747 H 171.491 2.86305 -0.663814 0
M  V30 1748 H 169.005 1.55627 -0.464122 0
M  V30 1749 H 171.002 3.8525 1.59337 0
M  V30 1750 H 169.662 2.69595 1.80966 0
M  V30 1751 H 170.673 5.07799 -1.01789 0
M  V30 1752 H 167.35 3.96415 1.31003 0
M  V30 1753 H 168.74 6.45205 -1.8751 0
M  V30 1754 N 171.46 0.379036 1.52974 0
M  V30 1755 C 172.876 0.0285448 1.59574 0
M  V30 1756 C 173.076 -1.45542 1.39355 0
M  V30 1757 O 172.132 -2.2187 1.20541 0
M  V30 1758 C 173.445 0.496535 2.96572 0
M  V30 1759 C 174.993 0.451909 3.0972 0
M  V30 1760 C 175.468 0.895924 4.49152 0
M  V30 1761 N 176.959 0.851522 4.55306 0
M  V30 1762 C 177.694 1.16661 5.61407 0
M  V30 1763 N 177.19 1.55166 6.752 0
M  V30 1764 N 178.983 1.08853 5.51459 0
M  V30 1765 H 171.134 1.34525 1.64367 0
M  V30 1766 H 173.397 0.550733 0.771619 0
M  V30 1767 H 173.103 1.53258 3.16552 0
M  V30 1768 H 172.977 -0.109802 3.7704 0
M  V30 1769 H 175.364 -0.575029 2.89443 0
M  V30 1770 H 175.445 1.09392 2.3123 0
M  V30 1771 H 175.089 1.92104 4.70168 0
M  V30 1772 H 175.019 0.23103 5.26093 0
M  V30 1773 H 177.51 0.568038 3.73606 0
M  V30 1774 H 177.823 1.776 7.52116 0
M  V30 1775 H 176.168 1.59044 6.76557 0
M  V30 1776 H 179.359 0.786803 4.6144 0
M  V30 1777 H 179.532 1.33742 6.34048 0
M  V30 1778 N 172.938 -1.57226 0.108567 0
M  V30 1779 C 174.184 -1.95121 -0.552761 0
M  V30 1780 C 174.517 -0.991345 -1.66991 0
M  V30 1781 O 173.792 -0.0267211 -1.94482 0
M  V30 1782 C 174.075 -3.43039 -1.09528 0
M  V30 1783 C 173.928 -4.49797 0.0177332 0
M  V30 1784 C 175.247 -3.92567 -1.98945 0
M  V30 1785 H 172.366 -0.709496 -0.199461 0
M  V30 1786 H 175.008 -1.89126 0.182011 0
M  V30 1787 H 173.158 -3.48279 -1.72146 0
M  V30 1788 H 174.83 -4.56661 0.652584 0
M  V30 1789 H 173.073 -4.284 0.682309 0
M  V30 1790 H 173.744 -5.50528 -0.402919 0
M  V30 1791 H 176.22 -3.89565 -1.46214 0
M  V30 1792 H 175.096 -4.96605 -2.33827 0
M  V30 1793 H 175.357 -3.32648 -2.91201 0
M  V30 1794 N 174.416 0.165178 -1.56732 0
M  V30 1795 C 175.662 0.882112 -1.82611 0
M  V30 1796 C 175.995 1.81628 -0.687378 0
M  V30 1797 O 175.27 1.92009 0.310267 0
M  V30 1798 C 175.553 1.67245 -3.18906 0
M  V30 1799 C 175.406 0.760987 -4.43316 0
M  V30 1800 C 176.725 2.63884 -3.52212 0
M  V30 1801 H 173.844 0.319242 -0.664269 0
M  V30 1802 H 176.486 0.148052 -1.89422 0
M  V30 1803 H 174.636 2.29824 -3.1323 0
M  V30 1804 H 176.308 0.147596 -4.61064 0
M  V30 1805 H 174.551 0.0694102 -4.33744 0
M  V30 1806 H 175.222 1.34962 -5.35247 0
M  V30 1807 H 177.698 2.11429 -3.58381 0
M  V30 1808 H 176.574 3.16245 -4.48643 0
M  V30 1809 H 176.835 3.44377 -2.77231 0
M  V30 1810 N 175.894 1.51508 0.433938 0
M  V30 1811 C 176.826 1.69266 1.54537 0
M  V30 1812 C 177.839 0.573276 1.52373 0
M  V30 1813 O 179.028 0.847698 1.57087 0
M  V30 1814 C 176.128 1.69524 2.93453 0
M  V30 1815 C 175.301 2.98101 3.20085 0
M  V30 1816 C 174.36 2.90502 4.38742 0
M  V30 1817 O 173.386 3.64442 4.3723 0
M  V30 1818 N 174.588 2.06586 5.42496 0
M  V30 1819 H 177.353 2.65145 1.39708 0
M  V30 1820 H 174.914 1.49437 0.622922 0
M  V30 1821 H 176.906 1.62004 3.70859 0
M  V30 1822 H 175.476 0.812245 3.01863 0
M  V30 1823 H 174.696 3.19464 2.30947 0
M  V30 1824 H 175.984 3.83207 3.34708 0
M  V30 1825 H 175.382 1.45896 5.46563 0
M  V30 1826 H 173.939 2.04943 6.18742 0
M  V30 1827 N 177.372 -0.689602 1.41712 0
M  V30 1828 C 178.282 -1.83314 1.46401 0
M  V30 1829 C 179.298 -1.7036 0.35405 0
M  V30 1830 O 180.474 -1.92171 0.602692 0
M  V30 1831 C 177.539 -3.19344 1.34982 0
M  V30 1832 C 176.6 -3.44363 2.56344 0
M  V30 1833 C 175.833 -4.73904 2.45461 0
M  V30 1834 O 176.056 -5.508 1.48241 0
M  V30 1835 O 174.99 -4.99839 3.35328 0
M  V30 1836 H 178.816 -1.82314 2.42889 0
M  V30 1837 H 176.401 -0.843438 1.23315 0
M  V30 1838 H 178.283 -4.00547 1.3092 0
M  V30 1839 H 176.958 -3.21014 0.41612 0
M  V30 1840 H 175.865 -2.63067 2.65982 0
M  V30 1841 H 177.198 -3.47512 3.48563 0
M  V30 1842 N 178.85 -1.27639 -0.924453 0
M  V30 1843 C 180.075 -1.17101 -1.71179 0
M  V30 1844 C 180.5 0.268134 -1.86179 0
M  V30 1845 O 179.858 1.19415 -1.36418 0
M  V30 1846 C 179.906 -1.86313 -3.08739 0
M  V30 1847 O 179.01 -1.16331 -3.95652 0
M  V30 1848 H 178.351 -0.407091 -0.524569 0
M  V30 1849 H 180.881 -1.68767 -1.15666 0
M  V30 1850 H 180.891 -1.938 -3.59034 0
M  V30 1851 H 179.566 -2.91001 -2.97138 0
M  V30 1852 H 178.143 -1.16935 -3.54091 0
M  V30 1853 N 180.328 1.1314 -1.09713 0
M  V30 1854 C 181.553 1.88862 -0.857081 0
M  V30 1855 C 181.978 1.78729 0.586304 0
M  V30 1856 O 181.336 1.13692 1.41222 0
M  V30 1857 C 181.384 3.36325 -1.30069 0
M  V30 1858 O 180.488 4.09815 -0.461007 0
M  V30 1859 H 179.829 0.587108 -0.310162 0
M  V30 1860 H 182.359 1.43129 -1.46203 0
M  V30 1861 H 182.369 3.87157 -1.28738 0
M  V30 1862 H 181.044 3.43017 -2.35185 0
M  V30 1863 H 179.621 3.68986 -0.538888 0
M  V30 1864 N 181.806 0.884767 1.30421 0
M  V30 1865 C 183.031 0.517288 2.00845 0
M  V30 1866 C 183.456 -0.886779 1.65885 0
M  V30 1867 O 182.814 -1.58768 0.875354 0
M  V30 1868 C 182.862 0.698994 3.5376 0
M  V30 1869 O 181.966 -0.255208 4.1161 0
M  V30 1870 H 181.307 0.203872 0.631927 0
M  V30 1871 H 183.837 1.19225 1.66272 0
M  V30 1872 H 183.847 0.597912 4.03595 0
M  V30 1873 H 182.522 1.72271 3.78544 0
M  V30 1874 H 181.099 -0.10784 3.72744 0
M  V30 1875 N 183.284 -1.43765 0.645699 0
M  V30 1876 C 184.532 -2.01499 0.155731 0
M  V30 1877 C 184.853 -1.51151 -1.232 0
M  V30 1878 O 184.123 -0.721044 -1.82148 0
M  V30 1879 H 182.703 -0.745003 0.0545817 0
M  V30 1880 H 185.365 -1.76075 0.835677 0
M  V30 1881 H 184.461 -3.1181 0.134577 0
M  V30 1882 N 184.763 -0.387143 -1.52771 0
M  V30 1883 C 186.011 0.195349 -2.01154 0
M  V30 1884 C 186.332 1.475 -1.27549 0
M  V30 1885 O 185.602 1.91878 -0.394924 0
M  V30 1886 H 184.182 0.075178 -0.743207 0
M  V30 1887 H 186.844 -0.518337 -1.87881 0
M  V30 1888 H 185.94 0.407096 -3.09434 0
M  V30 1889 N 186.241 1.57166 -0.116904 0
M  V30 1890 C 187.171 2.18222 0.830759 0
M  V30 1891 C 188.152 1.12167 1.27877 0
M  V30 1892 O 189.337 1.40394 1.34176 0
M  V30 1893 C 186.467 2.77996 2.08172 0
M  V30 1894 C 185.421 3.89614 1.77157 0
M  V30 1895 C 184.747 4.36187 3.09265 0
M  V30 1896 C 186.047 5.1181 1.04151 0
M  V30 1897 H 187.741 2.97664 0.321992 0
M  V30 1898 H 185.287 1.4318 0.153434 0
M  V30 1899 H 187.24 3.19366 2.74924 0
M  V30 1900 H 185.964 1.9584 2.6137 0
M  V30 1901 H 184.623 3.48816 1.12796 0
M  V30 1902 H 184.271 3.50893 3.60393 0
M  V30 1903 H 183.971 5.11455 2.89288 0
M  V30 1904 H 185.495 4.80207 3.77139 0
M  V30 1905 H 186.909 5.50214 1.61052 0
M  V30 1906 H 185.306 5.92648 0.942762 0
M  V30 1907 H 186.376 4.84892 0.0279022 0
M  V30 1908 N 187.719 -0.156864 1.56817 0
M  V30 1909 C 188.649 -1.19589 2.00551 0
M  V30 1910 C 189.63 -1.4536 0.883426 0
M  V30 1911 O 190.815 -1.56449 1.15054 0
M  V30 1912 C 187.945 -2.53143 2.37773 0
M  V30 1913 C 186.899 -2.41913 3.53075 0
M  V30 1914 C 186.225 -3.80088 3.76081 0
M  V30 1915 C 187.525 -1.91157 4.86062 0
M  V30 1916 H 189.219 -0.832293 2.87599 0
M  V30 1917 H 186.765 -0.398918 1.38364 0
M  V30 1918 H 188.718 -3.26047 2.66967 0
M  V30 1919 H 187.442 -2.91319 1.4765 0
M  V30 1920 H 186.101 -1.71462 3.24031 0
M  V30 1921 H 185.749 -4.15683 2.83225 0
M  V30 1922 H 185.449 -3.73439 4.53671 0
M  V30 1923 H 186.973 -4.54556 4.0769 0
M  V30 1924 H 188.387 -2.53846 5.14038 0
M  V30 1925 H 186.784 -1.95422 5.67389 0
M  V30 1926 H 187.854 -0.866673 4.77092 0
M  V30 1927 N 189.197 -1.51736 -0.425897 0
M  V30 1928 C 190.474 -1.55519 -1.1863 0
M  V30 1929 C 190.854 -0.326219 -2.08564 0
M  V30 1930 O 190.202 0.688012 -2.17896 0
M  V30 1931 C 190.412 -2.87521 -1.9782 0
M  V30 1932 C 191.76 -3.39899 -2.54468 0
M  V30 1933 O 192.784 -2.89148 -2.08019 0
M  V30 1934 O 191.643 -4.2848 -3.39215 0
M  V30 1935 H 188.737 -0.625739 -0.540721 0
M  V30 1936 H 191.283 -1.64055 -0.434038 0
M  V30 1937 H 190.055 -3.68422 -1.31836 0
M  V30 1938 H 189.678 -2.822 -2.80088 0
M  V30 1939 N 190.675 0.682077 -1.42076 0
M  V30 1940 C 192.091 0.994324 -1.24841 0
M  V30 1941 C 192.291 2.0096 -0.147389 0
M  V30 1942 O 191.347 2.47822 0.483782 0
M  V30 1943 C 192.66 1.50607 -2.60265 0
M  V30 1944 C 194.208 1.62421 -2.6756 0
M  V30 1945 C 194.683 2.16994 -4.03333 0
M  V30 1946 N 196.174 2.24337 -4.0525 0
M  V30 1947 C 196.909 2.67621 -5.07116 0
M  V30 1948 N 196.405 3.1041 -6.19368 0
M  V30 1949 N 198.198 2.67305 -4.94474 0
M  V30 1950 H 190.349 0.00973908 -2.12398 0
M  V30 1951 H 192.612 0.0668593 -0.945639 0
M  V30 1952 H 192.318 0.834583 -3.41654 0
M  V30 1953 H 192.192 2.48602 -2.83684 0
M  V30 1954 H 194.579 2.28678 -1.86521 0
M  V30 1955 H 194.66 0.629352 -2.47937 0
M  V30 1956 H 194.304 1.51349 -4.84826 0
M  V30 1957 H 194.234 3.17258 -4.20304 0
M  V30 1958 H 196.725 1.94158 -3.24209 0
M  V30 1959 H 197.038 3.42103 -6.92954 0
M  V30 1960 H 195.383 3.08286 -6.22884 0
M  V30 1961 H 198.574 2.33233 -4.05857 0
M  V30 1962 H 198.747 3.00718 -5.73997 0
M  V30 1963 N 192.153 1.28127 0.917671 0
M  V30 1964 C 193.43 1.05761 1.64542 0
M  V30 1965 C 193.81 -0.404344 2.07191 0
M  V30 1966 O 193.158 -1.38963 1.81388 0
M  V30 1967 C 193.368 2.02857 2.83989 0
M  V30 1968 C 194.716 2.32786 3.551 0
M  V30 1969 O 195.74 2.0091 2.94132 0
M  V30 1970 O 194.599 2.87169 4.64969 0
M  V30 1971 H 191.693 0.403916 0.721652 0
M  V30 1972 H 194.239 1.39431 0.967322 0
M  V30 1973 H 193.011 3.01407 2.49538 0
M  V30 1974 H 192.634 1.69809 3.59514 0
M  V30 1975 N 193.631 -1.12557 1.10312 0
M  V30 1976 C 194.561 -2.20341 0.772798 0
M  V30 1977 C 195.542 -1.68198 -0.25365 0
M  V30 1978 O 196.727 -1.93831 -0.119699 0
M  V30 1979 C 193.857 -3.46709 0.202443 0
M  V30 1980 C 192.811 -4.11996 1.15943 0
M  V30 1981 C 192.137 -5.328 0.450345 0
M  V30 1982 C 193.437 -4.5828 2.50552 0
M  V30 1983 H 195.131 -2.48229 1.674 0
M  V30 1984 H 192.677 -1.19308 0.806326 0
M  V30 1985 H 194.63 -4.2138 -0.0407752 0
M  V30 1986 H 193.354 -3.18245 -0.734001 0
M  V30 1987 H 192.013 -3.39305 1.38808 0
M  V30 1988 H 191.661 -5.00602 -0.490531 0
M  V30 1989 H 191.361 -5.7743 1.08851 0
M  V30 1990 H 192.885 -6.10219 0.215642 0
M  V30 1991 H 194.299 -5.2433 2.31843 0
M  V30 1992 H 192.696 -5.13683 3.10242 0
M  V30 1993 H 193.766 -3.72329 3.10643 0
M  V30 1994 N 195.109 -0.891671 -1.2995 0
M  V30 1995 C 196.356 -0.513501 -1.95881 0
M  V30 1996 C 196.684 0.938655 -1.70351 0
M  V30 1997 O 195.939 1.67936 -1.00478 0
M  V30 1998 C 196.238 -0.742868 -3.49594 0
M  V30 1999 C 195.904 -2.17114 -3.95186 0
M  V30 2000 C 194.566 -2.56169 -4.07346 0
M  V30 2001 C 196.918 -3.10162 -4.18866 0
M  V30 2002 C 194.246 -3.87469 -4.4055 0
M  V30 2003 C 196.598 -4.41001 -4.53542 0
M  V30 2004 C 195.262 -4.79941 -4.63911 0
M  V30 2005 H 194.532 -0.187903 -0.71678 0
M  V30 2006 H 197.179 -1.1288 -1.54694 0
M  V30 2007 H 195.484 -0.044586 -3.91775 0
M  V30 2008 H 197.181 -0.429767 -3.9869 0
M  V30 2009 H 193.771 -1.85801 -3.86233 0
M  V30 2010 H 197.955 -2.81206 -4.08946 0
M  V30 2011 H 193.211 -4.17371 -4.46779 0
M  V30 2012 H 197.385 -5.13133 -4.70815 0
M  V30 2013 H 195.012 -5.81719 -4.89395 0
M  V30 2014 N 196.587 1.43421 -0.653314 0
M  V30 2015 C 198.003 1.56341 -0.320886 0
M  V30 2016 C 198.203 1.63696 1.17499 0
M  V30 2017 O 197.259 1.59208 1.95982 0
M  V30 2018 C 198.572 2.82424 -1.03233 0
M  V30 2019 C 200.12 2.96168 -1.01259 0
M  V30 2020 C 200.595 4.25084 -1.70492 0
M  V30 2021 N 202.086 4.31948 -1.67257 0
M  V30 2022 C 202.821 5.30466 -2.17701 0
M  V30 2023 N 202.317 6.35261 -2.76434 0
M  V30 2024 N 204.11 5.2212 -2.082 0
M  V30 2025 H 196.261 1.3689 -1.62403 0
M  V30 2026 H 198.524 0.657455 -0.682977 0
M  V30 2027 H 198.23 2.83053 -2.08744 0
M  V30 2028 H 198.104 3.72653 -0.583948 0
M  V30 2029 H 200.491 2.9508 0.0341235 0
M  V30 2030 H 200.572 2.07229 -1.49966 0
M  V30 2031 H 200.216 4.26932 -2.7512 0
M  V30 2032 H 200.146 5.1292 -1.19251 0
M  V30 2033 H 202.637 3.56838 -1.24398 0
M  V30 2034 H 202.95 7.06754 -3.12601 0
M  V30 2035 H 201.295 6.35884 -2.80495 0
M  V30 2036 H 204.486 4.39166 -1.62021 0
M  V30 2037 H 204.659 5.98739 -2.47822 0
M  V30 2038 N 198.065 0.39524 1.52563 0
M  V30 2039 C 199.012 -0.437036 2.26624 0
M  V30 2040 C 199.982 -1.05281 1.28472 0
M  V30 2041 O 201.167 -1.07971 1.57311 0
M  V30 2042 C 198.307 -1.55524 3.08069 0
M  V30 2043 C 197.42 -0.961745 4.21158 0
M  V30 2044 C 196.555 -2.05149 4.89987 0
M  V30 2045 C 195.594 -1.4342 5.95061 0
M  V30 2046 N 194.731 -2.46351 6.57462 0
M  V30 2047 H 199.571 0.200976 2.97322 0
M  V30 2048 H 197.108 0.110944 1.46681 0
M  V30 2049 H 199.066 -2.21437 3.53584 0
M  V30 2050 H 197.696 -2.16348 2.3957 0
M  V30 2051 H 196.748 -0.192048 3.79915 0
M  V30 2052 H 198.06 -0.470701 4.96574 0
M  V30 2053 H 197.214 -2.78819 5.38837 0
M  V30 2054 H 195.953 -2.57615 4.14109 0
M  V30 2055 H 194.958 -0.682774 5.45544 0
M  V30 2056 H 196.183 -0.917416 6.72875 0
M  V30 2057 H 194.129 -2.97975 5.8442 0
M  V30 2058 H 194.046 -2.02019 7.28508 0
M  V30 2059 H 195.314 -3.19633 7.10954 0
M  V30 2060 N 199.544 -1.57102 0.125237 0
M  V30 2061 C 200.784 -1.97294 -0.534259 0
M  V30 2062 C 201.148 -1.0074 -1.63449 0
M  V30 2063 O 202.349 -1.29893 -2.35332 0
M  V30 2064 C 200.62 -3.41705 -1.04748 0
M  V30 2065 S 202.179 -4.03913 -1.71463 0
M  V30 2066 H 198.997 -0.689517 -0.173458 0
M  V30 2067 H 201.599 -1.94349 0.211797 0
M  V30 2068 H 200.303 -4.09723 -0.235649 0
M  V30 2069 H 199.834 -3.48315 -1.82867 0
M  V30 2070 H 201.849 -3.95182 -3.00077 0
M  V30 2071 N 201.022 0.148545 -1.56898 0
M  V30 2072 C 202.268 0.862694 -1.83536 0
M  V30 2073 C 202.601 1.80889 -0.706604 0
M  V30 2074 O 201.876 1.92328 0.289885 0
M  V30 2075 C 202.159 1.63853 -3.20662 0
M  V30 2076 C 202.012 0.713925 -4.44098 0
M  V30 2077 C 203.331 2.60133 -3.54991 0
M  V30 2078 H 200.45 0.312179 -0.667618 0
M  V30 2079 H 203.092 0.127953 -1.89569 0
M  V30 2080 H 201.242 2.26489 -3.1565 0
M  V30 2081 H 202.914 0.098686 -4.61194 0
M  V30 2082 H 201.157 0.0234019 -4.33794 0
M  V30 2083 H 201.828 1.29278 -5.36648 0
M  V30 2084 H 204.304 2.07616 -3.60603 0
M  V30 2085 H 203.18 3.11468 -4.51972 0
M  V30 2086 H 203.441 3.41417 -2.80868 0
M  V30 2087 N 202.5 1.5196 0.417844 0
M  V30 2088 C 203.725 1.69717 1.1921 0
M  V30 2089 C 204.15 0.402148 1.83751 0
M  V30 2090 O 203.508 -0.639593 1.69643 0
M  V30 2091 C 203.556 2.82794 2.2374 0
M  V30 2092 O 202.66 2.47756 3.29683 0
M  V30 2093 H 202.001 0.565263 0.348387 0
M  V30 2094 H 204.531 1.98621 0.490985 0
M  V30 2095 H 204.541 3.07452 2.68212 0
M  V30 2096 H 203.216 3.76756 1.76146 0
M  V30 2097 H 201.793 2.33739 2.90552 0
M  V30 2098 N 203.978 -0.674533 1.42435 0
M  V30 2099 C 205.203 -1.46784 1.46524 0
M  V30 2100 C 205.628 -1.87938 0.078066 0
M  V30 2101 O 204.986 -1.56014 -0.92354 0
M  V30 2102 C 205.034 -2.69307 2.39805 0
M  V30 2103 O 204.138 -3.67587 1.86959 0
M  V30 2104 H 203.479 -0.440959 0.496439 0
M  V30 2105 H 206.009 -0.827326 1.87127 0
M  V30 2106 H 206.019 -3.17374 2.56393 0
M  V30 2107 H 204.694 -2.38692 3.40586 0
M  V30 2108 H 203.271 -3.2662 1.79927 0
M  V30 2109 N 205.456 -1.28612 -0.910864 0
M  V30 2110 C 206.404 -1.1265 -2.03501 0
M  V30 2111 C 207.398 -0.0450054 -1.6934 0
M  V30 2112 O 208.604 -0.203988 -1.7884 0
M  V30 2113 H 204.979 -0.347639 -0.666822 0
M  V30 2114 H 206.95 -2.07849 -2.14106 0
M  V30 2115 C 205.699 -0.808143 -3.38178 0
M  V30 2116 H 205.022 -1.63231 -3.6496 0
M  V30 2117 H 206.462 -0.736426 -4.17556 0
M  V30 2118 C 204.921 0.488226 -3.33344 0
M  V30 2119 O 205.451 1.51766 -3.71927 0
M  V30 2120 N 203.657 0.490009 -2.86439 0
M  V30 2121 H 203.204 -0.348161 -2.55236 0
M  V30 2122 H 203.162 1.35741 -2.83587 0
M  V30 2123 N 206.934 1.1197 -1.10907 0
M  V30 2124 C 208.183 1.82947 -0.849302 0
M  V30 2125 C 208.496 1.85275 0.627112 0
M  V30 2126 O 209.702 2.52296 1.00295 0
M  V30 2127 C 208.158 3.28529 -1.46959 0
M  V30 2128 C 207.766 3.34546 -2.97965 0
M  V30 2129 C 209.51 4.04443 -1.28942 0
M  V30 2130 C 207.417 4.74491 -3.53004 0
M  V30 2131 H 206.347 0.685477 -0.314065 0
M  V30 2132 H 208.998 1.2604 -1.33365 0
M  V30 2133 H 207.38 3.85333 -0.912917 0
M  V30 2134 H 208.554 2.87654 -3.59989 0
M  V30 2135 H 206.869 2.72108 -3.15192 0
M  V30 2136 H 209.466 5.07787 -1.67502 0
M  V30 2137 H 209.809 4.15656 -0.231456 0
M  V30 2138 H 210.342 3.5401 -1.81443 0
M  V30 2139 H 207.081 4.68474 -4.58489 0
M  V30 2140 H 206.601 5.21816 -2.9575 0
M  V30 2141 H 208.28 5.4344 -3.51115 0
M  V30 2142 N 208.412 0.89855 1.29475 0
M  V30 2143 C 209.658 0.524658 1.95896 0
M  V30 2144 C 209.991 -0.926468 1.70676 0
M  V30 2145 O 209.266 -1.65665 1.01908 0
M  V30 2146 C 209.549 0.81633 3.50725 0
M  V30 2147 C 209.402 2.31907 3.85408 0
M  V30 2148 C 210.721 0.302038 4.39062 0
M  V30 2149 H 207.84 0.19209 0.711527 0
M  V30 2150 H 210.482 1.12502 1.53112 0
M  V30 2151 H 208.632 0.305369 3.87298 0
M  V30 2152 H 210.304 2.89949 3.58786 0
M  V30 2153 H 208.547 2.78027 3.32992 0
M  V30 2154 H 209.218 2.47373 4.93468 0
M  V30 2155 H 211.694 0.739551 4.09475 0
M  V30 2156 H 210.57 0.535331 5.46283 0
M  V30 2157 H 210.831 -0.797216 4.34853 0
M  V30 2158 N 209.89 -1.43072 0.660911 0
M  V30 2159 C 210.82 -2.33497 -0.0122829 0
M  V30 2160 C 211.801 -1.49903 -0.803925 0
M  V30 2161 O 212.986 -1.78546 -0.763864 0
M  V30 2162 C 210.116 -3.33363 -0.973994 0
M  V30 2163 C 209.07 -4.27003 -0.291928 0
M  V30 2164 C 208.396 -5.16967 -1.36562 0
M  V30 2165 C 209.696 -5.15816 0.820462 0
M  V30 2166 H 211.39 -2.90038 0.742873 0
M  V30 2167 H 208.936 -1.39461 0.358688 0
M  V30 2168 H 210.889 -3.95524 -1.45392 0
M  V30 2169 H 209.613 -2.75095 -1.7604 0
M  V30 2170 H 208.272 -3.66217 0.167623 0
M  V30 2171 H 207.92 -4.55034 -2.14366 0
M  V30 2172 H 207.62 -5.80441 -0.914454 0
M  V30 2173 H 209.144 -5.82003 -1.84675 0
M  V30 2174 H 210.558 -5.71742 0.422366 0
M  V30 2175 H 208.955 -5.8805 1.19656 0
M  V30 2176 H 210.025 -4.55045 1.67518 0
M  V30 2177 N 211.368 -0.403325 -1.52352 0
M  V30 2178 C 212.298 0.416205 -2.29761 0
M  V30 2179 C 213.279 1.05123 -1.33728 0
M  V30 2180 O 214.464 1.06134 -1.62632 0
M  V30 2181 C 211.594 1.53624 -3.11475 0
M  V30 2182 C 210.548 1.02653 -4.15507 0
M  V30 2183 C 209.874 2.23971 -4.85532 0
M  V30 2184 C 211.174 0.08463 -5.22231 0
M  V30 2185 H 212.868 -0.229701 -2.98518 0
M  V30 2186 H 210.414 -0.111913 -1.43564 0
M  V30 2187 H 212.367 2.1165 -3.64393 0
M  V30 2188 H 211.091 2.20994 -2.40477 0
M  V30 2189 H 209.75 0.46871 -3.63591 0
M  V30 2190 H 209.398 2.89883 -4.11068 0
M  V30 2191 H 209.098 1.90521 -5.55856 0
M  V30 2192 H 210.622 2.82614 -5.41259 0
M  V30 2193 H 212.036 0.573509 -5.70424 0
M  V30 2194 H 210.433 -0.160783 -5.99885 0
M  V30 2195 H 211.503 -0.86237 -4.7717 0
M  V30 2196 N 212.846 1.57033 -0.133567 0
M  V30 2197 C 214.074 2.00044 0.528195 0
M  V30 2198 C 214.489 1.01349 1.59291 0
M  V30 2199 O 213.846 0.00848369 1.82498 0
M  V30 2200 C 213.897 3.43018 1.1411 0
M  V30 2201 O 213.618 4.37939 0.11892 0
M  V30 2202 C 215.119 4.01237 1.88477 0
M  V30 2203 H 212.339 0.656517 0.138661 0
M  V30 2204 H 214.883 2.03267 -0.224196 0
M  V30 2205 H 213.038 3.40688 1.84418 0
M  V30 2206 H 213.452 5.21436 0.56613 0
M  V30 2207 H 214.926 5.03314 2.26669 0
M  V30 2208 H 215.403 3.41193 2.76558 0
M  V30 2209 H 216.009 4.07156 1.22898 0
M  V30 2210 N 214.325 -0.140222 1.56975 0
M  V30 2211 C 215.257 -1.19818 1.95388 0
M  V30 2212 C 216.27 -1.38816 0.850525 0
M  V30 2213 O 217.459 -1.38267 1.12891 0
M  V30 2214 C 214.559 -2.56189 2.21857 0
M  V30 2215 C 213.732 -2.58077 3.5315 0
M  V30 2216 C 212.791 -3.76037 3.6808 0
M  V30 2217 O 211.817 -3.60598 4.40406 0
M  V30 2218 N 213.019 -4.93763 3.05251 0
M  V30 2219 H 215.784 -0.871609 2.86746 0
M  V30 2220 H 213.345 -0.32972 1.58507 0
M  V30 2221 H 215.337 -3.33623 2.2908 0
M  V30 2222 H 213.907 -2.81111 1.36731 0
M  V30 2223 H 213.127 -1.6651 3.57307 0
M  V30 2224 H 214.415 -2.56377 4.39486 0
M  V30 2225 H 213.813 -5.09209 2.46419 0
M  V30 2226 H 212.37 -5.68949 3.18026 0
M  V30 2227 N 215.803 -1.52179 -0.40978 0
M  V30 2228 C 216.766 -1.74853 -1.48186 0
M  V30 2229 C 217.766 -0.618417 -1.48433 0
M  V30 2230 O 218.956 -0.886286 -1.49969 0
M  V30 2231 C 216.088 -1.8303 -2.87598 0
M  V30 2232 H 217.281 -2.70559 -1.29374 0
M  V30 2233 H 214.834 -1.42586 -0.640233 0
M  V30 2234 H 215.569 -0.89236 -3.11781 0
M  V30 2235 H 215.354 -2.65187 -2.88822 0
M  V30 2236 H 216.844 -2.02316 -3.65319 0
M  V30 2237 N 217.281 0.66697 -1.42791 0
M  V30 2238 C 218.528 1.42699 -1.43678 0
M  V30 2239 C 218.856 1.94419 -0.0560425 0
M  V30 2240 O 218.111 1.7182 0.936831 0
M  V30 2241 C 218.41 2.6349 -2.4147 0
M  V30 2242 C 218.076 2.30267 -3.8767 0
M  V30 2243 C 216.738 2.20918 -4.27491 0
M  V30 2244 C 219.09 2.03435 -4.79858 0
M  V30 2245 C 216.418 1.82873 -5.57471 0
M  V30 2246 C 218.77 1.66892 -6.10188 0
M  V30 2247 C 217.434 1.56058 -6.49001 0
M  V30 2248 H 216.704 0.522171 -0.525755 0
M  V30 2249 H 219.351 0.759785 -1.75783 0
M  V30 2250 H 217.656 3.35279 -2.0272 0
M  V30 2251 H 219.353 3.21684 -2.39417 0
M  V30 2252 H 215.943 2.38449 -3.56146 0
M  V30 2253 H 220.127 2.09586 -4.49875 0
M  V30 2254 H 215.383 1.7306 -5.86396 0
M  V30 2255 H 219.557 1.45157 -6.81104 0
M  V30 2256 H 217.184 1.26348 -7.49627 0
M  V30 2257 N 218.759 1.29093 0.90403 0
M  V30 2258 C 220.175 1.07011 1.1841 0
M  V30 2259 C 220.375 -0.181358 2.00682 0
M  V30 2260 O 219.431 -0.880331 2.36657 0
M  V30 2261 C 220.744 2.32311 1.90924 0
M  V30 2262 C 222.292 2.37587 2.03768 0
M  V30 2263 C 222.767 3.62679 2.79693 0
M  V30 2264 N 224.258 3.63376 2.87249 0
M  V30 2265 C 224.993 4.56848 3.46522 0
M  V30 2266 N 224.489 5.60648 4.06996 0
M  V30 2267 N 226.282 4.44426 3.44154 0
M  V30 2268 H 218.433 2.09412 0.354993 0
M  V30 2269 H 220.696 0.922181 0.219742 0
M  V30 2270 H 220.402 3.23536 1.37905 0
M  V30 2271 H 220.276 2.39483 2.91424 0
M  V30 2272 H 222.663 1.46853 2.55965 0
M  V30 2273 H 222.744 2.34403 1.02415 0
M  V30 2274 H 222.388 4.53762 2.28173 0
M  V30 2275 H 222.318 3.63119 3.81381 0
M  V30 2276 H 224.809 2.88321 2.44293 0
M  V30 2277 H 225.122 6.28101 4.50232 0
M  V30 2278 H 223.467 5.64463 4.05471 0
M  V30 2279 H 226.658 3.62529 2.96126 0
M  V30 2280 H 226.831 5.17457 3.90054 0
M  V30 2281 N 220.237 -1.11381 1.11499 0
M  V30 2282 C 221.184 -2.17439 0.773887 0
M  V30 2283 C 222.154 -1.64132 -0.254899 0
M  V30 2284 O 223.339 -1.90345 -0.13168 0
M  V30 2285 C 220.479 -3.44373 0.223917 0
M  V30 2286 C 219.592 -4.1168 1.30934 0
M  V30 2287 C 218.727 -5.263 0.71984 0
M  V30 2288 C 217.766 -5.85493 1.78507 0
M  V30 2289 N 216.903 -6.91507 1.21502 0
M  V30 2290 H 221.743 -2.45962 1.68246 0
M  V30 2291 H 219.28 -1.20744 0.840191 0
M  V30 2292 H 221.238 -4.17047 -0.112921 0
M  V30 2293 H 219.868 -3.16232 -0.647851 0
M  V30 2294 H 218.92 -3.37073 1.76312 0
M  V30 2295 H 220.232 -4.51729 2.11524 0
M  V30 2296 H 219.386 -6.05785 0.333094 0
M  V30 2297 H 218.125 -4.87559 -0.117377 0
M  V30 2298 H 217.13 -5.04686 2.18111 0
M  V30 2299 H 218.355 -6.26301 2.62533 0
M  V30 2300 H 216.301 -6.54783 0.399455 0
M  V30 2301 H 216.218 -7.30214 1.95763 0
M  V30 2302 H 217.486 -7.74795 0.855181 0
M  V30 2303 N 221.715 -0.905404 -1.28997 0
M  V30 2304 C 222.662 -0.385892 -2.27551 0
M  V30 2305 C 223.632 0.535113 -1.57244 0
M  V30 2306 O 224.817 0.459119 -1.85194 0
M  V30 2307 C 221.957 0.375461 -3.43051 0
M  V30 2308 C 221.07 -0.577092 -4.28128 0
M  V30 2309 C 220.205 0.201879 -5.30816 0
M  V30 2310 C 219.244 -0.744829 -6.07551 0
M  V30 2311 N 218.381 9.42587e-05 -7.021 0
M  V30 2312 H 223.221 -1.23139 -2.71368 0
M  V30 2313 H 220.758 -0.618542 -1.33463 0
M  V30 2314 H 222.716 0.832992 -4.088 0
M  V30 2315 H 221.346 1.18537 -3.00248 0
M  V30 2316 H 220.398 -1.15315 -3.62501 0
M  V30 2317 H 221.71 -1.30152 -4.8152 0
M  V30 2318 H 220.864 0.720351 -6.02408 0
M  V30 2319 H 219.603 0.959413 -4.7817 0
M  V30 2320 H 218.608 -1.27475 -5.34818 0
M  V30 2321 H 219.833 -1.50178 -6.62286 0
M  V30 2322 H 217.779 0.739791 -6.51815 0
M  V30 2323 H 217.696 -0.664321 -7.53076 0
M  V30 2324 H 218.964 0.498644 -7.77903 0
M  V30 2325 N 223.193 1.4272 -0.668489 0
M  V30 2326 C 224.44 2.01624 -0.18814 0
M  V30 2327 C 224.768 1.5282 1.20317 0
M  V30 2328 O 224.023 0.718323 1.8204 0
M  V30 2329 C 224.322 3.57021 -0.164499 0
M  V30 2330 C 223.988 4.25232 -1.49962 0
M  V30 2331 C 222.65 4.4358 -1.8652 0
M  V30 2332 C 225.002 4.63727 -2.37921 0
M  V30 2333 C 222.33 4.97694 -3.10674 0
M  V30 2334 C 224.682 5.19218 -3.6138 0
M  V30 2335 C 223.346 5.3578 -3.98115 0
M  V30 2336 H 222.616 0.737795 -0.0688454 0
M  V30 2337 H 225.263 1.70991 -0.862225 0
M  V30 2338 H 223.568 3.87285 0.593079 0
M  V30 2339 H 225.265 4.00372 0.224271 0
M  V30 2340 H 221.855 4.11306 -1.20522 0
M  V30 2341 H 226.039 4.4923 -2.10964 0
M  V30 2342 H 221.295 5.08702 -3.39164 0
M  V30 2343 H 225.469 5.4799 -4.29743 0
M  V30 2344 H 223.096 5.77475 -4.94395 0
M  V30 2345 N 224.671 0.411399 1.52136 0
M  V30 2346 C 225.917 -0.163888 2.02137 0
M  V30 2347 C 226.25 -1.44597 1.29636 0
M  V30 2348 O 225.525 -1.90272 0.403353 0
M  V30 2349 C 225.808 -0.40927 3.57767 0
M  V30 2350 C 225.661 0.889643 4.40914 0
M  V30 2351 C 226.98 -1.19042 4.23694 0
M  V30 2352 H 224.099 -0.0580896 0.734707 0
M  V30 2353 H 226.741 0.54531 1.82007 0
M  V30 2354 H 224.891 -1.0134 3.7505 0
M  V30 2355 H 226.563 1.52575 4.35337 0
M  V30 2356 H 224.806 1.50011 4.07037 0
M  V30 2357 H 225.477 0.672314 5.4789 0
M  V30 2358 H 227.953 -0.678942 4.10524 0
M  V30 2359 H 226.829 -1.33086 5.32522 0
M  V30 2360 H 227.09 -2.21166 3.82803 0
M  V30 2361 N 226.149 -1.5696 0.141893 0
M  V30 2362 C 227.398 -1.95135 -0.510427 0
M  V30 2363 C 227.711 -1.02896 -1.66348 0
M  V30 2364 O 228.917 -1.30629 -2.38009 0
M  V30 2365 C 227.373 -3.46876 -0.959427 0
M  V30 2366 C 226.981 -4.47691 0.166419 0
M  V30 2367 C 228.725 -3.93927 -1.58183 0
M  V30 2368 C 226.632 -5.90636 -0.300565 0
M  V30 2369 H 225.562 -0.728494 -0.194454 0
M  V30 2370 H 228.213 -1.8211 0.22542 0
M  V30 2371 H 226.595 -3.55215 -1.75038 0
M  V30 2372 H 227.769 -4.51043 0.94325 0
M  V30 2373 H 226.084 -4.10527 0.696905 0
M  V30 2374 H 228.681 -4.98158 -1.94275 0
M  V30 2375 H 229.024 -3.3519 -2.46888 0
M  V30 2376 H 229.557 -3.88484 -0.855863 0
M  V30 2377 H 226.296 -6.5318 0.550989 0
M  V30 2378 H 225.816 -5.90655 -1.04338 0
M  V30 2379 H 227.495 -6.42588 -0.754265 0
M  V30 2380 N 227.627 0.131896 -1.57047 0
M  V30 2381 C 229.038 0.690407 -1.73465 0
M  V30 2382 C 229.389 1.8094 -0.758629 0
M  V30 2383 O 228.514 2.16282 0.0713813 0
M  V30 2384 C 229.109 1.25916 -3.14532 0
M  V30 2385 C 227.668 1.76409 -3.32501 0
M  V30 2386 C 226.815 0.658579 -2.69366 0
M  V30 2387 H 229.766 -0.0939144 -1.58422 0
M  V30 2388 H 229.787 2.12892 -3.15369 0
M  V30 2389 H 229.299 0.444515 -3.85546 0
M  V30 2390 H 227.4 2.60391 -2.66509 0
M  V30 2391 H 227.513 1.88241 -4.4057 0
M  V30 2392 H 225.877 1.08899 -2.30246 0
M  V30 2393 H 226.66 -0.14487 -3.42994 0
M  V30 2394 N 229.106 1.52395 0.401703 0
M  V30 2395 C 230.383 1.57387 1.16141 0
M  V30 2396 C 230.763 0.359359 2.08019 0
M  V30 2397 O 230.111 -0.65326 2.18963 0
M  V30 2398 C 230.321 2.90631 1.93221 0
M  V30 2399 C 231.669 3.43904 2.49028 0
M  V30 2400 O 232.693 2.92421 2.03393 0
M  V30 2401 O 231.552 4.33823 3.32356 0
M  V30 2402 H 228.646 0.634262 0.530698 0
M  V30 2403 H 231.192 1.64725 0.407883 0
M  V30 2404 H 229.964 3.70473 1.25958 0
M  V30 2405 H 229.587 2.8662 2.75563 0
M  V30 2406 N 230.584 -0.659388 1.43143 0
M  V30 2407 C 231.831 -1.41935 1.44433 0
M  V30 2408 C 232.159 -1.94387 0.0663522 0
M  V30 2409 O 231.414 -1.72314 -0.927706 0
M  V30 2410 C 231.713 -2.62206 2.42864 0
M  V30 2411 C 231.379 -2.28208 3.88886 0
M  V30 2412 C 230.041 -2.18647 4.28657 0
M  V30 2413 C 232.393 -2.00887 4.8093 0
M  V30 2414 C 229.721 -1.79914 5.58433 0
M  V30 2415 C 232.073 -1.63653 6.11065 0
M  V30 2416 C 230.737 -1.52614 6.49819 0
M  V30 2417 H 230.007 -0.519376 0.528517 0
M  V30 2418 H 232.654 -0.750453 1.76183 0
M  V30 2419 H 230.959 -3.34199 2.04495 0
M  V30 2420 H 232.656 -3.2041 2.41119 0
M  V30 2421 H 229.246 -2.36557 3.57406 0
M  V30 2422 H 233.43 -2.07198 4.5098 0
M  V30 2423 H 228.686 -1.69948 5.87305 0
M  V30 2424 H 232.86 -1.41543 6.81864 0
M  V30 2425 H 230.487 -1.22371 7.50286 0
M  V30 2426 N 232.062 -1.29571 -0.897171 0
M  V30 2427 C 232.972 -1.16808 -2.03453 0
M  V30 2428 C 233.988 -0.0907471 -1.73763 0
M  V30 2429 O 235.164 -0.303312 -1.99103 0
M  V30 2430 C 232.229 -0.848264 -3.36163 0
M  V30 2431 C 231.29 -2.0097 -3.79354 0
M  V30 2432 C 230.523 -1.70505 -5.05731 0
M  V30 2433 O 230.746 -0.62718 -5.66941 0
M  V30 2434 O 229.68 -2.5538 -5.45036 0
M  V30 2435 H 233.506 -2.12325 -2.17144 0
M  V30 2436 H 231.091 -1.09047 -1.02123 0
M  V30 2437 H 232.973 -0.684581 -4.15802 0
M  V30 2438 H 231.648 0.0771071 -3.23608 0
M  V30 2439 H 230.555 -2.22863 -3.00471 0
M  V30 2440 H 231.888 -2.91636 -3.96496 0
M  V30 2441 N 233.54 1.10788 -1.12088 0
M  V30 2442 C 234.45 2.20599 -0.798338 0
M  V30 2443 C 235.466 1.72712 0.21135 0
M  V30 2444 O 236.642 2.01348 0.0458477 0
M  V30 2445 C 233.707 3.45771 -0.253674 0
M  V30 2446 C 232.768 4.08411 -1.32283 0
M  V30 2447 C 232.001 5.27608 -0.80406 0
M  V30 2448 O 232.224 5.69241 0.363478 0
M  V30 2449 O 231.158 5.8101 -1.57198 0
M  V30 2450 H 234.984 2.50614 -1.7154 0
M  V30 2451 H 232.569 1.19454 -0.897275 0
M  V30 2452 H 234.451 4.21376 0.0453691 0
M  V30 2453 H 233.126 3.1739 0.636005 0
M  V30 2454 H 232.033 3.34507 -1.67499 0
M  V30 2455 H 233.366 4.40986 -2.18614 0
M  V30 2456 N 235.018 0.912232 1.28515 0
M  V30 2457 C 236.265 0.544599 1.95039 0
M  V30 2458 C 236.593 -0.911435 1.71823 0
M  V30 2459 O 235.848 -1.66317 1.03137 0
M  V30 2460 C 236.147 0.798392 3.48368 0
M  V30 2461 C 235.813 2.23374 3.91682 0
M  V30 2462 C 234.475 2.62617 4.03219 0
M  V30 2463 C 236.827 3.16786 4.13879 0
M  V30 2464 C 234.155 3.94429 4.3433 0
M  V30 2465 C 236.507 4.48161 4.46469 0
M  V30 2466 C 235.171 4.8726 4.56217 0
M  V30 2467 H 234.441 0.199283 0.7137 0
M  V30 2468 H 237.088 1.15327 1.52879 0
M  V30 2469 H 235.393 0.106908 3.91654 0
M  V30 2470 H 237.09 0.493141 3.97956 0
M  V30 2471 H 233.68 1.91922 3.83228 0
M  V30 2472 H 237.864 2.87677 4.0442 0
M  V30 2473 H 233.12 4.24426 4.40082 0
M  V30 2474 H 237.294 5.20559 4.62592 0
M  V30 2475 H 234.921 5.89431 4.80078 0
M  V30 2476 N 236.496 -1.42363 0.676048 0
M  V30 2477 C 237.724 -2.05859 0.207268 0
M  V30 2478 C 238.139 -1.50796 -1.13605 0
M  V30 2479 O 237.496 -0.648265 -1.70598 0
M  V30 2480 C 237.547 -3.61248 0.134975 0
M  V30 2481 O 237.268 -4.1427 1.42521 0
M  V30 2482 C 238.769 -4.41859 -0.357151 0
M  V30 2483 H 235.989 -0.663431 0.100503 0
M  V30 2484 H 238.533 -1.82479 0.923136 0
M  V30 2485 H 236.688 -3.83735 -0.531588 0
M  V30 2486 H 237.102 -5.0815 1.29939 0
M  V30 2487 H 238.576 -5.50847 -0.356641 0
M  V30 2488 H 239.053 -4.16536 -1.39264 0
M  V30 2489 H 239.659 -4.24392 0.27772 0
M  V30 2490 N 237.974 -0.419461 -1.51915 0
M  V30 2491 C 239.222 0.152637 -2.01523 0
M  V30 2492 C 239.543 1.44762 -1.30649 0
M  V30 2493 O 238.813 1.90997 -0.435535 0
M  V30 2494 H 237.393 0.0593966 -0.744635 0
M  V30 2495 H 240.055 -0.558073 -1.86739 0
M  V30 2496 H 239.151 0.341369 -3.10227 0
M  V30 2497 N 239.452 1.56882 -0.150215 0
M  V30 2498 C 240.402 2.13501 0.800071 0
M  V30 2499 C 241.386 1.06368 1.20726 0
M  V30 2500 O 242.578 1.32538 1.17314 0
M  V30 2501 C 239.707 2.76271 2.03787 0
M  V30 2502 C 238.793 3.90533 1.65364 0
M  V30 2503 N 239.184 4.96259 0.977794 0
M  V30 2504 C 237.482 4.013 1.94613 0
M  V30 2505 C 238.183 5.76286 0.791794 0
M  V30 2506 N 237.159 5.27163 1.32666 0
M  V30 2507 H 240.961 2.92615 0.274517 0
M  V30 2508 H 238.475 1.62319 0.0512144 0
M  V30 2509 H 240.472 3.15197 2.72867 0
M  V30 2510 H 239.132 1.98631 2.56857 0
M  V30 2511 H 240.143 5.13953 0.638193 0
M  V30 2512 H 236.82 3.3474 2.4951 0
M  V30 2513 H 238.21 6.71401 0.258894 0
M  V30 2514 N 240.93 -0.123565 1.57115 0
M  V30 2515 C 242.176 -0.833386 1.84885 0
M  V30 2516 C 242.509 -1.79742 0.735292 0
M  V30 2517 O 241.784 -1.92764 -0.25925 0
M  V30 2518 C 242.067 -1.5873 3.23228 0
M  V30 2519 C 241.92 -0.643183 4.45178 0
M  V30 2520 C 243.239 -2.54453 3.59085 0
M  V30 2521 H 240.358 -0.301518 0.6725 0
M  V30 2522 H 243 -0.097778 1.89748 0
M  V30 2523 H 241.15 -2.21438 3.19214 0
M  V30 2524 H 242.822 -0.0253015 4.61293 0
M  V30 2525 H 241.065 0.0456139 4.33776 0
M  V30 2526 H 241.736 -1.20724 5.38637 0
M  V30 2527 H 244.212 -2.01853 3.63861 0
M  V30 2528 H 243.088 -3.04238 4.5687 0
M  V30 2529 H 243.349 -3.36906 2.86264 0
M  V30 2530 N 242.408 -1.52605 -0.393616 0
M  V30 2531 C 243.685 -1.58001 -1.15304 0
M  V30 2532 C 244.065 -0.370385 -2.07825 0
M  V30 2533 O 243.413 0.641638 -2.19306 0
M  V30 2534 C 243.623 -2.91652 -1.91677 0
M  V30 2535 C 244.971 -3.4522 -2.47201 0
M  V30 2536 O 245.995 -2.93495 -2.01839 0
M  V30 2537 O 244.854 -4.35579 -3.3005 0
M  V30 2538 H 241.948 -0.637068 -0.527327 0
M  V30 2539 H 244.494 -1.64939 -0.399141 0
M  V30 2540 H 243.266 -3.71136 -1.23992 0
M  V30 2541 H 242.889 -2.88077 -2.74039 0
M  V30 2542 N 243.887 0.651787 -1.4349 0
M  V30 2543 C 245.303 0.96762 -1.26922 0
M  V30 2544 C 245.503 2.00602 -0.189982 0
M  V30 2545 O 244.559 2.48793 0.431107 0
M  V30 2546 C 245.872 1.45052 -2.63401 0
M  V30 2547 C 247.42 1.5671 -2.70945 0
M  V30 2548 C 247.895 2.0839 -4.07845 0
M  V30 2549 N 249.386 2.1569 -4.09917 0
M  V30 2550 C 250.121 2.56804 -5.12679 0
M  V30 2551 N 249.617 2.97203 -6.25813 0
M  V30 2552 N 251.41 2.56756 -5.00033 0
M  V30 2553 H 243.561 -0.0353158 -2.12371 0
M  V30 2554 H 245.824 0.0467858 -0.946845 0
M  V30 2555 H 245.53 0.761926 -3.43348 0
M  V30 2556 H 245.404 2.42529 -2.88894 0
M  V30 2557 H 247.791 2.2467 -1.9133 0
M  V30 2558 H 247.872 0.57662 -2.49216 0
M  V30 2559 H 247.516 1.41031 -4.87927 0
M  V30 2560 H 247.446 3.08271 -4.26938 0
M  V30 2561 H 249.937 1.87237 -3.28254 0
M  V30 2562 H 250.25 3.27328 -7.00055 0
M  V30 2563 H 248.595 2.95004 -6.29283 0
M  V30 2564 H 251.786 2.24572 -4.10713 0
M  V30 2565 H 251.959 2.88475 -5.80247 0
M  V30 2566 N 245.365 1.30045 0.890287 0
M  V30 2567 C 246.614 1.17929 1.63633 0
M  V30 2568 C 246.927 -0.266204 1.9378 0
M  V30 2569 O 248.133 -0.508804 2.6669 0
M  V30 2570 C 246.589 2.06317 2.94892 0
M  V30 2571 C 246.197 3.55745 2.72305 0
M  V30 2572 C 247.941 2.0295 3.72843 0
M  V30 2573 C 245.848 4.36205 3.99348 0
M  V30 2574 H 244.778 0.437782 0.613892 0
M  V30 2575 H 247.429 1.54754 0.986075 0
M  V30 2576 H 245.811 1.6237 3.61182 0
M  V30 2577 H 246.985 4.07805 2.1455 0
M  V30 2578 H 245.3 3.6088 2.07737 0
M  V30 2579 H 247.897 2.60319 4.67053 0
M  V30 2580 H 248.24 1.0117 4.0382 0
M  V30 2581 H 248.773 2.4499 3.13408 0
M  V30 2582 H 245.512 5.38659 3.73533 0
M  V30 2583 H 245.032 3.8891 4.56628 0
M  V30 2584 H 246.711 4.47362 4.67415 0
M  V30 2585 N 246.843 -1.10192 1.12674 0
M  V30 2586 C 248.09 -1.82205 0.883606 0
M  V30 2587 C 248.418 -1.8532 -0.590492 0
M  V30 2588 O 247.673 -1.31137 -1.45264 0
M  V30 2589 C 247.972 -3.28552 1.4067 0
M  V30 2590 C 247.638 -3.45582 2.89627 0
M  V30 2591 C 246.3 -3.49937 3.30299 0
M  V30 2592 C 248.652 -3.50768 3.85501 0
M  V30 2593 C 245.98 -3.57049 4.65546 0
M  V30 2594 C 248.332 -3.59414 5.20581 0
M  V30 2595 C 246.996 -3.62034 5.60792 0
M  V30 2596 H 246.266 -0.666735 0.323334 0
M  V30 2597 H 248.913 -1.29868 1.40736 0
M  V30 2598 H 247.218 -3.83473 0.80347 0
M  V30 2599 H 248.915 -3.82788 1.19475 0
M  V30 2600 H 245.505 -3.42871 2.57172 0
M  V30 2601 H 249.689 -3.46651 3.55171 0
M  V30 2602 H 244.945 -3.57361 4.96088 0
M  V30 2603 H 249.119 -3.62371 5.94693 0
M  V30 2604 H 246.746 -3.67298 6.6558 0
M  V30 2605 N 248.321 -0.919034 -1.28029 0
M  V30 2606 C 249.231 -0.416756 -2.30869 0
M  V30 2607 C 250.247 0.498235 -1.66714 0
M  V30 2608 O 251.423 0.383144 -1.97722 0
M  V30 2609 C 248.488 0.330274 -3.45123 0
M  V30 2610 C 247.549 -0.618578 -4.2482 0
M  V30 2611 C 246.782 0.0928959 -5.33619 0
M  V30 2612 O 247.005 1.31375 -5.55065 0
M  V30 2613 O 245.939 -0.574499 -5.99152 0
M  V30 2614 H 249.765 -1.27043 -2.75851 0
M  V30 2615 H 247.35 -0.684052 -1.3282 0
M  V30 2616 H 249.232 0.751972 -4.14636 0
M  V30 2617 H 247.907 1.1597 -3.02213 0
M  V30 2618 H 246.814 -1.08978 -3.57875 0
M  V30 2619 H 248.147 -1.41497 -4.71423 0
M  V30 2620 N 249.799 1.42003 -0.683588 0
M  V30 2621 C 251.076 1.95112 -0.138075 0
M  V30 2622 C 251.456 1.62359 1.34918 0
M  V30 2623 O 250.804 0.924311 2.08971 0
M  V30 2624 C 251.014 3.46505 -0.416581 0
M  V30 2625 C 252.362 4.23254 -0.337834 0
M  V30 2626 O 253.386 3.54468 -0.35082 0
M  V30 2627 O 252.245 5.45743 -0.287596 0
M  V30 2628 H 249.339 0.826961 -0.00797996 0
M  V30 2629 H 251.885 1.51784 -0.758924 0
M  V30 2630 H 250.657 3.63582 -1.4465 0
M  V30 2631 H 250.28 3.969 0.235839 0
M  V30 2632 N 251.277 0.427512 1.51691 0
M  V30 2633 C 252.523 -0.142439 2.02299 0
M  V30 2634 C 252.856 -1.43214 1.31162 0
M  V30 2635 O 252.131 -1.89833 0.423511 0
M  V30 2636 C 252.414 -0.371301 3.58181 0
M  V30 2637 C 252.267 0.936358 4.39946 0
M  V30 2638 C 253.586 -1.14542 4.24933 0
M  V30 2639 H 250.705 -0.0502937 0.735282 0
M  V30 2640 H 253.347 0.564584 1.81418 0
M  V30 2641 H 251.497 -0.973559 3.76104 0
M  V30 2642 H 253.169 1.57184 4.33694 0
M  V30 2643 H 251.412 1.5432 4.05423 0
M  V30 2644 H 252.083 0.730388 5.47147 0
M  V30 2645 H 254.559 -0.635362 4.11221 0
M  V30 2646 H 253.435 -1.27431 5.33903 0
M  V30 2647 H 253.696 -2.17093 3.85127 0
M  V30 2648 N 252.755 -1.56801 0.158532 0
M  V30 2649 C 253.702 -2.17337 -0.776729 0
M  V30 2650 C 254.672 -1.1096 -1.23601 0
M  V30 2651 O 255.857 -1.39054 -1.30647 0
M  V30 2652 C 252.997 -2.80822 -2.00582 0
M  V30 2653 C 252.11 -4.01624 -1.59129 0
M  V30 2654 C 251.245 -4.53072 -2.77306 0
M  V30 2655 C 250.284 -5.66314 -2.32282 0
M  V30 2656 N 249.421 -6.12329 -3.43508 0
M  V30 2657 H 254.261 -2.96918 -0.253701 0
M  V30 2658 H 251.798 -1.46661 -0.113504 0
M  V30 2659 H 253.756 -3.15779 -2.72652 0
M  V30 2660 H 252.386 -2.03866 -2.50277 0
M  V30 2661 H 251.438 -3.72571 -0.767806 0
M  V30 2662 H 252.75 -4.83633 -1.2207 0
M  V30 2663 H 251.904 -4.90145 -3.57551 0
M  V30 2664 H 250.643 -3.70095 -3.17617 0
M  V30 2665 H 249.648 -5.28806 -1.5048 0
M  V30 2666 H 250.873 -6.51085 -1.93043 0
M  V30 2667 H 248.819 -5.32284 -3.83418 0
M  V30 2668 H 248.736 -6.89293 -3.105 0
M  V30 2669 H 250.004 -6.5405 -4.24075 0
M  V30 2670 N 254.233 0.115231 -1.57178 0
M  V30 2671 C 255.143 1.15994 -2.03918 0
M  V30 2672 C 256.159 1.45103 -0.960268 0
M  V30 2673 O 257.335 1.56144 -1.27204 0
M  V30 2674 C 254.4 2.46568 -2.43732 0
M  V30 2675 C 253.461 2.24822 -3.65723 0
M  V30 2676 C 252.694 3.4917 -4.03629 0
M  V30 2677 O 252.917 4.56623 -3.41835 0
M  V30 2678 O 251.851 3.39949 -4.96708 0
M  V30 2679 H 255.677 0.793019 -2.93164 0
M  V30 2680 H 253.262 0.3263 -1.45793 0
M  V30 2681 H 255.144 3.23492 -2.70057 0
M  V30 2682 H 253.819 2.82726 -1.57631 0
M  V30 2683 H 252.726 1.45744 -3.44542 0
M  V30 2684 H 254.059 1.93566 -4.52541 0
M  V30 2685 N 255.711 1.52812 0.385517 0
M  V30 2686 C 256.641 1.80808 1.47752 0
M  V30 2687 C 257.622 0.660318 1.5676 0
M  V30 2688 O 258.807 0.908246 1.71652 0
M  V30 2689 C 255.937 1.98008 2.85324 0
M  V30 2690 C 254.891 3.13709 2.91154 0
M  V30 2691 C 254.217 3.16169 4.31209 0
M  V30 2692 C 255.517 4.52709 2.60483 0
M  V30 2693 H 257.211 2.72253 1.24573 0
M  V30 2694 H 254.757 1.31003 0.597839 0
M  V30 2695 H 256.71 2.16176 3.61726 0
M  V30 2696 H 255.434 1.03255 3.09848 0
M  V30 2697 H 254.093 2.95329 2.17201 0
M  V30 2698 H 253.741 2.19092 4.52778 0
M  V30 2699 H 253.441 3.93894 4.36029 0
M  V30 2700 H 254.965 3.36496 5.09512 0
M  V30 2701 H 256.379 4.71173 3.26602 0
M  V30 2702 H 254.776 5.32528 2.76648 0
M  V30 2703 H 255.846 4.59186 1.55809 0
M  V30 2704 N 257.189 -0.644168 1.43834 0
M  V30 2705 C 258.417 -1.43147 1.49387 0
M  V30 2706 C 258.832 -1.88452 0.114583 0
M  V30 2707 O 258.189 -1.60047 -0.876989 0
M  V30 2708 C 258.24 -2.66046 2.44748 0
M  V30 2709 O 257.961 -2.22633 3.77314 0
M  V30 2710 C 259.462 -3.59311 2.59635 0
M  V30 2711 H 256.682 -0.439447 0.507077 0
M  V30 2712 H 259.226 -0.78895 1.88669 0
M  V30 2713 H 257.381 -3.26418 2.08638 0
M  V30 2714 H 257.795 -3.02216 4.28679 0
M  V30 2715 H 259.269 -4.42187 3.30416 0
M  V30 2716 H 259.746 -4.07259 1.64427 0
M  V30 2717 H 260.352 -3.04816 2.96593 0
M  V30 2718 N 258.668 -1.30515 -0.883378 0
M  V30 2719 C 259.916 -1.19194 -1.63209 0
M  V30 2720 C 260.237 0.253205 -1.93349 0
M  V30 2721 O 259.507 1.17025 -1.57105 0
M  V30 2722 H 258.087 -0.438148 -0.605009 0
M  V30 2723 H 260.749 -1.63663 -1.05832 0
M  V30 2724 H 259.845 -1.75396 -2.58153 0
M  V30 2725 N 260.146 1.09593 -1.13257 0
M  V30 2726 C 261.394 1.81375 -0.891492 0
M  V30 2727 C 261.715 1.86049 0.584009 0
M  V30 2728 O 260.985 1.34481 1.42449 0
M  V30 2729 H 259.565 0.671708 -0.326828 0
M  V30 2730 H 262.227 1.3256 -1.42877 0
M  V30 2731 H 261.323 2.84612 -1.28071 0
M  V30 2732 N 261.624 0.925811 1.2754 0
M  V30 2733 C 262.571 0.422045 2.26908 0
M  V30 2734 C 263.541 -0.510029 1.58076 0
M  V30 2735 O 264.726 -0.429599 1.85901 0
M  V30 2736 C 261.866 -0.320837 3.43605 0
M  V30 2737 C 260.979 0.64513 4.27156 0
M  V30 2738 C 260.114 -0.117405 5.3107 0
M  V30 2739 C 259.153 0.841391 6.0629 0
M  V30 2740 N 258.29 0.111604 7.02011 0
M  V30 2741 H 263.13 1.27441 2.69375 0
M  V30 2742 H 260.667 0.639697 1.32462 0
M  V30 2743 H 262.625 -0.76785 4.10073 0
M  V30 2744 H 261.255 -1.13745 3.02096 0
M  V30 2745 H 260.307 1.21067 3.6062 0
M  V30 2746 H 261.619 1.37797 4.79389 0
M  V30 2747 H 260.773 -0.624422 6.03478 0
M  V30 2748 H 259.512 -0.883219 4.79636 0
M  V30 2749 H 258.517 1.35967 5.32722 0
M  V30 2750 H 259.742 1.60696 6.59813 0
M  V30 2751 H 257.688 -0.635999 6.5291 0
M  V30 2752 H 257.605 0.784044 7.51923 0
M  V30 2753 H 258.873 -0.374823 7.78598 0
M  V30 2754 N 263.102 -1.41638 0.69111 0
M  V30 2755 C 264.348 -2.01598 0.220519 0
M  V30 2756 C 264.681 -1.54594 -1.17535 0
M  V30 2757 O 263.956 -0.755177 -1.79241 0
M  V30 2758 C 264.239 -3.59062 0.273243 0
M  V30 2759 C 264.092 -4.16203 1.70573 0
M  V30 2760 C 265.411 -4.38546 -0.369457 0
M  V30 2761 H 262.53 -0.732468 0.0816045 0
M  V30 2762 H 265.172 -1.68445 0.878986 0
M  V30 2763 H 263.322 -3.87435 -0.287411 0
M  V30 2764 H 264.994 -3.98722 2.31989 0
M  V30 2765 H 263.237 -3.71414 2.2413 0
M  V30 2766 H 263.908 -5.25358 1.69419 0
M  V30 2767 H 266.384 -4.1596 0.107977 0
M  V30 2768 H 265.26 -5.48069 -0.302002 0
M  V30 2769 H 265.521 -4.17662 -1.44951 0
M  V30 2770 N 264.58 -0.43555 -1.51462 0
M  V30 2771 C 265.543 0.365137 -2.26273 0
M  V30 2772 C 266.543 0.951227 -1.29647 0
M  V30 2773 O 267.733 0.825958 -1.53374 0
M  V30 2774 C 264.865 1.51645 -3.05314 0
M  V30 2775 H 266.058 -0.290474 -2.9849 0
M  V30 2776 H 263.611 -0.188676 -1.55157 0
M  V30 2777 H 264.346 2.20816 -2.3751 0
M  V30 2778 H 264.131 1.10238 -3.76284 0
M  V30 2779 H 265.621 2.08218 -3.61987 0
M  V30 2780 N 266.058 1.56714 -0.166846 0
M  V30 2781 C 267.021 2.16539 0.751232 0
M  V30 2782 C 268.021 1.11228 1.16125 0
M  V30 2783 O 269.211 1.36765 1.07894 0
M  V30 2784 C 266.343 2.74462 2.02196 0
M  V30 2785 H 267.536 2.99013 0.230499 0
M  V30 2786 H 265.089 1.56081 0.0826982 0
M  V30 2787 H 265.824 1.95709 2.58589 0
M  V30 2788 H 265.609 3.51527 1.73698 0
M  V30 2789 H 267.099 3.20489 2.67725 0
M  V30 2790 N 267.536 -0.106894 1.57237 0
M  V30 2791 C 268.766 -0.825191 1.89405 0
M  V30 2792 C 269.174 -1.73374 0.757496 0
M  V30 2793 O 268.517 -1.81552 -0.280115 0
M  V30 2794 C 268.579 -1.70102 3.1671 0
M  V30 2795 C 268.243 -0.965523 4.46684 0
M  V30 2796 C 269.24 -0.300741 5.19029 0
M  V30 2797 C 266.925 -0.943105 4.93367 0
M  V30 2798 C 268.919 0.376622 6.36286 0
M  V30 2799 C 266.606 -0.261949 6.10538 0
M  V30 2800 C 267.604 0.396748 6.81847 0
M  V30 2801 O 267.292 1.06701 7.96787 0
M  V30 2802 H 267.024 -0.241852 0.631255 0
M  V30 2803 H 269.578 -0.0921491 2.05193 0
M  V30 2804 H 267.808 -2.47601 2.97036 0
M  V30 2805 H 269.497 -2.29483 3.34802 0
M  V30 2806 H 270.263 -0.309599 4.84011 0
M  V30 2807 H 266.142 -1.44524 4.3776 0
M  V30 2808 H 269.686 0.891334 6.91882 0
M  V30 2809 H 265.583 -0.250896 6.45012 0
M  V30 2810 H 266.351 0.972707 8.127 0
M  V30 2811 N 269.014 -1.53014 -0.377408 0
M  V30 2812 C 270.263 -1.67845 -1.11853 0
M  V30 2813 C 270.576 -0.430625 -1.90801 0
M  V30 2814 O 271.782 -0.459261 -2.67587 0
M  V30 2815 C 270.238 -2.96668 -2.03756 0
M  V30 2816 C 269.846 -4.28671 -1.30175 0
M  V30 2817 C 271.59 -3.20865 -2.77932 0
M  V30 2818 C 269.497 -5.48591 -2.20911 0
M  V30 2819 H 268.427 -0.625343 -0.421263 0
M  V30 2820 H 271.078 -1.79514 -0.380409 0
M  V30 2821 H 269.46 -2.78773 -2.8125 0
M  V30 2822 H 270.634 -4.57157 -0.578259 0
M  V30 2823 H 268.949 -4.10825 -0.679108 0
M  V30 2824 H 271.546 -4.07642 -3.46024 0
M  V30 2825 H 271.889 -2.36424 -3.4265 0
M  V30 2826 H 272.422 -3.39379 -2.07525 0
M  V30 2827 H 269.161 -6.35474 -1.6079 0
M  V30 2828 H 268.681 -5.244 -2.91144 0
M  V30 2829 H 270.36 -5.8292 -2.80736 0
M  V30 2830 N 270.492 0.636531 -1.44174 0
M  V30 2831 C 271.903 1.21806 -1.41493 0
M  V30 2832 C 272.254 1.95785 -0.1275 0
M  V30 2833 O 271.379 2.02147 0.772376 0
M  V30 2834 C 271.974 2.21551 -2.56321 0
M  V30 2835 C 270.533 2.75143 -2.56853 0
M  V30 2836 C 269.68 1.50052 -2.33195 0
M  V30 2837 H 272.631 0.427531 -1.52833 0
M  V30 2838 H 272.652 3.0405 -2.28765 0
M  V30 2839 H 272.164 1.67679 -3.50008 0
M  V30 2840 H 270.265 3.33033 -1.67093 0
M  V30 2841 H 270.378 3.2155 -3.55165 0
M  V30 2842 H 268.742 1.77993 -1.82183 0
M  V30 2843 H 269.525 0.980903 -3.28988 0
M  V30 2844 N 271.97 1.30982 0.876444 0
M  V30 2845 C 272.902 1.13902 1.98894 0
M  V30 2846 C 273.915 0.0798815 1.62604 0
M  V30 2847 O 275.104 0.326743 1.75484 0
M  V30 2848 C 272.204 0.716699 3.31235 0
M  V30 2849 C 271.377 1.85945 3.95908 0
M  V30 2850 C 270.436 1.42426 5.06558 0
M  V30 2851 O 269.462 2.13287 5.27729 0
M  V30 2852 N 270.664 0.308025 5.79682 0
M  V30 2853 H 273.429 2.09724 2.14094 0
M  V30 2854 H 270.99 1.2323 1.05004 0
M  V30 2855 H 272.982 0.408403 4.02634 0
M  V30 2856 H 271.552 -0.149719 3.12241 0
M  V30 2857 H 270.772 2.33541 3.17573 0
M  V30 2858 H 272.06 2.62503 4.35855 0
M  V30 2859 H 271.458 -0.282241 5.64995 0
M  V30 2860 H 270.015 0.0592282 6.51773 0
M  V30 2861 N 273.449 -1.08991 1.13837 0
M  V30 2862 C 274.379 -2.17771 0.842507 0
M  V30 2863 C 275.36 -1.6892 -0.20001 0
M  V30 2864 O 276.545 -1.94113 -0.0579731 0
M  V30 2865 C 273.675 -3.4589 0.312644 0
M  V30 2866 C 272.629 -4.08099 1.28992 0
M  V30 2867 C 271.955 -5.31098 0.619623 0
M  V30 2868 C 273.255 -4.50077 2.65005 0
M  V30 2869 H 274.949 -2.42777 1.75213 0
M  V30 2870 H 272.495 -1.16682 0.843875 0
M  V30 2871 H 274.448 -4.21297 0.0933043 0
M  V30 2872 H 273.172 -3.20419 -0.632382 0
M  V30 2873 H 271.831 -3.34717 1.49533 0
M  V30 2874 H 271.479 -5.0191 -0.33102 0
M  V30 2875 H 271.179 -5.73674 1.27167 0
M  V30 2876 H 272.703 -6.09224 0.409669 0
M  V30 2877 H 274.117 -5.16688 2.48407 0
M  V30 2878 H 272.514 -5.03553 3.26427 0
M  V30 2879 H 273.584 -3.62257 3.22332 0
M  V30 2880 N 274.927 -0.932562 -1.27047 0
M  V30 2881 C 275.89 -0.440064 -2.24936 0
M  V30 2882 C 276.89 0.444071 -1.54547 0
M  V30 2883 O 278.08 0.244465 -1.72476 0
M  V30 2884 C 275.212 0.36678 -3.38921 0
M  V30 2885 H 276.405 -1.305 -2.70018 0
M  V30 2886 H 273.958 -0.713707 -1.39054 0
M  V30 2887 H 274.693 1.25033 -2.99228 0
M  V30 2888 H 274.478 -0.267204 -3.91188 0
M  V30 2889 H 275.968 0.701567 -4.11665 0
M  V30 2890 N 276.405 1.4127 -0.698611 0
M  V30 2891 C 277.352 2.30773 -0.0352094 0
M  V30 2892 C 278.322 1.47273 0.768111 0
M  V30 2893 O 279.507 1.76053 0.735524 0
M  V30 2894 C 276.647 3.33346 0.893 0
M  V30 2895 C 275.76 4.31924 0.0809695 0
M  V30 2896 C 274.895 5.21566 1.0071 0
M  V30 2897 C 273.934 6.11811 0.188155 0
M  V30 2898 N 273.071 6.93926 1.06825 0
M  V30 2899 H 277.911 2.86943 -0.804207 0
M  V30 2900 H 275.448 1.4132 -0.408294 0
M  V30 2901 H 277.406 3.91368 1.44523 0
M  V30 2902 H 276.036 2.78719 1.62836 0
M  V30 2903 H 275.088 3.75825 -0.588224 0
M  V30 2904 H 276.4 4.95716 -0.553801 0
M  V30 2905 H 275.554 5.84437 1.62845 0
M  V30 2906 H 274.293 4.58008 1.67572 0
M  V30 2907 H 273.298 5.47986 -0.446254 0
M  V30 2908 H 274.523 6.77425 -0.476716 0
M  V30 2909 H 272.469 6.32973 1.72283 0
M  V30 2910 H 272.386 7.54416 0.489123 0
M  V30 2911 H 273.654 7.61262 1.67632 0
M  V30 2912 N 277.883 0.443576 1.51229 0
M  V30 2913 C 279.108 -0.121648 2.07043 0
M  V30 2914 C 279.533 -1.35156 1.30823 0
M  V30 2915 O 278.891 -1.7793 0.347934 0
M  V30 2916 C 278.939 -0.41624 3.5819 0
M  V30 2917 O 278.043 -1.50163 3.8409 0
M  V30 2918 H 277.384 0.000871367 0.663999 0
M  V30 2919 H 279.914 0.626706 1.94765 0
M  V30 2920 H 279.924 -0.664867 4.02546 0
M  V30 2921 H 278.599 0.482653 4.1309 0
M  V30 2922 H 277.176 -1.24248 3.51592 0
M  V30 2923 N 279.361 -1.56624 0.175154 0
M  V30 2924 C 280.309 -2.19468 -0.770495 0
M  V30 2925 C 281.303 -1.15985 -1.23466 0
M  V30 2926 O 282.509 -1.34176 -1.19987 0
M  V30 2927 H 278.884 -0.703095 -0.266761 0
M  V30 2928 H 280.855 -2.97613 -0.216542 0
M  V30 2929 C 279.604 -2.85264 -1.98796 0
M  V30 2930 H 278.927 -3.64623 -1.63983 0
M  V30 2931 H 280.367 -3.327 -2.62843 0
M  V30 2932 C 278.826 -1.85239 -2.81404 0
M  V30 2933 O 279.356 -1.34024 -3.78682 0
M  V30 2934 N 277.562 -1.53911 -2.46495 0
M  V30 2935 H 277.109 -1.95751 -1.67449 0
M  V30 2936 H 277.067 -0.872382 -3.02054 0
M  V30 2937 N 280.839 0.0985539 -1.57292 0
M  V30 2938 C 282.25 0.653457 -1.74891 0
M  V30 2939 C 282.601 1.7929 -0.796838 0
M  V30 2940 O 281.726 2.16385 0.0254886 0
M  V30 2941 C 282.321 1.19216 -3.17133 0
M  V30 2942 C 280.88 1.69316 -3.36168 0
M  V30 2943 C 280.027 0.601294 -2.70702 0
M  V30 2944 H 282.978 -0.127497 -1.58187 0
M  V30 2945 H 282.999 2.06154 -3.19814 0
M  V30 2946 H 282.511 0.362635 -3.86402 0
M  V30 2947 H 280.612 2.5468 -2.71972 0
M  V30 2948 H 280.725 1.78853 -4.44464 0
M  V30 2949 H 279.089 1.0399 -2.32504 0
M  V30 2950 H 279.872 -0.217592 -3.4261 0
M  V30 2951 N 282.317 1.53212 0.369288 0
M  V30 2952 C 283.594 1.59815 1.12776 0
M  V30 2953 C 283.974 0.403402 2.0721 0
M  V30 2954 O 283.322 -0.606667 2.20299 0
M  V30 2955 C 283.532 2.94664 1.87013 0
M  V30 2956 C 284.88 3.49109 2.41677 0
M  V30 2957 O 285.904 2.96669 1.97144 0
M  V30 2958 O 284.763 4.40775 3.23079 0
M  V30 2959 H 281.857 0.645376 0.517125 0
M  V30 2960 H 284.403 1.65553 0.37285 0
M  V30 2961 H 283.175 3.73061 1.18071 0
M  V30 2962 H 282.798 2.92401 2.69421 0
M  V30 2963 N 283.795 -0.628877 1.44509 0
M  V30 2964 C 284.725 -1.75187 1.54376 0
M  V30 2965 C 285.706 -1.65411 0.396618 0
M  V30 2966 O 286.891 -1.84137 0.617031 0
M  V30 2967 C 284.021 -3.13725 1.48976 0
M  V30 2968 C 282.975 -3.38291 2.62189 0
M  V30 2969 C 282.301 -4.76883 2.41841 0
M  V30 2970 C 283.601 -3.30632 4.04326 0
M  V30 2971 H 285.295 -1.67187 2.48373 0
M  V30 2972 H 282.841 -0.802909 1.19538 0
M  V30 2973 H 284.794 -3.92064 1.54478 0
M  V30 2974 H 283.518 -3.22515 0.514961 0
M  V30 2975 H 282.177 -2.62334 2.56079 0
M  V30 2976 H 281.825 -4.82378 1.42548 0
M  V30 2977 H 281.525 -4.94278 3.17747 0
M  V30 2978 H 283.049 -5.57449 2.49165 0
M  V30 2979 H 284.463 -3.98873 4.11793 0
M  V30 2980 H 282.86 -3.59561 4.80454 0
M  V30 2981 H 283.93 -2.28404 4.27738 0
M  V30 2982 N 285.273 -1.31445 -0.869486 0
M  V30 2983 C 286.519 -1.22347 -1.62489 0
M  V30 2984 C 286.874 0.216204 -1.91181 0
M  V30 2985 O 286.167 1.14977 -1.53268 0
M  V30 2986 C 286.361 -2.00145 -2.96102 0
M  V30 2987 C 286.19 -3.51531 -2.80456 0
M  V30 2988 C 284.96 -4.20882 -2.79618 0
M  V30 2989 C 287.158 -4.46471 -2.5528 0
M  V30 2990 N 285.14 -5.58421 -2.55027 0
M  V30 2991 C 286.511 -5.71682 -2.39957 0
M  V30 2992 C 288.566 -4.35892 -2.40629 0
M  V30 2993 C 287.269 -6.87511 -2.11472 0
M  V30 2994 C 289.295 -5.51505 -2.13532 0
M  V30 2995 C 288.657 -6.75707 -1.98998 0
M  V30 2996 H 284.756 -0.502815 -0.598917 0
M  V30 2997 H 287.34 -1.65639 -1.02332 0
M  V30 2998 H 285.511 -1.59221 -3.54264 0
M  V30 2999 H 287.243 -1.83063 -3.60929 0
M  V30 3000 H 283.998 -3.72857 -2.92018 0
M  V30 3001 H 284.422 -6.30841 -2.45701 0
M  V30 3002 H 289.064 -3.40533 -2.50593 0
M  V30 3003 H 286.782 -7.82897 -2.00245 0
M  V30 3004 H 290.368 -5.45238 -2.02995 0
M  V30 3005 H 289.248 -7.63655 -1.78326 0
M  V30 3006 N 286.751 1.08385 -1.14413 0
M  V30 3007 C 287.999 1.80419 -0.910679 0
M  V30 3008 C 288.32 1.86658 0.564243 0
M  V30 3009 O 287.59 1.35985 1.41014 0
M  V30 3010 H 286.17 0.668204 -0.333934 0
M  V30 3011 H 288.832 1.31037 -1.44275 0
M  V30 3012 H 287.928 2.83238 -1.31082 0
M  V30 3013 N 288.23 0.939286 1.26551 0
M  V30 3014 C 289.476 0.586715 1.94128 0
M  V30 3015 C 289.809 -0.8717 1.73537 0
M  V30 3016 O 289.084 -1.62339 1.07127 0
M  V30 3017 C 289.367 0.927497 3.4795 0
M  V30 3018 C 289.22 2.44052 3.77834 0
M  V30 3019 C 290.539 0.441569 4.37879 0
M  V30 3020 H 287.658 0.21463 0.705055 0
M  V30 3021 H 290.3 1.17316 1.49455 0
M  V30 3022 H 288.45 0.428431 3.8613 0
M  V30 3023 H 290.122 3.01216 3.4938 0
M  V30 3024 H 288.365 2.8848 3.23978 0
M  V30 3025 H 289.036 2.62947 4.85348 0
M  V30 3026 H 291.512 0.869448 4.06915 0
M  V30 3027 H 290.388 0.708856 5.44304 0
M  V30 3028 H 290.649 -0.658467 4.37169 0
M  V30 3029 N 289.708 -1.40897 0.706093 0
M  V30 3030 C 290.933 -2.05895 0.249435 0
M  V30 3031 C 291.358 -1.52823 -1.09666 0
M  V30 3032 O 290.716 -0.659589 -1.68876 0
M  V30 3033 C 290.764 -3.59872 0.22904 0
M  V30 3034 O 289.868 -4.04708 -0.792784 0
M  V30 3035 H 289.209 -0.653206 0.119241 0
M  V30 3036 H 291.739 -1.80471 0.96391 0
M  V30 3037 H 291.749 -4.07951 0.0634791 0
M  V30 3038 H 290.424 -3.97866 1.21141 0
M  V30 3039 H 289.001 -3.68111 -0.59572 0
M  V30 3040 N 291.186 -0.45159 -1.50991 0
M  V30 3041 C 292.116 0.342898 -2.30969 0
M  V30 3042 C 293.097 1.00815 -1.37005 0
M  V30 3043 O 294.282 1.00907 -1.65926 0
M  V30 3044 C 291.412 1.43637 -3.16205 0
M  V30 3045 C 290.366 0.893818 -4.18563 0
M  V30 3046 C 289.692 2.08411 -4.92411 0
M  V30 3047 C 290.992 -0.0815568 -5.22236 0
M  V30 3048 H 292.686 -0.324556 -2.97636 0
M  V30 3049 H 290.232 -0.157531 -1.43136 0
M  V30 3050 H 292.185 1.9995 -3.70942 0
M  V30 3051 H 290.909 2.13232 -2.47386 0
M  V30 3052 H 289.568 0.352798 -3.64898 0
M  V30 3053 H 289.216 2.76658 -4.20082 0
M  V30 3054 H 288.916 1.72741 -5.61636 0
M  V30 3055 H 290.44 2.65251 -5.49976 0
M  V30 3056 H 291.854 0.391742 -5.7196 0
M  V30 3057 H 290.251 -0.351551 -5.99069 0
M  V30 3058 H 291.321 -1.01374 -4.74185 0
M  V30 3059 N 292.664 1.56529 -0.183458 0
M  V30 3060 C 293.904 1.99141 0.460667 0
M  V30 3061 C 294.268 1.06736 1.59597 0
M  V30 3062 O 295.469 1.38538 2.30349 0
M  V30 3063 C 293.74 3.45358 0.919939 0
M  V30 3064 S 295.299 4.09999 1.56354 0
M  V30 3065 H 292.117 0.695479 0.147748 0
M  V30 3066 H 294.719 1.93429 -0.283782 0
M  V30 3067 H 293.423 4.10315 0.0834208 0
M  V30 3068 H 292.954 3.54862 1.69814 0
M  V30 3069 H 294.969 4.06046 2.85203 0
M  V30 3070 N 294.142 -0.090211 1.57342 0
M  V30 3071 C 295.37 -0.806224 1.90546 0
M  V30 3072 C 295.785 -1.72041 0.777644 0
M  V30 3073 O 295.142 -1.80778 -0.250103 0
M  V30 3074 C 295.193 -1.61546 3.23396 0
M  V30 3075 O 294.914 -0.738043 4.31839 0
M  V30 3076 C 296.415 -2.4341 3.70495 0
M  V30 3077 H 293.635 -0.230256 0.630257 0
M  V30 3078 H 296.179 -0.0659843 2.04394 0
M  V30 3079 H 294.334 -2.30816 3.11131 0
M  V30 3080 H 294.748 -1.29901 5.08159 0
M  V30 3081 H 296.222 -2.95676 4.66133 0
M  V30 3082 H 296.699 -3.22098 2.98579 0
M  V30 3083 H 297.305 -1.79331 3.85643 0
M  V30 3084 N 295.62 -1.53406 -0.361157 0
M  V30 3085 C 296.866 -1.70054 -1.10496 0
M  V30 3086 C 297.199 -0.453278 -1.88836 0
M  V30 3087 O 296.474 0.5495 -1.86576 0
M  V30 3088 C 296.757 -2.95317 -2.06058 0
M  V30 3089 C 296.61 -4.3021 -1.31298 0
M  V30 3090 C 297.929 -3.16193 -3.06121 0
M  V30 3091 H 295.048 -0.618799 -0.400321 0
M  V30 3092 H 297.69 -1.86052 -0.385318 0
M  V30 3093 H 295.84 -2.81809 -2.67425 0
M  V30 3094 H 297.512 -4.55538 -0.726807 0
M  V30 3095 H 295.755 -4.29421 -0.614853 0
M  V30 3096 H 296.426 -5.14 -2.01265 0
M  V30 3097 H 298.902 -3.28916 -2.5486 0
M  V30 3098 H 297.778 -4.05266 -3.70204 0
M  V30 3099 H 298.039 -2.31676 -3.76535 0
M  V30 3100 N 297.098 0.621204 -1.44841 0
M  V30 3101 C 298.375 1.38 -1.38619 0
M  V30 3102 C 298.755 2.11041 -0.0498935 0
M  V30 3103 O 298.103 2.06992 0.967816 0
M  V30 3104 C 298.313 2.33817 -2.59096 0
M  V30 3105 C 299.661 2.96844 -3.03593 0
M  V30 3106 O 300.685 2.44141 -2.59371 0
M  V30 3107 O 299.544 3.92476 -3.80296 0
M  V30 3108 H 296.638 0.61811 -0.549426 0
M  V30 3109 H 299.184 0.645429 -1.56947 0
M  V30 3110 H 297.956 1.79012 -3.47952 0
M  V30 3111 H 297.579 3.14676 -2.43032 0
M  V30 3112 N 298.576 1.31904 0.862503 0
M  V30 3113 C 299.824 1.21776 1.61292 0
M  V30 3114 C 300.145 -0.222413 1.93727 0
M  V30 3115 O 299.415 -1.1451 1.58947 0
M  V30 3116 H 297.995 0.447717 0.597962 0
M  V30 3117 H 300.657 1.65326 1.03215 0
M  V30 3118 H 299.753 1.7948 2.5533 0
M  V30 3119 N 300.054 -1.07777 1.14986 0
M  V30 3120 C 300.986 -2.14769 0.800436 0
M  V30 3121 C 301.999 -1.61739 -0.185595 0
M  V30 3122 O 303.188 -1.78462 0.0370358 0
M  V30 3123 C 300.288 -3.38481 0.168533 0
M  V30 3124 C 299.461 -4.20876 1.1909 0
M  V30 3125 C 298.52 -5.22976 0.581575 0
M  V30 3126 O 297.546 -5.55388 1.24633 0
M  V30 3127 N 298.748 -5.76976 -0.638706 0
M  V30 3128 H 301.513 -2.45348 1.72118 0
M  V30 3129 H 299.074 -1.23645 1.04515 0
M  V30 3130 H 301.066 -4.03916 -0.251764 0
M  V30 3131 H 299.636 -3.05651 -0.655467 0
M  V30 3132 H 298.856 -3.51322 1.78791 0
M  V30 3133 H 300.144 -4.7274 1.88133 0
M  V30 3134 H 299.542 -5.52886 -1.19723 0
M  V30 3135 H 298.099 -6.44061 -1.00142 0
M  V30 3136 N 301.532 -0.945985 -1.26051 0
M  V30 3137 C 302.948 -0.649045 -1.45807 0
M  V30 3138 C 303.148 0.796158 -1.85104 0
M  V30 3139 O 302.204 1.57233 -1.97571 0
M  V30 3140 C 303.517 -1.61458 -2.53677 0
M  V30 3141 C 305.065 -1.62481 -2.67524 0
M  V30 3142 C 305.54 -2.57776 -3.7857 0
M  V30 3143 N 307.031 -2.5609 -3.85969 0
M  V30 3144 C 307.766 -3.26508 -4.7136 0
M  V30 3145 N 307.262 -4.0637 -5.61102 0
M  V30 3146 N 309.055 -3.15437 -4.65248 0
M  V30 3147 H 301.206 -1.88005 -0.988328 0
M  V30 3148 H 303.469 -0.808198 -0.4955 0
M  V30 3149 H 303.175 -2.64644 -2.31638 0
M  V30 3150 H 303.049 -1.37036 -3.51427 0
M  V30 3151 H 305.436 -0.600167 -2.88933 0
M  V30 3152 H 305.517 -1.90958 -1.70202 0
M  V30 3153 H 305.161 -3.60361 -3.57913 0
M  V30 3154 H 305.091 -2.26587 -4.75359 0
M  V30 3155 H 307.582 -1.98105 -3.21812 0
M  V30 3156 H 307.895 -4.57042 -6.23164 0
M  V30 3157 H 306.24 -4.10469 -5.60839 0
M  V30 3158 H 309.431 -2.52525 -3.94143 0
M  V30 3159 H 309.604 -3.70584 -5.31575 0
M  V30 3160 N 303.011 1.40521 -0.713556 0
M  V30 3161 C 303.961 2.27971 -0.036165 0
M  V30 3162 C 304.945 1.43151 0.734623 0
M  V30 3163 O 306.137 1.66261 0.607158 0
M  V30 3164 C 303.266 3.31661 0.886331 0
M  V30 3165 C 302.352 4.23955 0.110836 0
M  V30 3166 N 302.743 4.97641 -0.904847 0
M  V30 3167 C 301.041 4.44674 0.343692 0
M  V30 3168 C 301.742 5.65322 -1.37064 0
M  V30 3169 N 300.718 5.39162 -0.693168 0
M  V30 3170 H 304.52 2.82384 -0.814645 0
M  V30 3171 H 302.034 1.52948 -0.545963 0
M  V30 3172 H 304.031 3.93154 1.38692 0
M  V30 3173 H 302.691 2.78808 1.66421 0
M  V30 3174 H 303.702 5.01689 -1.28563 0
M  V30 3175 H 300.379 4.02801 1.09805 0
M  V30 3176 H 301.769 6.34359 -2.21447 0
M  V30 3177 N 304.489 0.459591 1.5075 0
M  V30 3178 C 305.714 -0.0996819 2.0716 0
M  V30 3179 C 306.139 -1.33761 1.32249 0
M  V30 3180 O 305.497 -1.77551 0.366786 0
M  V30 3181 C 305.545 -0.378226 3.58611 0
M  V30 3182 O 304.649 -1.46081 3.85661 0
M  V30 3183 H 303.99 0.00791392 0.663953 0
M  V30 3184 H 306.52 0.647329 1.9409 0
M  V30 3185 H 306.53 -0.622135 4.03229 0
M  V30 3186 H 305.205 0.526439 4.12555 0
M  V30 3187 H 303.782 -1.20511 3.5289 0
M  V30 3188 N 305.967 -1.56429 0.191757 0
M  V30 3189 C 307.213 -1.97777 -0.448554 0
M  V30 3190 C 307.546 -1.07847 -1.61501 0
M  V30 3191 O 306.821 -0.129774 -1.94067 0
M  V30 3192 C 307.104 -3.48362 -0.911906 0
M  V30 3193 C 306.957 -4.4907 0.256136 0
M  V30 3194 C 308.276 -4.02561 -1.77857 0
M  V30 3195 H 305.395 -0.719071 -0.161572 0
M  V30 3196 H 308.037 -1.87896 0.282007 0
M  V30 3197 H 306.187 -3.56914 -1.53442 0
M  V30 3198 H 307.859 -4.5256 0.893733 0
M  V30 3199 H 306.102 -4.24181 0.908436 0
M  V30 3200 H 306.773 -5.51889 -0.11053 0
M  V30 3201 H 309.249 -3.96767 -1.25359 0
M  V30 3202 H 308.125 -5.08301 -2.07174 0
M  V30 3203 H 308.386 -3.47616 -2.73158 0
M  V30 3204 N 307.445 0.0818655 -1.57387 0
M  V30 3205 C 308.693 0.781368 -1.86384 0
M  V30 3206 C 309.014 1.78618 -0.782342 0
M  V30 3207 O 308.284 1.94976 0.190061 0
M  V30 3208 H 306.864 0.291562 -0.687751 0
M  V30 3209 H 309.526 0.060348 -1.94807 0
M  V30 3210 H 308.622 1.3038 -2.83562 0
M  V30 3211 N 308.923 1.53595 0.353017 0
M  V30 3212 C 309.873 1.77299 1.43349 0
M  V30 3213 C 310.857 0.627884 1.48143 0
M  V30 3214 O 312.049 0.88697 1.53173 0
M  V30 3215 C 309.178 1.97757 2.80619 0
M  V30 3216 C 308.264 3.18305 2.80254 0
M  V30 3217 N 308.655 4.39967 2.49526 0
M  V30 3218 C 306.953 3.19283 3.11407 0
M  V30 3219 C 307.654 5.21772 2.57156 0
M  V30 3220 N 306.63 4.58269 2.92388 0
M  V30 3221 H 310.432 2.68963 1.18474 0
M  V30 3222 H 307.946 1.52391 0.561306 0
M  V30 3223 H 309.943 2.1287 3.58458 0
M  V30 3224 H 308.603 1.07329 3.06448 0
M  V30 3225 H 309.614 4.67482 2.22893 0
M  V30 3226 H 306.291 2.3879 3.4247 0
M  V30 3227 H 307.681 6.2885 2.36638 0
M  V30 3228 N 310.401 -0.613514 1.45168 0
M  V30 3229 C 311.629 -1.39946 1.5239 0
M  V30 3230 C 312.044 -1.88167 0.154531 0
M  V30 3231 O 311.401 -1.61872 -0.842843 0
M  V30 3232 C 311.452 -2.60795 2.50337 0
M  V30 3233 O 311.173 -2.1458 3.81952 0
M  V30 3234 C 312.674 -3.53723 2.67198 0
M  V30 3235 H 309.894 -0.428593 0.516284 0
M  V30 3236 H 312.438 -0.748753 1.903 0
M  V30 3237 H 310.593 -3.21919 2.15515 0
M  V30 3238 H 311.007 -2.93055 4.34993 0
M  V30 3239 H 312.481 -4.35079 3.39721 0
M  V30 3240 H 312.958 -4.0368 1.73029 0
M  V30 3241 H 313.564 -2.98456 3.02992 0
M  V30 3242 N 311.879 -1.3236 -0.855495 0
M  V30 3243 C 312.826 -1.21225 -1.964 0
M  V30 3244 C 313.796 -0.0946204 -1.6583 0
M  V30 3245 O 314.981 -0.27002 -1.8888 0
M  V30 3246 C 312.121 -0.940419 -3.32039 0
M  V30 3247 C 311.234 -2.14276 -3.75113 0
M  V30 3248 C 310.369 -1.80648 -4.9954 0
M  V30 3249 C 309.408 -2.97208 -5.35102 0
M  V30 3250 N 308.545 -2.63678 -6.50706 0
M  V30 3251 H 313.385 -2.16042 -2.05255 0
M  V30 3252 H 310.922 -1.07451 -1.00463 0
M  V30 3253 H 312.88 -0.763311 -4.10158 0
M  V30 3254 H 311.51 -0.0290413 -3.22787 0
M  V30 3255 H 310.562 -2.43017 -2.92655 0
M  V30 3256 H 311.874 -3.01468 -3.97389 0
M  V30 3257 H 311.028 -1.59484 -5.85363 0
M  V30 3258 H 309.767 -0.906678 -4.79198 0
M  V30 3259 H 308.772 -3.19004 -4.47791 0
M  V30 3260 H 309.997 -3.87918 -5.57401 0
M  V30 3261 H 307.943 -1.76238 -6.31883 0
M  V30 3262 H 307.86 -3.444 -6.72997 0
M  V30 3263 H 309.128 -2.45942 -7.39684 0
M  V30 3264 N 313.357 1.07166 -1.15556 0
M  V30 3265 C 314.606 1.79181 -0.926132 0
M  V30 3266 C 314.919 1.87768 0.547967 0
M  V30 3267 O 316.125 2.56323 0.895036 0
M  V30 3268 C 314.581 3.22 -1.60761 0
M  V30 3269 C 314.189 3.21607 -3.11886 0
M  V30 3270 C 315.933 3.9861 -1.4598 0
M  V30 3271 C 313.84 4.59092 -3.72812 0
M  V30 3272 H 312.77 0.67154 -0.342856 0
M  V30 3273 H 315.421 1.2027 -1.3859 0
M  V30 3274 H 313.803 3.81115 -1.07553 0
M  V30 3275 H 314.977 2.72127 -3.71865 0
M  V30 3276 H 313.292 2.58495 -3.2645 0
M  V30 3277 H 315.889 5.00225 -1.88888 0
M  V30 3278 H 316.232 4.143 -0.407541 0
M  V30 3279 H 316.765 3.45996 -1.96295 0
M  V30 3280 H 313.504 4.48606 -4.77946 0
M  V30 3281 H 313.024 5.08803 -3.17616 0
M  V30 3282 H 314.703 5.28059 -3.73848 0
M  V30 3283 N 314.835 0.952656 1.25548 0
M  V30 3284 C 316.246 0.647392 1.75116 0
M  V30 3285 C 316.597 -0.837274 1.77438 0
M  V30 3286 O 315.722 -1.65525 1.39393 0
M  V30 3287 C 316.317 1.16845 3.18014 0
M  V30 3288 C 314.876 0.913382 3.6515 0
M  V30 3289 C 314.023 1.31265 2.44264 0
M  V30 3290 H 316.974 1.12968 1.11462 0
M  V30 3291 H 316.995 0.527606 3.76824 0
M  V30 3292 H 316.507 2.24902 3.16292 0
M  V30 3293 H 314.608 -0.152316 3.72289 0
M  V30 3294 H 314.721 1.54845 4.53387 0
M  V30 3295 H 313.085 0.731028 2.43984 0
M  V30 3296 H 313.868 2.40239 2.45234 0
M  V30 3297 N 316.313 -1.40141 0.720998 0
M  V30 3298 C 317.56 -2.00787 0.262842 0
M  V30 3299 C 317.888 -1.5718 -1.14563 0
M  V30 3300 O 317.143 -0.785391 -1.79249 0
M  V30 3301 C 317.442 -3.56165 0.296892 0
M  V30 3302 C 317.108 -4.19373 1.65641 0
M  V30 3303 C 315.77 -4.36352 2.02855 0
M  V30 3304 C 318.122 -4.54578 2.54968 0
M  V30 3305 C 315.45 -4.8582 3.28931 0
M  V30 3306 C 317.802 -5.05447 3.80402 0
M  V30 3307 C 316.466 -5.20635 4.17726 0
M  V30 3308 H 315.736 -0.734731 0.0961807 0
M  V30 3309 H 318.383 -1.67673 0.925093 0
M  V30 3310 H 316.688 -3.8922 -0.448932 0
M  V30 3311 H 318.385 -4.00929 -0.0755208 0
M  V30 3312 H 314.975 -4.06549 1.35704 0
M  V30 3313 H 319.159 -4.41091 2.27491 0
M  V30 3314 H 314.415 -4.95764 3.57811 0
M  V30 3315 H 318.589 -5.31663 4.49786 0
M  V30 3316 H 316.216 -5.58728 5.15487 0
M  V30 3317 N 317.792 -0.46758 -1.50504 0
M  V30 3318 C 319.032 0.0874114 -2.04213 0
M  V30 3319 C 319.396 1.37301 -1.34211 0
M  V30 3320 O 320.597 2.01015 -1.78456 0
M  V30 3321 C 318.868 0.270571 -3.56374 0
M  V30 3322 S 320.427 0.784623 -4.31728 0
M  V30 3323 H 317.245 0.0176153 -0.710782 0
M  V30 3324 H 319.847 -0.633915 -1.84937 0
M  V30 3325 H 318.551 -0.670942 -4.04878 0
M  V30 3326 H 318.082 1.01811 -3.79997 0
M  V30 3327 H 320.097 2.05849 -4.51487 0
M  V30 3328 N 319.27 1.56325 -0.20005 0
M  V30 3329 C 320.2 2.22318 0.713916 0
M  V30 3330 C 321.181 1.18788 1.21752 0
M  V30 3331 O 322.366 1.47309 1.26545 0
M  V30 3332 C 319.496 2.88639 1.93144 0
M  V30 3333 C 318.45 3.98457 1.56255 0
M  V30 3334 C 317.776 4.51967 2.85709 0
M  V30 3335 C 319.076 5.16612 0.768747 0
M  V30 3336 H 320.77 2.98952 0.163755 0
M  V30 3337 H 318.316 1.43792 0.0773219 0
M  V30 3338 H 320.269 3.33491 2.57608 0
M  V30 3339 H 318.993 2.09419 2.50621 0
M  V30 3340 H 317.652 3.54305 0.941471 0
M  V30 3341 H 317.3 3.69503 3.41287 0
M  V30 3342 H 317 5.26071 2.6177 0
M  V30 3343 H 318.524 4.99523 3.51154 0
M  V30 3344 H 319.938 5.57977 1.3166 0
M  V30 3345 H 318.335 5.96812 0.627286 0
M  V30 3346 H 319.405 4.84358 -0.229168 0
M  V30 3347 N 320.748 -0.0735177 1.57428 0
M  V30 3348 C 321.68 -1.11423 2.00294 0
M  V30 3349 C 322.693 -1.35084 0.908637 0
M  V30 3350 O 323.882 -1.33355 1.18654 0
M  V30 3351 C 320.982 -2.46548 2.32523 0
M  V30 3352 C 320.155 -2.42867 3.63778 0
M  V30 3353 C 319.214 -3.60087 3.83697 0
M  V30 3354 O 318.24 -3.41595 4.55304 0
M  V30 3355 N 319.442 -4.80372 3.25919 0
M  V30 3356 H 322.207 -0.749206 2.90184 0
M  V30 3357 H 319.768 -0.262195 1.59763 0
M  V30 3358 H 321.76 -3.23607 2.43024 0
M  V30 3359 H 320.33 -2.75059 1.48531 0
M  V30 3360 H 319.55 -1.51206 3.64047 0
M  V30 3361 H 320.838 -2.37506 4.49965 0
M  V30 3362 H 320.236 -4.983 2.67795 0
M  V30 3363 H 318.793 -5.54948 3.41871 0
M  V30 3364 N 322.226 -1.5378 -0.344866 0
M  V30 3365 C 323.451 -1.75211 -1.10977 0
M  V30 3366 C 323.876 -0.48936 -1.81623 0
M  V30 3367 O 323.234 0.557925 -1.72502 0
M  V30 3368 C 323.282 -2.93147 -2.09993 0
M  V30 3369 O 322.386 -2.63203 -3.17487 0
M  V30 3370 H 321.727 -0.581241 -0.321021 0
M  V30 3371 H 324.257 -2.00738 -0.395661 0
M  V30 3372 H 324.267 -3.19898 -2.53237 0
M  V30 3373 H 322.942 -3.84731 -1.5797 0
M  V30 3374 H 321.519 -2.47336 -2.79069 0
M  V30 3375 N 323.704 0.605807 -1.45491 0
M  V30 3376 C 324.944 1.37606 -1.51142 0
M  V30 3377 C 325.308 1.91413 -0.150075 0
M  V30 3378 O 326.509 2.68677 -0.0812828 0
M  V30 3379 C 324.78 2.49197 -2.56195 0
M  V30 3380 S 326.339 3.36953 -2.81083 0
M  V30 3381 H 323.157 0.469118 -0.534275 0
M  V30 3382 H 325.759 0.698845 -1.82583 0
M  V30 3383 H 324.463 2.0802 -3.53773 0
M  V30 3384 H 323.994 3.21717 -2.26411 0
M  V30 3385 H 326.009 4.47395 -2.14598 0
M  V30 3386 N 325.182 1.32811 0.848464 0
M  V30 3387 C 326.428 1.23907 1.60546 0
M  V30 3388 C 326.761 -0.197161 1.93197 0
M  V30 3389 O 326.036 -1.13596 1.5788 0
M  V30 3390 C 326.319 2.10489 2.92175 0
M  V30 3391 C 326.172 3.62522 2.66266 0
M  V30 3392 C 327.491 1.97075 3.93509 0
M  V30 3393 H 324.61 0.451459 0.58254 0
M  V30 3394 H 327.252 1.62818 0.979296 0
M  V30 3395 H 325.402 1.77434 3.45614 0
M  V30 3396 H 327.074 4.05821 2.19334 0
M  V30 3397 H 325.317 3.84879 2.00126 0
M  V30 3398 H 325.988 4.18437 3.6002 0
M  V30 3399 H 328.464 2.26045 3.49346 0
M  V30 3400 H 327.34 2.59923 4.83457 0
M  V30 3401 H 327.601 0.940186 4.31987 0
M  V30 3402 N 326.66 -1.06551 1.16123 0
M  V30 3403 C 327.607 -2.13961 0.865414 0
M  V30 3404 C 328.577 -1.65066 -0.185055 0
M  V30 3405 O 329.762 -1.90732 -0.05083 0
M  V30 3406 C 326.902 -3.43113 0.369776 0
M  V30 3407 C 326.015 -4.05756 1.48276 0
M  V30 3408 C 325.15 -5.22773 0.942414 0
M  V30 3409 C 324.189 -5.77395 2.03179 0
M  V30 3410 N 323.326 -6.85731 1.50721 0
M  V30 3411 H 328.166 -2.38605 1.78527 0
M  V30 3412 H 325.703 -1.17072 0.890646 0
M  V30 3413 H 327.661 -4.17151 0.0640643 0
M  V30 3414 H 326.291 -3.18695 -0.513143 0
M  V30 3415 H 325.343 -3.29292 1.9045 0
M  V30 3416 H 326.655 -4.42351 2.30493 0
M  V30 3417 H 325.809 -6.03827 0.589729 0
M  V30 3418 H 324.548 -4.87618 0.0895191 0
M  V30 3419 H 323.553 -4.94981 2.3932 0
M  V30 3420 H 324.778 -6.14603 2.8886 0
M  V30 3421 H 322.724 -6.52499 0.676811 0
M  V30 3422 H 322.641 -7.21254 2.26557 0
M  V30 3423 H 323.909 -7.7047 1.18303 0
M  V30 3424 N 328.138 -0.959301 -1.25041 0
M  V30 3425 C 329.549 -0.65667 -1.74771 0
M  V30 3426 C 329.9 0.827852 -1.77879 0
M  V30 3427 O 329.025 1.64783 -1.40269 0
M  V30 3428 C 329.62 -1.1853 -3.1739 0
M  V30 3429 C 328.179 -0.932734 -3.6466 0
M  V30 3430 C 327.326 -1.32558 -2.43564 0
M  V30 3431 H 330.277 -1.13558 -1.10862 0
M  V30 3432 H 330.298 -0.547582 -3.76539 0
M  V30 3433 H 329.81 -2.26576 -3.15095 0
M  V30 3434 H 327.911 0.13257 -3.72364 0
M  V30 3435 H 328.024 -1.57248 -4.52559 0
M  V30 3436 H 326.388 -0.743956 -2.43593 0
M  V30 3437 H 327.171 -2.41537 -2.43957 0
M  V30 3438 N 329.616 1.39756 -0.72842 0
M  V30 3439 C 330.546 2.33289 -0.0991354 0
M  V30 3440 C 331.527 1.53568 0.731489 0
M  V30 3441 O 332.712 1.81987 0.677807 0
M  V30 3442 C 329.842 3.3763 0.813834 0
M  V30 3443 C 328.796 4.2791 0.0878663 0
M  V30 3444 C 328.122 5.22894 1.11741 0
M  V30 3445 C 329.422 5.11314 -1.06563 0
M  V30 3446 H 331.116 2.86163 -0.880408 0
M  V30 3447 H 328.662 1.37591 -0.424819 0
M  V30 3448 H 330.615 4.0201 1.26355 0
M  V30 3449 H 329.339 2.83181 1.62715 0
M  V30 3450 H 327.998 3.65 -0.342159 0
M  V30 3451 H 327.646 4.64744 1.92412 0
M  V30 3452 H 327.346 5.84143 0.636477 0
M  V30 3453 H 328.87 5.90151 1.56697 0
M  V30 3454 H 330.284 5.69076 -0.694671 0
M  V30 3455 H 328.681 5.81671 -1.47577 0
M  V30 3456 H 329.751 4.46534 -1.89038 0
M  V30 3457 N 331.094 0.475555 1.50254 0
M  V30 3458 C 332.322 -0.0754493 2.06762 0
M  V30 3459 C 332.737 -1.33111 1.33891 0
M  V30 3460 O 332.094 -1.77846 0.40952 0
M  V30 3461 C 332.145 -0.359008 3.59713 0
M  V30 3462 O 331.866 0.846851 4.29837 0
M  V30 3463 C 333.367 -0.956484 4.32858 0
M  V30 3464 H 330.587 0.00907525 0.670939 0
M  V30 3465 H 333.131 0.665618 1.93364 0
M  V30 3466 H 331.286 -1.05001 3.72899 0
M  V30 3467 H 331.7 0.594162 5.21124 0
M  V30 3468 H 333.174 -1.10463 5.40834 0
M  V30 3469 H 333.651 -1.94775 3.93649 0
M  V30 3470 H 334.257 -0.303723 4.24214 0
M  V30 3471 N 332.573 -1.56217 0.208337 0
M  V30 3472 C 333.803 -2.02043 -0.431523 0
M  V30 3473 C 334.211 -1.08755 -1.54819 0
M  V30 3474 O 333.554 -0.0870009 -1.83494 0
M  V30 3475 C 333.616 -3.44239 -1.03633 0
M  V30 3476 C 333.28 -4.56965 -0.0567502 0
M  V30 3477 C 334.277 -5.14624 0.738773 0
M  V30 3478 C 331.962 -5.02266 0.0581736 0
M  V30 3479 C 333.956 -6.16045 1.63605 0
M  V30 3480 C 331.643 -6.03528 0.959001 0
M  V30 3481 C 332.641 -6.60293 1.7465 0
M  V30 3482 O 332.329 -7.59586 2.6322 0
M  V30 3483 H 332.061 -0.666772 -0.111313 0
M  V30 3484 H 334.615 -2.02919 0.318277 0
M  V30 3485 H 332.845 -3.40391 -1.83497 0
M  V30 3486 H 334.534 -3.73793 -1.58221 0
M  V30 3487 H 335.3 -4.80483 0.660364 0
M  V30 3488 H 331.179 -4.57771 -0.544633 0
M  V30 3489 H 334.723 -6.60279 2.25116 0
M  V30 3490 H 330.62 -6.37092 1.03848 0
M  V30 3491 H 331.388 -7.77057 2.57148 0
M  V30 3492 N 334.051 0.0651679 -1.57465 0
M  V30 3493 C 335.014 1.06117 -2.03155 0
M  V30 3494 C 336.014 1.31204 -0.929632 0
M  V30 3495 O 337.204 1.26813 -1.19432 0
M  V30 3496 C 334.336 2.4032 -2.41783 0
M  V30 3497 H 335.529 0.667231 -2.92383 0
M  V30 3498 H 333.082 0.311075 -1.53173 0
M  V30 3499 H 333.817 2.84532 -1.55601 0
M  V30 3500 H 333.602 2.23451 -3.22199 0
M  V30 3501 H 335.092 3.11898 -2.77685 0
M  V30 3502 N 335.529 1.53961 0.336706 0
M  V30 3503 C 336.778 1.70751 1.07363 0
M  V30 3504 C 337.091 0.481061 1.89592 0
M  V30 3505 O 338.297 0.530046 2.66276 0
M  V30 3506 C 336.753 3.01965 1.95818 0
M  V30 3507 C 336.361 4.31971 1.18764 0
M  V30 3508 C 338.105 3.28121 2.69327 0
M  V30 3509 C 336.012 5.54255 2.06289 0
M  V30 3510 H 334.942 0.636292 0.404535 0
M  V30 3511 H 337.593 1.80459 0.332681 0
M  V30 3512 H 335.975 2.86132 2.7376 0
M  V30 3513 H 337.149 4.5853 0.456849 0
M  V30 3514 H 335.464 4.12481 0.569946 0
M  V30 3515 H 338.061 4.16673 3.35094 0
M  V30 3516 H 338.404 2.45426 3.36261 0
M  V30 3517 H 338.937 3.44762 1.98454 0
M  V30 3518 H 335.676 6.39513 1.43885 0
M  V30 3519 H 335.196 5.31935 2.77138 0
M  V30 3520 H 336.875 5.90159 2.65182 0
M  V30 3521 N 337.007 -0.598083 1.45811 0
M  V30 3522 C 338.232 -1.3881 1.54099 0
M  V30 3523 C 338.657 -1.8726 0.177578 0
M  V30 3524 O 338.015 -1.6069 -0.839541 0
M  V30 3525 C 338.063 -2.56217 2.53743 0
M  V30 3526 O 337.167 -3.5716 2.06182 0
M  V30 3527 H 336.508 -0.414024 0.519115 0
M  V30 3528 H 339.038 -0.726971 1.91249 0
M  V30 3529 H 339.048 -3.03337 2.72856 0
M  V30 3530 H 337.723 -2.20303 3.5276 0
M  V30 3531 H 336.3 -3.16624 1.96987 0
M  V30 3532 N 338.485 -1.33259 -0.841409 0
M  V30 3533 C 339.734 -1.23921 -1.59143 0
M  V30 3534 C 340.047 0.1941 -1.94635 0
M  V30 3535 O 341.253 0.409474 -2.68394 0
M  V30 3536 C 339.709 -2.17119 -2.87032 0
M  V30 3537 C 339.317 -3.65606 -2.58914 0
M  V30 3538 C 341.061 -2.16648 -3.65053 0
M  V30 3539 C 338.968 -4.50726 -3.82884 0
M  V30 3540 H 337.898 -0.460264 -0.597221 0
M  V30 3541 H 340.549 -1.58307 -0.927959 0
M  V30 3542 H 338.931 -1.75663 -3.54906 0
M  V30 3543 H 340.105 -4.15487 -1.99267 0
M  V30 3544 H 338.42 -3.68341 -1.942 0
M  V30 3545 H 341.017 -2.77474 -4.57069 0
M  V30 3546 H 341.36 -1.16088 -3.99787 0
M  V30 3547 H 341.893 -2.56453 -3.041 0
M  V30 3548 H 338.632 -5.52151 -3.53283 0
M  V30 3549 H 338.152 -4.0559 -4.41879 0
M  V30 3550 H 339.831 -4.64401 -4.50489 0
M  V30 3551 N 339.963 1.05934 -1.16686 0
M  V30 3552 C 341.188 1.83029 -0.975455 0
M  V30 3553 C 341.613 1.82096 0.471452 0
M  V30 3554 O 340.971 1.22443 1.33706 0
M  V30 3555 C 341.019 3.27372 -1.51195 0
M  V30 3556 O 340.123 4.06054 -0.720701 0
M  V30 3557 H 339.464 0.566194 -0.346872 0
M  V30 3558 H 341.994 1.33541 -1.55009 0
M  V30 3559 H 342.004 3.78186 -1.53099 0
M  V30 3560 H 340.679 3.27366 -2.56523 0
M  V30 3561 H 339.256 3.64812 -0.772458 0
M  V30 3562 N 341.441 0.965919 1.2453 0
M  V30 3563 C 342.669 0.644385 1.96609 0
M  V30 3564 C 343.084 -0.785823 1.71669 0
M  V30 3565 O 342.441 -1.52703 0.999399 0
M  V30 3566 C 342.492 0.907375 3.49927 0
M  V30 3567 O 342.213 2.28136 3.74013 0
M  V30 3568 C 343.714 0.599784 4.39224 0
M  V30 3569 H 340.934 0.240588 0.626385 0
M  V30 3570 H 343.478 1.29337 1.58405 0
M  V30 3571 H 341.633 0.304631 3.862 0
M  V30 3572 H 342.047 2.36002 4.68405 0
M  V30 3573 H 343.521 0.834263 5.45659 0
M  V30 3574 H 343.998 -0.465921 4.36722 0
M  V30 3575 H 344.604 1.18235 4.08535 0
M  V30 3576 N 342.919 -1.39368 0.735821 0
M  V30 3577 C 343.849 -2.33234 0.111506 0
M  V30 3578 C 344.83 -1.53954 -0.723334 0
M  V30 3579 O 346.015 -1.82344 -0.668147 0
M  V30 3580 C 343.145 -3.38057 -0.795917 0
M  V30 3581 C 342.099 -4.2795 -0.065172 0
M  V30 3582 C 341.425 -5.23479 -1.08967 0
M  V30 3583 C 342.725 -5.10741 1.09273 0
M  V30 3584 H 344.419 -2.85692 0.895571 0
M  V30 3585 H 341.965 -1.37364 0.432109 0
M  V30 3586 H 343.918 -4.02675 -1.24221 0
M  V30 3587 H 342.642 -2.8404 -1.61211 0
M  V30 3588 H 341.301 -3.64813 0.361511 0
M  V30 3589 H 340.949 -4.65758 -1.89944 0
M  V30 3590 H 340.649 -5.84472 -0.605489 0
M  V30 3591 H 342.173 -5.90974 -1.53565 0
M  V30 3592 H 343.587 -5.68699 0.724841 0
M  V30 3593 H 341.984 -5.8088 1.50659 0
M  V30 3594 H 343.054 -4.45525 1.91404 0
M  V30 3595 N 344.397 -0.483516 -1.5 0
M  V30 3596 C 345.645 0.067027 -2.01989 0
M  V30 3597 C 345.966 1.3909 -1.36671 0
M  V30 3598 O 345.236 1.88978 -0.516152 0
M  V30 3599 H 343.816 0.0277606 -0.746484 0
M  V30 3600 H 346.478 -0.636773 -1.84204 0
M  V30 3601 H 345.574 0.209484 -3.11396 0
M  V30 3602 N 345.875 1.56104 -0.216619 0
M  V30 3603 C 347.103 2.02563 0.421413 0
M  V30 3604 C 347.518 1.0965 1.53695 0
M  V30 3605 O 346.875 0.10521 1.82196 0
M  V30 3606 C 346.926 3.48584 0.957665 0
M  V30 3607 O 346.647 4.37953 -0.113389 0
M  V30 3608 C 348.148 4.10664 1.66943 0
M  V30 3609 H 345.368 0.662944 0.103665 0
M  V30 3610 H 347.912 2.01793 -0.331629 0
M  V30 3611 H 346.067 3.49985 1.661 0
M  V30 3612 H 346.481 5.23704 0.288932 0
M  V30 3613 H 347.955 5.14622 1.99671 0
M  V30 3614 H 348.432 3.55373 2.58083 0
M  V30 3615 H 349.038 4.13098 1.01142 0
M  V30 3616 N 347.353 -0.0568162 1.57498 0
M  V30 3617 C 348.63 -0.786954 1.79071 0
M  V30 3618 C 349.01 -1.95028 0.80792 0
M  V30 3619 O 348.358 -2.27968 -0.155858 0
M  V30 3620 C 348.568 -1.24594 3.26002 0
M  V30 3621 C 349.916 -1.67323 3.90241 0
M  V30 3622 O 350.94 -1.34124 3.29984 0
M  V30 3623 O 349.799 -2.28842 4.9628 0
M  V30 3624 H 346.893 -0.378262 0.735423 0
M  V30 3625 H 349.439 -0.035734 1.69662 0
M  V30 3626 H 348.211 -0.41423 3.89101 0
M  V30 3627 H 347.834 -2.05803 3.40192 0
M  V30 3628 N 348.832 -1.54138 -0.328536 0
M  V30 3629 C 350.062 -1.75807 -1.08516 0
M  V30 3630 C 350.47 -0.50428 -1.82356 0
M  V30 3631 O 349.813 0.534451 -1.75754 0
M  V30 3632 C 349.875 -2.89423 -2.13248 0
M  V30 3633 C 349.539 -4.28504 -1.5885 0
M  V30 3634 C 350.536 -5.09536 -1.03289 0
M  V30 3635 C 348.221 -4.75034 -1.63243 0
M  V30 3636 C 350.215 -6.35206 -0.52845 0
M  V30 3637 C 347.902 -6.00672 -1.12411 0
M  V30 3638 C 348.9 -6.80592 -0.573062 0
M  V30 3639 O 348.588 -8.03867 -0.0723692 0
M  V30 3640 H 348.32 -0.590633 -0.328829 0
M  V30 3641 H 350.874 -2.01819 -0.381868 0
M  V30 3642 H 349.104 -2.5897 -2.87178 0
M  V30 3643 H 350.793 -2.98921 -2.74592 0
M  V30 3644 H 351.559 -4.74745 -0.99206 0
M  V30 3645 H 347.438 -4.12875 -2.05074 0
M  V30 3646 H 350.982 -6.97532 -0.0976774 0
M  V30 3647 H 346.879 -6.34955 -1.162 0
M  V30 3648 H 347.647 -8.18283 -0.188258 0
M  V30 3649 N 350.31 0.590341 -1.46126 0
M  V30 3650 C 351.556 1.35082 -1.51264 0
M  V30 3651 C 351.889 1.93534 -0.160711 0
M  V30 3652 O 351.164 1.76045 0.826956 0
M  V30 3653 C 351.447 2.48588 -2.6053 0
M  V30 3654 C 351.3 1.95221 -4.05227 0
M  V30 3655 C 352.619 3.50662 -2.6594 0
M  V30 3656 H 349.738 0.489803 -0.550692 0
M  V30 3657 H 352.38 0.663887 -1.78024 0
M  V30 3658 H 350.53 3.07186 -2.37843 0
M  V30 3659 H 352.202 1.41139 -4.39178 0
M  V30 3660 H 350.445 1.26101 -4.15068 0
M  V30 3661 H 351.116 2.77121 -4.77397 0
M  V30 3662 H 353.592 3.01934 -2.86313 0
M  V30 3663 H 352.468 4.27551 -3.44226 0
M  V30 3664 H 352.729 4.07399 -1.71694 0
M  V30 3665 N 351.788 1.33704 0.83433 0
M  V30 3666 C 352.738 1.20899 1.93306 0
M  V30 3667 C 353.722 0.110783 1.60518 0
M  V30 3668 O 354.914 0.339331 1.73717 0
M  V30 3669 C 352.043 0.955018 3.29749 0
M  V30 3670 C 351.129 2.09587 3.68692 0
M  V30 3671 N 351.52 3.34621 3.79292 0
M  V30 3672 C 349.818 2.00358 3.98463 0
M  V30 3673 C 350.519 4.09472 4.13167 0
M  V30 3674 N 349.495 3.37954 4.25779 0
M  V30 3675 H 353.297 2.15665 1.99664 0
M  V30 3676 H 350.811 1.25777 1.02732 0
M  V30 3677 H 352.808 0.844208 4.08263 0
M  V30 3678 H 351.468 0.0159317 3.24696 0
M  V30 3679 H 352.479 3.69313 3.63082 0
M  V30 3680 H 349.156 1.14137 4.01596 0
M  V30 3681 H 350.546 5.17391 4.28668 0
M  V30 3682 N 353.266 -1.05314 1.17247 0
M  V30 3683 C 354.213 -2.13031 0.888058 0
M  V30 3684 C 355.183 -1.65253 -0.167537 0
M  V30 3685 O 356.368 -1.90775 -0.0305974 0
M  V30 3686 C 353.508 -3.42702 0.406147 0
M  V30 3687 C 352.621 -4.04161 1.52572 0
M  V30 3688 C 351.756 -5.21744 0.997808 0
M  V30 3689 C 350.795 -5.75207 2.09291 0
M  V30 3690 N 349.932 -6.84094 1.57986 0
M  V30 3691 H 354.772 -2.36698 1.81048 0
M  V30 3692 H 352.309 -1.16121 0.903013 0
M  V30 3693 H 354.267 -4.17059 0.108305 0
M  V30 3694 H 352.897 -3.19222 -0.479313 0
M  V30 3695 H 351.949 -3.27253 1.93931 0
M  V30 3696 H 353.261 -4.39881 2.35172 0
M  V30 3697 H 352.415 -6.03168 0.653739 0
M  V30 3698 H 351.154 -4.87495 0.141232 0
M  V30 3699 H 350.159 -4.92414 2.44557 0
M  V30 3700 H 351.384 -6.11505 2.95362 0
M  V30 3701 H 349.33 -6.51745 0.74598 0
M  V30 3702 H 349.247 -7.18811 2.34195 0
M  V30 3703 H 350.515 -7.69172 1.26468 0
M  V30 3704 N 354.744 -0.972509 -1.24016 0
M  V30 3705 C 355.991 -0.637034 -1.92219 0
M  V30 3706 C 356.319 0.828418 -1.75976 0
M  V30 3707 O 355.574 1.61206 -1.10955 0
M  V30 3708 C 355.873 -0.963694 -3.44162 0
M  V30 3709 C 355.539 -2.41807 -3.80579 0
M  V30 3710 C 354.201 -2.81556 -3.9023 0
M  V30 3711 C 356.553 -3.36172 -3.98293 0
M  V30 3712 C 353.881 -4.14702 -4.15017 0
M  V30 3713 C 356.233 -4.68952 -4.24578 0
M  V30 3714 C 354.897 -5.08472 -4.32449 0
M  V30 3715 H 354.167 -0.233107 -0.703379 0
M  V30 3716 H 356.814 -1.2249 -1.47202 0
M  V30 3717 H 355.119 -0.29365 -3.90698 0
M  V30 3718 H 356.816 -0.682449 -3.9515 0
M  V30 3719 H 353.406 -2.09988 -3.73635 0
M  V30 3720 H 357.59 -3.06644 -3.90234 0
M  V30 3721 H 352.846 -4.4494 -4.19331 0
M  V30 3722 H 357.02 -5.42037 -4.37229 0
M  V30 3723 H 354.647 -6.11665 -4.51409 0
M  V30 3724 N 356.222 1.38976 -0.743202 0
M  V30 3725 C 357.468 2.0064 -0.295189 0
M  V30 3726 C 357.801 1.5885 1.11716 0
M  V30 3727 O 357.076 0.821181 1.76315 0
M  V30 3728 C 357.359 3.578 -0.406318 0
M  V30 3729 C 357.212 4.09586 -1.85903 0
M  V30 3730 C 358.531 4.39616 0.206439 0
M  V30 3731 H 355.65 0.728935 -0.108733 0
M  V30 3732 H 358.292 1.65067 -0.940897 0
M  V30 3733 H 356.442 3.88235 0.143419 0
M  V30 3734 H 358.114 3.89837 -2.46627 0
M  V30 3735 H 356.357 3.6284 -2.3776 0
M  V30 3736 H 357.028 5.18708 -1.888 0
M  V30 3737 H 359.504 4.15273 -0.262283 0
M  V30 3738 H 358.38 5.48812 0.0983819 0
M  V30 3739 H 358.641 4.22754 1.2935 0
M  V30 3740 N 357.7 0.491464 1.49741 0
M  V30 3741 C 358.948 -0.0563141 2.02022 0
M  V30 3742 C 359.269 -1.38363 1.37407 0
M  V30 3743 O 358.539 -1.88702 0.526166 0
M  V30 3744 H 357.119 -0.0238014 0.746621 0
M  V30 3745 H 359.781 0.646533 1.83864 0
M  V30 3746 H 358.877 -0.192967 3.11503 0
M  V30 3747 N 359.178 -1.55987 0.224894 0
M  V30 3748 C 360.125 -2.20436 -0.68385 0
M  V30 3749 C 361.095 -1.16102 -1.18783 0
M  V30 3750 O 362.28 -1.4447 -1.24632 0
M  V30 3751 C 359.42 -2.89076 -1.88491 0
M  V30 3752 C 358.533 -4.08012 -1.41951 0
M  V30 3753 C 357.668 -4.64426 -2.5784 0
M  V30 3754 C 356.707 -5.75656 -2.08053 0
M  V30 3755 N 355.844 -6.26347 -3.17227 0
M  V30 3756 H 360.684 -2.97727 -0.12754 0
M  V30 3757 H 358.221 -1.47011 -0.0511978 0
M  V30 3758 H 360.179 -3.27059 -2.59014 0
M  V30 3759 H 358.809 -2.14298 -2.41405 0
M  V30 3760 H 357.861 -3.75492 -0.609095 0
M  V30 3761 H 359.173 -4.88375 -1.01447 0
M  V30 3762 H 358.327 -5.04869 -3.3644 0
M  V30 3763 H 357.066 -3.83233 -3.01635 0
M  V30 3764 H 356.071 -5.34712 -1.27916 0
M  V30 3765 H 357.296 -6.58686 -1.65255 0
M  V30 3766 H 355.242 -5.48067 -3.60497 0
M  V30 3767 H 355.159 -7.01843 -2.80986 0
M  V30 3768 H 356.427 -6.71447 -3.95953 0
M  V30 3769 N 360.656 0.0484629 -1.57525 0
M  V30 3770 C 361.566 1.07241 -2.08654 0
M  V30 3771 C 362.582 1.409 -1.02095 0
M  V30 3772 O 363.758 1.50609 -1.33712 0
M  V30 3773 C 360.823 2.36008 -2.5397 0
M  V30 3774 C 359.884 2.09108 -3.7493 0
M  V30 3775 C 359.117 3.31736 -4.18075 0
M  V30 3776 O 359.34 4.41714 -3.60895 0
M  V30 3777 O 358.274 3.18576 -5.10679 0
M  V30 3778 H 362.1 0.667965 -2.96263 0
M  V30 3779 H 359.685 0.26417 -1.47046 0
M  V30 3780 H 361.567 3.11747 -2.83535 0
M  V30 3781 H 360.242 2.75786 -1.69481 0
M  V30 3782 H 359.149 1.31 -3.50414 0
M  V30 3783 H 360.482 1.74198 -4.60343 0
M  V30 3784 N 362.134 1.5431 0.320358 0
M  V30 3785 C 363.545 1.63872 0.894594 0
M  V30 3786 C 363.896 0.534847 1.88769 0
M  V30 3787 O 363.021 -0.331732 2.13842 0
M  V30 3788 C 363.616 2.97049 1.62934 0
M  V30 3789 C 362.175 3.08796 2.15226 0
M  V30 3790 C 361.322 2.59456 0.978671 0
M  V30 3791 H 364.273 1.58398 0.0978544 0
M  V30 3792 H 364.294 2.87388 2.49376 0
M  V30 3793 H 363.806 3.7737 0.906302 0
M  V30 3794 H 361.907 2.33156 2.90636 0
M  V30 3795 H 362.02 4.14649 2.40006 0
M  V30 3796 H 360.384 2.1543 1.35875 0
M  V30 3797 H 361.167 3.42237 0.269895 0
M  V30 3798 N 363.613 -0.582584 1.46437 0
M  V30 3799 C 364.838 -1.37168 1.55563 0
M  V30 3800 C 365.263 -1.87061 0.19743 0
M  V30 3801 O 364.621 -1.61572 -0.822451 0
M  V30 3802 C 364.669 -2.53511 2.56446 0
M  V30 3803 O 363.773 -3.54953 2.09958 0
M  V30 3804 H 363.114 -0.408494 0.523477 0
M  V30 3805 H 365.644 -0.706646 1.9201 0
M  V30 3806 H 365.654 -3.00426 2.76058 0
M  V30 3807 H 364.329 -2.16549 3.55076 0
M  V30 3808 H 362.906 -3.14516 2.00334 0
M  V30 3809 N 365.091 -1.34144 -0.827227 0
M  V30 3810 C 366.339 -1.26009 -1.58007 0
M  V30 3811 C 366.66 0.170971 -1.94249 0
M  V30 3812 O 365.93 1.10256 -1.61927 0
M  V30 3813 H 364.51 -0.463414 -0.585881 0
M  V30 3814 H 367.172 -1.68005 -0.987951 0
M  V30 3815 H 366.268 -1.86187 -2.50481 0
M  V30 3816 N 366.569 1.04691 -1.17803 0
M  V30 3817 C 367.499 2.14494 -0.92275 0
M  V30 3818 C 368.48 1.69546 0.137179 0
M  V30 3819 O 369.665 1.94195 -0.0141108 0
M  V30 3820 C 366.795 3.44491 -0.440803 0
M  V30 3821 C 365.749 4.03031 -1.4405 0
M  V30 3822 C 365.075 5.28432 -0.81631 0
M  V30 3823 C 366.375 4.39932 -2.81527 0
M  V30 3824 H 368.069 2.36107 -1.84103 0
M  V30 3825 H 365.615 1.1347 -0.886599 0
M  V30 3826 H 367.568 4.2066 -0.249602 0
M  V30 3827 H 366.292 3.22546 0.513025 0
M  V30 3828 H 364.951 3.28937 -1.61853 0
M  V30 3829 H 364.599 5.02792 0.144511 0
M  V30 3830 H 364.299 5.68559 -1.48371 0
M  V30 3831 H 365.823 6.07284 -0.635496 0
M  V30 3832 H 367.237 5.07113 -2.67412 0
M  V30 3833 H 365.634 4.9109 -3.44892 0
M  V30 3834 H 366.704 3.50045 -3.35554 0
M  V30 3835 N 368.047 0.979072 1.23499 0
M  V30 3836 C 369.463 0.687475 1.44034 0
M  V30 3837 C 369.663 -0.746801 1.8715 0
M  V30 3838 O 368.719 -1.51939 2.0167 0
M  V30 3839 C 370.032 1.68127 2.49307 0
M  V30 3840 C 371.58 1.69516 2.63122 0
M  V30 3841 C 372.055 2.67723 3.71603 0
M  V30 3842 N 373.546 2.66233 3.79044 0
M  V30 3843 C 374.281 3.38891 4.62537 0
M  V30 3844 N 373.777 4.21103 5.50131 0
M  V30 3845 N 375.57 3.27661 4.56721 0
M  V30 3846 H 367.721 1.90559 0.938135 0
M  V30 3847 H 369.984 0.821051 0.473897 0
M  V30 3848 H 369.69 2.70693 2.2454 0
M  V30 3849 H 369.564 1.46306 3.4767 0
M  V30 3850 H 371.951 0.676561 2.8724 0
M  V30 3851 H 372.032 1.95404 1.65079 0
M  V30 3852 H 371.676 3.69724 3.48233 0
M  V30 3853 H 371.606 2.39111 4.69184 0
M  V30 3854 H 374.097 2.06568 3.16446 0
M  V30 3855 H 374.41 4.73403 6.10827 0
M  V30 3856 H 372.755 4.25195 5.49759 0
M  V30 3857 H 375.946 2.62887 3.87309 0
M  V30 3858 H 376.119 3.84547 5.21562 0
M  V30 3859 N 369.525 -1.3858 0.750561 0
M  V30 3860 C 370.755 -2.04175 0.31564 0
M  V30 3861 C 371.163 -1.56726 -1.05989 0
M  V30 3862 O 370.506 -0.734225 -1.68389 0
M  V30 3863 C 370.568 -3.58585 0.256389 0
M  V30 3864 C 370.232 -4.29077 1.57296 0
M  V30 3865 C 371.229 -4.54656 2.52159 0
M  V30 3866 C 368.914 -4.67324 1.84156 0
M  V30 3867 C 370.908 -5.17512 3.72103 0
M  V30 3868 C 368.595 -5.29905 3.04374 0
M  V30 3869 C 369.593 -5.54933 3.98168 0
M  V30 3870 O 369.281 -6.16212 5.16273 0
M  V30 3871 H 369.013 -0.662742 0.133226 0
M  V30 3872 H 371.567 -1.78313 1.01948 0
M  V30 3873 H 369.797 -3.83406 -0.503677 0
M  V30 3874 H 371.486 -4.05628 -0.148612 0
M  V30 3875 H 372.252 -4.25539 2.32683 0
M  V30 3876 H 368.131 -4.47191 1.11988 0
M  V30 3877 H 371.675 -5.36963 4.45327 0
M  V30 3878 H 367.572 -5.58444 3.23745 0
M  V30 3879 H 368.34 -6.34701 5.16815 0
M  V30 3880 N 371.003 -0.499398 -1.49478 0
M  V30 3881 C 371.951 0.293604 -2.3074 0
M  V30 3882 C 372.945 0.96427 -1.39277 0
M  V30 3883 O 374.151 0.892141 -1.56336 0
M  V30 3884 H 370.526 0.113541 -0.743379 0
M  V30 3885 H 372.497 -0.411772 -2.95545 0
M  V30 3886 C 371.246 1.3462 -3.20582 0
M  V30 3887 H 370.569 0.83954 -3.90886 0
M  V30 3888 H 372.009 1.87308 -3.80384 0
M  V30 3889 C 370.468 2.36351 -2.40083 0
M  V30 3890 O 370.998 3.422 -2.10385 0
M  V30 3891 N 369.204 2.0878 -2.02137 0
M  V30 3892 H 368.751 1.22723 -2.26488 0
M  V30 3893 H 368.709 2.77075 -1.48583 0
M  V30 3894 N 372.481 1.55866 -0.233164 0
M  V30 3895 C 373.428 2.20796 0.67215 0
M  V30 3896 C 374.398 1.16731 1.18166 0
M  V30 3897 O 375.583 1.45129 1.23864 0
M  V30 3898 C 372.723 2.90072 1.86955 0
M  V30 3899 C 371.836 4.08759 1.39786 0
M  V30 3900 C 370.971 4.65787 2.55374 0
M  V30 3901 C 370.01 5.76752 2.04998 0
M  V30 3902 N 369.147 6.28021 3.13901 0
M  V30 3903 H 373.987 2.9779 0.111749 0
M  V30 3904 H 371.524 1.47036 0.0434007 0
M  V30 3905 H 373.482 3.28428 2.57276 0
M  V30 3906 H 372.112 2.15575 2.40265 0
M  V30 3907 H 371.164 3.7581 0.589173 0
M  V30 3908 H 372.476 4.88906 0.98856 0
M  V30 3909 H 371.63 5.06646 3.33758 0
M  V30 3910 H 370.369 3.84828 2.99598 0
M  V30 3911 H 369.374 5.35383 1.25079 0
M  V30 3912 H 370.599 6.59553 1.61759 0
M  V30 3913 H 368.545 5.49971 3.57586 0
M  V30 3914 H 368.462 7.03323 2.7726 0
M  V30 3915 H 369.73 6.73538 3.92386 0
M  V30 3916 N 373.959 -0.0401083 1.57549 0
M  V30 3917 C 374.889 -1.04384 2.08869 0
M  V30 3918 C 375.87 -1.38407 0.988817 0
M  V30 3919 O 377.055 -1.47483 1.26342 0
M  V30 3920 C 374.185 -2.34808 2.55895 0
M  V30 3921 C 373.139 -2.15057 3.70047 0
M  V30 3922 C 372.465 -3.51145 4.03239 0
M  V30 3923 C 373.765 -1.54576 4.98902 0
M  V30 3924 H 375.459 -0.616666 2.92981 0
M  V30 3925 H 373.005 -0.295184 1.40942 0
M  V30 3926 H 374.958 -3.05346 2.90417 0
M  V30 3927 H 373.682 -2.79565 1.68853 0
M  V30 3928 H 372.341 -1.46954 3.35857 0
M  V30 3929 H 371.989 -3.93529 3.13279 0
M  V30 3930 H 371.689 -3.38758 4.80122 0
M  V30 3931 H 373.213 -4.23062 4.40285 0
M  V30 3932 H 374.627 -2.15017 5.31451 0
M  V30 3933 H 373.024 -1.52796 5.80322 0
M  V30 3934 H 374.094 -0.51039 4.82206 0
M  V30 3935 N 375.437 -1.54477 -0.31217 0
M  V30 3936 C 376.662 -1.77526 -1.07235 0
M  V30 3937 C 377.087 -0.527775 -1.80544 0
M  V30 3938 O 376.445 0.52121 -1.73646 0
M  V30 3939 C 376.493 -2.97535 -2.03728 0
M  V30 3940 O 375.597 -2.69878 -3.11833 0
M  V30 3941 H 374.938 -0.58792 -0.30862 0
M  V30 3942 H 377.468 -2.01532 -0.352993 0
M  V30 3943 H 377.478 -3.25198 -2.46395 0
M  V30 3944 H 376.153 -3.87996 -1.49774 0
M  V30 3945 H 374.73 -2.53199 -2.7376 0
M  V30 3946 N 376.915 0.57481 -1.46744 0
M  V30 3947 C 377.845 1.69337 -1.60771 0
M  V30 3948 C 378.826 1.63825 -0.457736 0
M  V30 3949 O 380.011 1.8172 -0.684947 0
M  V30 3950 C 377.141 3.0798 -1.60517 0
M  V30 3951 C 376.095 3.28327 -2.74564 0
M  V30 3952 C 375.421 4.67578 -2.59373 0
M  V30 3953 C 376.721 3.15398 -4.16319 0
M  V30 3954 H 378.415 1.57853 -2.54407 0
M  V30 3955 H 375.961 0.75799 -1.22436 0
M  V30 3956 H 377.914 3.86061 -1.68923 0
M  V30 3957 H 376.638 3.20381 -0.634305 0
M  V30 3958 H 375.297 2.52649 -2.65639 0
M  V30 3959 H 374.945 4.76755 -1.60353 0
M  V30 3960 H 374.645 4.82144 -3.35873 0
M  V30 3961 H 376.169 5.47817 -2.69682 0
M  V30 3962 H 377.583 3.83315 -4.26313 0
M  V30 3963 H 375.98 3.41482 -4.93468 0
M  V30 3964 H 377.05 2.12372 -4.3592 0
M  V30 3965 N 378.394 1.34581 0.820102 0
M  V30 3966 C 379.342 1.26401 1.95258 0
M  V30 3967 C 380.336 0.161553 1.68628 0
M  V30 3968 O 381.542 0.326703 1.7701 0
M  V30 3969 H 377.917 0.392749 0.64129 0
M  V30 3970 H 379.888 2.22105 1.99279 0
M  V30 3971 C 378.637 1.03919 3.31807 0
M  V30 3972 H 377.96 1.87984 3.52848 0
M  V30 3973 H 379.4 1.02232 4.11491 0
M  V30 3974 C 377.859 -0.257433 3.35915 0
M  V30 3975 O 378.389 -1.25784 3.81499 0
M  V30 3976 N 376.595 -0.291524 2.89134 0
M  V30 3977 H 376.142 0.523161 2.52232 0
M  V30 3978 H 376.1 -1.15883 2.92264 0
M  V30 3979 N 379.872 -1.04064 1.18357 0
M  V30 3980 C 380.782 -2.15569 0.925596 0
M  V30 3981 C 381.798 -1.7365 -0.110295 0
M  V30 3982 O 382.974 -2.01273 0.0716218 0
M  V30 3983 C 380.039 -3.43704 0.454836 0
M  V30 3984 C 379.1 -4.00004 1.55869 0
M  V30 3985 C 378.333 -5.22023 1.1103 0
M  V30 3986 O 378.556 -5.70392 -0.0309756 0
M  V30 3987 O 377.49 -5.70856 1.90805 0
M  V30 3988 H 381.316 -2.40187 1.8586 0
M  V30 3989 H 378.901 -1.1402 0.965394 0
M  V30 3990 H 380.783 -4.20923 0.200382 0
M  V30 3991 H 379.458 -3.20559 -0.449876 0
M  V30 3992 H 378.365 -3.24172 1.86716 0
M  V30 3993 H 379.698 -4.2749 2.43953 0
M  V30 3994 N 381.35 -0.985608 -1.22978 0
M  V30 3995 C 382.26 -0.538548 -2.28335 0
M  V30 3996 C 383.276 0.409163 -1.69121 0
M  V30 3997 O 384.452 0.277797 -1.99475 0
M  V30 3998 C 381.517 0.146867 -3.46389 0
M  V30 3999 C 380.578 -0.842896 -4.20944 0
M  V30 4000 C 379.811 -0.190095 -5.33361 0
M  V30 4001 O 380.034 1.01767 -5.61248 0
M  V30 4002 O 378.968 -0.891289 -5.95264 0
M  V30 4003 H 382.794 -1.41487 -2.68729 0
M  V30 4004 H 380.379 -0.753495 -1.29007 0
M  V30 4005 H 382.261 0.531125 -4.1804 0
M  V30 4006 H 380.936 0.997871 -3.07935 0
M  V30 4007 H 379.843 -1.27795 -3.51595 0
M  V30 4008 H 381.176 -1.66287 -4.6326 0
M  V30 4009 N 382.828 1.3818 -0.7579 0
M  V30 4010 C 384.076 1.99624 -0.315361 0
M  V30 4011 C 384.397 1.60464 1.10799 0
M  V30 4012 O 383.667 0.863507 1.75842 0
M  V30 4013 H 382.247 0.73831 -0.113611 0
M  V30 4014 H 384.909 1.68878 -0.972952 0
M  V30 4015 H 384.005 3.09754 -0.381931 0
M  V30 4016 N 384.306 0.507319 1.49211 0
M  V30 4017 C 385.555 -0.0368315 2.01666 0
M  V30 4018 C 385.868 -1.37459 1.39156 0
M  V30 4019 O 387.074 -2.00579 1.82976 0
M  V30 4020 C 385.53 -0.116089 3.59713 0
M  V30 4021 C 385.138 1.2154 4.31198 0
M  V30 4022 C 386.882 -0.610268 4.2009 0
M  V30 4023 C 384.789 1.09796 5.81119 0
M  V30 4024 H 383.719 -0.0175376 0.753796 0
M  V30 4025 H 386.37 0.647691 1.71689 0
M  V30 4026 H 384.752 -0.8652 3.86433 0
M  V30 4027 H 385.926 1.9783 4.16173 0
M  V30 4028 H 384.241 1.64352 3.82593 0
M  V30 4029 H 386.838 -0.715742 5.29888 0
M  V30 4030 H 387.181 -1.61064 3.8388 0
M  V30 4031 H 387.714 0.0824916 3.97714 0
M  V30 4032 H 384.453 2.0728 6.21864 0
M  V30 4033 H 383.973 0.376058 5.9862 0
M  V30 4034 H 385.652 0.779281 6.4229 0
M  V30 4035 N 385.784 -1.5574 0.241426 0
M  V30 4036 C 387.195 -1.84842 -0.262755 0
M  V30 4037 C 387.546 -1.16317 -1.58003 0
M  V30 4038 O 386.671 -0.439653 -2.11887 0
M  V30 4039 C 387.266 -3.35332 -0.483523 0
M  V30 4040 C 385.825 -3.6468 -0.931977 0
M  V30 4041 C 384.972 -2.77299 -0.0061151 0
M  V30 4042 H 387.923 -1.51761 0.464129 0
M  V30 4043 H 387.944 -3.56615 -1.32688 0
M  V30 4044 H 387.456 -3.85178 0.47537 0
M  V30 4045 H 385.557 -3.20307 -1.90353 0
M  V30 4046 H 385.67 -4.72498 -0.792628 0
M  V30 4047 H 384.034 -2.49408 -0.516503 0
M  V30 4048 H 384.817 -3.2995 0.948052 0
M  V30 4049 N 387.262 0.0317525 -1.57568 0
M  V30 4050 C 388.212 1.04101 -2.02847 0
M  V30 4051 C 389.196 1.3219 -0.917317 0
M  V30 4052 O 390.388 1.31819 -1.18121 0
M  V30 4053 C 387.517 2.34295 -2.5092 0
M  V30 4054 C 386.603 2.09308 -3.68851 0
M  V30 4055 N 386.994 1.5437 -4.81667 0
M  V30 4056 C 385.292 2.39604 -3.76172 0
M  V30 4057 C 385.993 1.45126 -5.63306 0
M  V30 4058 N 384.969 1.92589 -5.08341 0
M  V30 4059 H 388.771 0.610217 -2.87495 0
M  V30 4060 H 386.285 0.238108 -1.60645 0
M  V30 4061 H 388.282 3.07404 -2.81617 0
M  V30 4062 H 386.942 2.78055 -1.67677 0
M  V30 4063 H 387.953 1.22678 -5.03161 0
M  V30 4064 H 384.63 2.86457 -3.03724 0
M  V30 4065 H 386.02 1.03163 -6.63933 0
M  V30 4066 N 388.74 1.54641 0.303973 0
M  V30 4067 C 389.688 1.86137 1.39484 0
M  V30 4068 C 390.682 0.734854 1.52631 0
M  V30 4069 O 391.888 0.918803 1.54784 0
M  V30 4070 H 388.263 0.590324 0.465856 0
M  V30 4071 H 390.234 2.77324 1.10154 0
M  V30 4072 C 388.983 2.12274 2.75382 0
M  V30 4073 H 388.306 2.98429 2.66046 0
M  V30 4074 H 389.746 2.38254 3.5073 0
M  V30 4075 C 388.205 0.920365 3.24085 0
M  V30 4076 O 388.735 0.139377 4.01458 0
M  V30 4077 N 386.941 0.726566 2.81371 0
M  V30 4078 H 386.488 1.36332 2.18567 0
M  V30 4079 H 386.446 -0.0763799 3.14307 0
M  V30 4080 N 390.218 -0.567019 1.47046 0
M  V30 4081 C 391.629 -1.14916 1.47143 0
M  V30 4082 C 391.98 -1.94954 0.220767 0
M  V30 4083 O 391.105 -2.05602 -0.67505 0
M  V30 4084 C 391.7 -2.09069 2.666 0
M  V30 4085 C 390.259 -2.62575 2.69687 0
M  V30 4086 C 389.406 -1.38755 2.40088 0
M  V30 4087 H 392.357 -0.354126 1.54699 0
M  V30 4088 H 392.378 -2.92789 2.43011 0
M  V30 4089 H 391.89 -1.50789 3.57609 0
M  V30 4090 H 389.991 -3.24681 1.82792 0
M  V30 4091 H 390.104 -3.04239 3.70102 0
M  V30 4092 H 388.468 -1.69098 1.90468 0
M  V30 4093 H 389.251 -0.822822 3.33293 0
M  V30 4094 N 391.696 -1.35014 -0.812953 0
M  V30 4095 C 392.629 -1.21761 -1.93001 0
M  V30 4096 C 393.607 -0.10694 -1.62248 0
M  V30 4097 O 394.791 -0.273891 -1.865 0
M  V30 4098 C 391.918 -0.873404 -3.27245 0
M  V30 4099 C 390.964 -1.99523 -3.76952 0
M  V30 4100 S 391.797 -3.61009 -3.95516 0
M  V30 4101 C 392.953 -3.28651 -5.32672 0
M  V30 4102 H 393.186 -2.16315 -2.03948 0
M  V30 4103 H 390.719 -1.20156 -0.969631 0
M  V30 4104 H 392.677 -0.68161 -4.04802 0
M  V30 4105 H 391.338 0.053971 -3.14054 0
M  V30 4106 H 390.531 -1.70838 -4.74163 0
M  V30 4107 H 390.133 -2.14503 -3.06373 0
M  V30 4108 H 392.425 -2.81085 -6.1644 0
M  V30 4109 H 393.368 -4.25039 -5.66346 0
M  V30 4110 H 393.776 -2.6458 -4.98656 0
M  V30 4111 N 393.175 1.03435 -1.18907 0
M  V30 4112 C 394.421 1.77005 -0.989798 0
M  V30 4113 C 394.754 1.88205 0.478816 0
M  V30 4114 O 394.029 1.39481 1.35556 0
M  V30 4115 C 394.312 3.19925 -1.65287 0
M  V30 4116 C 394.165 3.1663 -3.19477 0
M  V30 4117 C 395.484 4.18189 -1.37134 0
M  V30 4118 H 392.603 0.642538 -0.360991 0
M  V30 4119 H 395.245 1.20784 -1.46667 0
M  V30 4120 H 393.395 3.67929 -1.24741 0
M  V30 4121 H 395.067 2.76567 -3.692 0
M  V30 4122 H 393.31 2.54491 -3.51307 0
M  V30 4123 H 393.981 4.1758 -3.61013 0
M  V30 4124 H 396.457 3.78761 -1.72276 0
M  V30 4125 H 395.333 5.16394 -1.86087 0
M  V30 4126 H 395.594 4.41112 -0.295424 0
M  V30 4127 N 394.653 0.992116 1.22453 0
M  V30 4128 C 395.601 0.534644 2.26372 0
M  V30 4129 C 396.595 -0.414293 1.64256 0
M  V30 4130 O 397.801 -0.286899 1.77699 0
M  V30 4131 H 394.176 0.154502 0.735957 0
M  V30 4132 H 396.147 1.42256 2.62309 0
M  V30 4133 C 394.896 -0.135815 3.47435 0
M  V30 4134 H 394.219 0.585311 3.95492 0
M  V30 4135 H 395.659 -0.419374 4.21921 0
M  V30 4136 C 394.118 -1.37089 3.07747 0
M  V30 4137 O 394.648 -2.46629 3.17076 0
M  V30 4138 N 392.854 -1.24585 2.62539 0
M  V30 4139 H 392.401 -0.354542 2.55149 0
M  V30 4140 H 392.359 -2.07327 2.36353 0
M  V30 4141 N 396.131 -1.37776 0.765217 0
M  V30 4142 C 397.094 -2.28686 0.153416 0
M  V30 4143 C 398.094 -1.47727 -0.635081 0
M  V30 4144 O 399.284 -1.68027 -0.459632 0
M  V30 4145 C 396.416 -3.31608 -0.790495 0
M  V30 4146 H 397.609 -2.84297 0.954723 0
M  V30 4147 H 395.162 -1.46932 0.53299 0
M  V30 4148 H 395.897 -2.81109 -1.61705 0
M  V30 4149 H 395.682 -3.9144 -0.227348 0
M  V30 4150 H 397.172 -3.99559 -1.21419 0
M  V30 4151 N 397.609 -0.515225 -1.4894 0
M  V30 4152 C 398.857 0.0241671 -2.02086 0
M  V30 4153 C 399.178 1.3616 -1.3959 0
M  V30 4154 O 398.448 1.87841 -0.556121 0
M  V30 4155 H 397.028 0.0119203 -0.746905 0
M  V30 4156 H 399.69 -0.675702 -1.82812 0
M  V30 4157 H 398.786 0.143385 -3.1177 0
M  V30 4158 N 399.087 1.5561 -0.249682 0
M  V30 4159 C 400.05 2.20217 0.635394 0
M  V30 4160 C 401.05 1.17227 1.10066 0
M  V30 4161 O 402.24 1.42292 1.00492 0
M  V30 4162 C 399.372 2.84794 1.87363 0
M  V30 4163 H 400.565 2.99814 0.0716752 0
M  V30 4164 H 398.118 1.563 -0.000153234 0
M  V30 4165 H 398.853 2.09142 2.47851 0
M  V30 4166 H 398.638 3.60241 1.5482 0
M  V30 4167 H 400.128 3.3423 2.5036 0
M  V30 4168 N 400.565 -0.0233959 1.57583 0
M  V30 4169 C 401.814 -0.712133 1.8871 0
M  V30 4170 C 402.127 -1.76217 0.848944 0
M  V30 4171 O 403.333 -2.50389 1.04964 0
M  V30 4172 C 401.789 -1.3177 3.3491 0
M  V30 4173 C 401.397 -0.303715 4.46969 0
M  V30 4174 C 403.141 -1.98598 3.75179 0
M  V30 4175 C 401.048 -0.917945 5.84233 0
M  V30 4176 H 399.978 -0.269735 0.704101 0
M  V30 4177 H 402.629 0.0333114 1.8347 0
M  V30 4178 H 401.011 -2.11304 3.34913 0
M  V30 4179 H 402.185 0.465325 4.58445 0
M  V30 4180 H 400.5 0.2628 4.1557 0
M  V30 4181 H 403.097 -2.45416 4.75053 0
M  V30 4182 H 403.44 -2.80659 3.07468 0
M  V30 4183 H 403.973 -1.25831 3.77374 0
M  V30 4184 H 400.712 -0.136633 6.55358 0
M  V30 4185 H 400.232 -1.65669 5.76467 0
M  V30 4186 H 401.911 -1.4236 6.31144 0
M  V30 4187 N 402.043 -1.548 -0.295768 0
M  V30 4188 C 403.289 -1.74588 -1.03184 0
M  V30 4189 C 403.622 -0.532962 -1.86744 0
M  V30 4190 O 402.897 0.469872 -1.88739 0
M  V30 4191 C 403.18 -3.03791 -1.93347 0
M  V30 4192 C 403.033 -4.35392 -1.12933 0
M  V30 4193 C 404.352 -3.28892 -2.92435 0
M  V30 4194 H 401.471 -0.635221 -0.373715 0
M  V30 4195 H 404.113 -1.87519 -0.30606 0
M  V30 4196 H 402.263 -2.92898 -2.55232 0
M  V30 4197 H 403.935 -4.58211 -0.532943 0
M  V30 4198 H 402.178 -4.31642 -0.432168 0
M  V30 4199 H 402.849 -5.22074 -1.79284 0
M  V30 4200 H 405.325 -3.39429 -2.4068 0
M  V30 4201 H 404.201 -4.20603 -3.52682 0
M  V30 4202 H 404.462 -2.47437 -3.6637 0
M  V30 4203 N 403.521 0.559213 -1.47345 0
M  V30 4204 C 404.767 1.31843 -1.54095 0
M  V30 4205 C 405.1 1.93149 -0.201726 0
M  V30 4206 O 404.375 1.77759 0.789428 0
M  V30 4207 C 404.658 2.43006 -2.65744 0
M  V30 4208 C 404.511 1.86581 -4.09277 0
M  V30 4209 C 405.83 3.44943 -2.73318 0
M  V30 4210 H 402.949 0.478012 -0.560957 0
M  V30 4211 H 405.591 0.625977 -1.79392 0
M  V30 4212 H 403.741 3.02072 -2.44305 0
M  V30 4213 H 405.413 1.31792 -4.42073 0
M  V30 4214 H 403.656 1.17268 -4.17649 0
M  V30 4215 H 404.327 2.66933 -4.83168 0
M  V30 4216 H 406.803 2.95793 -2.92653 0
M  V30 4217 H 405.679 4.20153 -3.53218 0
M  V30 4218 H 405.94 4.03665 -1.80296 0
M  V30 4219 N 404.999 1.35443 0.805782 0
M  V30 4220 C 406.224 1.32037 1.59941 0
M  V30 4221 C 406.649 -0.0994215 1.87837 0
M  V30 4222 O 406.007 -1.06648 1.46615 0
M  V30 4223 C 406.055 2.13354 2.90711 0
M  V30 4224 O 405.159 1.5148 3.83572 0
M  V30 4225 H 404.5 0.452666 0.485787 0
M  V30 4226 H 407.03 1.78496 1.00002 0
M  V30 4227 H 407.04 2.25338 3.40128 0
M  V30 4228 H 405.715 3.16572 2.69732 0
M  V30 4229 H 404.292 1.4834 3.42125 0
M  V30 4230 N 406.477 -1.02803 1.19454 0
M  V30 4231 C 407.702 -1.80378 1.02364 0
M  V30 4232 C 408.127 -1.83282 -0.423007 0
M  V30 4233 O 407.485 -1.25945 -1.30413 0
M  V30 4234 C 407.533 -3.23248 1.59821 0
M  V30 4235 O 406.637 -4.04 0.828105 0
M  V30 4236 H 405.978 -0.556799 0.361761 0
M  V30 4237 H 408.508 -1.29385 1.58495 0
M  V30 4238 H 408.518 -3.73994 1.63073 0
M  V30 4239 H 407.193 -3.2045 2.65113 0
M  V30 4240 H 405.77 -3.62635 0.86891 0
M  V30 4241 N 407.956 -0.998596 -1.21925 0
M  V30 4242 C 408.886 -0.573688 -2.26343 0
M  V30 4243 C 409.867 0.402296 -1.65274 0
M  V30 4244 O 411.052 0.291683 -1.91997 0
M  V30 4245 C 408.182 0.106839 -3.47136 0
M  V30 4246 C 407.136 -0.788269 -4.20678 0
M  V30 4247 C 406.462 0.0254927 -5.34694 0
M  V30 4248 C 407.762 -2.08784 -4.78755 0
M  V30 4249 H 409.456 -1.44651 -2.62138 0
M  V30 4250 H 407.002 -0.696975 -1.26009 0
M  V30 4251 H 408.955 0.415531 -4.19346 0
M  V30 4252 H 407.679 1.01424 -3.10452 0
M  V30 4253 H 406.338 -1.08069 -3.50309 0
M  V30 4254 H 405.986 0.933989 -4.94253 0
M  V30 4255 H 405.686 -0.570437 -5.84825 0
M  V30 4256 H 407.21 0.328147 -6.09718 0
M  V30 4257 H 408.624 -1.84272 -5.42878 0
M  V30 4258 H 407.021 -2.63307 -5.39249 0
M  V30 4259 H 408.091 -2.76284 -3.98491 0
M  V30 4260 N 409.434 1.37368 -0.772513 0
M  V30 4261 C 410.683 1.98918 -0.333861 0
M  V30 4262 C 410.996 1.62017 1.09589 0
M  V30 4263 O 412.202 2.16676 1.63596 0
M  V30 4264 C 410.658 3.55735 -0.545971 0
M  V30 4265 C 410.266 4.01573 -1.98603 0
M  V30 4266 C 412.01 4.24156 -0.170979 0
M  V30 4267 C 409.917 5.51102 -2.1457 0
M  V30 4268 H 408.847 0.744214 -0.121085 0
M  V30 4269 H 411.498 1.56888 -0.95175 0
M  V30 4270 H 409.88 3.95748 0.141387 0
M  V30 4271 H 411.054 3.72803 -2.7084 0
M  V30 4272 H 409.369 3.45937 -2.31769 0
M  V30 4273 H 411.966 5.34024 -0.26878 0
M  V30 4274 H 412.309 4.06917 0.878855 0
M  V30 4275 H 412.842 3.89447 -0.810914 0
M  V30 4276 H 409.581 5.73268 -3.17875 0
M  V30 4277 H 409.101 5.81554 -1.46817 0
M  V30 4278 H 410.78 6.17083 -1.94468 0
M  V30 4279 N 410.912 0.523116 1.48665 0
M  V30 4280 C 411.859 -0.243398 2.29513 0
M  V30 4281 C 412.829 -0.940139 1.36933 0
M  V30 4282 O 414.014 -0.942503 1.65896 0
M  V30 4283 C 411.154 -1.28855 3.20141 0
M  V30 4284 C 410.267 -0.60135 4.27794 0
M  V30 4285 C 409.402 -1.62884 5.05611 0
M  V30 4286 C 408.441 -0.924726 6.05075 0
M  V30 4287 N 407.578 -1.89744 6.75975 0
M  V30 4288 H 412.418 0.452234 2.94549 0
M  V30 4289 H 409.955 0.234858 1.45213 0
M  V30 4290 H 411.913 -1.90674 3.71079 0
M  V30 4291 H 410.543 -1.95266 2.57043 0
M  V30 4292 H 409.595 0.130623 3.80176 0
M  V30 4293 H 410.907 -0.0481585 4.98777 0
M  V30 4294 H 410.061 -2.32149 5.60528 0
M  V30 4295 H 408.8 -2.21592 4.34452 0
M  V30 4296 H 407.805 -0.217966 5.49368 0
M  V30 4297 H 409.03 -0.343851 6.78229 0
M  V30 4298 H 406.976 -2.47373 6.07571 0
M  V30 4299 H 406.893 -1.3955 7.43009 0
M  V30 4300 H 408.161 -2.58229 7.35485 0
M  V30 4301 N 412.39 -1.55475 0.257931 0
M  V30 4302 C 413.323 -2.179 -0.677862 0
M  V30 4303 C 414.301 -1.13448 -1.16483 0
M  V30 4304 O 415.485 -1.41889 -1.24095 0
M  V30 4305 C 412.612 -2.78851 -1.92249 0
M  V30 4306 C 411.658 -3.96454 -1.57246 0
M  V30 4307 S 412.491 -5.31349 -0.665501 0
M  V30 4308 C 413.647 -5.9576 -1.91889 0
M  V30 4309 H 413.88 -2.96934 -0.147396 0
M  V30 4310 H 411.413 -1.54342 0.0423023 0
M  V30 4311 H 413.371 -3.14602 -2.63697 0
M  V30 4312 H 412.032 -1.99742 -2.42409 0
M  V30 4313 H 411.225 -4.37731 -2.49814 0
M  V30 4314 H 410.827 -3.62038 -0.938325 0
M  V30 4315 H 413.119 -6.13947 -2.86487 0
M  V30 4316 H 414.062 -6.9094 -1.54942 0
M  V30 4317 H 414.47 -5.2494 -2.076 0
M  V30 4318 N 413.868 0.0150385 -1.57593 0
M  V30 4319 C 415.145 0.7392 -1.81094 0
M  V30 4320 C 415.525 1.92817 -0.859344 0
M  V30 4321 O 414.873 2.28301 0.095362 0
M  V30 4322 C 415.083 1.15907 -3.29191 0
M  V30 4323 C 416.431 1.56918 -3.9454 0
M  V30 4324 O 417.455 1.25328 -3.33424 0
M  V30 4325 O 416.314 2.15604 -5.02173 0
M  V30 4326 H 413.408 0.358631 -0.745193 0
M  V30 4327 H 415.954 -0.00926156 -1.69697 0
M  V30 4328 H 414.726 0.310921 -3.90063 0
M  V30 4329 H 414.349 1.96711 -3.45529 0
M  V30 4330 N 415.346 1.54954 0.287554 0
M  V30 4331 C 416.586 1.76617 1.02887 0
M  V30 4332 C 416.95 0.547759 1.84021 0
M  V30 4333 O 418.151 0.642365 2.61012 0
M  V30 4334 C 416.422 3.02717 1.89993 0
M  V30 4335 S 417.981 3.45438 2.70588 0
M  V30 4336 H 414.799 0.6207 0.346775 0
M  V30 4337 H 417.401 1.93172 0.30082 0
M  V30 4338 H 416.105 3.89503 1.29287 0
M  V30 4339 H 415.636 2.88787 2.67144 0
M  V30 4340 H 417.651 3.03566 3.92508 0
M  V30 4341 N 416.824 -0.551391 1.4764 0
M  V30 4342 C 417.772 -1.67896 1.60978 0
M  V30 4343 C 418.766 -1.62549 0.476877 0
M  V30 4344 O 419.972 -1.67664 0.654878 0
M  V30 4345 H 416.347 -0.555649 0.506713 0
M  V30 4346 H 418.318 -1.53784 2.55721 0
M  V30 4347 C 417.067 -3.06234 1.64669 0
M  V30 4348 H 416.39 -3.11033 2.51194 0
M  V30 4349 H 417.83 -3.84804 1.7805 0
M  V30 4350 C 416.289 -3.34737 0.381115 0
M  V30 4351 O 416.819 -3.98381 -0.515297 0
M  V30 4352 N 415.025 -2.8944 0.259354 0
M  V30 4353 H 414.572 -2.37827 0.98976 0
M  V30 4354 H 414.53 -3.08882 -0.586464 0
M  V30 4355 N 418.302 -1.35869 -0.798587 0
M  V30 4356 C 419.249 -1.29446 -1.91082 0
M  V30 4357 C 420.219 -0.16487 -1.6528 0
M  V30 4358 O 421.404 -0.349888 -1.87564 0
M  V30 4359 C 418.544 -1.0804 -3.27752 0
M  V30 4360 C 417.657 -2.29993 -3.65687 0
M  V30 4361 C 416.792 -2.01673 -4.91428 0
M  V30 4362 C 415.831 -3.19636 -5.22015 0
M  V30 4363 N 414.968 -2.91039 -6.38937 0
M  V30 4364 H 419.808 -2.24553 -1.95907 0
M  V30 4365 H 417.345 -1.11615 -0.958148 0
M  V30 4366 H 419.303 -0.936586 -4.06551 0
M  V30 4367 H 417.933 -0.16592 -3.22373 0
M  V30 4368 H 416.985 -2.55211 -2.82085 0
M  V30 4369 H 418.297 -3.18052 -3.84245 0
M  V30 4370 H 417.451 -1.84168 -5.78072 0
M  V30 4371 H 416.19 -1.10911 -4.74921 0
M  V30 4372 H 415.195 -3.37709 -4.33858 0
M  V30 4373 H 416.42 -4.11211 -5.40447 0
M  V30 4374 H 414.366 -2.0288 -6.2384 0
M  V30 4375 H 414.283 -3.72635 -6.57784 0
M  V30 4376 H 415.551 -2.77093 -7.28587 0
M  V30 4377 N 419.78 1.02168 -1.19998 0
M  V30 4378 C 420.743 2.08765 -0.94604 0
M  V30 4379 C 421.743 1.60618 0.0763846 0
M  V30 4380 O 422.933 1.73472 -0.159135 0
M  V30 4381 C 420.065 3.38262 -0.423255 0
M  V30 4382 H 421.258 2.32726 -1.89153 0
M  V30 4383 H 418.811 1.1889 -1.01464 0
M  V30 4384 H 419.546 3.19974 0.527938 0
M  V30 4385 H 419.331 3.74532 -1.16053 0
M  V30 4386 H 420.821 4.16759 -0.264911 0
M  V30 4387 N 421.258 1.00505 1.21394 0
M  V30 4388 C 422.168 0.574806 2.27449 0
M  V30 4389 C 423.184 -0.382206 1.6975 0
M  V30 4390 O 424.36 -0.246027 1.99892 0
M  V30 4391 C 421.425 -0.0917414 3.46579 0
M  V30 4392 C 420.486 0.909758 4.1955 0
M  V30 4393 C 419.719 0.274924 5.32991 0
M  V30 4394 O 419.942 -0.928254 5.62796 0
M  V30 4395 O 418.876 0.985877 5.93771 0
M  V30 4396 H 422.702 1.45744 2.66444 0
M  V30 4397 H 420.287 0.773923 1.27792 0
M  V30 4398 H 422.169 -0.464551 4.18832 0
M  V30 4399 H 420.844 -0.948755 3.09484 0
M  V30 4400 H 419.751 1.33372 3.49518 0
M  V30 4401 H 421.084 1.73636 4.60555 0
M  V30 4402 N 422.737 -1.36956 0.779787 0
M  V30 4403 C 423.684 -2.30175 0.169697 0
M  V30 4404 C 424.654 -1.51501 -0.68094 0
M  V30 4405 O 425.839 -1.80042 -0.631629 0
M  V30 4406 C 422.979 -3.37985 -0.697131 0
M  V30 4407 C 422.092 -4.31661 0.170992 0
M  V30 4408 C 421.227 -5.2655 -0.701298 0
M  V30 4409 C 420.266 -6.11867 0.168869 0
M  V30 4410 N 419.403 -6.98973 -0.661855 0
M  V30 4411 H 424.243 -2.81767 0.970135 0
M  V30 4412 H 421.78 -1.38699 0.489994 0
M  V30 4413 H 423.738 -3.99128 -1.2146 0
M  V30 4414 H 422.368 -2.87739 -1.46309 0
M  V30 4415 H 421.42 -3.71756 0.80634 0
M  V30 4416 H 422.732 -4.91644 0.841875 0
M  V30 4417 H 421.886 -5.92937 -1.28494 0
M  V30 4418 H 420.625 -4.66998 -1.40584 0
M  V30 4419 H 419.63 -5.44452 0.764986 0
M  V30 4420 H 420.855 -6.73493 0.870863 0
M  V30 4421 H 418.801 -6.41941 -1.35086 0
M  V30 4422 H 418.718 -7.55984 -0.0484447 0
M  V30 4423 H 419.986 -7.6974 -1.22963 0
M  V30 4424 N 424.215 -0.530993 -1.48385 0
M  V30 4425 C 425.462 0.0027373 -2.025 0
M  V30 4426 C 425.79 1.34186 -1.40799 0
M  V30 4427 O 425.045 1.88 -0.543544 0
M  V30 4428 C 425.344 0.172742 -3.56982 0
M  V30 4429 C 425.01 -1.09215 -4.37473 0
M  V30 4430 C 423.672 -1.43881 -4.59186 0
M  V30 4431 C 426.024 -1.93153 -4.84088 0
M  V30 4432 C 423.352 -2.62381 -5.2476 0
M  V30 4433 C 425.704 -3.10833 -5.50968 0
M  V30 4434 C 424.368 -3.45843 -5.70919 0
M  V30 4435 H 423.638 0.00100165 -0.740999 0
M  V30 4436 H 426.285 -0.697219 -1.78357 0
M  V30 4437 H 424.59 0.955473 -3.79971 0
M  V30 4438 H 426.287 0.600642 -3.96476 0
M  V30 4439 H 422.877 -0.812177 -4.20834 0
M  V30 4440 H 427.061 -1.67683 -4.67115 0
M  V30 4441 H 422.317 -2.89707 -5.38405 0
M  V30 4442 H 426.491 -3.7618 -5.86056 0
M  V30 4443 H 424.118 -4.37764 -6.21503 0
M  V30 4444 N 425.693 1.55336 -0.266172 0
M  V30 4445 C 426.97 1.91372 0.404486 0
M  V30 4446 C 427.35 1.18935 1.74407 0
M  V30 4447 O 426.698 0.3132 2.26343 0
M  V30 4448 C 426.908 3.44581 0.553593 0
M  V30 4449 C 428.256 4.16196 0.840618 0
M  V30 4450 O 429.28 3.50426 0.638739 0
M  V30 4451 O 428.139 5.32567 1.22618 0
M  V30 4452 H 425.233 0.797194 0.220025 0
M  V30 4453 H 427.779 1.66813 -0.311664 0
M  V30 4454 H 426.551 3.89357 -0.389498 0
M  V30 4455 H 426.174 3.75065 1.31955 0
M  V30 4456 N 427.171 -0.0066808 1.57599 0
M  V30 4457 C 428.418 -0.69292 1.90276 0
M  V30 4458 C 428.746 -1.74148 0.866192 0
M  V30 4459 O 428.001 -1.95268 -0.129933 0
M  V30 4460 C 428.3 -1.37939 3.29708 0
M  V30 4461 C 427.966 -0.464679 4.48499 0
M  V30 4462 C 426.628 -0.212809 4.80729 0
M  V30 4463 C 428.98 0.16551 5.20937 0
M  V30 4464 C 426.308 0.677653 5.82773 0
M  V30 4465 C 428.66 1.04381 6.23929 0
M  V30 4466 C 427.324 1.30492 6.54621 0
M  V30 4467 H 426.594 -0.253558 0.696268 0
M  V30 4468 H 429.241 0.0474123 1.91441 0
M  V30 4469 H 427.546 -2.1936 3.24636 0
M  V30 4470 H 429.243 -1.9163 3.52249 0
M  V30 4471 H 425.833 -0.671153 4.23313 0
M  V30 4472 H 430.017 -0.0160756 4.96297 0
M  V30 4473 H 425.273 0.88803 6.04917 0
M  V30 4474 H 429.447 1.53851 6.79193 0
M  V30 4475 H 427.074 1.99662 7.33512 0
M  V30 4476 N 428.649 -1.55105 -0.279332 0
M  V30 4477 C 429.895 -1.75672 -1.01327 0
M  V30 4478 C 430.228 -0.552739 -1.86168 0
M  V30 4479 O 429.503 0.449827 -1.89227 0
M  V30 4480 C 429.786 -3.05825 -1.90114 0
M  V30 4481 C 429.639 -4.36565 -1.08309 0
M  V30 4482 C 430.958 -3.31975 -2.8893 0
M  V30 4483 H 428.077 -0.639149 -0.366957 0
M  V30 4484 H 430.719 -1.87833 -0.286154 0
M  V30 4485 H 428.869 -2.95588 -2.52111 0
M  V30 4486 H 430.541 -4.58751 -0.484314 0
M  V30 4487 H 428.784 -4.32076 -0.386362 0
M  V30 4488 H 429.455 -5.23946 -1.73737 0
M  V30 4489 H 431.931 -3.41963 -2.37067 0
M  V30 4490 H 430.807 -4.2432 -3.48201 0
M  V30 4491 H 431.068 -2.51309 -3.63725 0
M  V30 4492 N 430.127 0.543554 -1.4793 0
M  V30 4493 C 431.057 1.65888 -1.64327 0
M  V30 4494 C 432.038 1.62818 -0.492383 0
M  V30 4495 O 433.223 1.80226 -0.723338 0
M  V30 4496 C 430.353 3.04506 -1.67013 0
M  V30 4497 C 429.307 3.2243 -2.81466 0
M  V30 4498 C 428.633 4.61972 -2.69233 0
M  V30 4499 C 429.933 3.06496 -4.22915 0
M  V30 4500 H 431.627 1.52421 -2.57698 0
M  V30 4501 H 429.173 0.731849 -1.24016 0
M  V30 4502 H 431.126 3.82391 -1.77074 0
M  V30 4503 H 429.85 3.18964 -0.70212 0
M  V30 4504 H 428.509 2.46957 -2.70938 0
M  V30 4505 H 428.157 4.73247 -1.7043 0
M  V30 4506 H 427.857 4.74911 -3.46025 0
M  V30 4507 H 429.381 5.41974 -2.81242 0
M  V30 4508 H 430.795 3.74186 -4.34348 0
M  V30 4509 H 429.192 3.30938 -5.006 0
M  V30 4510 H 430.262 2.03077 -4.40327 0
M  V30 4511 N 431.605 1.3629 0.791371 0
M  V30 4512 C 432.537 1.26321 1.91248 0
M  V30 4513 C 433.55 0.18313 1.61767 0
M  V30 4514 O 434.739 0.437682 1.73051 0
M  V30 4515 C 431.839 0.925901 3.26007 0
M  V30 4516 C 431.012 2.10746 3.83281 0
M  V30 4517 C 430.071 1.74352 4.96475 0
M  V30 4518 O 429.097 2.46416 5.13096 0
M  V30 4519 N 430.299 0.676058 5.7655 0
M  V30 4520 H 433.064 2.22915 2.00323 0
M  V30 4521 H 430.625 1.29659 0.969546 0
M  V30 4522 H 432.617 0.663636 3.99222 0
M  V30 4523 H 431.187 0.0491581 3.12561 0
M  V30 4524 H 430.407 2.53264 3.02077 0
M  V30 4525 H 431.695 2.8969 4.18279 0
M  V30 4526 H 431.093 0.0776467 5.65647 0
M  V30 4527 H 429.65 0.473612 6.50077 0
M  V30 4528 N 433.083 -1.0153 1.20538 0
M  V30 4529 C 434.313 -1.78487 1.04048 0
M  V30 4530 C 434.721 -1.84631 -0.413292 0
M  V30 4531 O 434.064 -1.29919 -1.29872 0
M  V30 4532 C 434.126 -3.24367 1.55003 0
M  V30 4533 C 433.79 -3.41827 3.0332 0
M  V30 4534 C 434.787 -3.30941 4.00966 0
M  V30 4535 C 432.472 -3.67602 3.42307 0
M  V30 4536 C 434.466 -3.45577 5.35589 0
M  V30 4537 C 432.153 -3.81881 4.77085 0
M  V30 4538 C 433.151 -3.70874 5.73534 0
M  V30 4539 O 432.839 -3.84714 7.05868 0
M  V30 4540 H 432.571 -0.568108 0.366373 0
M  V30 4541 H 435.125 -1.28677 1.60098 0
M  V30 4542 H 433.355 -3.75266 0.933397 0
M  V30 4543 H 435.044 -3.82963 1.34514 0
M  V30 4544 H 435.81 -3.10964 3.72191 0
M  V30 4545 H 431.689 -3.75256 2.67776 0
M  V30 4546 H 435.233 -3.36902 6.10854 0
M  V30 4547 H 431.13 -4.01359 5.0555 0
M  V30 4548 H 431.898 -4.01724 7.13134 0
M  V30 4549 N 434.561 -1.01147 -1.20859 0
M  V30 4550 C 435.491 -0.597663 -2.25722 0
M  V30 4551 C 436.472 0.384744 -1.65692 0
M  V30 4552 O 437.657 0.271303 -1.92296 0
M  V30 4553 C 434.787 0.0700149 -3.47229 0
M  V30 4554 C 433.741 -0.832843 -4.19819 0
M  V30 4555 C 433.067 -0.0312202 -5.34691 0
M  V30 4556 C 434.367 -2.1385 -4.76514 0
M  V30 4557 H 436.061 -1.47423 -2.60589 0
M  V30 4558 H 433.607 -0.710301 -1.25263 0
M  V30 4559 H 435.56 0.37103 -4.19763 0
M  V30 4560 H 434.284 0.981259 -3.11511 0
M  V30 4561 H 432.943 -1.11778 -3.49144 0
M  V30 4562 H 432.591 0.881515 -4.95215 0
M  V30 4563 H 432.291 -0.632434 -5.84187 0
M  V30 4564 H 433.815 0.26346 -6.10031 0
M  V30 4565 H 435.229 -1.9002 -5.40893 0
M  V30 4566 H 433.626 -2.69012 -5.36426 0
M  V30 4567 H 434.696 -2.80495 -3.95538 0
M  V30 4568 N 436.039 1.36541 -0.78704 0
M  V30 4569 C 436.987 2.31965 -0.171724 0
M  V30 4570 C 437.981 1.55689 0.667631 0
M  V30 4571 O 439.187 1.70969 0.562981 0
M  V30 4572 H 435.562 0.751101 -0.0367545 0
M  V30 4573 H 437.533 2.81428 -0.992017 0
M  V30 4574 C 436.282 3.40968 0.680904 0
M  V30 4575 H 435.605 3.99775 0.0443961 0
M  V30 4576 H 437.045 4.10063 1.07815 0
M  V30 4577 C 435.504 2.82338 1.83813 0
M  V30 4578 O 436.034 2.74311 2.93456 0
M  V30 4579 N 434.24 2.39661 1.6435 0
M  V30 4580 H 433.787 2.46389 0.751668 0
M  V30 4581 H 433.745 2.00779 2.4194 0
M  V30 4582 N 437.518 0.538854 1.48102 0
M  V30 4583 C 438.465 -0.219042 2.29758 0
M  V30 4584 C 439.435 -0.925562 1.37922 0
M  V30 4585 O 440.62 -0.924855 1.66886 0
M  V30 4586 C 437.76 -1.25452 3.2149 0
M  V30 4587 C 436.873 -0.555943 4.28408 0
M  V30 4588 C 436.008 -1.57512 5.0731 0
M  V30 4589 C 435.047 -0.860498 6.06021 0
M  V30 4590 N 434.184 -1.82564 6.77949 0
M  V30 4591 H 439.024 0.483449 2.94052 0
M  V30 4592 H 436.561 0.250247 1.44956 0
M  V30 4593 H 438.519 -1.86727 3.7308 0
M  V30 4594 H 437.149 -1.92528 2.591 0
M  V30 4595 H 436.201 0.170938 3.80016 0
M  V30 4596 H 437.513 0.00474616 4.988 0
M  V30 4597 H 436.667 -2.26191 5.62959 0
M  V30 4598 H 435.406 -2.16972 4.36778 0
M  V30 4599 H 434.411 -0.159686 5.49568 0
M  V30 4600 H 435.636 -0.271897 6.78555 0
M  V30 4601 H 433.582 -2.40915 6.10161 0
M  V30 4602 H 433.499 -1.31662 7.44447 0
M  V30 4603 H 434.767 -2.50414 7.38182 0
M  V30 4604 N 438.996 -1.55193 0.274407 0
M  V30 4605 C 439.929 -2.18606 -0.654712 0
M  V30 4606 C 440.907 -1.14677 -1.15273 0
M  V30 4607 O 442.091 -1.43198 -1.22583 0
M  V30 4608 C 439.218 -2.80875 -1.89281 0
M  V30 4609 C 438.264 -3.981 -1.53032 0
M  V30 4610 S 439.097 -5.32025 -0.609107 0
M  V30 4611 C 440.253 -5.97761 -1.85559 0
M  V30 4612 H 440.486 -2.97074 -0.115894 0
M  V30 4613 H 438.019 -1.54288 0.05867 0
M  V30 4614 H 439.977 -3.17381 -2.60345 0
M  V30 4615 H 438.638 -2.02302 -2.40277 0
M  V30 4616 H 437.831 -4.40356 -2.45158 0
M  V30 4617 H 437.433 -3.63013 -0.899874 0
M  V30 4618 H 439.725 -6.16951 -2.7996 0
M  V30 4619 H 440.668 -6.92545 -1.47605 0
M  V30 4620 H 441.076 -5.27113 -2.02021 0
M  V30 4621 N 440.474 -0.00167713 -1.576 0
M  V30 4622 C 441.437 0.974046 -2.07473 0
M  V30 4623 C 442.437 1.27143 -0.984444 0
M  V30 4624 O 443.627 1.21633 -1.24703 0
M  V30 4625 C 440.759 2.29849 -2.51759 0
M  V30 4626 H 441.952 0.54262 -2.9495 0
M  V30 4627 H 439.505 0.245829 -1.54355 0
M  V30 4628 H 440.24 2.77677 -1.67529 0
M  V30 4629 H 440.025 2.09584 -3.31386 0
M  V30 4630 H 441.515 2.9984 -2.90664 0
M  V30 4631 N 441.952 1.55251 0.271103 0
M  V30 4632 C 443.2 1.75599 1.00047 0
M  V30 4633 C 443.521 0.561188 1.8675 0
M  V30 4634 O 442.791 -0.423846 1.9126 0
M  V30 4635 H 441.371 0.647562 0.372387 0
M  V30 4636 H 444.033 1.92656 0.294876 0
M  V30 4637 H 443.129 2.65766 1.6363 0
M  V30 4638 N 443.43 -0.535701 1.48216 0
M  V30 4639 C 444.378 -1.66179 1.62749 0
M  V30 4640 C 445.372 -1.62034 0.49409 0
M  V30 4641 O 446.578 -1.6696 0.672624 0
M  V30 4642 H 442.953 -0.550244 0.512578 0
M  V30 4643 H 444.924 -1.51063 2.57337 0
M  V30 4644 C 443.673 -3.04471 1.67907 0
M  V30 4645 H 442.996 -3.08351 2.54479 0
M  V30 4646 H 444.436 -3.82894 1.82121 0
M  V30 4647 C 442.895 -3.34314 0.416596 0
M  V30 4648 O 443.425 -3.98905 -0.473014 0
M  V30 4649 N 441.631 -2.89149 0.290038 0
M  V30 4650 H 441.178 -2.36764 1.01493 0
M  V30 4651 H 441.136 -3.09486 -0.55367 0
M  V30 4652 N 444.908 -1.36708 -0.784132 0
M  V30 4653 C 445.818 -1.3363 -1.92822 0
M  V30 4654 C 446.834 -0.237686 -1.72369 0
M  V30 4655 O 448.01 -0.470962 -1.95816 0
M  V30 4656 C 445.075 -1.13011 -3.27764 0
M  V30 4657 C 444.136 -2.32397 -3.60957 0
M  V30 4658 C 443.369 -2.12752 -4.89461 0
M  V30 4659 O 443.592 -1.10541 -5.59586 0
M  V30 4660 O 442.526 -3.00653 -5.21432 0
M  V30 4661 H 446.352 -2.29964 -1.98369 0
M  V30 4662 H 443.937 -1.1731 -0.925136 0
M  V30 4663 H 445.819 -1.03451 -4.08504 0
M  V30 4664 H 444.494 -0.19743 -3.23097 0
M  V30 4665 H 443.401 -2.47527 -2.80502 0
M  V30 4666 H 444.734 -3.2419 -3.70354 0
M  V30 4667 N 446.386 1.0089 -1.21074 0
M  V30 4668 C 447.616 1.77933 -1.04993 0
M  V30 4669 C 448.024 1.84847 0.403495 0
M  V30 4670 O 447.367 1.30606 1.29181 0
M  V30 4671 C 447.429 3.23541 -1.56722 0
M  V30 4672 C 447.093 3.40214 -3.05129 0
M  V30 4673 C 448.09 3.2881 -4.02716 0
M  V30 4674 C 445.775 3.65781 -3.44252 0
M  V30 4675 C 447.769 3.42732 -5.37414 0
M  V30 4676 C 445.456 3.79346 -4.79103 0
M  V30 4677 C 446.454 3.67827 -5.75493 0
M  V30 4678 O 446.142 3.80965 -7.07899 0
M  V30 4679 H 445.874 0.566157 -0.369381 0
M  V30 4680 H 448.428 1.27826 -1.60779 0
M  V30 4681 H 446.658 3.74766 -0.953285 0
M  V30 4682 H 448.347 3.82245 -1.36543 0
M  V30 4683 H 449.113 3.08986 -3.73835 0
M  V30 4684 H 444.992 3.73831 -2.69762 0
M  V30 4685 H 448.536 3.33658 -6.12632 0
M  V30 4686 H 444.433 3.98672 -5.07672 0
M  V30 4687 H 445.201 3.97937 -7.15254 0
M  V30 4688 N 447.864 1.01787 1.20321 0
M  V30 4689 C 448.797 0.533882 2.21867 0
M  V30 4690 C 449.775 -0.419361 1.57099 0
M  V30 4691 O 450.959 -0.339062 1.85426 0
M  V30 4692 C 448.086 -0.222899 3.37966 0
M  V30 4693 C 447.132 0.680091 4.21043 0
M  V30 4694 S 447.965 2.14997 4.90445 0
M  V30 4695 C 449.121 1.40339 6.09964 0
M  V30 4696 H 449.354 1.39429 2.62577 0
M  V30 4697 H 446.887 0.826867 1.30393 0
M  V30 4698 H 448.845 -0.653425 4.05266 0
M  V30 4699 H 447.506 -1.0589 2.95713 0
M  V30 4700 H 446.699 0.0964704 5.03908 0
M  V30 4701 H 446.301 1.04845 3.59004 0
M  V30 4702 H 448.593 0.68407 6.74038 0
M  V30 4703 H 449.536 2.20823 6.72787 0
M  V30 4704 H 449.944 0.905716 5.57187 0
M  V30 4705 N 449.342 -1.36122 0.79427 0
M  V30 4706 C 450.59 -1.98718 0.368177 0
M  V30 4707 C 450.911 -1.63345 -1.06506 0
M  V30 4708 O 450.181 -0.909825 -1.73491 0
M  V30 4709 H 448.761 -0.735038 0.133146 0
M  V30 4710 H 451.423 -1.66239 1.01739 0
M  V30 4711 H 450.519 -3.08633 0.463923 0
M  V30 4712 N 450.82 -0.546701 -1.47814 0
M  V30 4713 C 452.067 -0.0187407 -2.02491 0
M  V30 4714 C 452.395 1.32685 -1.42215 0
M  V30 4715 O 451.65 1.87413 -0.563454 0
M  V30 4716 C 451.949 0.134869 -3.57145 0
M  V30 4717 C 451.615 -1.13849 -4.3629 0
M  V30 4718 C 450.277 -1.48743 -4.57634 0
M  V30 4719 C 452.629 -1.98277 -4.82012 0
M  V30 4720 C 449.957 -2.67932 -5.21948 0
M  V30 4721 C 452.309 -3.16659 -5.4764 0
M  V30 4722 C 450.973 -3.51879 -5.67219 0
M  V30 4723 H 450.243 -0.0068577 -0.740968 0
M  V30 4724 H 452.89 -0.716097 -1.77607 0
M  V30 4725 H 451.195 0.915118 -3.80963 0
M  V30 4726 H 452.892 0.558556 -3.97091 0
M  V30 4727 H 449.482 -0.856767 -4.19949 0
M  V30 4728 H 453.666 -1.72628 -4.6531 0
M  V30 4729 H 448.922 -2.95401 -5.35302 0
M  V30 4730 H 453.096 -3.82374 -5.82033 0
M  V30 4731 H 450.723 -4.44331 -6.16825 0
M  V30 4732 N 452.299 1.55045 -0.282633 0
M  V30 4733 C 453.524 2.04628 0.337977 0
M  V30 4734 C 453.949 1.15937 1.48123 0
M  V30 4735 O 453.307 0.159532 1.80597 0
M  V30 4736 C 453.355 3.51854 0.78936 0
M  V30 4737 O 452.459 3.66236 1.89592 0
M  V30 4738 H 451.8 0.660434 0.0687261 0
M  V30 4739 H 454.33 2.00261 -0.419124 0
M  V30 4740 H 454.34 3.93361 1.08311 0
M  V30 4741 H 453.015 4.15873 -0.0470419 0
M  V30 4742 H 451.592 3.36633 1.60413 0
M  V30 4743 N 453.777 0.010035 1.57597 0
M  V30 4744 C 454.725 -0.996272 2.10184 0
M  V30 4745 C 455.719 -1.34942 1.02406 0
M  V30 4746 O 456.925 -1.33389 1.20861 0
M  V30 4747 H 453.3 -0.338982 0.671264 0
M  V30 4748 H 455.271 -0.527272 2.93705 0
M  V30 4749 C 454.02 -2.27599 2.62857 0
M  V30 4750 H 453.343 -2.01295 3.45428 0
M  V30 4751 H 454.783 -2.96265 3.0332 0
M  V30 4752 C 453.242 -2.99269 1.54725 0
M  V30 4753 O 453.772 -3.90644 0.93597 0
M  V30 4754 N 451.978 -2.61269 1.27228 0
M  V30 4755 H 451.525 -1.87043 1.77123 0
M  V30 4756 H 451.483 -3.09534 0.550999 0
M  V30 4757 N 455.255 -1.55392 -0.262866 0
M  V30 4758 C 456.218 -1.88181 -1.30846 0
M  V30 4759 C 457.218 -0.757079 -1.41862 0
M  V30 4760 O 458.408 -1.02519 -1.40838 0
M  V30 4761 C 455.54 -2.09609 -2.68844 0
M  V30 4762 H 456.733 -2.81659 -1.02997 0
M  V30 4763 H 454.286 -1.48039 -0.501414 0
M  V30 4764 H 455.021 -1.18547 -3.01856 0
M  V30 4765 H 454.806 -2.91508 -2.62231 0
M  V30 4766 H 456.296 -2.36215 -3.44372 0
M  V30 4767 N 456.733 0.527833 -1.48498 0
M  V30 4768 C 457.961 1.30823 -1.6029 0
M  V30 4769 C 458.376 1.86945 -0.263974 0
M  V30 4770 O 457.733 1.6651 0.747034 0
M  V30 4771 C 457.784 2.45756 -2.65116 0
M  V30 4772 O 457.505 1.91946 -3.93813 0
M  V30 4773 C 459.006 3.37543 -2.87367 0
M  V30 4774 H 456.226 0.397763 -0.540394 0
M  V30 4775 H 458.77 0.636529 -1.94341 0
M  V30 4776 H 456.925 3.08806 -2.33917 0
M  V30 4777 H 457.339 2.67195 -4.51339 0
M  V30 4778 H 458.813 4.14532 -3.6451 0
M  V30 4779 H 459.29 3.92905 -1.9627 0
M  V30 4780 H 459.896 2.80283 -3.19878 0
M  V30 4781 N 458.211 1.37122 0.776871 0
M  V30 4782 C 459.458 1.32047 1.53524 0
M  V30 4783 C 459.786 -0.0965631 1.9426 0
M  V30 4784 O 459.041 -1.06866 1.63945 0
M  V30 4785 C 459.34 2.20068 2.81611 0
M  V30 4786 C 459.006 3.68423 2.59953 0
M  V30 4787 C 457.668 4.08854 2.53755 0
M  V30 4788 C 460.02 4.62431 2.40431 0
M  V30 4789 C 457.348 5.41417 2.26018 0
M  V30 4790 C 459.7 5.95225 2.14219 0
M  V30 4791 C 458.364 6.34767 2.06462 0
M  V30 4792 H 457.634 0.483196 0.561785 0
M  V30 4793 H 460.281 1.69284 0.895268 0
M  V30 4794 H 458.586 1.75809 3.50141 0
M  V30 4795 H 460.283 2.13458 3.39465 0
M  V30 4796 H 456.873 3.36354 2.65638 0
M  V30 4797 H 461.057 4.32057 2.44213 0
M  V30 4798 H 456.313 5.71022 2.18504 0
M  V30 4799 H 460.487 6.67626 1.98112 0
M  V30 4800 H 458.114 7.37413 1.84733 0
M  V30 4801 N 459.689 -1.00246 1.21608 0
M  V30 4802 C 460.621 -2.09244 0.935401 0
M  V30 4803 C 461.634 -1.62592 -0.0823594 0
M  V30 4804 O 462.823 -1.77865 0.150456 0
M  V30 4805 C 459.923 -3.36724 0.383453 0
M  V30 4806 C 459.096 -4.1245 1.45615 0
M  V30 4807 C 458.155 -5.18219 0.912991 0
M  V30 4808 O 457.181 -5.46337 1.59701 0
M  V30 4809 N 458.383 -5.7987 -0.270478 0
M  V30 4810 H 461.148 -2.33905 1.87373 0
M  V30 4811 H 458.709 -1.16748 1.12167 0
M  V30 4812 H 460.701 -4.047 0.00562157 0
M  V30 4813 H 459.271 -3.09201 -0.459758 0
M  V30 4814 H 458.491 -3.39241 2.00772 0
M  V30 4815 H 459.779 -4.59819 2.17817 0
M  V30 4816 H 459.177 -5.59381 -0.843195 0
M  V30 4817 H 457.734 -6.49126 -0.589794 0
M  V30 4818 N 461.167 -1.02423 -1.1978 0
M  V30 4819 C 462.392 -0.7373 -1.93852 0
M  V30 4820 C 462.817 0.696923 -1.74713 0
M  V30 4821 O 462.175 1.48056 -1.04638 0
M  V30 4822 C 462.223 -1.08783 -3.438 0
M  V30 4823 O 461.327 -0.20383 -4.11896 0
M  V30 4824 H 460.668 -0.27284 -0.605355 0
M  V30 4825 H 463.198 -1.36966 -1.51992 0
M  V30 4826 H 463.208 -1.04276 -3.9445 0
M  V30 4827 H 461.883 -2.13274 -3.57053 0
M  V30 4828 H 460.46 -0.307091 -3.71633 0
M  V30 4829 N 462.645 1.35699 -0.801477 0
M  V30 4830 C 463.555 2.33661 -0.209691 0
M  V30 4831 C 464.571 1.6162 0.644591 0
M  V30 4832 O 465.747 1.93529 0.557545 0
M  V30 4833 C 462.812 3.40816 0.636033 0
M  V30 4834 C 461.873 4.28639 -0.238147 0
M  V30 4835 C 461.106 5.30676 0.567307 0
M  V30 4836 O 461.329 5.41174 1.8024 0
M  V30 4837 O 460.263 6.01887 -0.0391336 0
M  V30 4838 H 464.089 2.8606 -1.01996 0
M  V30 4839 H 461.674 1.38379 -0.563164 0
M  V30 4840 H 463.556 4.06301 1.11791 0
M  V30 4841 H 462.231 2.90696 1.42399 0
M  V30 4842 H 461.138 3.66152 -0.767044 0
M  V30 4843 H 462.471 4.82143 -0.989915 0
M  V30 4844 N 464.123 0.554532 1.47522 0
M  V30 4845 C 465.07 -0.19466 2.29978 0
M  V30 4846 C 466.04 -0.910882 1.38896 0
M  V30 4847 O 467.225 -0.907102 1.67858 0
M  V30 4848 C 464.365 -1.22035 3.22802 0
M  V30 4849 C 463.478 -0.510474 4.28973 0
M  V30 4850 C 462.613 -1.52123 5.08952 0
M  V30 4851 C 461.652 -0.796173 6.069 0
M  V30 4852 N 460.789 -1.75363 6.79847 0
M  V30 4853 H 465.629 0.51461 2.93523 0
M  V30 4854 H 463.166 0.265607 1.44682 0
M  V30 4855 H 465.124 -1.8276 3.7504 0
M  V30 4856 H 463.754 -1.89769 2.61127 0
M  V30 4857 H 462.806 0.211234 3.79813 0
M  V30 4858 H 464.118 0.0576503 4.98767 0
M  V30 4859 H 463.272 -2.20207 5.65326 0
M  V30 4860 H 462.011 -2.12327 4.39054 0
M  V30 4861 H 461.016 -0.101388 5.49707 0
M  V30 4862 H 462.241 -0.199911 6.78806 0
M  V30 4863 H 460.187 -2.3443 6.12682 0
M  V30 4864 H 460.104 -1.23759 7.45801 0
M  V30 4865 H 461.372 -2.4257 7.40797 0
M  V30 4866 N 465.601 -1.54893 0.290851 0
M  V30 4867 C 466.511 -2.26812 -0.59945 0
M  V30 4868 C 467.527 -1.29963 -1.15696 0
M  V30 4869 O 468.703 -1.62928 -1.18391 0
M  V30 4870 C 465.768 -2.98716 -1.75982 0
M  V30 4871 C 464.829 -4.1108 -1.2374 0
M  V30 4872 C 464.062 -4.79546 -2.34246 0
M  V30 4873 O 464.285 -4.47309 -3.53936 0
M  V30 4874 O 463.219 -5.67165 -2.01512 0
M  V30 4875 H 467.045 -3.03696 -0.0163561 0
M  V30 4876 H 464.63 -1.49289 0.0576755 0
M  V30 4877 H 466.512 -3.43851 -2.43607 0
M  V30 4878 H 465.187 -2.24737 -2.3297 0
M  V30 4879 H 464.094 -3.70367 -0.527163 0
M  V30 4880 H 465.427 -4.87007 -0.71307 0
M  V30 4881 N 467.08 -0.0183926 -1.57589 0
M  V30 4882 C 468.308 0.673046 -1.95647 0
M  V30 4883 C 468.723 1.66275 -0.894312 0
M  V30 4884 O 468.08 1.82072 0.124975 0
M  V30 4885 C 468.131 1.38884 -3.33756 0
M  V30 4886 O 467.852 0.438806 -4.35897 0
M  V30 4887 C 469.353 2.1731 -3.86383 0
M  V30 4888 H 466.573 0.186292 -0.644621 0
M  V30 4889 H 469.117 -0.0749748 -2.04363 0
M  V30 4890 H 467.272 2.08835 -3.26293 0
M  V30 4891 H 467.686 0.945869 -5.15901 0
M  V30 4892 H 469.16 2.62863 -4.85394 0
M  V30 4893 H 469.637 3.00764 -3.20059 0
M  V30 4894 H 470.243 1.52339 -3.97081 0
M  V30 4895 N 468.558 1.5553 0.254621 0
M  V30 4896 C 469.806 1.7665 0.981793 0
M  V30 4897 C 470.127 0.580963 1.86145 0
M  V30 4898 O 469.397 -0.403537 1.91699 0
M  V30 4899 H 467.977 0.651475 0.365498 0
M  V30 4900 H 470.639 1.92958 0.274426 0
M  V30 4901 H 469.735 2.67486 1.60802 0
M  V30 4902 N 470.036 -0.519951 1.48776 0
M  V30 4903 C 471.313 -1.28123 1.47797 0
M  V30 4904 C 471.693 -2.10196 0.195157 0
M  V30 4905 O 471.041 -2.13167 -0.822925 0
M  V30 4906 C 471.251 -2.15413 2.74587 0
M  V30 4907 C 472.599 -2.75225 3.23321 0
M  V30 4908 O 473.623 -2.25694 2.75574 0
M  V30 4909 O 472.482 -3.65346 4.06429 0
M  V30 4910 H 469.576 -0.578793 0.590701 0
M  V30 4911 H 472.122 -0.535779 1.6102 0
M  V30 4912 H 470.894 -1.54617 3.59457 0
M  V30 4913 H 470.517 -2.97186 2.64132 0
M  V30 4914 N 471.514 -1.37532 -0.769588 0
M  V30 4915 C 472.93 -1.18379 -1.07045 0
M  V30 4916 C 473.13 -0.0214312 -2.01489 0
M  V30 4917 O 472.186 0.637809 -2.44312 0
M  V30 4918 C 473.499 -2.50338 -1.66588 0
M  V30 4919 C 475.047 -2.56879 -1.78835 0
M  V30 4920 C 475.522 -3.88974 -2.41792 0
M  V30 4921 N 477.013 -3.90428 -2.4924 0
M  V30 4922 C 477.748 -4.89388 -2.98809 0
M  V30 4923 N 477.244 -5.98745 -3.48535 0
M  V30 4924 N 479.037 -4.76791 -2.97703 0
M  V30 4925 H 471.188 -2.11921 -0.142541 0
M  V30 4926 H 473.451 -0.939608 -0.125863 0
M  V30 4927 H 473.157 -3.35767 -1.0466 0
M  V30 4928 H 473.031 -2.67583 -2.65856 0
M  V30 4929 H 475.418 -1.71856 -2.39895 0
M  V30 4930 H 475.499 -2.43516 -0.783166 0
M  V30 4931 H 475.143 -4.74412 -1.81371 0
M  V30 4932 H 475.073 -3.99641 -3.4292 0
M  V30 4933 H 477.564 -3.11433 -2.14052 0
M  V30 4934 H 477.877 -6.70205 -3.84767 0
M  V30 4935 H 476.222 -6.02387 -3.46634 0
M  V30 4936 H 479.413 -3.90478 -2.58157 0
M  V30 4937 H 479.586 -5.54069 -3.36024 0
M  V30 4938 N 472.992 0.995999 -1.22138 0
M  V30 4939 C 473.94 2.10673 -0.985876 0
M  V30 4940 C 474.934 1.69255 0.0699553 0
M  V30 4941 O 476.14 1.79812 -0.0822176 0
M  V30 4942 H 472.515 0.688865 -0.30161 0
M  V30 4943 H 474.486 2.27711 -1.92848 0
M  V30 4944 C 473.235 3.42881 -0.576909 0
M  V30 4945 H 472.558 3.75191 -1.38101 0
M  V30 4946 H 473.998 4.21589 -0.451518 0
M  V30 4947 C 472.457 3.29265 0.713196 0
M  V30 4948 O 472.987 3.60777 1.76643 0
M  V30 4949 N 471.193 2.82456 0.683162 0
M  V30 4950 H 470.74 2.5701 -0.174242 0
M  V30 4951 H 470.698 2.73727 1.54663 0
M  V30 4952 N 474.47 1.03057 1.19235 0
M  V30 4953 C 475.7 0.746613 1.92638 0
M  V30 4954 C 476.108 -0.698708 1.75826 0
M  V30 4955 O 475.451 -1.487 1.07861 0
M  V30 4956 C 475.513 1.02024 3.44719 0
M  V30 4957 C 475.177 2.45745 3.85303 0
M  V30 4958 C 476.174 3.43887 3.8992 0
M  V30 4959 C 473.859 2.8019 4.16892 0
M  V30 4960 C 475.853 4.74529 4.2556 0
M  V30 4961 C 473.54 4.1104 4.52205 0
M  V30 4962 C 474.538 5.0802 4.56513 0
M  V30 4963 O 474.226 6.36527 4.91008 0
M  V30 4964 H 473.958 0.272401 0.618687 0
M  V30 4965 H 476.512 1.37853 1.52269 0
M  V30 4966 H 474.742 0.331184 3.85279 0
M  V30 4967 H 476.431 0.725677 3.9936 0
M  V30 4968 H 477.197 3.18614 3.65664 0
M  V30 4969 H 473.076 2.05382 4.12722 0
M  V30 4970 H 476.62 5.50222 4.28838 0
M  V30 4971 H 472.517 4.36086 4.7592 0
M  V30 4972 H 473.285 6.41025 5.08949 0
M  V30 4973 N 475.948 -1.35272 0.808662 0
M  V30 4974 C 476.911 -2.28082 0.226093 0
M  V30 4975 C 477.911 -1.49673 -0.587762 0
M  V30 4976 O 479.101 -1.69404 -0.405943 0
M  V30 4977 C 476.233 -3.33955 -0.684596 0
M  V30 4978 H 477.426 -2.81116 1.04469 0
M  V30 4979 H 474.979 -1.45162 0.579466 0
M  V30 4980 H 475.714 -2.86111 -1.5268 0
M  V30 4981 H 475.499 -3.91965 -0.102699 0
M  V30 4982 H 476.989 -4.03219 -1.08646 0
M  V30 4983 N 477.426 -0.562348 -1.47226 0
M  V30 4984 C 478.675 -0.038041 -2.01664 0
M  V30 4985 C 478.988 1.32199 -1.44162 0
M  V30 4986 O 480.194 1.9365 -1.90294 0
M  V30 4987 C 478.65 -0.0174958 -3.59896 0
M  V30 4988 C 478.258 -1.3746 -4.2639 0
M  V30 4989 C 480.002 0.453934 -4.22066 0
M  V30 4990 C 477.909 -1.31289 -5.76643 0
M  V30 4991 H 476.839 -0.0104511 -0.753928 0
M  V30 4992 H 479.49 -0.710966 -1.69167 0
M  V30 4993 H 477.872 0.721182 -3.89378 0
M  V30 4994 H 479.046 -2.1314 -4.08544 0
M  V30 4995 H 477.361 -1.78438 -3.7623 0
M  V30 4996 H 479.958 0.518584 -5.32179 0
M  V30 4997 H 480.301 1.46706 -3.89594 0
M  V30 4998 H 480.834 -0.230044 -3.97134 0
M  V30 4999 H 477.573 -2.30217 -6.13743 0
M  V30 5000 H 477.093 -0.597973 -5.96812 0
M  V30 5001 H 478.772 -1.01713 -6.38955 0
M  V30 5002 N 478.904 1.54736 -0.299062 0
M  V30 5003 C 480.152 1.99706 0.31017 0
M  V30 5004 C 480.473 1.18896 1.54559 0
M  V30 5005 O 479.743 0.284445 1.93824 0
M  V30 5006 H 478.323 0.737686 0.117596 0
M  V30 5007 H 480.985 1.9054 -0.409943 0
M  V30 5008 H 480.081 3.06596 0.58355 0
M  V30 5009 N 480.382 0.0267497 1.57577 0
M  V30 5010 C 481.612 -0.6617 1.95717 0
M  V30 5011 C 482.02 -1.66331 0.901706 0
M  V30 5012 O 481.363 -1.83273 -0.125241 0
M  V30 5013 C 481.425 -1.42649 3.29987 0
M  V30 5014 C 481.089 -0.583482 4.5326 0
M  V30 5015 C 482.086 0.140221 5.19711 0
M  V30 5016 C 479.771 -0.521581 4.99585 0
M  V30 5017 C 481.765 0.914523 6.30805 0
M  V30 5018 C 479.452 0.256428 6.10562 0
M  V30 5019 C 480.45 0.973189 6.76031 0
M  V30 5020 O 480.138 1.73845 7.84878 0
M  V30 5021 H 479.87 -0.187483 0.649481 0
M  V30 5022 H 482.424 0.0820847 2.05236 0
M  V30 5023 H 480.654 -2.21536 3.16952 0
M  V30 5024 H 482.343 -2.00282 3.53047 0
M  V30 5025 H 483.109 0.101716 4.84893 0
M  V30 5026 H 478.988 -1.06904 4.48433 0
M  V30 5027 H 482.532 1.4745 6.81839 0
M  V30 5028 H 478.429 0.296657 6.44818 0
M  V30 5029 H 479.197 1.65797 8.01532 0
M  V30 5030 N 481.861 -1.55662 -0.24637 0
M  V30 5031 C 483.091 -1.81312 -0.990438 0
M  V30 5032 C 483.499 -0.600234 -1.79426 0
M  V30 5033 O 482.842 0.440537 -1.78339 0
M  V30 5034 C 482.904 -3.0032 -1.97607 0
M  V30 5035 C 482.568 -4.36322 -1.35912 0
M  V30 5036 C 483.565 -5.14295 -0.761348 0
M  V30 5037 C 481.25 -4.83019 -1.37833 0
M  V30 5038 C 483.244 -6.37114 -0.190998 0
M  V30 5039 C 480.931 -6.05786 -0.804128 0
M  V30 5040 C 481.929 -6.82672 -0.211489 0
M  V30 5041 O 481.617 -8.03121 0.353845 0
M  V30 5042 H 481.349 -0.607233 -0.297058 0
M  V30 5043 H 483.903 -2.0356 -0.274351 0
M  V30 5044 H 482.133 -2.73829 -2.73047 0
M  V30 5045 H 483.822 -3.13057 -2.58361 0
M  V30 5046 H 484.588 -4.79337 -0.739013 0
M  V30 5047 H 480.467 -4.23165 -1.829 0
M  V30 5048 H 484.011 -6.97069 0.272206 0
M  V30 5049 H 479.908 -6.40222 -0.823792 0
M  V30 5050 H 480.676 -8.18131 0.245761 0
M  V30 5051 N 483.339 0.512053 -1.4905 0
M  V30 5052 C 484.269 1.62365 -1.67809 0
M  V30 5053 C 485.25 1.61737 -0.526809 0
M  V30 5054 O 486.435 1.78651 -0.761404 0
M  V30 5055 C 483.565 3.00895 -1.73435 0
M  V30 5056 C 482.519 3.16387 -2.88242 0
M  V30 5057 C 481.845 4.56157 -2.78971 0
M  V30 5058 C 483.145 2.97457 -4.29321 0
M  V30 5059 H 484.839 1.46921 -2.60873 0
M  V30 5060 H 482.385 0.705379 -1.2554 0
M  V30 5061 H 484.338 3.78549 -1.85145 0
M  V30 5062 H 483.062 3.17403 -0.769619 0
M  V30 5063 H 481.721 2.41155 -2.76116 0
M  V30 5064 H 481.369 4.69525 -1.8043 0
M  V30 5065 H 481.069 4.67465 -3.5602 0
M  V30 5066 H 482.593 5.35886 -2.92675 0
M  V30 5067 H 484.007 3.64888 -4.42187 0
M  V30 5068 H 482.404 3.20245 -5.07507 0
M  V30 5069 H 483.474 1.93692 -4.44535 0
M  V30 5070 N 484.817 1.37938 0.762283 0
M  V30 5071 C 485.764 1.34467 1.87583 0
M  V30 5072 C 486.734 0.208633 1.64785 0
M  V30 5073 O 487.919 0.399494 1.86571 0
M  V30 5074 C 485.059 1.16692 3.24772 0
M  V30 5075 C 484.172 2.39608 3.59461 0
M  V30 5076 C 483.307 2.14631 4.85908 0
M  V30 5077 C 482.346 3.33364 5.13357 0
M  V30 5078 N 481.483 3.07877 6.30996 0
M  V30 5079 H 486.323 2.29669 1.89885 0
M  V30 5080 H 483.86 1.14116 0.928219 0
M  V30 5081 H 485.818 1.04405 4.03925 0
M  V30 5082 H 484.448 0.251333 3.2182 0
M  V30 5083 H 483.5 2.626 2.75219 0
M  V30 5084 H 484.812 3.28128 3.75678 0
M  V30 5085 H 483.966 1.99429 5.72986 0
M  V30 5086 H 482.705 1.23463 4.71814 0
M  V30 5087 H 481.71 3.49094 4.24751 0
M  V30 5088 H 482.935 4.25395 5.29354 0
M  V30 5089 H 480.881 2.19348 6.18241 0
M  V30 5090 H 480.798 3.89944 6.47673 0
M  V30 5091 H 482.066 2.96313 7.20985 0
M  V30 5092 N 486.295 -0.989507 1.22664 0
M  V30 5093 C 487.205 -2.11449 1.01619 0
M  V30 5094 C 488.221 -1.73962 -0.036545 0
M  V30 5095 O 489.397 -2.00788 0.156924 0
M  V30 5096 C 486.462 -3.41465 0.600204 0
M  V30 5097 C 485.523 -3.93033 1.72695 0
M  V30 5098 C 484.756 -5.16844 1.33071 0
M  V30 5099 O 484.979 -5.7001 0.210975 0
M  V30 5100 O 483.913 -5.6225 2.14845 0
M  V30 5101 H 487.739 -2.32088 1.9588 0
M  V30 5102 H 485.324 -1.09823 1.01289 0
M  V30 5103 H 487.206 -4.19695 0.37873 0
M  V30 5104 H 485.881 -3.22178 -0.313511 0
M  V30 5105 H 484.788 -3.15961 2.00298 0
M  V30 5106 H 486.121 -4.16758 2.61865 0
M  V30 5107 N 487.773 -1.03688 -1.18687 0
M  V30 5108 C 488.72 -0.624624 -2.22187 0
M  V30 5109 C 489.69 0.365636 -1.62026 0
M  V30 5110 O 490.875 0.260481 -1.89014 0
M  V30 5111 C 488.015 0.0101738 -3.45099 0
M  V30 5112 C 487.128 -1.02709 -4.19613 0
M  V30 5113 C 486.263 -0.361213 -5.2997 0
M  V30 5114 C 485.302 -1.38384 -5.96252 0
M  V30 5115 N 484.439 -0.743196 -6.98155 0
M  V30 5116 H 489.279 -1.51176 -2.56807 0
M  V30 5117 H 486.816 -0.75636 -1.26165 0
M  V30 5118 H 488.774 0.395528 -4.15321 0
M  V30 5119 H 487.404 0.860848 -3.1111 0
M  V30 5120 H 486.456 -1.53043 -3.48256 0
M  V30 5121 H 487.768 -1.80398 -4.65036 0
M  V30 5122 H 486.922 0.0785537 -6.06649 0
M  V30 5123 H 485.661 0.447799 -4.8564 0
M  V30 5124 H 484.666 -1.83378 -5.18317 0
M  V30 5125 H 485.891 -2.19448 -6.42666 0
M  V30 5126 H 483.837 0.0455789 -6.55984 0
M  V30 5127 H 483.754 -1.45784 -7.41811 0
M  V30 5128 H 485.022 -0.327698 -7.78811 0
M  V30 5129 N 489.251 1.34841 -0.815825 0
M  V30 5130 C 490.198 2.29644 -0.230664 0
M  V30 5131 C 491.168 1.53253 0.640533 0
M  V30 5132 O 492.353 1.81653 0.583672 0
M  V30 5133 C 489.493 3.39715 0.607275 0
M  V30 5134 C 488.606 4.31056 -0.28538 0
M  V30 5135 C 487.741 5.28225 0.561446 0
M  V30 5136 C 486.78 6.11204 -0.331035 0
M  V30 5137 N 485.917 7.00483 0.476302 0
M  V30 5138 H 490.757 2.79095 -1.0445 0
M  V30 5139 H 488.294 1.37351 -0.526595 0
M  V30 5140 H 490.252 4.02208 1.10835 0
M  V30 5141 H 488.882 2.91517 1.38629 0
M  V30 5142 H 487.934 3.69487 -0.904621 0
M  V30 5143 H 489.246 4.89239 -0.97193 0
M  V30 5144 H 488.4 5.96135 1.12728 0
M  V30 5145 H 487.139 4.70562 1.28153 0
M  V30 5146 H 486.144 5.42232 -0.909069 0
M  V30 5147 H 487.369 6.70947 -1.04912 0
M  V30 5148 H 485.315 6.45296 1.18019 0
M  V30 5149 H 485.232 7.55847 -0.152008 0
M  V30 5150 H 486.5 7.7273 1.02512 0
M  V30 5151 N 490.729 0.570148 1.46925 0
M  V30 5152 C 491.969 0.0534743 2.0433 0
M  V30 5153 C 492.333 -1.27729 1.4335 0
M  V30 5154 O 493.534 -1.88244 1.91879 0
M  V30 5155 C 491.805 -0.0244296 3.57392 0
M  V30 5156 S 493.364 -0.485351 4.36108 0
M  V30 5157 H 490.182 0.0313908 0.710307 0
M  V30 5158 H 492.784 0.759808 1.80131 0
M  V30 5159 H 491.488 0.948261 3.99295 0
M  V30 5160 H 491.019 -0.753922 3.86108 0
M  V30 5161 H 493.034 -1.74258 4.64595 0
M  V30 5162 N 492.207 -1.54576 0.307264 0
M  V30 5163 C 493.454 -2.00263 -0.300167 0
M  V30 5164 C 493.782 -1.19561 -1.53413 0
M  V30 5165 O 493.037 -0.261487 -1.93945 0
M  V30 5166 C 493.336 -3.50572 -0.695253 0
M  V30 5167 C 493.002 -4.48771 0.437679 0
M  V30 5168 C 491.664 -4.7534 0.748681 0
M  V30 5169 C 494.016 -5.0721 1.19949 0
M  V30 5170 C 491.344 -5.5761 1.8245 0
M  V30 5171 C 493.696 -5.90651 2.26527 0
M  V30 5172 C 492.36 -6.15528 2.58227 0
M  V30 5173 H 491.63 -0.732814 -0.109839 0
M  V30 5174 H 494.277 -1.86664 0.427661 0
M  V30 5175 H 492.582 -3.61814 -1.50326 0
M  V30 5176 H 494.279 -3.83352 -1.17653 0
M  V30 5177 H 490.869 -4.282 0.185187 0
M  V30 5178 H 495.053 -4.86679 0.972474 0
M  V30 5179 H 490.309 -5.75121 2.07476 0
M  V30 5180 H 494.483 -6.34957 2.86011 0
M  V30 5181 H 492.11 -6.79066 3.4172 0
M  V30 5182 N 493.685 -0.035106 -1.57561 0
M  V30 5183 C 495.096 0.502885 -1.798 0
M  V30 5184 C 495.447 1.71892 -0.945921 0
M  V30 5185 O 494.572 2.15822 -0.157991 0
M  V30 5186 C 495.167 0.919097 -3.26095 0
M  V30 5187 C 493.726 1.40216 -3.49308 0
M  V30 5188 C 492.873 0.369709 -2.74824 0
M  V30 5189 H 495.824 -0.261102 -1.56537 0
M  V30 5190 H 495.845 1.78308 -3.36135 0
M  V30 5191 H 495.357 0.0338526 -3.88085 0
M  V30 5192 H 493.458 2.30714 -2.92578 0
M  V30 5193 H 493.571 1.40541 -4.58023 0
M  V30 5194 H 491.935 0.839113 -2.40481 0
M  V30 5195 H 492.718 -0.507173 -3.39533 0
M  V30 5196 N 495.163 1.55791 0.238111 0
M  V30 5197 C 496.11 1.9105 1.29493 0
M  V30 5198 C 497.08 0.765733 1.47397 0
M  V30 5199 O 498.265 1.02017 1.61236 0
M  V30 5200 C 495.405 2.21826 2.64362 0
M  V30 5201 C 494.518 3.49153 2.54394 0
M  V30 5202 C 493.653 3.69455 3.81676 0
M  V30 5203 C 492.692 4.90353 3.66361 0
M  V30 5204 N 491.829 5.07131 4.85554 0
M  V30 5205 H 496.669 2.81172 0.987233 0
M  V30 5206 H 494.206 1.39179 0.476203 0
M  V30 5207 H 496.164 2.37675 3.4288 0
M  V30 5208 H 494.794 1.34897 2.93262 0
M  V30 5209 H 493.846 3.41587 1.67399 0
M  V30 5210 H 495.158 4.37818 2.38991 0
M  V30 5211 H 494.312 3.85311 4.68636 0
M  V30 5212 H 493.051 2.7904 3.99985 0
M  V30 5213 H 492.056 4.74464 2.77784 0
M  V30 5214 H 493.281 5.82237 3.49538 0
M  V30 5215 H 491.227 4.19654 5.04209 0
M  V30 5216 H 491.144 5.89899 4.72816 0
M  V30 5217 H 492.412 5.27407 5.73988 0
M  V30 5218 N 496.642 -0.504142 1.49319 0
M  V30 5219 C 497.89 -1.25598 1.58334 0
M  V30 5220 C 498.211 -1.93114 0.270538 0
M  V30 5221 O 497.481 -1.82585 -0.709891 0
M  V30 5222 H 496.061 -0.466571 0.58337 0
M  V30 5223 H 498.723 -0.584547 1.85928 0
M  V30 5224 H 497.819 -2.02159 2.37778 0
M  V30 5225 N 498.12 -1.38341 -0.754957 0
M  V30 5226 C 499.366 -1.34672 -1.51628 0
M  V30 5227 C 499.699 0.0636036 -1.94096 0
M  V30 5228 O 498.974 1.0245 -1.6533 0
M  V30 5229 C 499.257 -2.30116 -2.76981 0
M  V30 5230 C 499.11 -3.80003 -2.4066 0
M  V30 5231 C 500.429 -2.23715 -3.78998 0
M  V30 5232 H 497.548 -0.490517 -0.550056 0
M  V30 5233 H 500.19 -1.69178 -0.864807 0
M  V30 5234 H 498.34 -2.00821 -3.3257 0
M  V30 5235 H 500.012 -4.19966 -1.90856 0
M  V30 5236 H 498.255 -3.97751 -1.73137 0
M  V30 5237 H 498.926 -4.42244 -3.30339 0
M  V30 5238 H 501.402 -2.49574 -3.32945 0
M  V30 5239 H 500.278 -2.9261 -4.64403 0
M  V30 5240 H 500.539 -1.23554 -4.24484 0
M  V30 5241 N 499.598 0.982988 -1.23187 0
M  V30 5242 C 500.875 1.69814 -0.970707 0
M  V30 5243 C 501.255 2.04811 0.511424 0
M  V30 5244 O 500.603 1.73924 1.48198 0
M  V30 5245 C 500.813 2.94143 -1.87831 0
M  V30 5246 C 502.161 3.66712 -2.14026 0
M  V30 5247 O 503.185 3.04171 -1.8536 0
M  V30 5248 O 502.044 4.79258 -2.62629 0
M  V30 5249 H 499.138 0.741659 -0.365884 0
M  V30 5250 H 501.684 1.03844 -1.34218 0
M  V30 5251 H 500.456 2.64858 -2.88038 0
M  V30 5252 H 500.079 3.6785 -1.50905 0
M  V30 5253 N 501.076 1.04316 1.18135 0
M  V30 5254 C 502.009 0.580823 2.20685 0
M  V30 5255 C 502.987 -0.385943 1.57953 0
M  V30 5256 O 504.171 -0.299654 1.86103 0
M  V30 5257 C 501.298 -0.151162 3.38363 0
M  V30 5258 C 500.344 0.769247 4.19505 0
M  V30 5259 S 501.177 2.25352 4.85774 0
M  V30 5260 C 502.333 1.53246 6.0685 0
M  V30 5261 H 502.566 1.44968 2.5956 0
M  V30 5262 H 500.099 0.85434 1.28609 0
M  V30 5263 H 502.057 -0.567315 4.06561 0
M  V30 5264 H 500.718 -0.995936 2.97892 0
M  V30 5265 H 499.911 0.203335 5.0359 0
M  V30 5266 H 499.513 1.12436 3.56699 0
M  V30 5267 H 501.805 0.82689 6.72435 0
M  V30 5268 H 502.748 2.35044 6.67952 0
M  V30 5269 H 503.156 1.0237 5.5514 0
M  V30 5270 N 502.554 -1.34406 0.822964 0
M  V30 5271 C 503.487 -2.27407 0.190124 0
M  V30 5272 C 504.465 -1.4889 -0.653486 0
M  V30 5273 O 505.649 -1.78109 -0.617216 0
M  V30 5274 C 502.776 -3.3064 -0.734477 0
M  V30 5275 C 501.822 -4.26488 0.0316099 0
M  V30 5276 S 502.655 -5.17445 1.3788 0
M  V30 5277 C 503.811 -6.24214 0.45907 0
M  V30 5278 H 504.044 -2.80733 0.978586 0
M  V30 5279 H 501.577 -1.41455 0.618866 0
M  V30 5280 H 503.535 -3.90607 -1.26238 0
M  V30 5281 H 502.196 -2.76161 -1.49646 0
M  V30 5282 H 501.389 -4.9951 -0.671285 0
M  V30 5283 H 500.991 -3.70775 0.490066 0
M  V30 5284 H 503.283 -6.76599 -0.349357 0
M  V30 5285 H 504.226 -6.98551 1.15896 0
M  V30 5286 H 504.634 -5.6448 0.0474825 0
M  V30 5287 N 504.032 -0.577932 -1.46621 0
M  V30 5288 C 504.995 0.147805 -2.28723 0
M  V30 5289 C 505.995 0.823325 -1.38123 0
M  V30 5290 O 507.185 0.676011 -1.60548 0
M  V30 5291 C 504.317 1.21853 -3.18378 0
M  V30 5292 H 505.51 -0.573654 -2.94362 0
M  V30 5293 H 503.063 -0.335703 -1.52652 0
M  V30 5294 H 503.798 1.97173 -2.57475 0
M  V30 5295 H 503.583 0.738714 -3.85078 0
M  V30 5296 H 505.073 1.72768 -3.80186 0
M  V30 5297 N 505.51 1.54411 -0.315457 0
M  V30 5298 C 506.473 2.22713 0.54142 0
M  V30 5299 C 507.473 1.2179 1.04995 0
M  V30 5300 O 508.663 1.46426 0.943667 0
M  V30 5301 C 505.795 2.92485 1.75116 0
M  V30 5302 H 506.988 2.99849 -0.0555508 0
M  V30 5303 H 504.541 1.56159 -0.0664453 0
M  V30 5304 H 505.276 2.19466 2.38758 0
M  V30 5305 H 505.061 3.66483 1.39401 0
M  V30 5306 H 506.551 3.44548 2.35959 0
M  V30 5307 N 506.988 0.0434614 1.5754 0
M  V30 5308 C 507.918 -0.931651 2.14109 0
M  V30 5309 C 508.899 -1.32971 1.06079 0
M  V30 5310 O 510.084 -1.40579 1.33982 0
M  V30 5311 C 507.214 -2.20914 2.67982 0
M  V30 5312 C 506.168 -1.95139 3.80926 0
M  V30 5313 C 505.494 -3.29276 4.21285 0
M  V30 5314 C 506.794 -1.27913 5.06395 0
M  V30 5315 H 508.488 -0.460497 2.95837 0
M  V30 5316 H 506.034 -0.220058 1.42309 0
M  V30 5317 H 507.987 -2.89522 3.06194 0
M  V30 5318 H 506.711 -2.70221 1.83434 0
M  V30 5319 H 505.37 -1.28945 3.43175 0
M  V30 5320 H 505.018 -3.76369 3.33699 0
M  V30 5321 H 504.718 -3.12831 4.97404 0
M  V30 5322 H 506.242 -3.99129 4.62091 0
M  V30 5323 H 507.656 -1.86544 5.42102 0
M  V30 5324 H 506.053 -1.2182 5.87605 0
M  V30 5325 H 507.123 -0.254066 4.84234 0
M  V30 5326 N 508.466 -1.55915 -0.229846 0
M  V30 5327 C 509.743 -1.6932 -0.979295 0
M  V30 5328 C 510.123 -0.588321 -2.02736 0
M  V30 5329 O 509.471 0.40586 -2.24867 0
M  V30 5330 C 509.681 -3.10305 -1.59724 0
M  V30 5331 C 511.029 -3.6945 -2.09264 0
M  V30 5332 O 512.053 -3.13214 -1.69633 0
M  V30 5333 O 510.912 -4.68072 -2.82082 0
M  V30 5334 H 508.006 -0.689314 -0.456919 0
M  V30 5335 H 510.552 -1.68238 -0.222283 0
M  V30 5336 H 509.324 -3.82177 -0.840039 0
M  V30 5337 H 508.947 -3.1547 -2.42001 0
M  V30 5338 N 509.944 0.496216 -1.49584 0
M  V30 5339 C 510.874 1.60576 -1.69521 0
M  V30 5340 C 511.855 1.61169 -0.543933 0
M  V30 5341 O 513.04 1.77834 -0.78031 0
M  V30 5342 C 510.17 2.99038 -1.76616 0
M  V30 5343 C 509.124 3.13312 -2.91581 0
M  V30 5344 C 508.45 4.53172 -2.83794 0
M  V30 5345 C 509.75 2.92886 -4.32452 0
M  V30 5346 H 511.444 1.44146 -2.62416 0
M  V30 5347 H 508.99 0.692024 -1.26282 0
M  V30 5348 H 510.943 3.76564 -1.8915 0
M  V30 5349 H 509.667 3.16568 -0.80324 0
M  V30 5350 H 508.326 2.38213 -2.78658 0
M  V30 5351 H 507.974 4.67585 -1.854 0
M  V30 5352 H 507.674 4.63662 -3.60958 0
M  V30 5353 H 509.198 5.32752 -2.98342 0
M  V30 5354 H 510.612 3.60178 -4.46032 0
M  V30 5355 H 509.009 3.14844 -5.10875 0
M  V30 5356 H 510.079 1.88966 -4.46565 0
M  V30 5357 N 511.423 1.38739 0.74761 0
M  V30 5358 C 512.653 1.3832 1.53464 0
M  V30 5359 C 513.061 -0.0273464 1.8918 0
M  V30 5360 O 512.404 -1.00588 1.53713 0
M  V30 5361 C 512.466 2.18007 2.85855 0
M  V30 5362 C 512.13 3.66762 2.72644 0
M  V30 5363 C 513.127 4.60124 2.42037 0
M  V30 5364 C 510.812 4.10193 2.89909 0
M  V30 5365 C 512.806 5.94897 2.28859 0
M  V30 5366 C 510.493 5.45045 2.7635 0
M  V30 5367 C 511.491 6.37211 2.45869 0
M  V30 5368 O 511.179 7.69581 2.3238 0
M  V30 5369 H 510.911 0.474718 0.481268 0
M  V30 5370 H 513.465 1.83012 0.932518 0
M  V30 5371 H 511.695 1.68043 3.48279 0
M  V30 5372 H 513.384 2.09921 3.47402 0
M  V30 5373 H 514.15 4.27874 2.28361 0
M  V30 5374 H 510.029 3.38797 3.1263 0
M  V30 5375 H 513.573 6.66802 2.04989 0
M  V30 5376 H 509.47 5.76889 2.89601 0
M  V30 5377 H 510.238 7.80169 2.47546 0
M  V30 5378 N 512.901 -0.976442 1.23707 0
M  V30 5379 C 514.148 -1.71827 1.07153 0
M  V30 5380 C 514.476 -1.9053 -0.390982 0
M  V30 5381 O 513.731 -1.45779 -1.30564 0
M  V30 5382 C 514.03 -3.11814 1.74662 0
M  V30 5383 C 513.696 -3.12978 3.24585 0
M  V30 5384 C 512.358 -3.13003 3.6549 0
M  V30 5385 C 514.71 -3.07986 4.20469 0
M  V30 5386 C 512.038 -3.05757 5.00729 0
M  V30 5387 C 514.39 -3.02282 5.55705 0
M  V30 5388 C 513.054 -3.00631 5.95968 0
M  V30 5389 H 512.324 -0.628758 0.392102 0
M  V30 5390 H 514.971 -1.14239 1.53693 0
M  V30 5391 H 513.276 -3.72812 1.20492 0
M  V30 5392 H 514.973 -3.67989 1.59328 0
M  V30 5393 H 511.563 -3.13718 2.92026 0
M  V30 5394 H 515.747 -3.07103 3.89874 0
M  V30 5395 H 511.003 -3.02834 5.31132 0
M  V30 5396 H 515.177 -2.97376 6.29714 0
M  V30 5397 H 512.804 -2.94771 7.00724 0
M  V30 5398 N 514.379 -1.04941 -1.1758 0
M  V30 5399 C 515.311 -0.606174 -2.21039 0
M  V30 5400 C 516.324 0.328763 -1.59446 0
M  V30 5401 O 517.513 0.121895 -1.78083 0
M  V30 5402 C 514.613 0.133294 -3.38638 0
M  V30 5403 C 513.786 -0.811711 -4.29802 0
M  V30 5404 C 512.845 -0.113958 -5.26077 0
M  V30 5405 O 511.871 -0.747237 -5.64274 0
M  V30 5406 N 513.073 1.14953 -5.69004 0
M  V30 5407 H 515.838 -1.49606 -2.59689 0
M  V30 5408 H 513.399 -0.930997 -1.32454 0
M  V30 5409 H 515.391 0.610144 -4.00074 0
M  V30 5410 H 513.961 0.924816 -2.98607 0
M  V30 5411 H 513.181 -1.46824 -3.65837 0
M  V30 5412 H 514.469 -1.45326 -4.87604 0
M  V30 5413 H 513.867 1.68441 -5.40041 0
M  V30 5414 H 512.424 1.57049 -6.32597 0
M  V30 5415 N 515.857 1.33968 -0.830081 0
M  V30 5416 C 516.787 2.31911 -0.271911 0
M  V30 5417 C 517.768 1.58571 0.61556 0
M  V30 5418 O 518.953 1.86514 0.540946 0
M  V30 5419 C 516.083 3.42737 0.561146 0
M  V30 5420 C 515.037 4.27383 -0.229789 0
M  V30 5421 C 514.363 5.29742 0.726463 0
M  V30 5422 C 515.663 5.02 -1.44197 0
M  V30 5423 H 517.357 2.78844 -1.09025 0
M  V30 5424 H 514.903 1.34061 -0.52571 0
M  V30 5425 H 516.856 4.10276 0.961867 0
M  V30 5426 H 515.58 2.94471 1.41261 0
M  V30 5427 H 514.239 3.61456 -0.611964 0
M  V30 5428 H 513.887 4.77736 1.57408 0
M  V30 5429 H 513.587 5.87255 0.20142 0
M  V30 5430 H 515.111 6.00149 1.12489 0
M  V30 5431 H 516.525 5.62355 -1.11488 0
M  V30 5432 H 514.922 5.69122 -1.90317 0
M  V30 5433 H 515.992 4.31281 -2.2164 0
M  V30 5434 N 517.335 0.585699 1.46312 0
M  V30 5435 C 518.575 0.0751432 2.04262 0
M  V30 5436 C 518.939 -1.26201 1.44697 0
M  V30 5437 O 520.14 -1.86198 1.93865 0
M  V30 5438 C 518.411 0.013478 3.57397 0
M  V30 5439 S 519.97 -0.439068 4.36598 0
M  V30 5440 H 516.788 0.0389228 0.709934 0
M  V30 5441 H 519.39 0.778871 1.79315 0
M  V30 5442 H 518.094 0.990558 3.98266 0
M  V30 5443 H 517.625 -0.712927 3.86886 0
M  V30 5444 H 519.64 -1.6932 4.66417 0
M  V30 5445 N 518.813 -1.54241 0.323641 0
M  V30 5446 C 520.038 -2.05452 -0.283605 0
M  V30 5447 C 520.463 -1.19823 -1.44997 0
M  V30 5448 O 519.821 -0.207358 -1.8011 0
M  V30 5449 C 519.869 -3.53823 -0.695795 0
M  V30 5450 O 518.973 -3.71134 -1.79815 0
M  V30 5451 H 518.314 -0.662024 -0.0511917 0
M  V30 5452 H 520.844 -1.99079 0.472073 0
M  V30 5453 H 520.854 -3.96094 -0.978434 0
M  V30 5454 H 519.529 -4.15602 0.157287 0
M  V30 5455 H 518.106 -3.40768 -1.51431 0
M  V30 5456 N 520.291 -0.0518155 -1.57515 0
M  V30 5457 C 521.537 0.622745 -1.93002 0
M  V30 5458 C 521.87 1.70456 -0.930499 0
M  V30 5459 O 521.145 1.94452 0.0434086 0
M  V30 5460 C 521.428 1.21824 -3.38867 0
M  V30 5461 C 521.281 0.144434 -4.49568 0
M  V30 5462 C 522.6 2.12968 -3.8514 0
M  V30 5463 H 519.719 0.22491 -0.701844 0
M  V30 5464 H 522.361 -0.113711 -1.89659 0
M  V30 5465 H 520.511 1.8459 -3.41846 0
M  V30 5466 H 522.183 -0.48753 -4.58717 0
M  V30 5467 H 520.426 -0.527424 -4.30582 0
M  V30 5468 H 521.097 0.601127 -5.48717 0
M  V30 5469 H 523.573 1.60163 -3.8404 0
M  V30 5470 H 522.449 2.51578 -4.87852 0
M  V30 5471 H 522.71 3.03004 -3.21934 0
M  V30 5472 N 521.769 1.56035 0.221574 0
M  V30 5473 C 522.679 1.95581 1.29558 0
M  V30 5474 C 523.695 0.859639 1.51282 0
M  V30 5475 O 524.871 1.16321 1.64413 0
M  V30 5476 C 521.936 2.26447 2.62531 0
M  V30 5477 C 520.997 3.49632 2.4911 0
M  V30 5478 C 520.23 3.79017 3.75742 0
M  V30 5479 O 520.453 3.10077 4.78757 0
M  V30 5480 O 519.387 4.72507 3.72855 0
M  V30 5481 H 523.213 2.8711 0.990035 0
M  V30 5482 H 520.798 1.43244 0.424434 0
M  V30 5483 H 522.68 2.47494 3.41064 0
M  V30 5484 H 521.355 1.38092 2.92766 0
M  V30 5485 H 520.262 3.33864 1.68777 0
M  V30 5486 H 521.595 4.3837 2.23814 0
M  V30 5487 N 523.247 -0.488276 1.49845 0
M  V30 5488 C 524.493 -1.24341 1.6021 0
M  V30 5489 C 524.826 -1.91967 0.293651 0
M  V30 5490 O 524.101 -1.81323 -0.703718 0
M  V30 5491 C 524.384 -2.3005 2.77036 0
M  V30 5492 C 524.237 -1.66842 4.17713 0
M  V30 5493 C 525.556 -3.31509 2.89464 0
M  V30 5494 H 522.675 -0.450704 0.583125 0
M  V30 5495 H 525.317 -0.539673 1.82174 0
M  V30 5496 H 523.467 -2.90071 2.58439 0
M  V30 5497 H 525.139 -1.1055 4.47858 0
M  V30 5498 H 523.382 -0.972079 4.22768 0
M  V30 5499 H 524.053 -2.43576 4.95353 0
M  V30 5500 H 526.529 -2.81493 3.06433 0
M  V30 5501 H 525.405 -4.02822 3.72861 0
M  V30 5502 H 525.666 -3.94603 1.99351 0
M  V30 5503 N 524.725 -1.39134 -0.740242 0
M  V30 5504 C 525.953 -1.39334 -1.5295 0
M  V30 5505 C 526.368 0.0135008 -1.88795 0
M  V30 5506 O 525.725 0.983524 -1.5373 0
M  V30 5507 C 525.776 -2.2614 -2.82034 0
M  V30 5508 O 525.497 -3.61345 -2.47712 0
M  V30 5509 C 526.998 -2.34666 -3.76094 0
M  V30 5510 H 524.218 -0.476103 -0.472828 0
M  V30 5511 H 526.762 -1.82883 -0.9151 0
M  V30 5512 H 524.917 -1.86018 -3.39818 0
M  V30 5513 H 525.331 -4.07194 -3.30595 0
M  V30 5514 H 526.805 -2.99663 -4.63579 0
M  V30 5515 H 527.282 -1.36426 -4.17474 0
M  V30 5516 H 527.888 -2.75236 -3.2423 0
M  V30 5517 N 526.204 0.969867 -1.24223 0
M  V30 5518 C 527.444 1.72754 -1.0925 0
M  V30 5519 C 527.808 1.88541 0.362787 0
M  V30 5520 O 529.009 2.61217 0.633969 0
M  V30 5521 C 527.28 3.08204 -1.80957 0
M  V30 5522 S 528.839 3.99418 -1.81688 0
M  V30 5523 H 525.657 0.593981 -0.390778 0
M  V30 5524 H 528.259 1.15792 -1.5752 0
M  V30 5525 H 526.963 2.94372 -2.85961 0
M  V30 5526 H 526.494 3.70232 -1.33012 0
M  V30 5527 H 528.509 4.8828 -0.883001 0
M  V30 5528 N 527.682 1.05563 1.17022 0
M  V30 5529 C 528.592 0.670758 2.24807 0
M  V30 5530 C 529.608 -0.309865 1.71219 0
M  V30 5531 O 530.784 -0.161025 2.00755 0
M  V30 5532 C 527.849 0.055337 3.46656 0
M  V30 5533 C 526.91 1.08688 4.15314 0
M  V30 5534 C 526.143 0.500736 5.31346 0
M  V30 5535 O 526.366 -0.688718 5.66227 0
M  V30 5536 O 525.3 1.23683 5.89055 0
M  V30 5537 H 529.126 1.56914 2.60023 0
M  V30 5538 H 526.711 0.827428 1.24395 0
M  V30 5539 H 528.593 -0.286492 4.20425 0
M  V30 5540 H 527.268 -0.816638 3.13229 0
M  V30 5541 H 526.175 1.48077 3.43546 0
M  V30 5542 H 527.508 1.93014 4.52777 0
M  V30 5543 N 529.16 -1.33526 0.837174 0
M  V30 5544 C 530.385 -2.0258 0.444545 0
M  V30 5545 C 530.81 -1.6258 -0.946006 0
M  V30 5546 O 530.168 -0.817548 -1.6182 0
M  V30 5547 C 530.216 -3.5605 0.571006 0
M  V30 5548 O 529.32 -4.10422 -0.403431 0
M  V30 5549 H 528.661 -0.638866 0.180958 0
M  V30 5550 H 531.191 -1.70462 1.13154 0
M  V30 5551 H 531.201 -4.05488 0.452024 0
M  V30 5552 H 529.876 -3.84509 1.58512 0
M  V30 5553 H 528.453 -3.72113 -0.242147 0
M  V30 5554 N 530.638 -0.59345 -1.46 0
M  V30 5555 C 531.886 -0.082988 -2.0193 0
M  V30 5556 C 532.207 1.28569 -1.46612 0
M  V30 5557 O 531.477 1.84629 -0.654909 0
M  V30 5558 H 530.057 -0.0276882 -0.746487 0
M  V30 5559 H 532.719 -0.771657 -1.78973 0
M  V30 5560 H 531.815 -0.022079 -3.12092 0
M  V30 5561 N 532.116 1.54067 -0.331816 0
M  V30 5562 C 533.341 2.05599 0.272705 0
M  V30 5563 C 533.766 1.2059 1.44359 0
M  V30 5564 O 533.124 0.216907 1.79998 0
M  V30 5565 C 533.172 3.54188 0.677021 0
M  V30 5566 O 532.276 3.72082 1.77844 0
M  V30 5567 H 531.617 0.662286 0.0476801 0
M  V30 5568 H 534.147 1.98826 -0.482624 0
M  V30 5569 H 534.157 3.96608 0.957415 0
M  V30 5570 H 532.832 4.15513 -0.179325 0
M  V30 5571 H 531.409 3.41566 1.49622 0
M  V30 5572 N 533.594 0.0601682 1.57485 0
M  V30 5573 C 534.84 -0.612501 1.93329 0
M  V30 5574 C 535.173 -1.6996 0.939526 0
M  V30 5575 O 534.448 -1.94472 -0.0330957 0
M  V30 5576 C 534.731 -1.20025 3.39508 0
M  V30 5577 C 534.584 -0.12059 4.49638 0
M  V30 5578 C 535.903 -2.10923 3.86264 0
M  V30 5579 H 533.022 -0.221185 0.703027 0
M  V30 5580 H 535.664 0.123768 1.89596 0
M  V30 5581 H 533.814 -1.82774 3.42821 0
M  V30 5582 H 535.486 0.51185 4.58452 0
M  V30 5583 H 533.729 0.550251 4.30296 0
M  V30 5584 H 534.4 -0.572019 5.49028 0
M  V30 5585 H 536.876 -1.58124 3.84884 0
M  V30 5586 H 535.752 -2.48987 4.8918 0
M  V30 5587 H 536.013 -3.01292 3.23536 0
M  V30 5588 N 535.072 -1.5615 -0.213296 0
M  V30 5589 C 536.005 -1.88115 -1.29182 0
M  V30 5590 C 536.983 -0.739348 -1.44819 0
M  V30 5591 O 538.167 -0.988541 -1.605 0
M  V30 5592 C 535.294 -2.09541 -2.66102 0
M  V30 5593 C 534.34 -3.32236 -2.67436 0
M  V30 5594 S 535.173 -4.87915 -2.20679 0
M  V30 5595 C 536.329 -5.12387 -3.59458 0
M  V30 5596 H 536.562 -2.793 -1.01876 0
M  V30 5597 H 534.095 -1.48692 -0.415934 0
M  V30 5598 H 536.053 -2.22568 -3.44925 0
M  V30 5599 H 534.714 -1.19138 -2.90628 0
M  V30 5600 H 533.907 -3.44297 -3.6807 0
M  V30 5601 H 533.509 -3.18108 -1.96681 0
M  V30 5602 H 535.801 -5.01791 -4.55205 0
M  V30 5603 H 536.744 -6.14236 -3.52306 0
M  V30 5604 H 537.152 -4.40089 -3.53528 0
M  V30 5605 N 536.55 0.480323 -1.50102 0
M  V30 5606 C 537.513 1.56181 -1.6775 0
M  V30 5607 C 538.513 1.51156 -0.548503 0
M  V30 5608 O 539.703 1.5394 -0.815363 0
M  V30 5609 C 536.835 2.95823 -1.69415 0
M  V30 5610 H 538.028 1.41855 -2.6423 0
M  V30 5611 H 535.581 0.70605 -1.39444 0
M  V30 5612 H 536.316 3.15604 -0.745948 0
M  V30 5613 H 536.101 3.00878 -2.51425 0
M  V30 5614 H 537.591 3.74359 -1.85054 0
M  V30 5615 N 538.028 1.39524 0.732853 0
M  V30 5616 C 538.991 1.38189 1.82857 0
M  V30 5617 C 539.991 0.278624 1.58368 0
M  V30 5618 O 541.181 0.536639 1.65728 0
M  V30 5619 C 538.313 1.15661 3.2068 0
M  V30 5620 H 539.506 2.35692 1.85444 0
M  V30 5621 H 537.059 1.2512 0.936728 0
M  V30 5622 H 537.794 0.188482 3.23752 0
M  V30 5623 H 537.579 1.95559 3.39852 0
M  V30 5624 H 539.069 1.17472 4.00737 0
M  V30 5625 N 539.506 -0.963266 1.24736 0
M  V30 5626 C 540.734 -1.74166 1.11686 0
M  V30 5627 C 541.149 -1.8589 -0.330187 0
M  V30 5628 O 540.506 -1.35042 -1.2276 0
M  V30 5629 C 540.557 -3.15989 1.75595 0
M  V30 5630 O 540.278 -3.04847 3.14642 0
M  V30 5631 C 541.779 -4.10145 1.68213 0
M  V30 5632 H 538.999 -0.546031 0.389989 0
M  V30 5633 H 541.543 -1.20907 1.64929 0
M  V30 5634 H 539.698 -3.66219 1.26343 0
M  V30 5635 H 540.112 -3.9425 3.4593 0
M  V30 5636 H 541.586 -5.07299 2.17604 0
M  V30 5637 H 542.063 -4.3445 0.644208 0
M  V30 5638 H 542.669 -3.65827 2.16912 0
M  V30 5639 N 540.985 -1.06182 -1.16461 0
M  V30 5640 C 541.915 -0.692861 -2.22984 0
M  V30 5641 C 542.896 0.314122 -1.67174 0
M  V30 5642 O 544.081 0.189499 -1.93273 0
M  V30 5643 C 541.211 -0.07732 -3.47214 0
M  V30 5644 C 540.165 -1.01015 -4.15909 0
M  V30 5645 C 539.491 -0.257973 -5.34077 0
M  V30 5646 C 540.791 -2.33868 -4.67015 0
M  V30 5647 H 542.485 -1.58343 -2.54102 0
M  V30 5648 H 540.031 -0.76279 -1.22137 0
M  V30 5649 H 541.984 0.19266 -4.20959 0
M  V30 5650 H 540.708 0.848254 -3.15392 0
M  V30 5651 H 539.367 -1.26486 -3.44088 0
M  V30 5652 H 539.015 0.670684 -4.98509 0
M  V30 5653 H 538.715 -0.879638 -5.80979 0
M  V30 5654 H 540.239 0.00448788 -6.106 0
M  V30 5655 H 541.653 -2.1279 -5.32347 0
M  V30 5656 H 540.05 -2.91522 -5.24533 0
M  V30 5657 H 541.12 -2.97019 -3.83286 0
M  V30 5658 N 542.463 1.3308 -0.844243 0
M  V30 5659 C 543.426 2.27403 -0.286485 0
M  V30 5660 C 544.426 1.51179 0.547872 0
M  V30 5661 O 545.616 1.70421 0.360886 0
M  V30 5662 C 542.748 3.35653 0.595813 0
M  V30 5663 H 543.941 2.78248 -1.11885 0
M  V30 5664 H 541.494 1.43574 -0.617749 0
M  V30 5665 H 542.229 2.90058 1.4504 0
M  V30 5666 H 542.014 3.921 -0.00125994 0
M  V30 5667 H 543.504 4.05958 0.979168 0
M  V30 5668 N 543.941 0.601185 1.45683 0
M  V30 5669 C 544.889 -0.133955 2.32214 0
M  V30 5670 C 545.883 -0.866034 1.45589 0
M  V30 5671 O 547.089 -0.782326 1.6211 0
M  V30 5672 H 543.464 -0.0620613 0.749435 0
M  V30 5673 H 545.435 0.614389 2.92007 0
M  V30 5674 C 544.184 -1.12216 3.29094 0
M  V30 5675 H 543.507 -0.568273 3.95741 0
M  V30 5676 H 544.947 -1.60659 3.92383 0
M  V30 5677 C 543.406 -2.19251 2.55794 0
M  V30 5678 O 543.936 -3.26894 2.33459 0
M  V30 5679 N 542.142 -1.9436 2.16039 0
M  V30 5680 H 541.689 -1.06829 2.34404 0
M  V30 5681 H 541.647 -2.66181 1.67318 0
M  V30 5682 N 545.419 -1.53889 0.339982 0
M  V30 5683 C 546.667 -2.00458 -0.257112 0
M  V30 5684 C 546.988 -1.22953 -1.51353 0
M  V30 5685 O 546.258 -0.335734 -1.93002 0
M  V30 5686 H 544.838 -0.740544 -0.0979965 0
M  V30 5687 H 547.5 -1.89386 0.460317 0
M  V30 5688 H 546.596 -3.08035 -0.502057 0
M  V30 5689 N 546.897 -0.0685191 -1.57451 0
M  V30 5690 C 548.145 0.60016 -1.92983 0
M  V30 5691 C 548.466 1.70348 -0.949028 0
M  V30 5692 O 547.736 1.959 0.00335647 0
M  V30 5693 H 546.316 0.224682 -0.712409 0
M  V30 5694 H 548.978 -0.125605 -1.94495 0
M  V30 5695 H 548.074 1.02759 -2.94698 0
M  V30 5696 N 548.375 1.56261 0.205012 0
M  V30 5697 C 549.624 1.79236 0.925058 0
M  V30 5698 C 549.937 0.640011 1.84833 0
M  V30 5699 O 551.143 0.753809 2.60826 0
M  V30 5700 C 549.599 3.17475 1.69522 0
M  V30 5701 C 549.207 4.40482 0.817269 0
M  V30 5702 C 550.951 3.49766 2.4055 0
M  V30 5703 C 548.858 5.69744 1.58573 0
M  V30 5704 H 547.788 0.668287 0.349153 0
M  V30 5705 H 550.439 1.82629 0.178544 0
M  V30 5706 H 548.821 3.08304 2.48526 0
M  V30 5707 H 549.995 4.60752 0.0665988 0
M  V30 5708 H 548.31 4.15827 0.218316 0
M  V30 5709 H 550.907 4.43573 2.98575 0
M  V30 5710 H 551.25 2.73041 3.14252 0
M  V30 5711 H 551.783 3.60341 1.68522 0
M  V30 5712 H 548.522 6.49407 0.891679 0
M  V30 5713 H 548.042 5.53509 2.31059 0
M  V30 5714 H 549.721 6.1051 2.14212 0
M  V30 5715 N 549.853 -0.472356 1.50355 0
M  V30 5716 C 551.093 -1.23439 1.62918 0
M  V30 5717 C 551.457 -1.89284 0.321801 0
M  V30 5718 O 552.658 -2.66854 0.322852 0
M  V30 5719 C 550.929 -2.25119 2.7759 0
M  V30 5720 S 552.488 -3.10278 3.10279 0
M  V30 5721 H 549.306 -0.41911 0.574341 0
M  V30 5722 H 551.908 -0.531621 1.88133 0
M  V30 5723 H 550.612 -1.75324 3.71066 0
M  V30 5724 H 550.143 -3.00026 2.54457 0
M  V30 5725 H 552.158 -4.26257 2.54007 0
M  V30 5726 N 551.331 -1.39911 -0.725443 0
M  V30 5727 C 552.742 -1.33599 -1.30415 0
M  V30 5728 C 553.093 -0.00481792 -1.96199 0
M  V30 5729 O 552.218 0.897275 -1.96921 0
M  V30 5730 C 552.813 -2.41965 -2.37146 0
M  V30 5731 C 551.372 -2.39144 -2.90667 0
M  V30 5732 C 550.519 -2.23355 -1.64341 0
M  V30 5733 H 553.47 -1.4986 -0.522267 0
M  V30 5734 H 553.491 -2.09304 -3.17761 0
M  V30 5735 H 553.003 -3.38837 -1.89238 0
M  V30 5736 H 551.104 -1.4594 -3.4283 0
M  V30 5737 H 551.217 -3.34362 -3.43131 0
M  V30 5738 H 549.581 -1.70696 -1.89037 0
M  V30 5739 H 550.364 -3.2221 -1.18471 0
M  V30 5740 N 552.809 0.956637 -1.25245 0
M  V30 5741 C 554.058 1.69537 -1.0927 0
M  V30 5742 C 554.371 1.92136 0.366503 0
M  V30 5743 O 555.577 2.63687 0.64665 0
M  V30 5744 C 554.033 3.05211 -1.9072 0
M  V30 5745 C 553.641 2.90416 -3.41119 0
M  V30 5746 C 555.385 3.82882 -1.83308 0
M  V30 5747 C 553.292 4.21468 -4.14872 0
M  V30 5748 H 552.222 0.635804 -0.405302 0
M  V30 5749 H 554.873 1.06513 -1.49423 0
M  V30 5750 H 553.255 3.69128 -1.43389 0
M  V30 5751 H 554.429 2.35444 -3.9611 0
M  V30 5752 H 552.744 2.26203 -3.49602 0
M  V30 5753 H 555.341 4.79944 -2.35706 0
M  V30 5754 H 555.684 4.0853 -0.800572 0
M  V30 5755 H 556.217 3.25711 -2.28379 0
M  V30 5756 H 552.956 4.01009 -5.18529 0
M  V30 5757 H 552.476 4.76213 -3.64665 0
M  V30 5758 H 554.155 4.90022 -4.22478 0
M  V30 5759 N 554.287 1.06798 1.15896 0
M  V30 5760 C 555.515 0.808694 1.90441 0
M  V30 5761 C 555.93 -0.637506 1.77711 0
M  V30 5762 O 555.287 -1.43684 1.12522 0
M  V30 5763 C 555.338 1.20068 3.40978 0
M  V30 5764 O 555.059 2.59013 3.53333 0
M  V30 5765 C 556.56 0.96987 4.3256 0
M  V30 5766 H 553.78 0.292809 0.603742 0
M  V30 5767 H 556.324 1.42296 1.46874 0
M  V30 5768 H 554.479 0.630842 3.82229 0
M  V30 5769 H 554.893 2.7485 4.46719 0
M  V30 5770 H 556.367 1.29371 5.36626 0
M  V30 5771 H 556.844 -0.0941209 4.39099 0
M  V30 5772 H 557.45 1.52433 3.97044 0
M  V30 5773 N 555.766 -1.3263 0.851289 0
M  V30 5774 C 557.014 -1.96978 0.452128 0
M  V30 5775 C 557.335 -1.67715 -0.99482 0
M  V30 5776 O 556.605 -0.98259 -1.69476 0
M  V30 5777 H 555.185 -0.72873 0.164202 0
M  V30 5778 H 557.847 -1.61774 1.08698 0
M  V30 5779 H 556.943 -3.06387 0.594407 0
M  V30 5780 N 557.244 -0.608902 -1.45362 0
M  V30 5781 C 558.154 0.110969 -2.34337 0
M  V30 5782 C 559.17 0.859007 -1.51318 0
M  V30 5783 O 560.346 0.816296 -1.84116 0
M  V30 5784 C 557.411 1.09494 -3.28956 0
M  V30 5785 C 556.472 0.348718 -4.27881 0
M  V30 5786 C 555.705 1.28582 -5.17979 0
M  V30 5787 O 555.928 2.52369 -5.11533 0
M  V30 5788 O 554.862 0.782172 -5.96796 0
M  V30 5789 H 558.688 -0.620258 -2.97299 0
M  V30 5790 H 556.273 -0.36916 -1.44767 0
M  V30 5791 H 558.155 1.66163 -3.87257 0
M  V30 5792 H 556.83 1.80717 -2.68557 0
M  V30 5793 H 555.737 -0.260465 -3.73192 0
M  V30 5794 H 557.07 -0.323049 -4.91139 0
M  V30 5795 N 558.722 1.53707 -0.348139 0
M  V30 5796 C 559.947 2.05877 0.250883 0
M  V30 5797 C 560.372 1.22115 1.43072 0
M  V30 5798 O 559.73 0.235986 1.79758 0
M  V30 5799 C 559.778 3.54886 0.639416 0
M  V30 5800 O 558.882 3.73948 1.73888 0
M  V30 5801 H 558.223 0.662754 0.040653 0
M  V30 5802 H 560.753 1.98303 -0.503685 0
M  V30 5803 H 560.763 3.97601 0.915295 0
M  V30 5804 H 559.438 4.153 -0.223386 0
M  V30 5805 H 558.015 3.43134 1.45991 0
M  V30 5806 N 560.2 0.0768682 1.57412 0
M  V30 5807 C 561.446 -0.591961 1.93968 0
M  V30 5808 C 561.779 -1.68954 0.9575 0
M  V30 5809 O 561.054 -1.94496 -0.0124675 0
M  V30 5810 C 561.337 -1.16418 3.40762 0
M  V30 5811 C 561.19 -0.0728933 4.49741 0
M  V30 5812 C 562.509 -2.06814 3.88479 0
M  V30 5813 H 559.628 -0.213716 0.705333 0
M  V30 5814 H 562.27 0.14387 1.89455 0
M  V30 5815 H 560.42 -1.79128 3.4474 0
M  V30 5816 H 562.092 0.560446 4.57883 0
M  V30 5817 H 560.335 0.595859 4.29688 0
M  V30 5818 H 561.006 -0.513755 5.49604 0
M  V30 5819 H 563.482 -1.54033 3.8654 0
M  V30 5820 H 562.358 -2.43785 4.91793 0
M  V30 5821 H 562.619 -2.97844 3.26713 0
M  V30 5822 N 561.678 -1.56367 -0.196722 0
M  V30 5823 C 562.608 -1.97442 -1.24655 0
M  V30 5824 C 563.589 -0.846147 -1.47561 0
M  V30 5825 O 564.774 -1.11035 -1.59326 0
M  V30 5826 C 561.904 -2.31253 -2.59112 0
M  V30 5827 C 560.858 -3.46804 -2.50821 0
M  V30 5828 C 560.184 -3.66286 -3.89536 0
M  V30 5829 C 561.484 -4.8104 -2.03465 0
M  V30 5830 H 563.178 -2.85388 -0.905216 0
M  V30 5831 H 560.724 -1.37304 -0.434002 0
M  V30 5832 H 562.677 -2.58583 -3.32736 0
M  V30 5833 H 561.401 -1.40188 -2.94983 0
M  V30 5834 H 560.06 -3.19563 -1.79653 0
M  V30 5835 H 559.708 -2.72555 -4.22756 0
M  V30 5836 H 559.408 -4.4402 -3.84864 0
M  V30 5837 H 560.932 -3.9599 -4.64784 0
M  V30 5838 H 562.346 -5.07411 -2.66846 0
M  V30 5839 H 560.743 -5.62232 -2.09798 0
M  V30 5840 H 561.813 -4.74732 -0.98781 0
M  V30 5841 N 563.156 0.464375 -1.50603 0
M  V30 5842 C 564.381 1.24372 -1.65971 0
M  V30 5843 C 564.806 1.84901 -0.345453 0
M  V30 5844 O 564.164 1.67596 0.691457 0
M  V30 5845 C 564.212 2.32331 -2.7578 0
M  V30 5846 O 563.316 3.37146 -2.375 0
M  V30 5847 H 562.657 0.365604 -0.554283 0
M  V30 5848 H 565.187 0.55183 -1.97018 0
M  V30 5849 H 565.197 2.77539 -2.99059 0
M  V30 5850 H 563.872 1.87648 -3.71162 0
M  V30 5851 H 562.449 2.97602 -2.24694 0
M  V30 5852 N 564.634 1.40294 0.718013 0
M  V30 5853 C 565.597 1.4012 1.81381 0
M  V30 5854 C 566.597 0.295405 1.58063 0
M  V30 5855 O 567.787 0.554187 1.6515 0
M  V30 5856 C 564.919 1.19056 3.19435 0
M  V30 5857 H 566.112 2.37645 1.82933 0
M  V30 5858 H 563.665 1.26107 0.923405 0
M  V30 5859 H 564.4 0.222809 3.23534 0
M  V30 5860 H 564.185 1.99152 3.37758 0
M  V30 5861 H 565.675 1.21716 3.99468 0
M  V30 5862 N 566.112 -0.949982 1.2575 0
M  V30 5863 C 567.022 -2.08109 1.08295 0
M  V30 5864 C 568.038 -1.7399 0.0188181 0
M  V30 5865 O 569.214 -2.00187 0.220724 0
M  V30 5866 C 566.279 -3.39383 0.708534 0
M  V30 5867 C 565.34 -3.8734 1.85111 0
M  V30 5868 C 564.573 -5.12349 1.49447 0
M  V30 5869 O 564.796 -5.6905 0.392212 0
M  V30 5870 O 563.73 -5.5513 2.32624 0
M  V30 5871 H 567.556 -2.25738 2.03165 0
M  V30 5872 H 565.141 -1.06545 1.04731 0
M  V30 5873 H 567.023 -4.18277 0.512061 0
M  V30 5874 H 565.698 -3.23013 -0.210854 0
M  V30 5875 H 564.605 -3.09429 2.10248 0
M  V30 5876 H 565.938 -4.08216 2.74991 0
M  V30 5877 N 567.59 -1.07411 -1.15328 0
M  V30 5878 C 568.553 -0.698914 -2.18284 0
M  V30 5879 C 569.553 0.261149 -1.58665 0
M  V30 5880 O 570.743 0.0420277 -1.74149 0
M  V30 5881 C 567.875 -0.0302427 -3.40887 0
M  V30 5882 H 569.068 -1.61045 -2.52991 0
M  V30 5883 H 566.621 -0.870724 -1.298 0
M  V30 5884 H 567.356 0.893505 -3.11748 0
M  V30 5885 H 567.141 -0.720759 -3.85419 0
M  V30 5886 H 568.631 0.21759 -4.17033 0
M  V30 5887 N 569.068 1.32177 -0.85831 0
M  V30 5888 C 570.314 1.97417 -0.46417 0
M  V30 5889 C 570.647 1.67746 0.978514 0
M  V30 5890 O 569.922 0.967654 1.68721 0
M  V30 5891 C 570.205 3.53069 -0.708094 0
M  V30 5892 C 570.058 3.92357 -2.19946 0
M  V30 5893 C 571.377 4.39783 -0.166881 0
M  V30 5894 H 568.496 0.717097 -0.17012 0
M  V30 5895 H 571.138 1.56499 -1.07741 0
M  V30 5896 H 569.288 3.88054 -0.186128 0
M  V30 5897 H 570.96 3.67533 -2.78779 0
M  V30 5898 H 569.203 3.41384 -2.67656 0
M  V30 5899 H 569.874 5.00841 -2.32082 0
M  V30 5900 H 572.35 4.11556 -0.613285 0
M  V30 5901 H 571.226 5.47671 -0.367093 0
M  V30 5902 H 571.487 4.32196 0.930559 0
M  V30 5903 N 570.547 0.616602 1.45037 0
M  V30 5904 C 571.963 0.280994 1.57107 0
M  V30 5905 C 572.163 -1.21627 1.60653 0
M  V30 5906 O 571.219 -1.9997 1.54169 0
M  V30 5907 C 572.532 0.960116 2.8496 0
M  V30 5908 C 574.08 0.936884 2.98649 0
M  V30 5909 C 574.555 1.59619 4.29285 0
M  V30 5910 N 576.046 1.5621 4.36065 0
M  V30 5911 C 576.781 2.04131 5.35834 0
M  V30 5912 N 576.277 2.60177 6.4209 0
M  V30 5913 N 578.07 1.94845 5.27249 0
M  V30 5914 H 570.221 1.58867 1.40979 0
M  V30 5915 H 572.484 0.666024 0.674623 0
M  V30 5916 H 572.19 2.01473 2.88273 0
M  V30 5917 H 572.064 0.488921 3.74018 0
M  V30 5918 H 574.451 -0.109209 2.94898 0
M  V30 5919 H 574.532 1.44643 2.10979 0
M  V30 5920 H 574.176 2.64166 4.33796 0
M  V30 5921 H 574.106 1.06159 5.15789 0
M  V30 5922 H 576.597 1.15276 3.59889 0
M  V30 5923 H 576.91 2.94513 7.1448 0
M  V30 5924 H 575.255 2.64221 6.42816 0
M  V30 5925 H 578.446 1.50792 4.43147 0
M  V30 5926 H 578.619 2.32504 6.04852 0
M  V30 5927 N 572.025 -1.5352 0.356285 0
M  V30 5928 C 572.973 -2.26945 -0.50978 0
M  V30 5929 C 573.967 -1.29569 -1.09125 0
M  V30 5930 O 575.173 -1.47231 -1.03552 0
M  V30 5931 H 571.548 -0.729368 -0.183102 0
M  V30 5932 H 573.519 -2.98111 0.131374 0
M  V30 5933 C 572.268 -3.06466 -1.64237 0
M  V30 5934 H 571.591 -3.81233 -1.20423 0
M  V30 5935 H 573.031 -3.61035 -2.22327 0
M  V30 5936 C 571.49 -2.16737 -2.57928 0
M  V30 5937 O 572.02 -1.77195 -3.60507 0
M  V30 5938 N 570.226 -1.81558 -2.26903 0
M  V30 5939 H 569.773 -2.13913 -1.43524 0
M  V30 5940 H 569.731 -1.21806 -2.89846 0
M  V30 5941 N 573.503 -0.0852151 -1.57369 0
M  V30 5942 C 574.731 0.58946 -1.98325 0
M  V30 5943 C 575.146 1.62333 -0.96403 0
M  V30 5944 O 574.503 1.82438 0.0476395 0
M  V30 5945 C 574.554 1.24604 -3.39347 0
M  V30 5946 O 574.275 0.253532 -4.37366 0
M  V30 5947 C 575.776 2.00726 -3.95252 0
M  V30 5948 H 572.996 0.158783 -0.651942 0
M  V30 5949 H 575.54 -0.161584 -2.03861 0
M  V30 5950 H 573.695 1.94808 -3.34856 0
M  V30 5951 H 574.109 0.726207 -5.19448 0
M  V30 5952 H 575.583 2.42039 -4.96106 0
M  V30 5953 H 576.06 2.86919 -3.32527 0
M  V30 5954 H 576.666 1.3536 -4.03185 0
M  V30 5955 N 574.981 1.5647 0.188427 0
M  V30 5956 C 575.911 1.98101 1.23606 0
M  V30 5957 C 576.892 0.853961 1.47111 0
M  V30 5958 O 578.077 1.11879 1.58735 0
M  V30 5959 C 575.207 2.32624 2.57882 0
M  V30 5960 C 574.161 3.48129 2.48978 0
M  V30 5961 C 573.487 3.68347 3.87588 0
M  V30 5962 C 574.787 4.82112 2.00911 0
M  V30 5963 H 576.481 2.85864 0.890068 0
M  V30 5964 H 574.027 1.37532 0.426714 0
M  V30 5965 H 575.98 2.60343 3.3136 0
M  V30 5966 H 574.704 1.41751 2.94235 0
M  V30 5967 H 573.363 3.20511 1.77956 0
M  V30 5968 H 573.011 2.74793 4.21305 0
M  V30 5969 H 572.711 4.46055 3.82503 0
M  V30 5970 H 574.235 3.98449 4.62678 0
M  V30 5971 H 575.649 5.08819 2.64151 0
M  V30 5972 H 574.046 5.63337 2.06814 0
M  V30 5973 H 575.116 4.75249 0.96262 0
M  V30 5974 N 576.459 -0.456382 1.50847 0
M  V30 5975 C 577.684 -1.2349 1.66628 0
M  V30 5976 C 578.109 -1.84715 0.355254 0
M  V30 5977 O 577.467 -1.67961 -0.682559 0
M  V30 5978 C 577.515 -2.30865 2.77009 0
M  V30 5979 O 576.619 -3.35882 2.39285 0
M  V30 5980 H 575.96 -0.36266 0.556214 0
M  V30 5981 H 578.49 -0.541374 1.97308 0
M  V30 5982 H 578.5 -2.75949 3.00526 0
M  V30 5983 H 577.175 -1.85677 3.72152 0
M  V30 5984 H 575.752 -2.96406 2.26269 0
M  V30 5985 N 577.937 -1.40673 -0.710563 0
M  V30 5986 C 578.867 -1.44095 -1.83736 0
M  V30 5987 C 579.848 -0.301286 -1.67411 0
M  V30 5988 O 581.033 -0.510618 -1.87367 0
M  V30 5989 C 578.163 -1.30773 -3.21738 0
M  V30 5990 C 577.117 -2.42395 -3.52745 0
M  V30 5991 C 576.443 -2.14147 -4.89944 0
M  V30 5992 C 577.743 -3.84738 -3.53234 0
M  V30 5993 H 579.437 -2.38396 -1.81129 0
M  V30 5994 H 576.983 -1.14746 -0.870017 0
M  V30 5995 H 578.936 -1.31783 -4.00264 0
M  V30 5996 H 577.66 -0.329507 -3.24934 0
M  V30 5997 H 576.319 -2.40643 -2.76562 0
M  V30 5998 H 575.967 -1.14703 -4.89747 0
M  V30 5999 H 575.667 -2.88934 -5.11655 0
M  V30 6000 H 577.191 -2.16848 -5.70797 0
M  V30 6001 H 578.605 -3.88286 -4.2179 0
M  V30 6002 H 577.002 -4.59085 -3.86473 0
M  V30 6003 H 578.072 -4.13962 -2.52514 0
M  V30 6004 N 579.415 0.9433 -1.26252 0
M  V30 6005 C 580.348 2.04162 -1.01946 0
M  V30 6006 C 581.326 1.62507 0.0550808 0
M  V30 6007 O 582.51 1.883 -0.0869025 0
M  V30 6008 C 579.637 3.34313 -0.54335 0
M  V30 6009 C 578.683 3.94939 -1.61013 0
M  V30 6010 S 579.516 4.29484 -3.19849 0
M  V30 6011 C 580.672 5.62738 -2.74001 0
M  V30 6012 H 580.905 2.24466 -1.94942 0
M  V30 6013 H 578.438 1.08441 -1.09909 0
M  V30 6014 H 580.396 4.09576 -0.275315 0
M  V30 6015 H 579.057 3.11957 0.36629 0
M  V30 6016 H 578.25 4.88812 -1.22795 0
M  V30 6017 H 577.852 3.26202 -1.82943 0
M  V30 6018 H 580.144 6.41356 -2.18333 0
M  V30 6019 H 581.087 6.05839 -3.66558 0
M  V30 6020 H 581.495 5.22514 -2.13634 0
M  V30 6021 N 580.893 1.08022 1.14757 0
M  V30 6022 C 581.843 0.676345 2.17737 0
M  V30 6023 C 582.827 -0.302018 1.5804 0
M  V30 6024 O 584.019 -0.11466 1.76628 0
M  V30 6025 C 581.148 0.082984 3.432 0
M  V30 6026 C 580.234 1.0869 4.09936 0
M  V30 6027 N 580.625 2.26891 4.52055 0
M  V30 6028 C 578.923 0.921768 4.36371 0
M  V30 6029 C 579.624 2.90636 5.0389 0
M  V30 6030 N 578.6 2.18266 4.97856 0
M  V30 6031 H 582.402 1.5765 2.4804 0
M  V30 6032 H 579.916 0.954374 1.31398 0
M  V30 6033 H 581.913 -0.224289 4.16296 0
M  V30 6034 H 580.573 -0.812206 3.14378 0
M  V30 6035 H 581.584 2.6457 4.45223 0
M  V30 6036 H 578.261 0.0800499 4.17423 0
M  V30 6037 H 579.651 3.9104 5.46386 0
M  V30 6038 N 582.371 -1.3172 0.865308 0
M  V30 6039 C 583.596 -2.01591 0.487415 0
M  V30 6040 C 584.021 -1.6455 -0.911307 0
M  V30 6041 O 583.379 -0.851689 -1.6005 0
M  V30 6042 C 583.427 -3.54759 0.646401 0
M  V30 6043 O 582.531 -4.11185 -0.316284 0
M  V30 6044 H 581.872 -0.634884 0.194468 0
M  V30 6045 H 584.402 -1.68024 1.16744 0
M  V30 6046 H 584.412 -4.04438 0.537932 0
M  V30 6047 H 583.087 -3.8106 1.66632 0
M  V30 6048 H 581.664 -3.72543 -0.163162 0
M  V30 6049 N 583.85 -0.624285 -1.44708 0
M  V30 6050 C 585.09 -0.129273 -2.03991 0
M  V30 6051 C 585.454 1.22321 -1.47992 0
M  V30 6052 O 586.654 1.80993 -1.98734 0
M  V30 6053 C 584.926 -0.108231 -3.57236 0
M  V30 6054 S 586.485 0.323158 -4.37608 0
M  V30 6055 H 583.303 -0.0577318 -0.708652 0
M  V30 6056 H 585.904 -0.826139 -1.77187 0
M  V30 6057 H 584.609 -1.0958 -3.955 0
M  V30 6058 H 584.139 0.610101 -3.8864 0
M  V30 6059 H 586.154 1.56894 -4.70743 0
M  V30 6060 N 585.328 1.53329 -0.364422 0
M  V30 6061 C 586.576 2.00842 0.225189 0
M  V30 6062 C 586.897 1.25345 1.49378 0
M  V30 6063 O 586.167 0.366396 1.92443 0
M  V30 6064 H 584.747 0.742009 0.0862027 0
M  V30 6065 H 587.409 1.8863 -0.490389 0
M  V30 6066 H 586.505 3.08795 0.452987 0
M  V30 6067 N 586.806 0.0935595 1.57322 0
M  V30 6068 C 587.739 -0.902505 2.09595 0
M  V30 6069 C 588.717 -1.27732 1.00615 0
M  V30 6070 O 589.901 -1.38283 1.28102 0
M  V30 6071 C 587.028 -2.20416 2.57166 0
M  V30 6072 C 586.074 -1.97932 3.7779 0
M  V30 6073 S 586.907 -1.21873 5.21447 0
M  V30 6074 C 588.063 -2.53273 5.72367 0
M  V30 6075 H 588.296 -0.457797 2.93754 0
M  V30 6076 H 585.829 -0.119694 1.53935 0
M  V30 6077 H 587.787 -2.95217 2.85232 0
M  V30 6078 H 586.448 -2.62008 1.73235 0
M  V30 6079 H 585.641 -2.94316 4.09138 0
M  V30 6080 H 585.243 -1.3126 3.5021 0
M  V30 6081 H 587.535 -3.49256 5.8054 0
M  V30 6082 H 588.478 -2.26505 6.70896 0
M  V30 6083 H 588.886 -2.61475 5.00291 0
M  V30 6084 N 588.284 -1.56567 -0.180126 0
M  V30 6085 C 589.514 -1.85349 -0.912647 0
M  V30 6086 C 589.922 -0.675795 -1.76719 0
M  V30 6087 O 589.265 0.3645 -1.80047 0
M  V30 6088 C 589.327 -3.08431 -1.84691 0
M  V30 6089 C 588.991 -4.41694 -1.17284 0
M  V30 6090 C 589.988 -5.17062 -0.542532 0
M  V30 6091 C 587.673 -4.8843 -1.17223 0
M  V30 6092 C 589.667 -6.37351 0.0793953 0
M  V30 6093 C 587.354 -6.08652 -0.54647 0
M  V30 6094 C 588.352 -6.82955 0.0782458 0
M  V30 6095 O 588.04 -8.00897 0.694158 0
M  V30 6096 H 587.772 -0.619286 -0.271036 0
M  V30 6097 H 590.326 -2.0454 -0.187768 0
M  V30 6098 H 588.556 -2.85163 -2.61188 0
M  V30 6099 H 590.245 -3.23733 -2.44851 0
M  V30 6100 H 591.011 -4.8204 -0.535045 0
M  V30 6101 H 586.89 -4.30542 -1.64788 0
M  V30 6102 H 590.434 -6.95287 0.567612 0
M  V30 6103 H 586.331 -6.4314 -0.55151 0
M  V30 6104 H 587.099 -8.16352 0.592537 0
M  V30 6105 N 589.762 0.448376 -1.51087 0
M  V30 6106 C 591.039 1.20926 -1.53741 0
M  V30 6107 C 591.419 2.09025 -0.295222 0
M  V30 6108 O 590.767 2.16851 0.720283 0
M  V30 6109 C 590.977 2.02067 -2.84552 0
M  V30 6110 C 592.325 2.59486 -3.36084 0
M  V30 6111 O 593.349 2.12289 -2.86028 0
M  V30 6112 O 592.208 3.45539 -4.23397 0
M  V30 6113 H 589.302 0.549951 -0.617643 0
M  V30 6114 H 591.848 0.458344 -1.63393 0
M  V30 6115 H 590.62 1.37291 -3.66425 0
M  V30 6116 H 590.243 2.84246 -2.78011 0
M  V30 6117 N 591.24 1.41047 0.703093 0
M  V30 6118 C 592.487 1.4 1.46309 0
M  V30 6119 C 592.815 0.00654574 1.94499 0
M  V30 6120 O 592.07 -0.980255 1.6938 0
M  V30 6121 C 592.369 2.34686 2.6955 0
M  V30 6122 C 592.035 3.81684 2.40058 0
M  V30 6123 C 590.697 4.21731 2.31725 0
M  V30 6124 C 593.049 4.74525 2.15581 0
M  V30 6125 C 590.377 5.52637 1.97001 0
M  V30 6126 C 592.729 6.05744 1.82366 0
M  V30 6127 C 591.393 6.44819 1.72524 0
M  V30 6128 H 590.663 0.512295 0.535382 0
M  V30 6129 H 593.31 1.73792 0.804275 0
M  V30 6130 H 591.615 1.94122 3.40329 0
M  V30 6131 H 593.312 2.31152 3.27673 0
M  V30 6132 H 589.902 3.49963 2.47435 0
M  V30 6133 H 594.086 4.44395 2.20968 0
M  V30 6134 H 589.342 5.81802 1.87928 0
M  V30 6135 H 593.516 6.77189 1.62444 0
M  V30 6136 H 591.143 7.46168 1.45385 0
M  V30 6137 N 592.718 -0.936591 1.26751 0
M  V30 6138 C 593.943 -1.72288 1.15462 0
M  V30 6139 C 594.368 -1.85915 -0.285887 0
M  V30 6140 O 593.726 -1.35272 -1.20711 0
M  V30 6141 C 593.774 -3.10503 1.83359 0
M  V30 6142 O 592.878 -3.96745 1.1255 0
M  V30 6143 H 592.219 -0.52843 0.402067 0
M  V30 6144 H 594.749 -1.17271 1.67656 0
M  V30 6145 H 594.759 -3.60867 1.90365 0
M  V30 6146 H 593.434 -2.99901 2.88153 0
M  V30 6147 H 592.011 -3.55191 1.13551 0
M  V30 6148 N 594.196 -1.08629 -1.14182 0
M  V30 6149 C 595.444 -0.815731 -1.84906 0
M  V30 6150 C 595.765 0.660441 -1.83475 0
M  V30 6151 O 595.035 1.47888 -1.28476 0
M  V30 6152 H 593.615 -0.298773 -0.684648 0
M  V30 6153 H 596.277 -1.37274 -1.38354 0
M  V30 6154 H 595.373 -1.16193 -2.89665 0
M  V30 6155 N 595.674 1.31259 -0.872281 0
M  V30 6156 C 596.606 2.27396 -0.28697 0
M  V30 6157 C 597.619 1.53181 0.551297 0
M  V30 6158 O 598.808 1.74561 0.372914 0
M  V30 6159 C 595.908 3.33335 0.611617 0
M  V30 6160 C 595.081 4.36966 -0.194729 0
M  V30 6161 C 594.14 5.22387 0.632358 0
M  V30 6162 O 593.166 5.69169 0.0595691 0
M  V30 6163 N 594.368 5.46985 1.94391 0
M  V30 6164 H 597.133 2.78261 -1.11314 0
M  V30 6165 H 594.694 1.44306 -0.733994 0
M  V30 6166 H 596.686 3.87398 1.17068 0
M  V30 6167 H 595.256 2.82496 1.33846 0
M  V30 6168 H 594.476 3.82945 -0.935241 0
M  V30 6169 H 595.764 5.03273 -0.747935 0
M  V30 6170 H 595.162 5.10737 2.43237 0
M  V30 6171 H 593.719 6.03973 2.45071 0
M  V30 6172 N 597.152 0.631951 1.44375 0
M  V30 6173 C 598.399 0.136767 2.02038 0
M  V30 6174 C 598.727 -1.24168 1.49709 0
M  V30 6175 O 597.982 -1.83809 0.671763 0
M  V30 6176 C 598.281 0.0735861 3.57324 0
M  V30 6177 C 597.947 1.39092 4.28911 0
M  V30 6178 C 596.609 1.75171 4.48184 0
M  V30 6179 C 598.961 2.26042 4.69632 0
M  V30 6180 C 596.289 2.97907 5.05439 0
M  V30 6181 C 598.641 3.4805 5.28246 0
M  V30 6182 C 597.305 3.84351 5.45738 0
M  V30 6183 H 596.575 0.0500466 0.739308 0
M  V30 6184 H 599.222 0.818429 1.7313 0
M  V30 6185 H 597.527 -0.691449 3.8565 0
M  V30 6186 H 599.224 -0.326091 3.99672 0
M  V30 6187 H 595.814 1.10015 4.1424 0
M  V30 6188 H 599.998 1.99463 4.54454 0
M  V30 6189 H 595.254 3.26108 5.17169 0
M  V30 6190 H 599.428 4.15658 5.5875 0
M  V30 6191 H 597.055 4.79538 5.8987 0
M  V30 6192 N 598.631 -1.53133 0.372548 0
M  V30 6193 C 599.594 -2.24569 -0.458389 0
M  V30 6194 C 600.594 -1.25603 -1.00402 0
M  V30 6195 O 601.784 -1.49827 -0.888672 0
M  V30 6196 C 598.916 -2.98783 -1.6414 0
M  V30 6197 H 600.109 -2.99436 0.166799 0
M  V30 6198 H 597.662 -1.55805 0.124357 0
M  V30 6199 H 598.397 -2.28176 -2.30448 0
M  V30 6200 H 598.182 -3.71404 -1.25704 0
M  V30 6201 H 599.672 -3.53068 -2.23008 0
M  V30 6202 N 600.109 -0.101901 -1.5727 0
M  V30 6203 C 601.356 0.560197 -1.94597 0
M  V30 6204 C 601.684 1.67767 -0.984101 0
M  V30 6205 O 600.939 1.95699 -0.00489193 0
M  V30 6206 C 601.238 1.14898 -3.38427 0
M  V30 6207 C 600.904 0.154613 -4.50635 0
M  V30 6208 C 599.566 -0.118861 -4.81053 0
M  V30 6209 C 601.918 -0.523979 -5.18559 0
M  V30 6210 C 599.246 -1.0775 -5.76721 0
M  V30 6211 C 601.598 -1.47114 -6.15256 0
M  V30 6212 C 600.262 -1.75278 -6.44076 0
M  V30 6213 H 599.532 0.204991 -0.712081 0
M  V30 6214 H 602.179 -0.17918 -1.9066 0
M  V30 6215 H 600.484 1.96476 -3.38976 0
M  V30 6216 H 602.181 1.66909 -3.64613 0
M  V30 6217 H 598.771 0.377948 -4.2693 0
M  V30 6218 H 602.955 -0.325851 -4.95229 0
M  V30 6219 H 598.211 -1.30263 -5.97362 0
M  V30 6220 H 602.385 -2.00274 -6.66981 0
M  V30 6221 H 600.012 -2.49717 -7.18015 0
M  V30 6222 N 601.587 1.56661 0.17182 0
M  V30 6223 C 602.537 1.92781 1.21736 0
M  V30 6224 C 603.521 0.796065 1.39827 0
M  V30 6225 O 604.713 1.05924 1.41806 0
M  V30 6226 C 601.842 2.29079 2.55691 0
M  V30 6227 C 600.928 3.48765 2.41296 0
M  V30 6228 N 601.319 4.66022 1.96614 0
M  V30 6229 C 599.617 3.53362 2.72124 0
M  V30 6230 C 600.318 5.48159 1.94669 0
M  V30 6231 N 599.294 4.89189 2.37054 0
M  V30 6232 H 603.096 2.80926 0.863592 0
M  V30 6233 H 600.61 1.57889 0.380096 0
M  V30 6234 H 602.607 2.5315 3.31241 0
M  V30 6235 H 601.267 1.42272 2.91871 0
M  V30 6236 H 602.278 4.9025 1.66959 0
M  V30 6237 H 598.955 2.77033 3.12345 0
M  V30 6238 H 600.345 6.52121 1.61826 0
M  V30 6239 N 603.065 -0.440357 1.51323 0
M  V30 6240 C 604.311 -1.19181 1.64085 0
M  V30 6241 C 604.644 -1.90936 0.354575 0
M  V30 6242 O 603.919 -1.8347 -0.645675 0
M  V30 6243 C 604.202 -2.2112 2.84215 0
M  V30 6244 C 604.055 -1.53468 4.22809 0
M  V30 6245 C 605.374 -3.22133 2.99864 0
M  V30 6246 H 602.493 -0.431924 0.597169 0
M  V30 6247 H 605.135 -0.481443 1.83799 0
M  V30 6248 H 603.285 -2.81703 2.67537 0
M  V30 6249 H 604.957 -0.962455 4.51148 0
M  V30 6250 H 603.2 -0.837086 4.25647 0
M  V30 6251 H 603.871 -2.27694 5.02852 0
M  V30 6252 H 606.347 -2.71601 3.15233 0
M  V30 6253 H 605.223 -3.90756 3.85488 0
M  V30 6254 H 605.484 -3.88061 2.11804 0
M  V30 6255 N 604.543 -1.41418 -0.695603 0
M  V30 6256 C 605.791 -1.40496 -1.45277 0
M  V30 6257 C 606.112 -0.0149538 -1.94994 0
M  V30 6258 O 605.382 0.9432 -1.71699 0
M  V30 6259 H 603.962 -0.517147 -0.539044 0
M  V30 6260 H 606.624 -1.76656 -0.823321 0
M  V30 6261 H 605.72 -2.09214 -2.31595 0
M  V30 6262 N 606.021 0.929856 -1.27246 0
M  V30 6263 C 606.951 2.04722 -1.12299 0
M  V30 6264 C 607.932 1.70082 -0.0250464 0
M  V30 6265 O 609.117 1.93176 -0.199141 0
M  V30 6266 C 606.247 3.38721 -0.767145 0
M  V30 6267 C 605.201 3.87466 -1.81808 0
M  V30 6268 C 604.527 5.18246 -1.31626 0
M  V30 6269 C 605.827 4.11095 -3.22177 0
M  V30 6270 H 607.521 2.17485 -2.05769 0
M  V30 6271 H 605.067 1.04503 -0.990715 0
M  V30 6272 H 607.02 4.16366 -0.649413 0
M  V30 6273 H 605.744 3.25967 0.203259 0
M  V30 6274 H 604.403 3.12012 -1.92468 0
M  V30 6275 H 604.051 5.01881 -0.335378 0
M  V30 6276 H 603.751 5.51829 -2.01887 0
M  V30 6277 H 605.275 5.98462 -1.21143 0
M  V30 6278 H 606.689 4.79316 -3.1453 0
M  V30 6279 H 605.086 4.55982 -3.90129 0
M  V30 6280 H 606.156 3.16468 -3.67391 0
M  V30 6281 N 607.499 1.09233 1.13605 0
M  V30 6282 C 608.91 0.846839 1.6639 0
M  V30 6283 C 609.261 -0.625031 1.85978 0
M  V30 6284 O 608.386 -1.48173 1.57714 0
M  V30 6285 C 608.981 1.5307 3.0225 0
M  V30 6286 C 607.54 1.33223 3.52035 0
M  V30 6287 C 606.687 1.58806 2.27323 0
M  V30 6288 H 609.638 1.25175 0.975541 0
M  V30 6289 H 609.659 0.96267 3.68121 0
M  V30 6290 H 609.171 2.60192 2.87961 0
M  V30 6291 H 607.272 0.282091 3.71531 0
M  V30 6292 H 607.385 2.0657 4.32279 0
M  V30 6293 H 605.749 1.01007 2.33815 0
M  V30 6294 H 606.532 2.67153 2.15602 0
M  V30 6295 N 608.977 -1.30795 0.87923 0
M  V30 6296 C 609.94 -2.26563 0.346676 0
M  V30 6297 C 610.94 -1.52578 -0.507597 0
M  V30 6298 O 612.13 -1.71318 -0.315575 0
M  V30 6299 C 609.262 -3.37115 -0.506611 0
M  V30 6300 H 610.455 -2.75183 1.19223 0
M  V30 6301 H 608.008 -1.41886 0.655598 0
M  V30 6302 H 608.743 -2.93802 -1.37299 0
M  V30 6303 H 608.528 -3.91959 0.105218 0
M  V30 6304 H 610.018 -4.08412 -0.871192 0
M  V30 6305 N 610.455 -0.639598 -1.44038 0
M  V30 6306 C 611.402 0.0602458 -2.30721 0
M  V30 6307 C 612.372 0.828352 -1.43971 0
M  V30 6308 O 613.557 0.807693 -1.72861 0
M  V30 6309 C 610.697 1.03008 -3.29368 0
M  V30 6310 C 609.81 0.259502 -4.3122 0
M  V30 6311 C 608.945 1.22191 -5.16955 0
M  V30 6312 C 607.984 0.440978 -6.10509 0
M  V30 6313 N 607.121 1.35428 -6.88915 0
M  V30 6314 H 611.961 -0.684867 -2.90023 0
M  V30 6315 H 609.498 -0.349509 -1.42888 0
M  V30 6316 H 611.456 1.60583 -3.85057 0
M  V30 6317 H 610.086 1.74222 -2.71747 0
M  V30 6318 H 609.138 -0.432317 -3.77935 0
M  V30 6319 H 610.45 -0.348347 -4.97582 0
M  V30 6320 H 609.604 1.86873 -5.77203 0
M  V30 6321 H 608.343 1.86367 -4.50687 0
M  V30 6322 H 607.348 -0.219279 -5.49363 0
M  V30 6323 H 608.573 -0.196192 -6.78817 0
M  V30 6324 H 606.519 1.9831 -6.25307 0
M  V30 6325 H 606.436 0.800657 -7.51748 0
M  V30 6326 H 607.704 1.98967 -7.53679 0
M  V30 6327 N 611.933 1.52934 -0.380664 0
M  V30 6328 C 613.158 2.06363 0.207157 0
M  V30 6329 C 613.583 1.25122 1.4045 0
M  V30 6330 O 612.941 0.274062 1.79217 0
M  V30 6331 C 612.989 3.56162 0.563996 0
M  V30 6332 O 612.093 3.77552 1.65917 0
M  V30 6333 H 611.434 0.663468 0.0265859 0
M  V30 6334 H 613.964 1.9719 -0.545635 0
M  V30 6335 H 613.974 3.99453 0.830752 0
M  V30 6336 H 612.649 4.14732 -0.311427 0
M  V30 6337 H 611.226 3.46154 1.3868 0
M  V30 6338 N 613.412 0.11024 1.57214 0
M  V30 6339 C 614.375 -0.828808 2.1369 0
M  V30 6340 C 615.375 -1.20059 1.06969 0
M  V30 6341 O 616.565 -1.12754 1.32786 0
M  V30 6342 C 613.697 -2.11959 2.66994 0
M  V30 6343 H 614.89 -0.338146 2.97988 0
M  V30 6344 H 612.443 -0.138913 1.55681 0
M  V30 6345 H 613.178 -2.65476 1.8626 0
M  V30 6346 H 612.963 -1.86258 3.45037 0
M  V30 6347 H 614.453 -2.79105 3.10629 0
M  V30 6348 N 614.89 -1.56749 -0.16351 0
M  V30 6349 C 616.136 -1.82704 -0.880168 0
M  V30 6350 C 616.469 -0.689311 -1.81555 0
M  V30 6351 O 615.744 0.308224 -1.92042 0
M  V30 6352 C 616.027 -3.19084 -1.66905 0
M  V30 6353 C 615.88 -4.43397 -0.756269 0
M  V30 6354 C 617.199 -3.52493 -2.63509 0
M  V30 6355 H 614.318 -0.664608 -0.318535 0
M  V30 6356 H 616.96 -1.89438 -0.146036 0
M  V30 6357 H 615.11 -3.13475 -2.2949 0
M  V30 6358 H 616.782 -4.61079 -0.14269 0
M  V30 6359 H 615.025 -4.33752 -0.0647944 0
M  V30 6360 H 615.696 -5.3539 -1.34393 0
M  V30 6361 H 618.172 -3.58606 -2.11047 0
M  V30 6362 H 617.048 -4.48979 -3.15767 0
M  V30 6363 H 617.309 -2.77597 -3.44082 0
M  V30 6364 N 616.368 0.432326 -1.51554 0
M  V30 6365 C 617.593 1.20824 -1.68571 0
M  V30 6366 C 618.018 1.84126 -0.384596 0
M  V30 6367 O 617.376 1.69025 0.655751 0
M  V30 6368 C 617.424 2.26429 -2.80646 0
M  V30 6369 O 616.528 3.32032 -2.44598 0
M  V30 6370 H 615.869 0.353765 -0.561913 0
M  V30 6371 H 618.399 0.509916 -1.98144 0
M  V30 6372 H 618.409 2.71133 -3.04878 0
M  V30 6373 H 617.084 1.79733 -3.75058 0
M  V30 6374 H 615.661 2.92769 -2.30956 0
M  V30 6375 N 617.846 1.41785 0.688094 0
M  V30 6376 C 619.094 1.41264 1.4453 0
M  V30 6377 C 619.415 0.0252946 1.94984 0
M  V30 6378 O 618.685 -0.934081 1.72197 0
M  V30 6379 H 617.265 0.519998 0.536294 0
M  V30 6380 H 619.927 1.7709 0.813941 0
M  V30 6381 H 619.023 2.10439 2.30482 0
M  V30 6382 N 619.324 -0.923095 1.27737 0
M  V30 6383 C 620.287 -2.00587 1.10894 0
M  V30 6384 C 621.287 -1.60718 0.0514927 0
M  V30 6385 O 622.477 -1.71658 0.296481 0
M  V30 6386 C 619.609 -3.33829 0.690717 0
M  V30 6387 H 620.802 -2.16959 2.07048 0
M  V30 6388 H 618.355 -1.10451 1.1059 0
M  V30 6389 H 619.09 -3.23157 -0.272 0
M  V30 6390 H 618.875 -3.64125 1.45448 0
M  V30 6391 H 620.365 -4.13336 0.595252 0
M  V30 6392 N 620.802 -1.09834 -1.13024 0
M  V30 6393 C 622.051 -0.831806 -1.83749 0
M  V30 6394 C 622.364 0.644763 -1.84668 0
M  V30 6395 O 623.57 1.02697 -2.51327 0
M  V30 6396 C 622.026 -1.43817 -3.29916 0
M  V30 6397 C 621.634 -2.94759 -3.37374 0
M  V30 6398 C 623.378 -1.25077 -4.05655 0
M  V30 6399 C 621.285 -3.48461 -4.77838 0
M  V30 6400 H 620.215 -0.30751 -0.688443 0
M  V30 6401 H 622.866 -1.32156 -1.27307 0
M  V30 6402 H 621.248 -0.876106 -3.86187 0
M  V30 6403 H 622.422 -3.57228 -2.91076 0
M  V30 6404 H 620.737 -3.12581 -2.75103 0
M  V30 6405 H 623.334 -1.62649 -5.09362 0
M  V30 6406 H 623.677 -0.191782 -4.15858 0
M  V30 6407 H 624.21 -1.78057 -3.55725 0
M  V30 6408 H 620.949 -4.53998 -4.72828 0
M  V30 6409 H 620.469 -2.90757 -5.24615 0
M  V30 6410 H 622.148 -3.45914 -5.46766 0
M  V30 6411 N 622.28 1.30327 -0.886154 0
M  V30 6412 C 623.21 2.30549 -0.370028 0
M  V30 6413 C 624.191 1.61039 0.547751 0
M  V30 6414 O 625.376 1.8864 0.461353 0
M  V30 6415 C 622.506 3.44808 0.415275 0
M  V30 6416 C 621.46 4.26024 -0.41085 0
M  V30 6417 C 620.786 5.32347 0.501128 0
M  V30 6418 C 622.086 4.95433 -1.65359 0
M  V30 6419 H 623.78 2.73969 -1.20754 0
M  V30 6420 H 621.326 1.3171 -0.582097 0
M  V30 6421 H 623.279 4.13986 0.78699 0
M  V30 6422 H 622.003 3.00197 1.28644 0
M  V30 6423 H 620.662 3.58535 -0.764719 0
M  V30 6424 H 620.31 4.83982 1.37004 0
M  V30 6425 H 620.01 5.87581 -0.0478356 0
M  V30 6426 H 621.534 6.0438 0.869333 0
M  V30 6427 H 622.948 5.5712 -1.35239 0
M  V30 6428 H 621.345 5.60537 -2.14284 0
M  V30 6429 H 622.415 4.21493 -2.39733 0
M  V30 6430 N 623.758 0.647228 1.43697 0
M  V30 6431 C 624.688 -0.0345631 2.33474 0
M  V30 6432 C 625.669 -0.818193 1.4913 0
M  V30 6433 O 626.854 -0.780867 1.77809 0
M  V30 6434 C 623.984 -1.00576 3.32418 0
M  V30 6435 C 622.938 -0.33266 4.26705 0
M  V30 6436 C 622.264 -1.41489 5.1564 0
M  V30 6437 C 623.564 0.771204 5.16575 0
M  V30 6438 H 625.258 0.715163 2.90733 0
M  V30 6439 H 622.804 0.345364 1.39797 0
M  V30 6440 H 624.757 -1.49159 3.94119 0
M  V30 6441 H 623.481 -1.78657 2.73403 0
M  V30 6442 H 622.14 0.13267 3.6636 0
M  V30 6443 H 621.788 -2.18698 4.52968 0
M  V30 6444 H 621.488 -0.969799 5.79542 0
M  V30 6445 H 623.012 -1.9022 5.80214 0
M  V30 6446 H 624.426 0.36779 5.72119 0
M  V30 6447 H 622.823 1.1404 5.89165 0
M  V30 6448 H 623.893 1.63169 4.56622 0
M  V30 6449 N 625.236 -1.5273 0.388769 0
M  V30 6450 C 626.482 -2.01871 -0.193877 0
M  V30 6451 C 626.815 -1.27475 -1.46505 0
M  V30 6452 O 626.09 -0.375063 -1.90849 0
M  V30 6453 C 626.373 -3.5712 -0.462336 0
M  V30 6454 C 626.226 -4.42186 0.824091 0
M  V30 6455 C 627.545 -4.21881 -1.25319 0
M  V30 6456 H 624.664 -0.733764 -0.0689899 0
M  V30 6457 H 627.306 -1.82796 0.518231 0
M  V30 6458 H 625.456 -3.73504 -1.06896 0
M  V30 6459 H 627.128 -4.37554 1.46096 0
M  V30 6460 H 625.371 -4.09219 1.43952 0
M  V30 6461 H 626.042 -5.48828 0.590905 0
M  V30 6462 H 628.518 -4.0947 -0.73981 0
M  V30 6463 H 627.394 -5.30487 -1.40977 0
M  V30 6464 H 627.655 -3.79478 -2.26824 0
M  V30 6465 N 626.714 -0.118576 -1.57153 0
M  V30 6466 C 627.96 0.540326 -1.95469 0
M  V30 6467 C 628.293 1.66356 -1.00196 0
M  V30 6468 O 627.568 1.94461 -0.039104 0
M  V30 6469 C 627.851 1.07342 -3.43729 0
M  V30 6470 C 627.704 -0.0463732 -4.49776 0
M  V30 6471 C 629.023 1.96442 -3.93826 0
M  V30 6472 H 626.142 0.19494 -0.710751 0
M  V30 6473 H 628.784 -0.19405 -1.89006 0
M  V30 6474 H 626.934 1.69925 -3.49368 0
M  V30 6475 H 628.606 -0.681648 -4.56236 0
M  V30 6476 H 626.849 -0.709574 -4.27957 0
M  V30 6477 H 627.52 0.367856 -5.50773 0
M  V30 6478 H 629.996 1.43731 -3.90488 0
M  V30 6479 H 628.872 2.3066 -4.98084 0
M  V30 6480 H 629.133 2.89077 -3.34495 0
M  V30 6481 N 628.193 1.56834 0.155195 0
M  V30 6482 C 629.604 1.72421 0.716082 0
M  V30 6483 C 629.955 0.731685 1.82046 0
M  V30 6484 O 629.08 -0.103481 2.16152 0
M  V30 6485 C 629.675 3.12629 1.30571 0
M  V30 6486 C 628.234 3.29846 1.81325 0
M  V30 6487 C 627.381 2.68359 0.698494 0
M  V30 6488 H 630.332 1.58544 -0.0703861 0
M  V30 6489 H 630.353 3.12174 2.1755 0
M  V30 6490 H 629.865 3.84844 0.501701 0
M  V30 6491 H 627.966 2.62614 2.64319 0
M  V30 6492 H 628.079 4.37727 1.9476 0
M  V30 6493 H 626.443 2.28604 1.12305 0
M  V30 6494 H 627.226 3.43171 -0.0939366 0
M  V30 6495 N 629.671 -0.424282 1.51781 0
M  V30 6496 C 630.619 -1.53649 1.74628 0
M  V30 6497 C 631.613 -1.57923 0.612922 0
M  V30 6498 O 632.819 -1.61511 0.794618 0
M  V30 6499 H 629.194 -0.510706 0.551981 0
M  V30 6500 H 631.165 -1.31558 2.67834 0
M  V30 6501 C 629.914 -2.91177 1.9003 0
M  V30 6502 H 629.237 -2.88625 2.76651 0
M  V30 6503 H 630.677 -3.6833 2.10021 0
M  V30 6504 C 629.136 -3.30303 0.663435 0
M  V30 6505 O 629.666 -4.01315 -0.175812 0
M  V30 6506 N 627.872 -2.86201 0.503723 0
M  V30 6507 H 627.419 -2.28583 1.18776 0
M  V30 6508 H 627.377 -3.12741 -0.322575 0
M  V30 6509 N 631.149 -1.42148 -0.680565 0
M  V30 6510 C 632.395 -1.42521 -1.44277 0
M  V30 6511 C 632.728 -0.0393718 -1.9416 0
M  V30 6512 O 632.003 0.935425 -1.70529 0
M  V30 6513 C 632.286 -2.44475 -2.64394 0
M  V30 6514 C 632.139 -3.92226 -2.20179 0
M  V30 6515 C 633.458 -2.43491 -3.66606 0
M  V30 6516 H 630.577 -0.518985 -0.523282 0
M  V30 6517 H 633.219 -1.73524 -0.773914 0
M  V30 6518 H 631.369 -2.18168 -3.21458 0
M  V30 6519 H 633.041 -4.29493 -1.68327 0
M  V30 6520 H 631.284 -4.0637 -1.5181 0
M  V30 6521 H 631.955 -4.59133 -3.06433 0
M  V30 6522 H 634.431 -2.66872 -3.19247 0
M  V30 6523 H 633.307 -3.16816 -4.4824 0
M  V30 6524 H 633.568 -1.45881 -4.17338 0
M  V30 6525 N 632.627 0.916307 -1.28225 0
M  V30 6526 C 633.56 2.01954 -1.06254 0
M  V30 6527 C 634.538 1.62587 0.0205983 0
M  V30 6528 O 635.722 1.88073 -0.126824 0
M  V30 6529 C 632.849 3.33086 -0.614141 0
M  V30 6530 C 631.895 3.91435 -1.69354 0
M  V30 6531 S 632.728 4.22603 -3.28887 0
M  V30 6532 C 633.884 5.568 -2.85876 0
M  V30 6533 H 634.117 2.20281 -1.99659 0
M  V30 6534 H 631.65 1.06085 -1.12184 0
M  V30 6535 H 633.608 4.089 -0.36213 0
M  V30 6536 H 632.269 3.12664 0.300036 0
M  V30 6537 H 631.462 4.86098 -1.33136 0
M  V30 6538 H 631.064 3.22248 -1.89821 0
M  V30 6539 H 633.356 6.3658 -2.31888 0
M  V30 6540 H 634.299 5.97927 -3.79326 0
M  V30 6541 H 634.707 5.17865 -2.24669 0
M  V30 6542 N 634.105 1.10431 1.1244 0
M  V30 6543 C 635.353 0.845045 1.83585 0
M  V30 6544 C 635.674 -0.631168 1.84503 0
M  V30 6545 O 634.944 -1.45825 1.30813 0
M  V30 6546 H 633.524 0.309628 0.679809 0
M  V30 6547 H 636.186 1.39458 1.36153 0
M  V30 6548 H 635.282 1.20786 2.8778 0
M  V30 6549 N 635.583 -1.29855 0.893053 0
M  V30 6550 C 636.516 -2.26079 0.3104 0
M  V30 6551 C 637.494 -1.52145 -0.573644 0
M  V30 6552 O 638.678 -1.8113 -0.521937 0
M  V30 6553 C 635.805 -3.34069 -0.558179 0
M  V30 6554 C 634.851 -4.25721 0.257638 0
M  V30 6555 S 635.684 -5.09409 1.65114 0
M  V30 6556 C 636.84 -6.20903 0.789307 0
M  V30 6557 H 637.073 -2.75151 1.12602 0
M  V30 6558 H 634.606 -1.37975 0.692978 0
M  V30 6559 H 636.564 -3.9675 -1.05355 0
M  V30 6560 H 635.225 -2.83705 -1.34797 0
M  V30 6561 H 634.418 -5.02366 -0.405562 0
M  V30 6562 H 634.02 -3.67656 0.685917 0
M  V30 6563 H 636.312 -6.77499 0.00978451 0
M  V30 6564 H 637.255 -6.91426 1.52762 0
M  V30 6565 H 637.663 -5.63435 0.346634 0
M  V30 6566 N 637.061 -0.65484 -1.43351 0
M  V30 6567 C 637.994 0.0855537 -2.2804 0
M  V30 6568 C 638.972 0.828301 -1.39921 0
M  V30 6569 O 640.156 0.827539 -1.69364 0
M  V30 6570 C 637.283 1.12792 -3.19368 0
M  V30 6571 C 636.329 0.483037 -4.23756 0
M  V30 6572 S 637.162 -0.744605 -5.30298 0
M  V30 6573 C 638.318 0.297187 -6.25194 0
M  V30 6574 H 638.551 -0.632831 -2.90487 0
M  V30 6575 H 636.084 -0.44373 -1.47886 0
M  V30 6576 H 638.042 1.7243 -3.72529 0
M  V30 6577 H 636.703 1.81863 -2.56095 0
M  V30 6578 H 635.896 1.26888 -4.87766 0
M  V30 6579 H 635.498 -0.0392713 -3.73979 0
M  V30 6580 H 637.79 1.1629 -6.67445 0
M  V30 6581 H 638.733 -0.30793 -7.0743 0
M  V30 6582 H 639.141 0.633721 -5.60932 0
M  V30 6583 N 638.539 1.52521 -0.396863 0
M  V30 6584 C 639.779 2.03583 0.182578 0
M  V30 6585 C 640.143 1.2766 1.43412 0
M  V30 6586 O 641.344 1.68884 2.09121 0
M  V30 6587 C 639.615 3.54724 0.436519 0
M  V30 6588 S 641.174 4.27598 0.985163 0
M  V30 6589 H 637.992 0.709186 0.0507529 0
M  V30 6590 H 640.594 1.87693 -0.546955 0
M  V30 6591 H 639.298 4.07567 -0.481343 0
M  V30 6592 H 638.829 3.74834 1.19427 0
M  V30 6593 H 640.844 4.41393 2.26686 0
M  V30 6594 N 640.017 0.126909 1.57088 0
M  V30 6595 C 640.947 -0.816847 2.18746 0
M  V30 6596 C 641.928 -1.27161 1.12979 0
M  V30 6597 O 643.113 -1.33279 1.41246 0
M  V30 6598 C 640.243 -2.06398 2.79315 0
M  V30 6599 C 639.197 -1.74673 3.90735 0
M  V30 6600 C 638.523 -3.06482 4.38147 0
M  V30 6601 C 639.823 -1.0089 5.12463 0
M  V30 6602 H 641.517 -0.303032 2.97863 0
M  V30 6603 H 639.063 -0.144314 1.43275 0
M  V30 6604 H 641.016 -2.72885 3.2111 0
M  V30 6605 H 639.74 -2.60118 1.975 0
M  V30 6606 H 638.399 -1.10572 3.49527 0
M  V30 6607 H 638.047 -3.58152 3.5318 0
M  V30 6608 H 637.747 -2.86025 5.13287 0
M  V30 6609 H 639.271 -3.74073 4.82599 0
M  V30 6610 H 640.685 -1.57546 5.51228 0
M  V30 6611 H 639.082 -0.905006 5.93237 0
M  V30 6612 H 640.152 0.00297335 4.849 0
M  V30 6613 N 641.495 -1.56914 -0.146875 0
M  V30 6614 C 642.72 -1.87881 -0.878386 0
M  V30 6615 C 643.145 -0.715945 -1.73942 0
M  V30 6616 O 642.503 0.334447 -1.78189 0
M  V30 6617 C 642.551 -3.17431 -1.71084 0
M  V30 6618 O 641.655 -3.01374 -2.81509 0
M  V30 6619 H 640.996 -0.617289 -0.244644 0
M  V30 6620 H 643.526 -2.04136 -0.137654 0
M  V30 6621 H 643.536 -3.49455 -2.10582 0
M  V30 6622 H 642.211 -4.01671 -1.07856 0
M  V30 6623 H 640.788 -2.80758 -2.45416 0
M  V30 6624 N 642.974 0.416227 -1.52004 0
M  V30 6625 C 644.385 0.995319 -1.57957 0
M  V30 6626 C 644.736 1.91744 -0.415754 0
M  V30 6627 O 643.861 2.11349 0.464808 0
M  V30 6628 C 644.456 1.81191 -2.86278 0
M  V30 6629 C 643.015 2.34115 -2.94732 0
M  V30 6630 C 642.162 1.139 -2.52828 0
M  V30 6631 H 645.113 0.196716 -1.57476 0
M  V30 6632 H 645.134 2.66859 -2.71231 0
M  V30 6633 H 644.646 1.14051 -3.70963 0
M  V30 6634 H 642.747 3.04647 -2.14525 0
M  V30 6635 H 642.86 2.65466 -3.98829 0
M  V30 6636 H 641.224 1.49081 -2.06511 0
M  V30 6637 H 642.007 0.483383 -3.3988 0
M  V30 6638 N 644.452 1.42507 0.673017 0
M  V30 6639 C 645.863 1.38347 1.25367 0
M  V30 6640 C 646.214 0.0776327 1.96046 0
M  V30 6641 O 645.339 -0.823571 2.00116 0
M  V30 6642 C 645.934 2.506 2.28002 0
M  V30 6643 C 644.493 2.49767 2.81591 0
M  V30 6644 C 643.64 2.293 1.55938 0
M  V30 6645 H 646.591 1.51695 0.466288 0
M  V30 6646 H 646.612 2.20953 3.09774 0
M  V30 6647 H 646.124 3.45627 1.76532 0
M  V30 6648 H 644.225 1.58563 3.37177 0
M  V30 6649 H 644.338 3.46867 3.30485 0
M  V30 6650 H 642.702 1.77594 1.82572 0
M  V30 6651 H 643.485 3.26385 1.06431 0
M  V30 6652 N 645.93 -0.909495 1.28709 0
M  V30 6653 C 646.86 -2.0291 1.15542 0
M  V30 6654 C 647.841 -1.7002 0.0521017 0
M  V30 6655 O 649.026 -1.92835 0.229849 0
M  V30 6656 C 646.156 -3.37458 0.820935 0
M  V30 6657 C 645.11 -3.84524 1.87949 0
M  V30 6658 C 644.436 -5.16086 1.39854 0
M  V30 6659 C 645.736 -4.05918 3.28676 0
M  V30 6660 H 647.43 -2.14183 2.09203 0
M  V30 6661 H 644.976 -1.02913 1.00722 0
M  V30 6662 H 646.929 -4.1528 0.715571 0
M  V30 6663 H 645.653 -3.26249 -0.151374 0
M  V30 6664 H 644.312 -3.08911 1.97408 0
M  V30 6665 H 643.96 -5.01284 0.41518 0
M  V30 6666 H 643.66 -5.48547 2.1064 0
M  V30 6667 H 645.184 -5.96459 1.30649 0
M  V30 6668 H 646.598 -4.74252 3.22115 0
M  V30 6669 H 644.995 -4.49717 3.97334 0
M  V30 6670 H 646.065 -3.10583 3.72379 0
M  V30 6671 N 647.408 -1.11026 -1.11852 0
M  V30 6672 C 648.685 -0.768347 -1.79877 0
M  V30 6673 C 649.065 0.744261 -1.97545 0
M  V30 6674 O 648.413 1.67271 -1.55669 0
M  V30 6675 C 648.623 -1.52648 -3.13846 0
M  V30 6676 C 649.971 -1.70297 -3.88953 0
M  V30 6677 O 650.995 -1.49037 -3.23522 0
M  V30 6678 O 649.854 -2.05593 -5.06353 0
M  V30 6679 H 646.948 -0.277891 -0.778913 0
M  V30 6680 H 649.494 -1.21343 -1.18633 0
M  V30 6681 H 648.266 -2.55564 -2.96315 0
M  V30 6682 H 647.889 -1.07466 -3.82801 0
M  V30 6683 N 648.886 1.2938 -0.899927 0
M  V30 6684 C 649.833 2.27713 -0.376243 0
M  V30 6685 C 650.803 1.57016 0.541774 0
M  V30 6686 O 651.988 1.84997 0.466966 0
M  V30 6687 C 649.128 3.42889 0.39 0
M  V30 6688 C 648.241 4.28369 -0.558938 0
M  V30 6689 C 647.376 5.30726 0.224379 0
M  V30 6690 C 646.415 6.07862 -0.719068 0
M  V30 6691 N 645.552 7.02094 0.0298569 0
M  V30 6692 H 650.392 2.71888 -1.21988 0
M  V30 6693 H 647.929 1.33724 -0.612879 0
M  V30 6694 H 649.887 4.08443 0.850314 0
M  V30 6695 H 648.517 2.99743 1.19809 0
M  V30 6696 H 647.569 3.62986 -1.13777 0
M  V30 6697 H 648.881 4.82068 -1.2811 0
M  V30 6698 H 648.035 6.02098 0.745881 0
M  V30 6699 H 646.774 4.77759 0.979674 0
M  V30 6700 H 645.779 5.35353 -1.25207 0
M  V30 6701 H 647.004 6.62917 -1.4737 0
M  V30 6702 H 644.95 6.51496 0.767415 0
M  V30 6703 H 644.867 7.5335 -0.632391 0
M  V30 6704 H 646.135 7.77685 0.531615 0
M  V30 6705 N 650.364 0.662433 1.43002 0
M  V30 6706 C 651.294 -0.00979809 2.33498 0
M  V30 6707 C 652.275 -0.802329 1.49989 0
M  V30 6708 O 653.46 -0.761964 1.78627 0
M  V30 6709 C 650.59 -0.970446 3.33466 0
M  V30 6710 C 649.544 -0.287383 4.27034 0
M  V30 6711 C 648.87 -1.36012 5.17112 0
M  V30 6712 C 650.17 0.82595 5.15728 0
M  V30 6713 H 651.864 0.745959 2.89958 0
M  V30 6714 H 649.41 0.360172 1.39423 0
M  V30 6715 H 651.363 -1.44971 3.95679 0
M  V30 6716 H 650.087 -1.75748 2.75282 0
M  V30 6717 H 648.746 0.17152 3.66199 0
M  V30 6718 H 648.394 -2.13882 4.55262 0
M  V30 6719 H 648.094 -0.908276 5.80538 0
M  V30 6720 H 649.618 -1.84056 5.82199 0
M  V30 6721 H 651.032 0.42845 5.71697 0
M  V30 6722 H 649.429 1.20282 5.87922 0
M  V30 6723 H 650.499 1.68003 4.54866 0
M  V30 6724 N 651.842 -1.52309 0.404946 0
M  V30 6725 C 653.09 -2.01368 -0.17186 0
M  V30 6726 C 653.411 -1.29261 -1.46002 0
M  V30 6727 O 652.681 -0.41729 -1.91404 0
M  V30 6728 H 651.261 -0.744034 -0.0664993 0
M  V30 6729 H 653.923 -1.87263 0.540228 0
M  V30 6730 H 653.019 -3.09888 -0.370957 0
M  V30 6731 N 653.32 -0.135238 -1.57019 0
M  V30 6732 C 654.268 0.826099 -2.17436 0
M  V30 6733 C 655.262 1.26378 -1.12805 0
M  V30 6734 O 656.468 1.23363 -1.31079 0
M  V30 6735 H 652.843 0.284568 -0.696078 0
M  V30 6736 H 654.814 0.292212 -2.96966 0
M  V30 6737 C 653.563 2.05991 -2.80112 0
M  V30 6738 H 652.886 1.73209 -3.60331 0
M  V30 6739 H 654.326 2.71225 -3.25903 0
M  V30 6740 C 652.785 2.86027 -1.78017 0
M  V30 6741 O 653.315 3.81971 -1.24344 0
M  V30 6742 N 651.521 2.50332 -1.47588 0
M  V30 6743 H 651.068 1.72377 -1.91426 0
M  V30 6744 H 651.026 3.04177 -0.795228 0
M  V30 6745 N 654.798 1.5699 0.138552 0
M  V30 6746 C 656.023 1.88344 0.86841 0
M  V30 6747 C 656.448 0.725159 1.7356 0
M  V30 6748 O 655.806 -0.324992 1.78363 0
M  V30 6749 C 655.854 3.18334 1.69398 0
M  V30 6750 O 654.958 3.02863 2.79907 0
M  V30 6751 H 654.299 0.618577 0.241367 0
M  V30 6752 H 656.829 2.04207 0.126826 0
M  V30 6753 H 656.839 3.50567 2.08726 0
M  V30 6754 H 655.514 4.02238 1.05725 0
M  V30 6755 H 654.091 2.82056 2.43924 0
M  V30 6756 N 656.276 -0.40816 1.52223 0
M  V30 6757 C 657.226 -1.49648 1.72016 0
M  V30 6758 C 658.21 -1.50311 0.574069 0
M  V30 6759 O 659.402 -1.56271 0.831173 0
M  V30 6760 C 656.531 -2.87566 1.87512 0
M  V30 6761 C 655.617 -2.91547 3.07995 0
M  V30 6762 N 656.008 -2.65225 4.30685 0
M  V30 6763 C 654.306 -3.22715 3.07849 0
M  V30 6764 C 655.007 -2.75799 5.12162 0
M  V30 6765 N 653.983 -3.08719 4.4743 0
M  V30 6766 H 657.785 -1.28093 2.64517 0
M  V30 6767 H 655.299 -0.61588 1.50269 0
M  V30 6768 H 657.296 -3.65899 1.99809 0
M  V30 6769 H 655.956 -3.10118 0.962114 0
M  V30 6770 H 656.967 -2.39601 4.59142 0
M  V30 6771 H 653.644 -3.50856 2.26289 0
M  V30 6772 H 655.034 -2.59155 6.1991 0
M  V30 6773 N 657.755 -1.42862 -0.66545 0
M  V30 6774 C 659.171 -1.25993 -0.979687 0
M  V30 6775 C 659.371 -0.170831 -2.00775 0
M  V30 6776 O 658.427 0.454827 -2.4837 0
M  V30 6777 C 659.74 -2.62005 -1.47559 0
M  V30 6778 C 661.288 -2.69437 -1.59288 0
M  V30 6779 C 661.763 -4.05838 -2.12272 0
M  V30 6780 N 663.254 -4.0784 -2.19592 0
M  V30 6781 C 663.989 -5.10205 -2.61684 0
M  V30 6782 N 663.485 -6.22949 -3.03161 0
M  V30 6783 N 665.278 -4.9756 -2.61516 0
M  V30 6784 H 657.429 -2.12395 0.0150493 0
M  V30 6785 H 659.692 -0.946355 -0.0558187 0
M  V30 6786 H 659.398 -3.42605 -0.794654 0
M  V30 6787 H 659.272 -2.86566 -2.45275 0
M  V30 6788 H 661.659 -1.89178 -2.26486 0
M  V30 6789 H 661.74 -2.48655 -0.600374 0
M  V30 6790 H 661.384 -4.86559 -1.4568 0
M  V30 6791 H 661.314 -4.23977 -3.12331 0
M  V30 6792 H 663.805 -3.26452 -1.90361 0
M  V30 6793 H 664.118 -6.96899 -3.33993 0
M  V30 6794 H 662.463 -6.2644 -3.00995 0
M  V30 6795 H 665.654 -4.08551 -2.28481 0
M  V30 6796 H 665.827 -5.77468 -2.93999 0
M  V30 6797 N 659.233 0.902656 -1.29189 0
M  V30 6798 C 660.481 1.6496 -1.16758 0
M  V30 6799 C 660.802 1.92952 0.28188 0
M  V30 6800 O 660.072 1.55351 1.19344 0
M  V30 6801 H 658.652 0.611447 -0.429118 0
M  V30 6802 H 661.314 1.0825 -1.62074 0
M  V30 6803 H 660.41 2.60728 -1.71544 0
M  V30 6804 N 660.711 1.11618 1.11262 0
M  V30 6805 C 661.939 0.888739 1.8684 0
M  V30 6806 C 662.354 -0.561558 1.80255 0
M  V30 6807 O 661.711 -1.38782 1.18515 0
M  V30 6808 C 661.762 1.34422 3.35579 0
M  V30 6809 O 661.483 2.73766 3.42029 0
M  V30 6810 C 662.984 1.15246 4.28058 0
M  V30 6811 H 660.204 0.318152 0.590779 0
M  V30 6812 H 662.748 1.48398 1.40707 0
M  V30 6813 H 660.903 0.79239 3.7921 0
M  V30 6814 H 661.317 2.9355 4.34659 0
M  V30 6815 H 662.791 1.52015 5.30656 0
M  V30 6816 H 663.268 0.0922007 4.39103 0
M  V30 6817 H 663.874 1.69136 3.90222 0
M  V30 6818 N 662.189 -1.289 0.906776 0
M  V30 6819 C 663.414 -1.99939 0.551303 0
M  V30 6820 C 663.839 -1.67366 -0.858496 0
M  V30 6821 O 663.197 -0.902176 -1.57259 0
M  V30 6822 C 663.245 -3.52523 0.758937 0
M  V30 6823 O 662.349 -4.11983 -0.185308 0
M  V30 6824 H 661.69 -0.628376 0.214568 0
M  V30 6825 H 664.22 -1.64225 1.2203 0
M  V30 6826 H 664.23 -4.02522 0.666329 0
M  V30 6827 H 662.905 -3.75566 1.78671 0
M  V30 6828 H 661.482 -3.72873 -0.0445577 0
M  V30 6829 N 663.667 -0.670007 -1.42649 0
M  V30 6830 C 664.914 -0.190286 -2.01604 0
M  V30 6831 C 665.242 1.20155 -1.52948 0
M  V30 6832 O 664.497 1.81964 -0.72026 0
M  V30 6833 C 664.796 -0.168298 -3.57004 0
M  V30 6834 C 664.462 -1.50415 -4.25072 0
M  V30 6835 C 663.124 -1.86992 -4.43382 0
M  V30 6836 C 665.476 -2.38414 -4.63474 0
M  V30 6837 C 662.804 -3.11203 -4.97363 0
M  V30 6838 C 665.156 -3.61933 -5.18833 0
M  V30 6839 C 663.82 -3.98685 -5.35356 0
M  V30 6840 H 663.09 -0.0696305 -0.737721 0
M  V30 6841 H 665.737 -0.864044 -1.70899 0
M  V30 6842 H 664.042 0.588958 -3.87348 0
M  V30 6843 H 665.739 0.22001 -4.00396 0
M  V30 6844 H 662.329 -1.20959 -4.11177 0
M  V30 6845 H 666.513 -2.11442 -4.49006 0
M  V30 6846 H 661.769 -3.39705 -5.08341 0
M  V30 6847 H 665.943 -4.30326 -5.47533 0
M  V30 6848 H 663.57 -4.95009 -5.76949 0
M  V30 6849 N 665.145 1.52092 -0.413018 0
M  V30 6850 C 666.385 2.03765 0.160975 0
M  V30 6851 C 666.749 1.29174 1.4205 0
M  V30 6852 O 667.95 1.71093 2.07318 0
M  V30 6853 C 666.221 3.55167 0.398871 0
M  V30 6854 S 667.78 4.28619 0.939755 0
M  V30 6855 H 664.598 0.709685 0.0432281 0
M  V30 6856 H 667.2 1.87102 -0.566831 0
M  V30 6857 H 665.904 4.07034 -0.524544 0
M  V30 6858 H 665.435 3.7608 1.15444 0
M  V30 6859 H 667.45 4.43773 2.21991 0
M  V30 6860 N 666.623 0.143563 1.56945 0
M  V30 6861 C 667.555 -0.828353 2.13708 0
M  V30 6862 C 668.568 -1.21313 1.08568 0
M  V30 6863 O 669.757 -1.1578 1.35857 0
M  V30 6864 C 666.857 -2.12248 2.64204 0
M  V30 6865 C 666.03 -1.90561 3.93707 0
M  V30 6866 C 665.089 -3.03931 4.29549 0
M  V30 6867 O 664.115 -2.75772 4.97934 0
M  V30 6868 N 665.317 -4.31016 3.88852 0
M  V30 6869 H 668.082 -0.343242 2.97728 0
M  V30 6870 H 665.643 -0.0401152 1.6185 0
M  V30 6871 H 667.635 -2.87132 2.85197 0
M  V30 6872 H 666.205 -2.52033 1.84928 0
M  V30 6873 H 665.425 -0.997327 3.81375 0
M  V30 6874 H 666.713 -1.73405 4.78339 0
M  V30 6875 H 666.111 -4.56762 3.33743 0
M  V30 6876 H 664.668 -5.02691 4.14903 0
M  V30 6877 N 668.101 -1.57061 -0.130224 0
M  V30 6878 C 669.048 -1.99517 -1.16024 0
M  V30 6879 C 670.018 -0.865452 -1.41771 0
M  V30 6880 O 671.203 -1.12882 -1.53826 0
M  V30 6881 C 668.343 -2.3951 -2.48453 0
M  V30 6882 C 667.456 -3.65848 -2.29737 0
M  V30 6883 C 666.591 -3.9487 -3.55318 0
M  V30 6884 C 665.63 -5.14426 -3.31711 0
M  V30 6885 N 664.767 -5.39375 -4.49466 0
M  V30 6886 H 669.607 -2.87305 -0.791194 0
M  V30 6887 H 667.144 -1.42129 -0.379195 0
M  V30 6888 H 669.102 -2.60731 -3.25692 0
M  V30 6889 H 667.732 -1.54779 -2.83272 0
M  V30 6890 H 666.784 -3.52307 -1.4347 0
M  V30 6891 H 668.096 -4.53241 -2.08263 0
M  V30 6892 H 667.25 -4.16679 -4.4098 0
M  V30 6893 H 665.989 -3.05931 -3.79813 0
M  V30 6894 H 664.994 -4.92473 -2.44439 0
M  V30 6895 H 666.219 -6.04933 -3.08598 0
M  V30 6896 H 664.165 -4.53391 -4.74102 0
M  V30 6897 H 664.082 -6.21069 -4.31055 0
M  V30 6898 H 665.35 -5.65694 -5.36293 0
M  V30 6899 N 669.579 0.400081 -1.52437 0
M  V30 6900 C 670.509 1.4947 -1.7939 0
M  V30 6901 C 671.49 1.57383 -0.645329 0
M  V30 6902 O 672.675 1.72511 -0.891826 0
M  V30 6903 C 669.805 2.87201 -1.95276 0
M  V30 6904 C 668.759 2.94134 -3.10917 0
M  V30 6905 C 668.085 4.34207 -3.1204 0
M  V30 6906 C 669.385 2.64791 -4.50203 0
M  V30 6907 H 671.079 1.27165 -2.71052 0
M  V30 6908 H 668.625 0.610312 -1.30427 0
M  V30 6909 H 670.578 3.63772 -2.12715 0
M  V30 6910 H 669.302 3.10819 -1.00294 0
M  V30 6911 H 667.961 2.20009 -2.93243 0
M  V30 6912 H 667.609 4.54848 -2.14761 0
M  V30 6913 H 667.309 4.39768 -3.89715 0
M  V30 6914 H 668.833 5.127 -3.31619 0
M  V30 6915 H 670.247 3.31083 -4.68035 0
M  V30 6916 H 668.644 2.81717 -5.29864 0
M  V30 6917 H 669.714 1.60184 -4.57678 0
M  V30 6918 N 671.057 1.43213 0.657864 0
M  V30 6919 C 672.303 1.44798 1.41991 0
M  V30 6920 C 672.636 0.070256 1.94073 0
M  V30 6921 O 671.911 -0.908177 1.71995 0
M  V30 6922 C 672.194 2.4865 2.60471 0
M  V30 6923 C 672.047 3.95679 2.13911 0
M  V30 6924 C 673.366 2.49292 3.62686 0
M  V30 6925 H 670.485 0.527244 0.514959 0
M  V30 6926 H 673.127 1.74733 0.74621 0
M  V30 6927 H 671.277 2.23254 3.17946 0
M  V30 6928 H 672.949 4.32116 1.61472 0
M  V30 6929 H 671.192 4.08733 1.45325 0
M  V30 6930 H 671.863 4.6395 2.99089 0
M  V30 6931 H 674.339 2.71917 3.14961 0
M  V30 6932 H 673.215 3.23907 4.43143 0
M  V30 6933 H 673.476 1.52502 4.14964 0
M  V30 6934 N 672.536 -0.895792 1.29666 0
M  V30 6935 C 673.761 -1.68528 1.20885 0
M  V30 6936 C 674.186 -1.8673 -0.226595 0
M  V30 6937 O 673.544 -1.39044 -1.16347 0
M  V30 6938 C 673.592 -3.04512 1.93144 0
M  V30 6939 O 672.696 -3.92963 1.25115 0
M  V30 6940 H 672.037 -0.515371 0.418675 0
M  V30 6941 H 674.567 -1.11878 1.71302 0
M  V30 6942 H 674.577 -3.54628 2.0175 0
M  V30 6943 H 673.252 -2.90582 2.97548 0
M  V30 6944 H 671.829 -3.51399 1.24794 0
M  V30 6945 N 674.014 -1.12206 -1.10668 0
M  V30 6946 C 674.944 -0.810086 -2.18997 0
M  V30 6947 C 675.925 0.225065 -1.68604 0
M  V30 6948 O 677.11 0.086783 -1.94006 0
M  V30 6949 C 674.24 -0.261262 -3.46316 0
M  V30 6950 C 673.194 -1.2292 -4.09969 0
M  V30 6951 C 672.52 -0.540713 -5.31959 0
M  V30 6952 C 673.82 -2.58295 -4.53962 0
M  V30 6953 H 675.514 -1.7159 -2.45352 0
M  V30 6954 H 673.06 -0.82646 -1.17922 0
M  V30 6955 H 675.013 -0.0307522 -4.21389 0
M  V30 6956 H 673.737 0.679879 -3.19445 0
M  V30 6957 H 672.396 -1.44548 -3.369 0
M  V30 6958 H 672.044 0.405492 -5.01363 0
M  V30 6959 H 671.744 -1.18637 -5.75499 0
M  V30 6960 H 673.268 -0.319184 -6.09765 0
M  V30 6961 H 674.682 -2.40709 -5.20319 0
M  V30 6962 H 673.079 -3.18916 -5.08343 0
M  V30 6963 H 674.149 -3.16918 -3.67002 0
M  V30 6964 N 675.492 1.28418 -0.913599 0
M  V30 6965 C 676.739 1.94981 -0.546674 0
M  V30 6966 C 677.067 1.7192 0.909606 0
M  V30 6967 O 676.322 1.03314 1.66207 0
M  V30 6968 C 676.621 3.48283 -0.802099 0
M  V30 6969 C 676.287 3.91444 -2.2379 0
M  V30 6970 C 674.949 4.02939 -2.63046 0
M  V30 6971 C 677.301 4.13542 -3.17227 0
M  V30 6972 C 674.629 4.3391 -3.94891 0
M  V30 6973 C 676.981 4.45992 -4.48636 0
M  V30 6974 C 675.645 4.55698 -4.87746 0
M  V30 6975 H 674.915 0.713487 -0.200042 0
M  V30 6976 H 677.562 1.52756 -1.15489 0
M  V30 6977 H 675.867 3.91643 -0.111076 0
M  V30 6978 H 677.564 3.97903 -0.497375 0
M  V30 6979 H 674.154 3.83024 -1.9233 0
M  V30 6980 H 678.338 4.04114 -2.88107 0
M  V30 6981 H 673.594 4.39631 -4.24894 0
M  V30 6982 H 677.768 4.62038 -5.21051 0
M  V30 6983 H 675.395 4.79451 -5.89942 0
M  V30 6984 N 676.97 0.677563 1.42291 0
M  V30 6985 C 677.918 -0.0106755 2.32598 0
M  V30 6986 C 678.912 -0.787643 1.49975 0
M  V30 6987 O 680.118 -0.695295 1.66029 0
M  V30 6988 H 676.493 -0.0222482 0.751671 0
M  V30 6989 H 678.464 0.768312 2.88339 0
M  V30 6990 C 677.213 -0.946142 3.3458 0
M  V30 6991 H 676.536 -0.357701 3.98197 0
M  V30 6992 H 677.976 -1.39634 4.00348 0
M  V30 6993 C 676.435 -2.05383 2.67057 0
M  V30 6994 O 676.965 -3.1406 2.50458 0
M  V30 6995 N 675.171 -1.82635 2.26038 0
M  V30 6996 H 674.718 -0.942534 2.39737 0
M  V30 6997 H 674.676 -2.56937 1.81192 0
M  V30 6998 N 678.448 -1.51871 0.421078 0
M  V30 6999 C 679.695 -2.01938 -0.15079 0
M  V30 7000 C 680.023 -1.30611 -1.44121 0
M  V30 7001 O 679.278 -0.404631 -1.91471 0
M  V30 7002 C 679.577 -3.54764 -0.433292 0
M  V30 7003 C 679.243 -4.44288 0.76936 0
M  V30 7004 C 677.905 -4.68477 1.09921 0
M  V30 7005 C 680.257 -4.96915 1.57242 0
M  V30 7006 C 677.585 -5.4254 2.2331 0
M  V30 7007 C 679.937 -5.7222 2.69716 0
M  V30 7008 C 678.601 -5.94678 3.03174 0
M  V30 7009 H 677.871 -0.738943 -0.0551781 0
M  V30 7010 H 680.518 -1.82977 0.564945 0
M  V30 7011 H 678.823 -3.71968 -1.23074 0
M  V30 7012 H 680.52 -3.91023 -0.888922 0
M  V30 7013 H 677.11 -4.25646 0.502305 0
M  V30 7014 H 681.294 -4.78125 1.3308 0
M  V30 7015 H 676.55 -5.58146 2.49565 0
M  V30 7016 H 680.724 -6.11992 3.32323 0
M  V30 7017 H 678.351 -6.51848 3.9115 0
M  V30 7018 N 679.926 -0.151884 -1.56866 0
M  V30 7019 C 680.876 0.797799 -2.13586 0
M  V30 7020 C 681.86 1.20613 -1.06496 0
M  V30 7021 O 683.052 1.17173 -1.32663 0
M  V30 7022 C 680.181 2.03493 -2.76488 0
M  V30 7023 C 679.267 1.64948 -3.90708 0
M  V30 7024 N 679.658 0.972513 -4.96363 0
M  V30 7025 C 677.956 1.94186 -4.01507 0
M  V30 7026 C 678.657 0.785661 -5.7637 0
M  V30 7027 N 677.633 1.32105 -5.27304 0
M  V30 7028 H 681.435 0.271403 -2.92644 0
M  V30 7029 H 678.949 0.049487 -1.62325 0
M  V30 7030 H 680.946 2.72532 -3.15487 0
M  V30 7031 H 679.606 2.56646 -1.98904 0
M  V30 7032 H 680.617 0.632724 -5.1402 0
M  V30 7033 H 677.294 2.49154 -3.35005 0
M  V30 7034 H 678.684 0.251749 -6.71428 0
M  V30 7035 N 681.404 1.57128 0.121893 0
M  V30 7036 C 682.352 2.01109 1.16868 0
M  V30 7037 C 683.346 0.907532 1.43039 0
M  V30 7038 O 684.552 1.09274 1.43036 0
M  V30 7039 H 680.927 0.640539 0.393971 0
M  V30 7040 H 682.898 2.88261 0.771224 0
M  V30 7041 C 681.647 2.42887 2.48799 0
M  V30 7042 H 680.97 3.2737 2.29498 0
M  V30 7043 H 682.41 2.77461 3.20611 0
M  V30 7044 C 680.869 1.29137 3.11168 0
M  V30 7045 O 681.399 0.605756 3.97106 0
M  V30 7046 N 679.605 1.04916 2.71 0
M  V30 7047 H 679.152 1.60848 2.01211 0
M  V30 7048 H 679.11 0.290016 3.1306 0
M  V30 7049 N 682.882 -0.391992 1.52647 0
M  V30 7050 C 684.112 -1.15692 1.71169 0
M  V30 7051 C 684.52 -1.84285 0.428444 0
M  V30 7052 O 683.863 -1.73393 -0.606669 0
M  V30 7053 C 683.925 -2.25033 2.80357 0
M  V30 7054 C 683.589 -1.76433 4.21569 0
M  V30 7055 C 684.586 -1.2427 5.0483 0
M  V30 7056 C 682.271 -1.82746 4.67877 0
M  V30 7057 C 684.265 -0.790657 6.32477 0
M  V30 7058 C 681.952 -1.37153 5.9551 0
M  V30 7059 C 682.95 -0.853997 6.7764 0
M  V30 7060 O 682.638 -0.404708 8.02881 0
M  V30 7061 H 682.37 -0.35297 0.576531 0
M  V30 7062 H 684.924 -0.464994 2.00067 0
M  V30 7063 H 683.154 -2.97641 2.46874 0
M  V30 7064 H 684.843 -2.86718 2.87311 0
M  V30 7065 H 685.609 -1.18752 4.70237 0
M  V30 7066 H 681.488 -2.21971 4.04042 0
M  V30 7067 H 685.032 -0.386024 6.96531 0
M  V30 7068 H 680.929 -1.42356 6.29607 0
M  V30 7069 H 681.697 -0.526459 8.16805 0
M  V30 7070 N 684.36 -1.4356 -0.65026 0
M  V30 7071 C 685.637 -1.35811 -1.40765 0
M  V30 7072 C 686.017 -0.00736379 -2.11099 0
M  V30 7073 O 685.365 1.00932 -2.05 0
M  V30 7074 C 685.575 -2.54332 -2.3899 0
M  V30 7075 C 686.923 -2.97551 -3.02901 0
M  V30 7076 O 687.947 -2.544 -2.49317 0
M  V30 7077 O 686.806 -3.72311 -4.00059 0
M  V30 7078 H 683.9 -0.536861 -0.629054 0
M  V30 7079 H 686.446 -1.55615 -0.676919 0
M  V30 7080 H 685.218 -3.44274 -1.85986 0
M  V30 7081 H 684.841 -2.36643 -3.19509 0
M  V30 7082 N 685.838 0.888903 -1.30139 0
M  V30 7083 C 686.786 2.0156 -1.16088 0
M  V30 7084 C 687.78 1.69239 -0.0737413 0
M  V30 7085 O 688.986 1.78468 -0.234313 0
M  V30 7086 H 685.361 0.660825 -0.358907 0
M  V30 7087 H 687.332 2.10547 -2.11453 0
M  V30 7088 C 686.081 3.36758 -0.865426 0
M  V30 7089 H 685.404 3.62137 -1.69402 0
M  V30 7090 H 686.844 4.16246 -0.807192 0
M  V30 7091 C 685.303 3.34124 0.431577 0
M  V30 7092 O 685.833 3.7445 1.45431 0
M  V30 7093 N 684.039 2.87229 0.441321 0
M  V30 7094 H 683.586 2.54609 -0.391433 0
M  V30 7095 H 683.544 2.8585 1.30909 0
M  V30 7096 N 687.317 1.12792 1.10072 0
M  V30 7097 C 688.247 0.821688 2.18565 0
M  V30 7098 C 689.228 -0.21612 1.68721 0
M  V30 7099 O 690.413 -0.0764932 1.94049 0
M  V30 7100 C 687.543 0.279624 3.46172 0
M  V30 7101 C 686.497 1.25092 4.09312 0
M  V30 7102 C 685.823 0.568916 5.31665 0
M  V30 7103 C 687.123 2.60699 4.52585 0
M  V30 7104 H 688.817 1.72888 2.44438 0
M  V30 7105 H 686.363 0.832702 1.17482 0
M  V30 7106 H 688.316 0.053099 4.21367 0
M  V30 7107 H 687.04 -0.662929 3.19801 0
M  V30 7108 H 685.699 1.46332 3.36129 0
M  V30 7109 H 685.347 -0.378898 5.01571 0
M  V30 7110 H 685.047 1.21687 5.74862 0
M  V30 7111 H 686.571 0.351517 6.09587 0
M  V30 7112 H 687.985 2.43465 5.19035 0
M  V30 7113 H 686.382 3.21608 5.06644 0
M  V30 7114 H 687.452 3.1886 3.65317 0
M  V30 7115 N 688.795 -1.27931 0.920396 0
M  V30 7116 C 690.211 -1.47085 0.619537 0
M  V30 7117 C 690.411 -1.83463 -0.833291 0
M  V30 7118 O 689.467 -1.94363 -1.61181 0
M  V30 7119 C 690.78 -2.56878 1.56314 0
M  V30 7120 C 692.328 -2.70743 1.57058 0
M  V30 7121 C 692.803 -3.83687 2.50097 0
M  V30 7122 N 694.294 -3.9105 2.48262 0
M  V30 7123 C 695.029 -4.77842 3.16945 0
M  V30 7124 N 694.525 -5.69176 3.94982 0
M  V30 7125 N 696.318 -4.71509 3.06 0
M  V30 7126 H 688.469 -1.02601 1.85975 0
M  V30 7127 H 690.732 -0.511682 0.798051 0
M  V30 7128 H 690.438 -2.36923 2.59923 0
M  V30 7129 H 690.312 -3.54117 1.29928 0
M  V30 7130 H 692.699 -2.90083 0.541832 0
M  V30 7131 H 692.78 -1.74015 1.8749 0
M  V30 7132 H 692.424 -3.65101 3.53077 0
M  V30 7133 H 692.354 -4.79827 2.16964 0
M  V30 7134 H 694.845 -3.25738 1.91581 0
M  V30 7135 H 695.158 -6.32245 4.44394 0
M  V30 7136 H 693.503 -5.68995 3.99086 0
M  V30 7137 H 696.694 -3.99151 2.44533 0
M  V30 7138 H 696.867 -5.38933 3.59799 0
M  V30 7139 N 690.273 -0.685099 -1.4193 0
M  V30 7140 C 691.223 0.00977295 -2.27998 0
M  V30 7141 C 692.207 0.763315 -1.41641 0
M  V30 7142 O 693.399 0.640532 -1.65004 0
M  V30 7143 C 690.528 0.952972 -3.29808 0
M  V30 7144 C 689.614 0.196231 -4.23646 0
M  V30 7145 N 690.005 -0.804401 -4.99363 0
M  V30 7146 C 688.303 0.433213 -4.43891 0
M  V30 7147 C 689.004 -1.25646 -5.67968 0
M  V30 7148 N 687.98 -0.5844 -5.4045 0
M  V30 7149 H 691.782 -0.757586 -2.83968 0
M  V30 7150 H 689.296 -0.515037 -1.54017 0
M  V30 7151 H 691.293 1.46585 -3.9028 0
M  V30 7152 H 689.953 1.72004 -2.75399 0
M  V30 7153 H 690.964 -1.18429 -5.04177 0
M  V30 7154 H 687.641 1.17899 -4.00507 0
M  V30 7155 H 689.031 -2.08622 -6.38691 0
M  V30 7156 N 691.751 1.51645 -0.429126 0
M  V30 7157 C 692.991 2.03924 0.139354 0
M  V30 7158 C 693.355 1.30673 1.40672 0
M  V30 7159 O 694.556 1.73282 2.05491 0
M  V30 7160 C 692.827 3.5557 0.361179 0
M  V30 7161 S 694.386 4.29591 0.894241 0
M  V30 7162 H 691.204 0.710103 0.0356986 0
M  V30 7163 H 693.806 1.86491 -0.586644 0
M  V30 7164 H 692.51 4.06455 -0.567686 0
M  V30 7165 H 692.041 3.77283 1.11449 0
M  V30 7166 H 694.056 4.46102 2.17272 0
M  V30 7167 N 693.229 0.160201 1.56784 0
M  V30 7168 C 694.192 -0.760405 2.16219 0
M  V30 7169 C 695.192 -1.16595 1.10735 0
M  V30 7170 O 696.382 -1.08472 1.36306 0
M  V30 7171 C 693.514 -2.03358 2.73603 0
M  V30 7172 H 694.707 -0.243173 2.98912 0
M  V30 7173 H 692.26 -0.0893139 1.56045 0
M  V30 7174 H 692.995 -2.59416 1.94612 0
M  V30 7175 H 692.78 -1.75186 3.50788 0
M  V30 7176 H 694.27 -2.69081 3.19351 0
M  V30 7177 N 694.707 -1.5719 -0.113559 0
M  V30 7178 C 696.123 -1.52607 -0.467253 0
M  V30 7179 C 696.323 -0.874058 -1.81556 0
M  V30 7180 O 695.379 -0.458703 -2.48299 0
M  V30 7181 C 696.692 -2.97363 -0.446736 0
M  V30 7182 C 698.24 -3.08482 -0.529903 0
M  V30 7183 C 698.715 -4.54809 -0.539721 0
M  V30 7184 N 700.206 -4.59284 -0.601005 0
M  V30 7185 C 700.941 -5.69927 -0.630138 0
M  V30 7186 N 700.437 -6.90051 -0.616589 0
M  V30 7187 N 702.23 -5.5805 -0.673558 0
M  V30 7188 H 694.381 -1.97958 0.769819 0
M  V30 7189 H 696.644 -0.90428 0.284572 0
M  V30 7190 H 696.35 -3.48458 0.47643 0
M  V30 7191 H 696.224 -3.55086 -1.27254 0
M  V30 7192 H 698.611 -2.57386 -1.44349 0
M  V30 7193 H 698.692 -2.53744 0.323695 0
M  V30 7194 H 698.336 -5.06552 0.369843 0
M  V30 7195 H 698.266 -5.07364 -1.41028 0
M  V30 7196 H 700.757 -3.72822 -0.617419 0
M  V30 7197 H 701.07 -7.70132 -0.641592 0
M  V30 7198 H 699.415 -6.92543 -0.583927 0
M  V30 7199 H 702.606 -4.63112 -0.681544 0
M  V30 7200 H 702.779 -6.44286 -0.692794 0
M  V30 7201 N 696.185 0.383891 -1.52853 0
M  V30 7202 C 697.132 1.46924 -1.77995 0
M  V30 7203 C 698.102 1.53958 -0.623396 0
M  V30 7204 O 699.287 1.70134 -0.863657 0
M  V30 7205 C 696.427 2.84093 -1.95921 0
M  V30 7206 C 695.54 2.86171 -3.23621 0
M  V30 7207 C 694.675 4.14799 -3.31836 0
M  V30 7208 C 693.714 4.10948 -4.53639 0
M  V30 7209 N 692.851 5.31192 -4.59107 0
M  V30 7210 H 697.691 1.24786 -2.70615 0
M  V30 7211 H 695.228 0.605265 -1.34071 0
M  V30 7212 H 697.186 3.63755 -2.04299 0
M  V30 7213 H 695.816 3.04671 -1.06656 0
M  V30 7214 H 694.868 1.9885 -3.24288 0
M  V30 7215 H 696.18 2.79194 -4.13343 0
M  V30 7216 H 695.334 5.02867 -3.39425 0
M  V30 7217 H 694.073 4.24505 -2.40097 0
M  V30 7218 H 693.078 3.21268 -4.46169 0
M  V30 7219 H 694.303 4.0286 -5.467 0
M  V30 7220 H 692.249 5.41518 -3.70262 0
M  V30 7221 H 692.166 5.26311 -5.42708 0
M  V30 7222 H 693.434 6.21143 -4.70958 0
M  V30 7223 N 697.663 1.43903 0.642637 0
M  V30 7224 C 698.593 1.52697 1.76652 0
M  V30 7225 C 699.574 0.380816 1.65782 0
M  V30 7226 O 700.759 0.599432 1.84717 0
M  V30 7227 C 697.889 1.45975 3.15133 0
M  V30 7228 C 696.843 2.58949 3.40778 0
M  V30 7229 C 696.169 2.37279 4.79169 0
M  V30 7230 C 697.469 4.01153 3.34475 0
M  V30 7231 H 699.163 2.46766 1.69549 0
M  V30 7232 H 696.709 1.18767 0.814279 0
M  V30 7233 H 698.662 1.5073 3.93521 0
M  V30 7234 H 697.386 0.484162 3.22991 0
M  V30 7235 H 696.045 2.53564 2.64765 0
M  V30 7236 H 695.693 1.37939 4.83717 0
M  V30 7237 H 695.393 3.13016 4.97287 0
M  V30 7238 H 696.917 2.43834 5.59801 0
M  V30 7239 H 698.331 4.07968 4.02784 0
M  V30 7240 H 696.728 4.77001 3.64129 0
M  V30 7241 H 697.798 4.25539 2.32475 0
M  V30 7242 N 699.141 -0.881989 1.30609 0
M  V30 7243 C 700.418 -1.61563 1.10258 0
M  V30 7244 C 700.798 -2.08228 -0.347053 0
M  V30 7245 O 700.146 -1.85151 -1.33908 0
M  V30 7246 C 700.356 -2.78287 2.10612 0
M  V30 7247 C 701.704 -3.48545 2.4249 0
M  V30 7248 O 702.728 -2.88479 2.08945 0
M  V30 7249 O 701.587 -4.56873 2.99883 0
M  V30 7250 H 698.681 -0.710238 0.423663 0
M  V30 7251 H 701.227 -0.928503 1.42045 0
M  V30 7252 H 699.999 -2.41131 3.08174 0
M  V30 7253 H 699.622 -3.54695 1.79659 0
M  V30 7254 N 700.619 -1.13374 -1.09472 0
M  V30 7255 C 702.03 -0.90801 -1.63132 0
M  V30 7256 C 702.381 0.555576 -1.8817 0
M  V30 7257 O 701.506 1.42218 -1.63104 0
M  V30 7258 C 702.101 -1.64182 -2.96361 0
M  V30 7259 C 700.66 -1.46197 -3.46848 0
M  V30 7260 C 699.807 -1.67134 -2.21273 0
M  V30 7261 H 702.758 -1.2871 -0.928411 0
M  V30 7262 H 702.779 -1.09863 -3.64294 0
M  V30 7263 H 702.291 -2.707 -2.78106 0
M  V30 7264 H 700.392 -0.419788 -3.70228 0
M  V30 7265 H 700.505 -2.22472 -4.24315 0
M  V30 7266 H 698.869 -1.09616 -2.29905 0
M  V30 7267 H 699.652 -2.74971 -2.05538 0
M  V30 7268 N 702.098 1.27442 -0.927168 0
M  V30 7269 C 703.514 1.46754 -0.627329 0
M  V30 7270 C 703.714 1.83902 0.823549 0
M  V30 7271 O 702.77 1.95215 1.60148 0
M  V30 7272 C 704.083 2.56045 -1.57674 0
M  V30 7273 C 705.631 2.69906 -1.58491 0
M  V30 7274 C 706.106 3.82355 -2.52128 0
M  V30 7275 N 707.597 3.89728 -2.50332 0
M  V30 7276 C 708.332 4.76155 -3.19475 0
M  V30 7277 N 707.828 5.67073 -3.97995 0
M  V30 7278 N 709.621 4.6988 -3.08496 0
M  V30 7279 H 701.772 1.01613 -1.86517 0
M  V30 7280 H 704.035 0.507443 -0.800753 0
M  V30 7281 H 703.741 2.35542 -2.61176 0
M  V30 7282 H 703.615 3.53423 -1.31804 0
M  V30 7283 H 706.002 2.89792 -0.557208 0
M  V30 7284 H 706.083 1.73018 -1.8841 0
M  V30 7285 H 705.727 3.63224 -3.55008 0
M  V30 7286 H 705.657 4.7867 -2.19505 0
M  V30 7287 H 708.148 3.24717 -1.93306 0
M  V30 7288 H 708.461 6.2988 -4.4774 0
M  V30 7289 H 706.806 5.6687 -4.02098 0
M  V30 7290 H 709.997 3.97848 -2.46646 0
M  V30 7291 H 710.17 5.37017 -3.62652 0
M  V30 7292 N 703.576 0.692616 1.41565 0
M  V30 7293 C 704.992 0.363878 1.55397 0
M  V30 7294 C 705.192 -1.1294 1.66874 0
M  V30 7295 O 704.248 -1.91517 1.64552 0
M  V30 7296 C 705.561 1.10982 2.7947 0
M  V30 7297 C 707.109 1.09387 2.93263 0
M  V30 7298 C 707.584 1.8215 4.20221 0
M  V30 7299 N 709.075 1.79105 4.27172 0
M  V30 7300 C 709.81 2.32247 5.2426 0
M  V30 7301 N 709.306 2.93847 6.27396 0
M  V30 7302 N 711.099 2.22519 5.1618 0
M  V30 7303 H 703.25 1.66116 1.3236 0
M  V30 7304 H 705.513 0.700848 0.63837 0
M  V30 7305 H 705.219 2.1647 2.77188 0
M  V30 7306 H 705.093 0.686492 3.709 0
M  V30 7307 H 707.48 0.0472638 2.95062 0
M  V30 7308 H 707.561 1.55623 2.03015 0
M  V30 7309 H 707.205 2.86789 4.19183 0
M  V30 7310 H 707.135 1.33351 5.09436 0
M  V30 7311 H 709.626 1.34191 3.53272 0
M  V30 7312 H 709.939 3.31972 6.97864 0
M  V30 7313 H 708.284 2.97924 6.27906 0
M  V30 7314 H 711.475 1.7407 4.34531 0
M  V30 7315 H 711.648 2.64239 5.91677 0
M  V30 7316 N 705.054 -1.51416 0.437162 0
M  V30 7317 C 705.964 -2.31493 -0.380537 0
M  V30 7318 C 706.98 -1.40399 -1.02782 0
M  V30 7319 O 708.156 -1.73471 -1.02323 0
M  V30 7320 C 705.221 -3.1413 -1.46709 0
M  V30 7321 C 704.282 -4.21003 -0.839953 0
M  V30 7322 C 703.515 -4.9969 -1.87473 0
M  V30 7323 O 703.738 -4.79008 -3.09689 0
M  V30 7324 O 702.672 -5.8379 -1.46536 0
M  V30 7325 H 706.498 -3.02469 0.273183 0
M  V30 7326 H 704.083 -1.48059 0.199706 0
M  V30 7327 H 705.965 -3.65505 -2.09724 0
M  V30 7328 H 704.64 -2.45919 -2.10489 0
M  V30 7329 H 703.547 -3.73706 -0.171752 0
M  V30 7330 H 704.88 -4.91587 -0.245638 0
M  V30 7331 N 706.532 -0.168513 -1.56696 0
M  V30 7332 C 707.78 0.476216 -1.96409 0
M  V30 7333 C 708.101 1.63968 -1.05544 0
M  V30 7334 O 707.371 1.95525 -0.121235 0
M  V30 7335 H 705.951 0.178921 -0.725256 0
M  V30 7336 H 708.613 -0.249042 -1.93302 0
M  V30 7337 H 707.709 0.838094 -3.00637 0
M  V30 7338 N 708.01 1.57248 0.105221 0
M  V30 7339 C 708.973 2.00388 1.11252 0
M  V30 7340 C 709.973 0.89594 1.33527 0
M  V30 7341 O 711.163 1.16166 1.29811 0
M  V30 7342 C 708.295 2.35589 2.46395 0
M  V30 7343 H 709.488 2.90591 0.741424 0
M  V30 7344 H 707.041 1.52332 0.349956 0
M  V30 7345 H 707.776 1.4831 2.884 0
M  V30 7346 H 707.561 3.16408 2.31578 0
M  V30 7347 H 709.051 2.69658 3.18864 0
M  V30 7348 N 709.488 -0.375779 1.53054 0
M  V30 7349 C 710.398 -1.48381 1.81715 0
M  V30 7350 C 711.414 -1.59087 0.704795 0
M  V30 7351 O 712.59 -1.75174 0.993785 0
M  V30 7352 C 709.655 -2.83767 1.99192 0
M  V30 7353 C 708.716 -2.82673 3.23102 0
M  V30 7354 C 707.949 -4.11601 3.39736 0
M  V30 7355 O 708.172 -5.07243 2.60885 0
M  V30 7356 O 707.106 -4.18034 4.33049 0
M  V30 7357 H 710.932 -1.27089 2.7583 0
M  V30 7358 H 708.517 -0.564902 1.38308 0
M  V30 7359 H 710.399 -3.64004 2.12318 0
M  V30 7360 H 709.074 -3.05057 1.08267 0
M  V30 7361 H 707.981 -2.0117 3.15407 0
M  V30 7362 H 709.314 -2.66335 4.13916 0
M  V30 7363 N 710.966 -1.44241 -0.634997 0
M  V30 7364 C 712.215 -1.46102 -1.39058 0
M  V30 7365 C 712.528 -0.0959909 -1.95364 0
M  V30 7366 O 713.734 0.00788751 -2.71499 0
M  V30 7367 C 712.19 -2.57195 -2.51751 0
M  V30 7368 C 711.798 -3.99888 -2.01974 0
M  V30 7369 C 713.542 -2.68272 -3.28984 0
M  V30 7370 C 711.449 -5.02412 -3.11987 0
M  V30 7371 H 710.379 -0.543556 -0.522554 0
M  V30 7372 H 713.03 -1.70294 -0.683538 0
M  V30 7373 H 711.412 -2.26237 -3.25012 0
M  V30 7374 H 712.586 -4.40396 -1.35604 0
M  V30 7375 H 710.901 -3.93019 -1.37568 0
M  V30 7376 H 713.498 -3.42042 -4.10988 0
M  V30 7377 H 713.841 -1.73957 -3.78212 0
M  V30 7378 H 714.374 -2.98622 -2.62812 0
M  V30 7379 H 711.113 -5.98342 -2.67707 0
M  V30 7380 H 710.633 -4.66501 -3.77011 0
M  V30 7381 H 712.312 -5.25939 -3.76825 0
M  V30 7382 N 712.444 0.87505 -1.31075 0
M  V30 7383 C 713.86 1.15997 -1.09622 0
M  V30 7384 C 714.06 2.01036 0.136611 0
M  V30 7385 O 713.116 2.38559 0.827397 0
M  V30 7386 C 714.429 1.85702 -2.36506 0
M  V30 7387 C 715.977 1.98425 -2.42067 0
M  V30 7388 C 716.452 2.71544 -3.68819 0
M  V30 7389 N 717.943 2.79084 -3.69684 0
M  V30 7390 C 718.678 3.36259 -4.64454 0
M  V30 7391 N 718.174 3.94406 -5.69575 0
M  V30 7392 N 719.967 3.34169 -4.51982 0
M  V30 7393 H 712.118 0.308258 -2.10151 0
M  V30 7394 H 714.381 0.199145 -0.926847 0
M  V30 7395 H 714.087 1.30663 -3.26527 0
M  V30 7396 H 713.961 2.86017 -2.45915 0
M  V30 7397 H 716.348 2.5263 -1.52518 0
M  V30 7398 H 716.429 0.971682 -2.36626 0
M  V30 7399 H 716.073 2.18008 -4.58732 0
M  V30 7400 H 716.003 3.73198 -3.71525 0
M  V30 7401 H 718.494 2.3781 -2.93691 0
M  V30 7402 H 718.807 4.36129 -6.37974 0
M  V30 7403 H 717.152 3.92797 -5.73355 0
M  V30 7404 H 720.343 2.87977 -3.69035 0
M  V30 7405 H 720.516 3.78431 -5.26017 0
M  V30 7406 N 713.922 1.13953 1.08869 0
M  V30 7407 C 714.87 0.817664 2.17754 0
M  V30 7408 C 715.864 -0.202444 1.68186 0
M  V30 7409 O 717.07 -0.0590159 1.79903 0
M  V30 7410 H 713.445 0.246671 0.710392 0
M  V30 7411 H 715.416 1.74401 2.4213 0
M  V30 7412 C 714.165 0.3063 3.46348 0
M  V30 7413 H 713.488 1.08259 3.84864 0
M  V30 7414 H 714.928 0.119584 4.23831 0
M  V30 7415 C 713.387 -0.969158 3.22659 0
M  V30 7416 O 713.917 -2.04386 3.45817 0
M  V30 7417 N 712.123 -0.902516 2.7623 0
M  V30 7418 H 711.67 -0.027801 2.57585 0
M  V30 7419 H 711.628 -1.75649 2.60758 0
M  V30 7420 N 715.4 -1.26948 0.933913 0
M  V30 7421 C 716.347 -2.26635 0.436484 0
M  V30 7422 C 717.317 -1.58397 -0.499953 0
M  V30 7423 O 718.502 -1.86171 -0.417753 0
M  V30 7424 C 715.642 -3.43803 -0.298951 0
M  V30 7425 C 714.755 -4.26736 0.672316 0
M  V30 7426 C 713.89 -5.31134 -0.0835872 0
M  V30 7427 C 712.929 -6.05742 0.879979 0
M  V30 7428 N 712.066 -7.01926 0.156301 0
M  V30 7429 H 716.906 -2.68558 1.29154 0
M  V30 7430 H 714.443 -1.32052 0.648118 0
M  V30 7431 H 716.401 -4.10554 -0.741723 0
M  V30 7432 H 715.031 -3.02814 -1.1182 0
M  V30 7433 H 714.083 -3.59842 1.23361 0
M  V30 7434 H 715.395 -4.78502 1.40846 0
M  V30 7435 H 714.549 -6.03863 -0.585984 0
M  V30 7436 H 713.288 -4.80188 -0.852661 0
M  V30 7437 H 712.293 -5.31846 1.39357 0
M  V30 7438 H 713.518 -6.58777 1.64894 0
M  V30 7439 H 711.464 -6.53301 -0.594413 0
M  V30 7440 H 711.381 -7.51409 0.831906 0
M  V30 7441 H 712.649 -7.78821 -0.325239 0
M  V30 7442 N 716.879 -0.700114 -1.41195 0
M  V30 7443 C 718.107 -0.242179 -2.05478 0
M  V30 7444 C 718.522 1.11029 -1.52702 0
M  V30 7445 O 717.879 1.69473 -0.677127 0
M  V30 7446 C 717.93 -0.196271 -3.60967 0
M  V30 7447 O 717.651 -1.49532 -4.11791 0
M  V30 7448 C 719.152 0.282102 -4.42401 0
M  V30 7449 H 716.372 -0.111749 -0.661629 0
M  V30 7450 H 718.916 -0.953975 -1.80885 0
M  V30 7451 H 717.071 0.46638 -3.84582 0
M  V30 7452 H 717.485 -1.38545 -5.05871 0
M  V30 7453 H 718.959 0.263093 -5.51373 0
M  V30 7454 H 719.436 1.32174 -4.1884 0
M  V30 7455 H 720.042 -0.349712 -4.2386 0
M  V30 7456 N 718.357 1.51182 -0.445186 0
M  V30 7457 C 719.603 2.02452 0.11882 0
M  V30 7458 C 719.936 1.32824 1.41673 0
M  V30 7459 O 719.211 0.445637 1.89326 0
M  V30 7460 C 719.494 3.5859 0.329475 0
M  V30 7461 C 719.347 4.38823 -0.987638 0
M  V30 7462 C 720.666 4.26241 1.09575 0
M  V30 7463 H 717.785 0.735819 0.0417092 0
M  V30 7464 H 720.427 1.80747 -0.585718 0
M  V30 7465 H 718.577 3.77214 0.9296 0
M  V30 7466 H 720.249 4.3183 -1.62235 0
M  V30 7467 H 718.492 4.03594 -1.59041 0
M  V30 7468 H 719.163 5.46257 -0.794192 0
M  V30 7469 H 721.639 4.11934 0.587328 0
M  V30 7470 H 720.515 5.35354 1.21191 0
M  V30 7471 H 720.776 3.87635 2.12584 0
M  V30 7472 N 719.835 0.176821 1.56605 0
M  V30 7473 C 721.081 -0.467406 1.9734 0
M  V30 7474 C 721.414 -1.62523 1.06301 0
M  V30 7475 O 720.689 -1.94182 0.11125 0
M  V30 7476 C 720.972 -0.945106 3.47476 0
M  V30 7477 C 720.825 0.213273 4.49294 0
M  V30 7478 C 722.144 -1.8169 4.00845 0
M  V30 7479 H 719.263 -0.168426 0.717497 0
M  V30 7480 H 721.905 0.264065 1.88156 0
M  V30 7481 H 720.055 -1.56841 3.55434 0
M  V30 7482 H 721.727 0.850508 4.53392 0
M  V30 7483 H 719.97 0.867918 4.25029 0
M  V30 7484 H 720.641 -0.163187 5.51759 0
M  V30 7485 H 723.117 -1.29139 3.95553 0
M  V30 7486 H 721.993 -2.12015 5.06301 0
M  V30 7487 H 722.254 -2.76463 3.44994 0
M  V30 7488 N 721.313 -1.57302 -0.09688 0
M  V30 7489 C 722.261 -2.02942 -1.13654 0
M  V30 7490 C 723.255 -0.930173 -1.41577 0
M  V30 7491 O 724.461 -1.11535 -1.41279 0
M  V30 7492 H 720.836 -0.646726 -0.383731 0
M  V30 7493 H 722.807 -2.89452 -0.725267 0
M  V30 7494 C 721.556 -2.46815 -2.44903 0
M  V30 7495 H 720.879 -3.30979 -2.24261 0
M  V30 7496 H 722.319 -2.82527 -3.16156 0
M  V30 7497 C 720.778 -1.34071 -3.09074 0
M  V30 7498 O 721.308 -0.668856 -3.96092 0
M  V30 7499 N 719.514 -1.09214 -2.69296 0
M  V30 7500 H 719.061 -1.64029 -1.98626 0
M  V30 7501 H 719.019 -0.339785 -3.12559 0
M  V30 7502 N 722.791 0.367657 -1.53252 0
M  V30 7503 C 723.721 1.45632 -1.8252 0
M  V30 7504 C 724.702 1.55979 -0.678568 0
M  V30 7505 O 725.887 1.70581 -0.928217 0
M  V30 7506 C 723.017 2.82994 -2.01325 0
M  V30 7507 C 721.971 2.87473 -3.17086 0
M  V30 7508 C 721.297 4.2749 -3.21179 0
M  V30 7509 C 722.597 2.55182 -4.55719 0
M  V30 7510 H 724.291 1.21387 -2.73689 0
M  V30 7511 H 721.837 0.58251 -1.31692 0
M  V30 7512 H 723.79 3.59179 -2.20383 0
M  V30 7513 H 722.514 3.08622 -1.06864 0
M  V30 7514 H 721.173 2.13739 -2.97844 0
M  V30 7515 H 720.821 4.5019 -2.24361 0
M  V30 7516 H 720.521 4.31403 -3.98955 0
M  V30 7517 H 722.045 5.0555 -3.42419 0
M  V30 7518 H 723.459 3.21081 -4.74953 0
M  V30 7519 H 721.856 2.70414 -5.3572 0
M  V30 7520 H 722.926 1.5044 -4.60973 0
M  V30 7521 N 724.269 1.44576 0.627338 0
M  V30 7522 C 725.199 1.54562 1.75022 0
M  V30 7523 C 726.18 0.398378 1.65369 0
M  V30 7524 O 727.365 0.61899 1.84071 0
M  V30 7525 C 724.495 1.49309 3.13567 0
M  V30 7526 C 723.449 2.62549 3.38012 0
M  V30 7527 C 722.775 2.42348 4.76625 0
M  V30 7528 C 724.075 4.04678 3.30202 0
M  V30 7529 H 725.769 2.4855 1.66922 0
M  V30 7530 H 723.315 1.19624 0.801636 0
M  V30 7531 H 725.268 1.54895 3.919 0
M  V30 7532 H 723.992 0.518392 3.2246 0
M  V30 7533 H 722.651 2.56358 2.62061 0
M  V30 7534 H 722.299 1.43062 4.82226 0
M  V30 7535 H 721.999 3.18273 4.93939 0
M  V30 7536 H 723.523 2.49758 5.57183 0
M  V30 7537 H 724.937 4.12217 3.98435 0
M  V30 7538 H 723.334 4.80836 3.5905 0
M  V30 7539 H 724.404 4.2798 2.27949 0
M  V30 7540 N 725.747 -0.868086 1.31537 0
M  V30 7541 C 726.994 -1.62127 1.2133 0
M  V30 7542 C 727.322 -1.93158 -0.2281 0
M  V30 7543 O 726.577 -1.5632 -1.1774 0
M  V30 7544 C 726.876 -2.95889 2.0046 0
M  V30 7545 C 726.542 -2.84343 3.49943 0
M  V30 7546 C 725.204 -2.80901 3.90702 0
M  V30 7547 C 727.556 -2.71243 4.45058 0
M  V30 7548 C 724.884 -2.6222 5.24841 0
M  V30 7549 C 727.236 -2.54098 5.79325 0
M  V30 7550 C 725.9 -2.4904 6.19302 0
M  V30 7551 H 725.17 -0.593265 0.443979 0
M  V30 7552 H 727.817 -1.00803 1.62822 0
M  V30 7553 H 726.122 -3.61259 1.51655 0
M  V30 7554 H 727.819 -3.53161 1.89942 0
M  V30 7555 H 724.409 -2.8784 3.17563 0
M  V30 7556 H 728.593 -2.72956 4.14498 0
M  V30 7557 H 723.849 -2.56731 5.54887 0
M  V30 7558 H 728.023 -2.42938 6.52652 0
M  V30 7559 H 725.65 -2.34324 7.23185 0
M  V30 7560 N 727.225 -1.14528 -1.08264 0
M  V30 7561 C 728.188 -0.83632 -2.13397 0
M  V30 7562 C 729.188 0.159715 -1.60005 0
M  V30 7563 O 730.378 -0.0688098 -1.74064 0
M  V30 7564 C 727.51 -0.246973 -3.40004 0
M  V30 7565 H 728.703 -1.76808 -2.42237 0
M  V30 7566 H 726.256 -0.951509 -1.24 0
M  V30 7567 H 726.991 0.693436 -3.168 0
M  V30 7568 H 726.776 -0.964412 -3.80055 0
M  V30 7569 H 728.266 -0.0480679 -4.17572 0
M  V30 7570 N 728.703 1.26451 -0.940633 0
M  V30 7571 C 729.666 2.24651 -0.454378 0
M  V30 7572 C 730.666 1.54826 0.434222 0
M  V30 7573 O 731.856 1.72628 0.233477 0
M  V30 7574 C 728.988 3.39148 0.345192 0
M  V30 7575 H 730.181 2.69182 -1.32217 0
M  V30 7576 H 727.734 1.38596 -0.722547 0
M  V30 7577 H 728.469 3.00018 1.23125 0
M  V30 7578 H 728.254 3.9101 -0.292107 0
M  V30 7579 H 729.744 4.12103 0.675341 0
M  V30 7580 N 730.181 0.707592 1.40822 0
M  V30 7581 C 731.411 0.252706 2.05049 0
M  V30 7582 C 731.819 -1.10758 1.53393 0
M  V30 7583 O 731.162 -1.70567 0.682097 0
M  V30 7584 C 731.224 0.146001 3.59203 0
M  V30 7585 C 730.888 1.44027 4.33711 0
M  V30 7586 C 731.885 2.38058 4.62195 0
M  V30 7587 C 729.57 1.69698 4.72766 0
M  V30 7588 C 731.564 3.56013 5.28709 0
M  V30 7589 C 729.251 2.87936 5.39014 0
M  V30 7590 C 730.249 3.80915 5.66915 0
M  V30 7591 O 729.937 4.9708 6.31796 0
M  V30 7592 H 729.669 0.112784 0.666525 0
M  V30 7593 H 732.223 0.96417 1.81364 0
M  V30 7594 H 730.453 -0.621338 3.81676 0
M  V30 7595 H 732.142 -0.273275 4.04979 0
M  V30 7596 H 732.908 2.19487 4.32493 0
M  V30 7597 H 728.787 0.981835 4.50423 0
M  V30 7598 H 732.331 4.28604 5.50404 0
M  V30 7599 H 728.228 3.06419 5.68135 0
M  V30 7600 H 728.996 4.97053 6.50293 0
M  V30 7601 N 731.66 -1.50943 0.453197 0
M  V30 7602 C 732.885 -2.07116 -0.108463 0
M  V30 7603 C 733.31 -1.31681 -1.3432 0
M  V30 7604 O 732.668 -0.359256 -1.77705 0
M  V30 7605 C 732.716 -3.58447 -0.393424 0
M  V30 7606 O 731.82 -3.85038 -1.47714 0
M  V30 7607 H 731.161 -0.66398 0.0050993 0
M  V30 7608 H 733.691 -1.94362 0.639095 0
M  V30 7609 H 733.701 -4.02961 -0.639222 0
M  V30 7610 H 732.376 -4.12774 0.508946 0
M  V30 7611 H 730.953 -3.52376 -1.22006 0
M  V30 7612 N 733.138 -0.185124 -1.56509 0
M  V30 7613 C 734.386 0.455357 -1.96903 0
M  V30 7614 C 734.707 1.62839 -1.07277 0
M  V30 7615 O 733.977 1.95385 -0.141966 0
M  V30 7616 H 732.557 0.171218 -0.727113 0
M  V30 7617 H 735.219 -0.26953 -1.93027 0
M  V30 7618 H 734.315 0.80616 -3.01509 0
M  V30 7619 N 734.616 1.57351 0.0885366 0
M  V30 7620 C 735.893 1.77449 0.822873 0
M  V30 7621 C 736.273 0.768463 1.96616 0
M  V30 7622 O 735.621 -0.201757 2.27608 0
M  V30 7623 C 735.831 3.23425 1.31137 0
M  V30 7624 C 737.179 3.86791 1.75152 0
M  V30 7625 O 738.203 3.27215 1.40745 0
M  V30 7626 O 737.062 4.91568 2.38794 0
M  V30 7627 H 734.156 0.727653 0.393002 0
M  V30 7628 H 736.702 1.69556 0.0699095 0
M  V30 7629 H 735.474 3.88188 0.49254 0
M  V30 7630 H 735.097 3.35977 2.12615 0
M  V30 7631 N 736.094 -0.359525 1.53444 0
M  V30 7632 C 737.34 -1.10315 1.70172 0
M  V30 7633 C 737.673 -1.88788 0.455287 0
M  V30 7634 O 736.948 -1.86635 -0.547514 0
M  V30 7635 C 737.231 -2.05744 2.95536 0
M  V30 7636 C 737.084 -1.3084 4.3035 0
M  V30 7637 C 738.403 -3.05784 3.16518 0
M  V30 7638 H 735.522 -0.399662 0.619225 0
M  V30 7639 H 738.164 -0.383338 1.86093 0
M  V30 7640 H 736.314 -2.67125 2.82093 0
M  V30 7641 H 737.986 -0.721959 4.55615 0
M  V30 7642 H 736.229 -0.610283 4.29486 0
M  V30 7643 H 736.9 -2.00718 5.14214 0
M  V30 7644 H 739.376 -2.5451 3.29187 0
M  V30 7645 H 738.252 -3.69772 4.05659 0
M  V30 7646 H 738.513 -3.76289 2.32076 0
M  V30 7647 N 737.572 -1.44907 -0.619662 0
M  V30 7648 C 738.797 -1.52021 -1.41083 0
M  V30 7649 C 739.222 -0.14976 -1.87503 0
M  V30 7650 O 738.58 0.863303 -1.59426 0
M  V30 7651 C 738.628 -2.49911 -2.59955 0
M  V30 7652 O 737.732 -2.00857 -3.60181 0
M  V30 7653 H 737.073 -0.512912 -0.421684 0
M  V30 7654 H 739.603 -1.90149 -0.755282 0
M  V30 7655 H 739.613 -2.68323 -3.07354 0
M  V30 7656 H 738.288 -3.4945 -2.25516 0
M  V30 7657 H 736.865 -1.92265 -3.19513 0
M  V30 7658 N 739.05 0.861098 -1.31996 0
M  V30 7659 C 740.013 1.95068 -1.20338 0
M  V30 7660 C 741.013 1.60289 -0.128114 0
M  V30 7661 O 742.203 1.70048 -0.378044 0
M  V30 7662 C 739.335 3.30153 -0.849205 0
M  V30 7663 H 740.528 2.06833 -2.17164 0
M  V30 7664 H 738.081 1.05049 -1.15734 0
M  V30 7665 H 738.816 3.24087 0.117508 0
M  V30 7666 H 738.601 3.56771 -1.62655 0
M  V30 7667 H 740.091 4.10025 -0.791782 0
M  V30 7668 N 740.528 1.15101 1.07655 0
M  V30 7669 C 741.458 0.867864 2.16773 0
M  V30 7670 C 742.439 -0.180283 1.69142 0
M  V30 7671 O 743.624 -0.0353152 1.94168 0
M  V30 7672 C 740.754 0.35299 3.45501 0
M  V30 7673 C 739.708 1.33746 4.06566 0
M  V30 7674 C 739.034 0.681562 5.30338 0
M  V30 7675 C 740.334 2.7024 4.46954 0
M  V30 7676 H 742.028 1.78034 2.40716 0
M  V30 7677 H 739.574 0.857435 1.15689 0
M  V30 7678 H 741.527 0.142465 4.21159 0
M  V30 7679 H 740.251 -0.594945 3.21135 0
M  V30 7680 H 738.91 1.53429 3.32949 0
M  V30 7681 H 738.558 -0.272422 5.02262 0
M  V30 7682 H 738.258 1.33853 5.72151 0
M  V30 7683 H 739.782 0.48074 6.08705 0
M  V30 7684 H 741.196 2.5442 5.13754 0
M  V30 7685 H 739.593 3.32282 4.99709 0
M  V30 7686 H 740.663 3.26537 3.58471 0
M  V30 7687 N 742.006 -1.2595 0.947325 0
M  V30 7688 C 743.422 -1.45737 0.650597 0
M  V30 7689 C 743.622 -1.85189 -0.794188 0
M  V30 7690 O 742.678 -1.97738 -1.57022 0
M  V30 7691 C 743.991 -2.53505 1.61728 0
M  V30 7692 C 745.539 -2.67351 1.62765 0
M  V30 7693 C 746.014 -3.78296 2.58179 0
M  V30 7694 N 747.505 -3.85696 2.56501 0
M  V30 7695 C 748.24 -4.71012 3.2701 0
M  V30 7696 N 747.736 -5.60669 4.06966 0
M  V30 7697 N 749.529 -4.64912 3.15932 0
M  V30 7698 H 741.68 -0.986327 1.8811 0
M  V30 7699 H 743.943 -0.494639 0.808725 0
M  V30 7700 H 743.649 -2.31357 2.6489 0
M  V30 7701 H 743.523 -3.51281 1.3741 0
M  V30 7702 H 745.91 -2.88869 0.603241 0
M  V30 7703 H 745.991 -1.69998 1.91139 0
M  V30 7704 H 745.635 -3.5753 3.60742 0
M  V30 7705 H 745.565 -4.75117 2.27093 0
M  V30 7706 H 748.056 -3.21601 1.98447 0
M  V30 7707 H 748.369 -6.22677 4.57704 0
M  V30 7708 H 746.714 -5.60402 4.11066 0
M  V30 7709 H 749.905 -3.93874 2.52945 0
M  V30 7710 H 750.078 -5.3118 3.71149 0
M  V30 7711 N 743.484 -0.715051 -1.40445 0
M  V30 7712 C 744.9 -0.388555 -1.54798 0
M  V30 7713 C 745.1 1.10271 -1.68649 0
M  V30 7714 O 744.156 1.88875 -1.67578 0
M  V30 7715 C 745.469 -1.15414 -2.77669 0
M  V30 7716 C 747.017 -1.14039 -2.91486 0
M  V30 7717 C 747.492 -1.88812 -4.1727 0
M  V30 7718 N 748.983 -1.85878 -4.24268 0
M  V30 7719 C 749.718 -2.40558 -5.20499 0
M  V30 7720 N 749.214 -3.03791 -6.22642 0
M  V30 7721 N 751.007 -2.30703 -5.12574 0
M  V30 7722 H 743.158 -1.68201 -1.297 0
M  V30 7723 H 745.421 -0.710915 -0.627139 0
M  V30 7724 H 745.127 -2.20853 -2.7371 0
M  V30 7725 H 745.001 -0.745412 -3.69761 0
M  V30 7726 H 747.388 -0.0941996 -2.9495 0
M  V30 7727 H 747.469 -1.58834 -2.00513 0
M  V30 7728 H 747.113 -2.93422 -4.14568 0
M  V30 7729 H 747.043 -1.41438 -5.0725 0
M  V30 7730 H 749.534 -1.39794 -3.51093 0
M  V30 7731 H 749.847 -3.43032 -6.92495 0
M  V30 7732 H 748.192 -3.07875 -6.23087 0
M  V30 7733 H 751.383 -1.80961 -4.31707 0
M  V30 7734 H 751.556 -2.73618 -5.87398 0
M  V30 7735 N 744.962 1.50701 -0.461195 0
M  V30 7736 C 746.209 2.02267 0.0971971 0
M  V30 7737 C 746.537 1.34387 1.40608 0
M  V30 7738 O 745.792 0.455254 1.90331 0
M  V30 7739 C 746.091 3.55788 0.33908 0
M  V30 7740 C 745.757 4.42092 -0.886885 0
M  V30 7741 C 744.419 4.65398 -1.22304 0
M  V30 7742 C 746.771 4.92571 -1.70361 0
M  V30 7743 C 744.099 5.36429 -2.37616 0
M  V30 7744 C 746.451 5.64868 -2.84793 0
M  V30 7745 C 745.115 5.86431 -3.18834 0
M  V30 7746 H 744.385 0.740146 0.0355669 0
M  V30 7747 H 747.032 1.81415 -0.61326 0
M  V30 7748 H 745.337 3.751 1.13168 0
M  V30 7749 H 747.034 3.93243 0.784937 0
M  V30 7750 H 743.624 4.24165 -0.614981 0
M  V30 7751 H 747.808 4.74428 -1.4571 0
M  V30 7752 H 743.064 5.51333 -2.64276 0
M  V30 7753 H 747.238 6.02966 -3.48432 0
M  V30 7754 H 744.865 6.41248 -4.08296 0
M  V30 7755 N 746.441 0.193421 1.56409 0
M  V30 7756 C 747.404 -0.714371 2.17783 0
M  V30 7757 C 748.404 -1.1422 1.13183 0
M  V30 7758 O 749.594 -1.05557 1.38576 0
M  V30 7759 C 746.726 -1.97509 2.77855 0
M  V30 7760 H 747.919 -0.179714 2.99361 0
M  V30 7761 H 745.472 -0.0561944 1.56199 0
M  V30 7762 H 746.207 -2.5523 2.0007 0
M  V30 7763 H 745.992 -1.67706 3.54425 0
M  V30 7764 H 747.482 -2.62246 3.24987 0
M  V30 7765 N 747.919 -1.57396 -0.0801906 0
M  V30 7766 C 748.849 -2.06145 -1.09665 0
M  V30 7767 C 749.83 -0.953273 -1.40878 0
M  V30 7768 O 751.015 -1.22548 -1.50651 0
M  V30 7769 C 748.145 -2.49836 -2.41245 0
M  V30 7770 C 747.099 -3.64454 -2.24405 0
M  V30 7771 C 746.425 -3.94172 -3.61293 0
M  V30 7772 C 747.725 -4.94807 -1.67223 0
M  V30 7773 H 749.419 -2.91316 -0.691028 0
M  V30 7774 H 746.965 -1.40145 -0.330957 0
M  V30 7775 H 748.918 -2.82552 -3.12638 0
M  V30 7776 H 747.642 -1.61683 -2.83771 0
M  V30 7777 H 746.301 -3.32008 -1.55454 0
M  V30 7778 H 745.949 -3.03163 -4.01374 0
M  V30 7779 H 745.649 -4.71345 -3.50867 0
M  V30 7780 H 747.173 -4.29376 -4.3413 0
M  V30 7781 H 748.587 -5.25807 -2.28472 0
M  V30 7782 H 746.984 -5.76245 -1.67515 0
M  V30 7783 H 748.054 -4.80751 -0.632944 0
M  V30 7784 N 749.397 0.351382 -1.53633 0
M  V30 7785 C 750.622 1.11718 -1.74739 0
M  V30 7786 C 751.047 1.81829 -0.481657 0
M  V30 7787 O 750.405 1.72264 0.565233 0
M  V30 7788 C 750.453 2.11234 -2.92254 0
M  V30 7789 O 749.557 3.186 -2.61855 0
M  V30 7790 H 748.898 0.323482 -0.579875 0
M  V30 7791 H 751.428 0.404167 -2.00568 0
M  V30 7792 H 751.438 2.54591 -3.18822 0
M  V30 7793 H 750.113 1.59599 -3.84058 0
M  V30 7794 H 748.69 2.80115 -2.4615 0
M  V30 7795 N 750.875 1.45233 0.611969 0
M  V30 7796 C 751.838 1.53189 1.70487 0
M  V30 7797 C 752.838 0.411839 1.55437 0
M  V30 7798 O 754.028 0.675164 1.60584 0
M  V30 7799 C 751.16 1.42422 3.09723 0
M  V30 7800 H 752.353 2.5056 1.64802 0
M  V30 7801 H 749.906 1.32609 0.827318 0
M  V30 7802 H 750.641 0.462185 3.2099 0
M  V30 7803 H 750.426 2.23658 3.22055 0
M  V30 7804 H 751.916 1.51012 3.89339 0
M  V30 7805 N 752.353 -0.854086 1.3245 0
M  V30 7806 C 753.286 -1.96654 1.15768 0
M  V30 7807 C 754.264 -1.625 0.0569975 0
M  V30 7808 O 755.448 -1.87254 0.216412 0
M  V30 7809 C 752.575 -3.29776 0.772361 0
M  V30 7810 C 751.621 -3.82909 1.87837 0
M  V30 7811 S 752.454 -4.0643 3.48675 0
M  V30 7812 C 753.61 -5.42526 3.12116 0
M  V30 7813 H 753.843 -2.10504 2.09942 0
M  V30 7814 H 751.376 -1.00612 1.17118 0
M  V30 7815 H 753.334 -4.06706 0.556809 0
M  V30 7816 H 751.995 -3.13739 -0.150519 0
M  V30 7817 H 751.188 -4.79192 1.56177 0
M  V30 7818 H 750.79 -3.12825 2.0498 0
M  V30 7819 H 753.082 -6.24792 2.61996 0
M  V30 7820 H 754.025 -5.79148 4.07422 0
M  V30 7821 H 754.433 -5.06556 2.49121 0
M  V30 7822 N 753.831 -1.1567 -1.07043 0
M  V30 7823 C 755.108 -0.843948 -1.76456 0
M  V30 7824 C 755.488 0.659806 -2.00524 0
M  V30 7825 O 754.836 1.60518 -1.62623 0
M  V30 7826 C 755.046 -1.65822 -3.0709 0
M  V30 7827 C 756.394 -1.8664 -3.8138 0
M  V30 7828 O 757.418 -1.62624 -3.1691 0
M  V30 7829 O 756.277 -2.26884 -4.97178 0
M  V30 7830 H 753.371 -0.310677 -0.766426 0
M  V30 7831 H 755.917 -1.26266 -1.1338 0
M  V30 7832 H 754.689 -2.67902 -2.85209 0
M  V30 7833 H 754.312 -1.23605 -3.77899 0
M  V30 7834 N 755.309 1.25446 -0.953992 0
M  V30 7835 C 756.242 2.24341 -0.417912 0
M  V30 7836 C 757.22 1.54709 0.5004 0
M  V30 7837 O 758.404 1.83414 0.434923 0
M  V30 7838 C 755.531 3.36352 0.398155 0
M  V30 7839 C 754.577 4.24007 -0.460461 0
M  V30 7840 S 755.41 5.00951 -1.89231 0
M  V30 7841 C 756.566 6.1643 -1.08465 0
M  V30 7842 H 756.799 2.69465 -1.25602 0
M  V30 7843 H 754.332 1.34512 -0.758018 0
M  V30 7844 H 756.29 4.01325 0.863059 0
M  V30 7845 H 754.951 2.89813 1.21108 0
M  V30 7846 H 754.144 5.03728 0.165415 0
M  V30 7847 H 753.746 3.63965 -0.860549 0
M  V30 7848 H 756.038 6.76681 -0.333017 0
M  V30 7849 H 756.981 6.8335 -1.85577 0
M  V30 7850 H 757.389 5.61139 -0.615062 0
M  V30 7851 N 756.787 0.722489 1.40064 0
M  V30 7852 C 757.697 0.0755984 2.34478 0
M  V30 7853 C 758.713 -0.736046 1.57665 0
M  V30 7854 O 759.889 -0.667407 1.9002 0
M  V30 7855 C 756.954 -0.830075 3.36616 0
M  V30 7856 C 756.015 -0.00759884 4.29299 0
M  V30 7857 C 755.248 -0.870139 5.26559 0
M  V30 7858 O 755.471 -2.10921 5.2997 0
M  V30 7859 O 754.405 -0.305454 6.01124 0
M  V30 7860 H 758.231 0.854545 2.9143 0
M  V30 7861 H 755.816 0.483032 1.41376 0
M  V30 7862 H 757.698 -1.34864 3.99236 0
M  V30 7863 H 756.373 -1.58805 2.82069 0
M  V30 7864 H 755.28 0.556199 3.69942 0
M  V30 7865 H 756.613 0.712312 4.87018 0
M  V30 7866 N 758.265 -1.50454 0.469181 0
M  V30 7867 C 759.197 -2.26319 -0.362247 0
M  V30 7868 C 760.21 -1.31574 -0.958751 0
M  V30 7869 O 761.399 -1.57099 -0.847482 0
M  V30 7870 C 758.499 -3.02808 -1.52187 0
M  V30 7871 C 757.672 -4.24893 -1.03849 0
M  V30 7872 C 756.731 -4.83691 -2.07194 0
M  V30 7873 O 755.757 -5.44659 -1.65333 0
M  V30 7874 N 756.959 -4.70522 -3.39985 0
M  V30 7875 H 759.724 -2.98312 0.288124 0
M  V30 7876 H 757.285 -1.59099 0.299856 0
M  V30 7877 H 759.277 -3.39023 -2.21011 0
M  V30 7878 H 757.847 -2.33625 -2.07697 0
M  V30 7879 H 757.067 -3.93806 -0.176203 0
M  V30 7880 H 758.355 -5.04053 -0.693435 0
M  V30 7881 H 757.753 -4.2203 -3.76706 0
M  V30 7882 H 756.31 -5.11011 -4.04612 0
M  V30 7883 N 759.743 -0.201713 -1.56304 0
M  V30 7884 C 760.69 0.716499 -2.19397 0
M  V30 7885 C 761.66 1.20494 -1.14326 0
M  V30 7886 O 762.845 1.26763 -1.42604 0
M  V30 7887 C 759.985 1.92762 -2.86246 0
M  V30 7888 C 759.098 1.47993 -4.0586 0
M  V30 7889 C 758.233 2.64706 -4.60547 0
M  V30 7890 C 757.272 2.16576 -5.72504 0
M  V30 7891 N 756.409 3.26491 -6.21569 0
M  V30 7892 H 761.249 0.171724 -2.97505 0
M  V30 7893 H 758.786 0.073016 -1.46919 0
M  V30 7894 H 760.744 2.6384 -3.23178 0
M  V30 7895 H 759.374 2.44559 -2.10691 0
M  V30 7896 H 758.426 0.66477 -3.74546 0
M  V30 7897 H 759.738 1.08686 -4.86815 0
M  V30 7898 H 758.892 3.43898 -4.99819 0
M  V30 7899 H 757.631 3.0729 -3.78713 0
M  V30 7900 H 756.636 1.3584 -5.32755 0
M  V30 7901 H 757.861 1.75015 -6.56161 0
M  V30 7902 H 755.807 3.68594 -5.42655 0
M  V30 7903 H 755.724 2.91374 -6.97594 0
M  V30 7904 H 756.992 4.05877 -6.65495 0
M  V30 7905 N 761.222 1.57436 0.0718424 0
M  V30 7906 C 762.499 1.78312 0.804006 0
M  V30 7907 C 762.879 0.789273 1.9579 0
M  V30 7908 O 762.227 -0.177605 2.27809 0
M  V30 7909 C 762.437 3.24798 1.277 0
M  V30 7910 C 763.785 3.88627 1.71039 0
M  V30 7911 O 764.809 3.28689 1.37266 0
M  V30 7912 O 763.668 4.94073 2.33567 0
M  V30 7913 H 760.762 0.73178 0.385262 0
M  V30 7914 H 763.308 1.69621 0.0519219 0
M  V30 7915 H 762.08 3.88688 0.45134 0
M  V30 7916 H 761.703 3.38213 2.0904 0
M  V30 7917 N 762.7 -0.34323 1.53817 0
M  V30 7918 C 763.93 -1.10188 1.74763 0
M  V30 7919 C 764.338 -1.82829 0.486856 0
M  V30 7920 O 763.681 -1.75236 -0.551198 0
M  V30 7921 C 763.743 -2.16 2.87375 0
M  V30 7922 C 763.407 -1.62931 4.26969 0
M  V30 7923 C 764.404 -1.08147 5.08528 0
M  V30 7924 C 762.089 -1.67769 4.73454 0
M  V30 7925 C 764.083 -0.589039 6.34672 0
M  V30 7926 C 761.77 -1.18138 5.99572 0
M  V30 7927 C 762.768 -0.637979 6.80014 0
M  V30 7928 O 762.456 -0.149073 8.03762 0
M  V30 7929 H 762.188 -0.33445 0.587469 0
M  V30 7930 H 764.742 -0.401109 2.01445 0
M  V30 7931 H 762.972 -2.89637 2.56218 0
M  V30 7932 H 764.661 -2.77432 2.96287 0
M  V30 7933 H 765.427 -1.03732 4.73777 0
M  V30 7934 H 761.306 -2.09004 4.10899 0
M  V30 7935 H 764.85 -0.164233 6.97407 0
M  V30 7936 H 760.747 -1.22254 6.33817 0
M  V30 7937 H 761.515 -0.266332 8.18067 0
M  V30 7938 N 764.178 -1.45556 -0.604258 0
M  V30 7939 C 765.455 -1.40221 -1.36373 0
M  V30 7940 C 765.835 -0.0745195 -2.10968 0
M  V30 7941 O 765.183 0.943594 -2.08107 0
M  V30 7942 C 765.393 -2.61807 -2.30777 0
M  V30 7943 C 766.741 -3.07037 -2.93281 0
M  V30 7944 O 767.765 -2.62203 -2.41097 0
M  V30 7945 O 766.624 -3.8485 -3.88011 0
M  V30 7946 H 763.718 -0.556602 -0.611656 0
M  V30 7947 H 766.264 -1.57689 -0.627069 0
M  V30 7948 H 765.036 -3.50017 -1.74939 0
M  V30 7949 H 764.659 -2.46688 -3.11818 0
M  V30 7950 N 765.656 0.84705 -1.32902 0
M  V30 7951 C 766.881 1.63925 -1.27056 0
M  V30 7952 C 767.306 1.87443 0.157136 0
M  V30 7953 O 766.664 1.43266 1.11106 0
M  V30 7954 C 766.712 2.97134 -2.04313 0
M  V30 7955 O 765.816 3.88049 -1.39614 0
M  V30 7956 H 765.157 0.499477 -0.437514 0
M  V30 7957 H 767.687 1.05443 -1.75336 0
M  V30 7958 H 767.697 3.46896 -2.14772 0
M  V30 7959 H 766.372 2.79339 -3.08128 0
M  V30 7960 H 764.949 3.46525 -1.3775 0
M  V30 7961 N 767.134 1.16236 1.06428 0
M  V30 7962 C 768.55 0.906983 1.31324 0
M  V30 7963 C 768.75 -0.440872 1.96618 0
M  V30 7964 O 767.806 -1.1807 2.23194 0
M  V30 7965 C 769.119 2.05501 2.19522 0
M  V30 7966 C 770.667 2.09061 2.32943 0
M  V30 7967 C 771.142 3.23214 3.24495 0
M  V30 7968 N 772.633 3.22922 3.32078 0
M  V30 7969 C 773.368 4.07889 4.03006 0
M  V30 7970 N 772.864 5.02941 4.76469 0
M  V30 7971 N 774.657 3.95881 3.99043 0
M  V30 7972 H 766.808 2.03015 0.624388 0
M  V30 7973 H 769.071 0.88576 0.337835 0
M  V30 7974 H 768.777 3.02847 1.78819 0
M  V30 7975 H 768.651 1.99538 3.201 0
M  V30 7976 H 771.038 1.12308 2.72893 0
M  V30 7977 H 771.119 2.19089 1.32037 0
M  V30 7978 H 770.763 4.20225 2.85261 0
M  V30 7979 H 770.693 3.10423 4.25377 0
M  V30 7980 H 773.184 2.54093 2.79724 0
M  V30 7981 H 773.497 5.64196 5.28112 0
M  V30 7982 H 771.842 5.06922 4.75453 0
M  V30 7983 H 775.033 3.20927 3.40769 0
M  V30 7984 H 775.206 4.62321 4.54052 0
M  V30 7985 N 768.612 -1.24939 0.960631 0
M  V30 7986 C 769.84 -1.96881 0.636045 0
M  V30 7987 C 770.255 -1.71334 -0.793093 0
M  V30 7988 O 769.612 -0.992917 -1.53125 0
M  V30 7989 C 769.663 -3.50309 0.892533 0
M  V30 7990 O 769.384 -3.74977 2.26548 0
M  V30 7991 C 770.885 -4.39474 0.581159 0
M  V30 7992 H 768.105 -0.627399 0.237931 0
M  V30 7993 H 770.649 -1.58952 1.28664 0
M  V30 7994 H 768.804 -3.86326 0.288257 0
M  V30 7995 H 769.218 -4.69401 2.34014 0
M  V30 7996 H 770.692 -5.46008 0.811125 0
M  V30 7997 H 771.169 -4.3652 -0.48443 0
M  V30 7998 H 771.775 -4.09032 1.16502 0
M  V30 7999 N 770.09 -0.729906 -1.39679 0
M  V30 8000 C 771.053 -0.0951668 -2.29002 0
M  V30 8001 C 772.053 0.672471 -1.46063 0
M  V30 8002 O 773.243 0.502245 -1.66803 0
M  V30 8003 C 770.375 0.874631 -3.29489 0
M  V30 8004 H 771.568 -0.882062 -2.86635 0
M  V30 8005 H 769.121 -0.495424 -1.4824 0
M  V30 8006 H 769.856 1.68807 -2.76902 0
M  V30 8007 H 769.641 0.326893 -3.90735 0
M  V30 8008 H 771.131 1.31548 -3.96339 0
M  V30 8009 N 771.568 1.50203 -0.477153 0
M  V30 8010 C 772.498 2.31517 0.303646 0
M  V30 8011 C 773.479 1.38696 0.984753 0
M  V30 8012 O 774.664 1.67615 0.980758 0
M  V30 8013 C 771.794 3.18598 1.38249 0
M  V30 8014 C 770.748 4.2002 0.822645 0
M  V30 8015 C 770.074 4.95878 2.00024 0
M  V30 8016 C 771.374 5.22023 -0.170185 0
M  V30 8017 H 773.068 2.97042 -0.375027 0
M  V30 8018 H 770.614 1.42848 -0.181802 0
M  V30 8019 H 772.567 3.74282 1.93625 0
M  V30 8020 H 771.291 2.5097 2.09002 0
M  V30 8021 H 769.95 3.65445 0.290813 0
M  V30 8022 H 769.598 4.24717 2.69489 0
M  V30 8023 H 769.298 5.64487 1.63183 0
M  V30 8024 H 770.822 5.54399 2.55878 0
M  V30 8025 H 772.236 5.72543 0.294606 0
M  V30 8026 H 770.633 5.98386 -0.453181 0
M  V30 8027 H 771.703 4.72396 -1.09408 0
M  V30 8028 N 773.046 0.209999 1.56195 0
M  V30 8029 C 773.996 -0.717978 2.164 0
M  V30 8030 C 774.98 -1.16577 1.10899 0
M  V30 8031 O 776.172 -1.12169 1.3692 0
M  V30 8032 C 773.301 -1.93091 2.8385 0
M  V30 8033 C 772.387 -1.50333 3.96561 0
M  V30 8034 N 772.778 -0.787621 4.9963 0
M  V30 8035 C 771.076 -1.79151 4.08437 0
M  V30 8036 C 771.777 -0.571204 5.78889 0
M  V30 8037 N 770.753 -1.12444 5.31843 0
M  V30 8038 H 774.555 -0.162603 2.9345 0
M  V30 8039 H 772.069 0.0107928 1.62396 0
M  V30 8040 H 774.066 -2.60635 3.25384 0
M  V30 8041 H 772.726 -2.49087 2.08293 0
M  V30 8042 H 773.737 -0.441513 5.16015 0
M  V30 8043 H 770.414 -2.36549 3.44022 0
M  V30 8044 H 771.804 -0.00237941 6.719 0
M  V30 8045 N 774.524 -1.57472 -0.0634922 0
M  V30 8046 C 775.77 -1.87932 -0.762194 0
M  V30 8047 C 776.103 -0.803377 -1.76804 0
M  V30 8048 O 775.378 0.185468 -1.93614 0
M  V30 8049 C 775.661 -3.29053 -1.46275 0
M  V30 8050 C 775.514 -4.47309 -0.472755 0
M  V30 8051 C 776.833 -3.68537 -2.40558 0
M  V30 8052 H 773.952 -0.683521 -0.275624 0
M  V30 8053 H 776.594 -1.89983 -0.0252651 0
M  V30 8054 H 774.744 -3.27435 -2.0909 0
M  V30 8055 H 776.416 -4.61053 0.150828 0
M  V30 8056 H 774.659 -4.33286 0.211187 0
M  V30 8057 H 775.33 -5.42853 -1.00072 0
M  V30 8058 H 777.806 -3.71302 -1.87814 0
M  V30 8059 H 776.682 -4.68152 -2.86574 0
M  V30 8060 H 776.943 -2.98917 -3.25731 0
M  V30 8061 N 776.003 0.335068 -1.53997 0
M  V30 8062 C 776.966 1.39481 -1.81872 0
M  V30 8063 C 777.966 1.4524 -0.690078 0
M  V30 8064 O 779.156 1.45467 -0.958377 0
M  V30 8065 C 776.288 2.78329 -1.9684 0
M  V30 8066 H 777.481 1.16024 -2.76547 0
M  V30 8067 H 775.034 0.569926 -1.45539 0
M  V30 8068 H 775.769 3.07058 -1.04337 0
M  V30 8069 H 775.554 2.75544 -2.78958 0
M  V30 8070 H 777.044 3.55016 -2.19894 0
M  V30 8071 N 777.481 1.45874 0.596531 0
M  V30 8072 C 778.444 1.54988 1.68853 0
M  V30 8073 C 779.444 0.428302 1.54991 0
M  V30 8074 O 780.634 0.692158 1.59859 0
M  V30 8075 C 777.766 1.457 3.08195 0
M  V30 8076 H 778.959 2.52294 1.62135 0
M  V30 8077 H 776.512 1.33479 0.813206 0
M  V30 8078 H 777.247 0.496204 3.20481 0
M  V30 8079 H 777.032 2.27061 3.19665 0
M  V30 8080 H 778.522 1.55133 3.87716 0
M  V30 8081 N 778.959 -0.83999 1.33349 0
M  V30 8082 C 779.922 -1.93128 1.23426 0
M  V30 8083 C 780.922 -1.60065 0.153599 0
M  V30 8084 O 782.112 -1.69425 0.405049 0
M  V30 8085 C 779.244 -3.28761 0.901622 0
M  V30 8086 H 780.437 -2.03352 2.20427 0
M  V30 8087 H 777.99 -1.03194 1.17391 0
M  V30 8088 H 778.725 -3.24233 -0.0659337 0
M  V30 8089 H 778.51 -3.54138 1.68311 0
M  V30 8090 H 780 -4.08714 0.856913 0
M  V30 8091 N 780.437 -1.16799 -1.0581 0
M  V30 8092 C 781.347 -0.893492 -2.16919 0
M  V30 8093 C 782.363 0.136061 -1.73467 0
M  V30 8094 O 783.539 -0.0417348 -2.01357 0
M  V30 8095 C 780.604 -0.403763 -3.44341 0
M  V30 8096 C 779.665 -1.49914 -4.02274 0
M  V30 8097 C 778.898 -1.03269 -5.23614 0
M  V30 8098 O 779.121 0.115647 -5.70283 0
M  V30 8099 O 778.055 -1.8231 -5.73626 0
M  V30 8100 H 781.881 -1.82274 -2.42919 0
M  V30 8101 H 779.466 -0.948361 -1.1544 0
M  V30 8102 H 781.348 -0.137874 -4.21174 0
M  V30 8103 H 780.023 0.497413 -3.19855 0
M  V30 8104 H 778.93 -1.81883 -3.26909 0
M  V30 8105 H 780.263 -2.3758 -4.31064 0
M  V30 8106 N 781.915 1.24427 -0.967243 0
M  V30 8107 C 783.163 1.92107 -0.627638 0
M  V30 8108 C 783.484 1.75991 0.83978 0
M  V30 8109 O 782.754 1.13118 1.59941 0
M  V30 8110 H 781.334 0.710986 -0.229145 0
M  V30 8111 H 783.996 1.51331 -1.22821 0
M  V30 8112 H 783.092 2.99791 -0.867844 0
M  V30 8113 N 783.393 0.737304 1.3929 0
M  V30 8114 C 784.343 0.0748537 2.27877 0
M  V30 8115 C 785.327 -0.71022 1.44377 0
M  V30 8116 O 786.519 -0.578851 1.67267 0
M  V30 8117 C 783.648 -0.82991 3.33118 0
M  V30 8118 C 782.734 -0.0388619 4.24082 0
M  V30 8119 N 783.125 0.989182 4.96033 0
M  V30 8120 C 781.423 -0.268167 4.45193 0
M  V30 8121 C 782.124 1.46639 5.62914 0
M  V30 8122 N 781.1 0.784581 5.37908 0
M  V30 8123 H 784.902 0.862457 2.80961 0
M  V30 8124 H 782.416 0.571845 1.51999 0
M  V30 8125 H 784.413 -1.31999 3.95452 0
M  V30 8126 H 783.073 -1.61665 2.81593 0
M  V30 8127 H 784.084 1.3706 4.99435 0
M  V30 8128 H 780.761 -1.02953 4.04607 0
M  V30 8129 H 782.151 2.32182 6.30508 0
M  V30 8130 N 784.871 -1.49948 0.485112 0
M  V30 8131 C 786.12 -2.01589 -0.066765 0
M  V30 8132 C 786.433 -1.371 -1.39509 0
M  V30 8133 O 787.639 -1.79978 -2.03274 0
M  V30 8134 C 786.095 -3.59501 -0.169476 0
M  V30 8135 C 785.703 -4.32955 1.15126 0
M  V30 8136 C 787.447 -4.19138 -0.672564 0
M  V30 8137 C 785.354 -5.82684 1.01158 0
M  V30 8138 H 784.284 -0.753453 -0.0287259 0
M  V30 8139 H 786.935 -1.72632 0.622132 0
M  V30 8140 H 785.317 -3.85106 -0.922471 0
M  V30 8141 H 786.491 -4.19064 1.9163 0
M  V30 8142 H 784.806 -3.84991 1.58654 0
M  V30 8143 H 787.403 -5.28767 -0.794325 0
M  V30 8144 H 787.746 -3.81447 -1.66745 0
M  V30 8145 H 788.279 -3.97793 0.0234415 0
M  V30 8146 H 785.018 -6.24873 1.98025 0
M  V30 8147 H 784.538 -5.99112 0.287151 0
M  V30 8148 H 786.217 -6.43376 0.683847 0
M  V30 8149 N 786.349 -0.21828 -1.56081 0
M  V30 8150 C 787.259 0.704602 -2.23769 0
M  V30 8151 C 788.275 1.21633 -1.24425 0
M  V30 8152 O 789.451 1.25862 -1.57228 0
M  V30 8153 C 786.516 1.89725 -2.90182 0
M  V30 8154 C 785.577 1.42782 -4.0486 0
M  V30 8155 C 784.81 2.56361 -4.68097 0
M  V30 8156 O 785.033 3.74417 -4.30312 0
M  V30 8157 O 783.967 2.2775 -5.57148 0
M  V30 8158 H 787.793 0.158007 -3.03289 0
M  V30 8159 H 785.378 0.0120279 -1.49395 0
M  V30 8160 H 787.26 2.59382 -3.32113 0
M  V30 8161 H 785.935 2.432 -2.13624 0
M  V30 8162 H 784.842 0.699359 -3.67505 0
M  V30 8163 H 786.175 0.939474 -4.83151 0
M  V30 8164 N 787.827 1.57504 0.0551401 0
M  V30 8165 C 789.073 1.88334 0.752216 0
M  V30 8166 C 789.406 0.812742 1.76375 0
M  V30 8167 O 788.681 -0.175198 1.93709 0
M  V30 8168 C 788.964 3.29824 1.44528 0
M  V30 8169 C 788.817 4.47553 0.449026 0
M  V30 8170 C 790.136 3.69808 2.38601 0
M  V30 8171 H 787.255 0.684973 0.271995 0
M  V30 8172 H 789.897 1.89994 0.0151895 0
M  V30 8173 H 788.047 3.28539 2.07351 0
M  V30 8174 H 789.719 4.60967 -0.175277 0
M  V30 8175 H 787.962 4.33168 -0.234162 0
M  V30 8176 H 788.633 5.43376 0.971917 0
M  V30 8177 H 791.109 3.72293 1.85842 0
M  V30 8178 H 789.985 4.69665 2.84088 0
M  V30 8179 H 790.246 3.00641 3.24141 0
M  V30 8180 N 789.305 -0.326896 1.54172 0
M  V30 8181 C 790.551 -1.06681 1.72473 0
M  V30 8182 C 790.884 -1.87779 0.49523 0
M  V30 8183 O 790.159 -1.87754 -0.507803 0
M  V30 8184 C 790.442 -1.99429 2.99834 0
M  V30 8185 C 790.295 -1.21682 4.33028 0
M  V30 8186 C 791.614 -2.99002 3.22933 0
M  V30 8187 H 788.733 -0.386438 0.627563 0
M  V30 8188 H 791.375 -0.343779 1.86864 0
M  V30 8189 H 789.525 -2.61081 2.87696 0
M  V30 8190 H 791.197 -0.625153 4.57044 0
M  V30 8191 H 789.44 -0.519045 4.30684 0
M  V30 8192 H 790.111 -1.89766 5.18356 0
M  V30 8193 H 792.587 -2.4747 3.34511 0
M  V30 8194 H 791.463 -3.61085 4.13412 0
M  V30 8195 H 791.724 -3.71281 2.40006 0
M  V30 8196 N 790.784 -1.46188 -0.588786 0
M  V30 8197 C 791.731 -1.56292 -1.69828 0
M  V30 8198 C 792.701 -0.407581 -1.61022 0
M  V30 8199 O 793.886 -0.623532 -1.80324 0
M  V30 8200 C 791.026 -1.55341 -3.08161 0
M  V30 8201 C 790.139 -2.81564 -3.27636 0
M  V30 8202 C 789.274 -2.72158 -4.56183 0
M  V30 8203 C 788.313 -3.93348 -4.68981 0
M  V30 8204 N 787.45 -3.82365 -5.88848 0
M  V30 8205 H 792.29 -2.51066 -1.6053 0
M  V30 8206 H 789.827 -1.24562 -0.782474 0
M  V30 8207 H 791.785 -1.52776 -3.88221 0
M  V30 8208 H 790.415 -0.641034 -3.16371 0
M  V30 8209 H 789.467 -2.94136 -2.41223 0
M  V30 8210 H 790.779 -3.714 -3.32962 0
M  V30 8211 H 789.933 -2.67665 -5.44464 0
M  V30 8212 H 788.672 -1.79953 -4.53286 0
M  V30 8213 H 787.677 -3.98181 -3.7912 0
M  V30 8214 H 788.902 -4.86643 -4.73662 0
M  V30 8215 H 786.848 -2.92942 -5.86959 0
M  V30 8216 H 786.765 -4.65851 -5.95415 0
M  V30 8217 H 788.033 -3.81836 -6.79575 0
M  V30 8218 N 792.262 0.832906 -1.33792 0
M  V30 8219 C 793.509 1.58853 -1.25586 0
M  V30 8220 C 793.837 1.93695 0.176807 0
M  V30 8221 O 793.092 1.59386 1.13554 0
M  V30 8222 C 793.391 2.9047 -2.08235 0
M  V30 8223 C 793.057 2.74965 -3.57358 0
M  V30 8224 C 791.719 2.70444 -3.98012 0
M  V30 8225 C 794.071 2.59347 -4.52093 0
M  V30 8226 C 791.399 2.48212 -5.31608 0
M  V30 8227 C 793.751 2.38649 -5.85858 0
M  V30 8228 C 792.415 2.32533 -6.25687 0
M  V30 8229 H 791.685 0.581285 -0.459553 0
M  V30 8230 H 794.332 0.964501 -1.65438 0
M  V30 8231 H 792.637 3.57111 -1.6118 0
M  V30 8232 H 794.334 3.48001 -1.99239 0
M  V30 8233 H 790.924 2.79319 -3.25083 0
M  V30 8234 H 795.108 2.6187 -4.2159 0
M  V30 8235 H 790.364 2.41929 -5.61498 0
M  V30 8236 H 794.538 2.25549 -6.58863 0
M  V30 8237 H 792.165 2.15067 -7.29143 0
M  V30 8238 N 793.74 1.17359 1.05189 0
M  V30 8239 C 794.67 0.91365 2.14883 0
M  V30 8240 C 795.651 -0.144365 1.69486 0
M  V30 8241 O 796.836 0.00587861 1.94199 0
M  V30 8242 C 793.966 0.426196 3.44675 0
M  V30 8243 C 792.92 1.4234 4.03638 0
M  V30 8244 C 792.246 0.793902 5.28773 0
M  V30 8245 C 793.546 2.7966 4.41121 0
M  V30 8246 H 795.24 1.831 2.36885 0
M  V30 8247 H 792.786 0.881781 1.13845 0
M  V30 8248 H 794.739 0.231767 4.20762 0
M  V30 8249 H 793.463 -0.526693 3.22325 0
M  V30 8250 H 792.122 1.60457 3.2962 0
M  V30 8251 H 791.77 -0.165824 5.02727 0
M  V30 8252 H 791.47 1.45959 5.69183 0
M  V30 8253 H 792.994 0.609747 6.07548 0
M  V30 8254 H 794.408 2.6526 5.08242 0
M  V30 8255 H 792.805 3.42807 4.92548 0
M  V30 8256 H 793.875 3.34068 3.51464 0
M  V30 8257 N 795.218 -1.23913 0.973828 0
M  V30 8258 C 796.467 -1.91455 0.63464 0
M  V30 8259 C 796.78 -1.76893 -0.834759 0
M  V30 8260 O 797.986 -2.3918 -1.28473 0
M  V30 8261 C 796.442 -3.43172 1.08447 0
M  V30 8262 C 796.05 -3.66409 2.57776 0
M  V30 8263 C 797.794 -4.1653 0.818721 0
M  V30 8264 C 795.701 -5.11728 2.9646 0
M  V30 8265 H 794.631 -0.716881 0.233661 0
M  V30 8266 H 797.282 -1.40457 1.18085 0
M  V30 8267 H 795.664 -3.93242 0.466524 0
M  V30 8268 H 796.838 -3.26913 3.24753 0
M  V30 8269 H 795.153 -3.06349 2.82027 0
M  V30 8270 H 797.75 -5.23603 1.08367 0
M  V30 8271 H 798.093 -4.15578 -0.245128 0
M  V30 8272 H 798.626 -3.72428 1.39793 0
M  V30 8273 H 795.365 -5.17806 4.01941 0
M  V30 8274 H 794.885 -5.52199 2.34172 0
M  V30 8275 H 796.564 -5.80009 2.86703 0
M  V30 8276 N 796.696 -0.74468 -1.38897 0
M  V30 8277 C 797.606 -0.112892 -2.34328 0
M  V30 8278 C 798.622 0.71087 -1.58816 0
M  V30 8279 O 799.798 0.637092 -1.91058 0
M  V30 8280 C 796.863 0.776417 -3.37894 0
M  V30 8281 C 795.924 -0.0606999 -4.29257 0
M  V30 8282 C 795.157 0.786258 -5.27877 0
M  V30 8283 O 795.38 2.02463 -5.33259 0
M  V30 8284 O 794.314 0.209781 -6.01534 0
M  V30 8285 H 798.14 -0.900801 -2.90033 0
M  V30 8286 H 795.725 -0.505462 -1.4059 0
M  V30 8287 H 797.607 1.28496 -4.01331 0
M  V30 8288 H 796.282 1.54297 -2.84559 0
M  V30 8289 H 795.189 -0.614984 -3.69011 0
M  V30 8290 H 796.522 -0.789702 -4.85824 0
M  V30 8291 N 798.174 1.49689 -0.493057 0
M  V30 8292 C 799.137 2.27502 0.278485 0
M  V30 8293 C 800.137 1.33184 0.901037 0
M  V30 8294 O 801.327 1.56415 0.766801 0
M  V30 8295 C 798.459 3.10881 1.39878 0
M  V30 8296 H 799.652 2.97163 -0.404219 0
M  V30 8297 H 797.205 1.54324 -0.247774 0
M  V30 8298 H 797.94 2.45767 2.11587 0
M  V30 8299 H 797.725 3.80219 0.957924 0
M  V30 8300 H 799.215 3.69673 1.94247 0
M  V30 8301 N 799.652 0.226554 1.55963 0
M  V30 8302 C 800.892 -0.405574 2.00336 0
M  V30 8303 C 801.256 -1.56593 1.11097 0
M  V30 8304 O 802.457 -2.26441 1.44838 0
M  V30 8305 C 800.728 -0.82435 3.47763 0
M  V30 8306 S 802.287 -1.44988 4.14154 0
M  V30 8307 H 799.105 -0.128512 0.699289 0
M  V30 8308 H 801.707 0.337017 1.92573 0
M  V30 8309 H 800.411 0.0297636 4.10389 0
M  V30 8310 H 799.942 -1.59963 3.5941 0
M  V30 8311 H 801.957 -2.73897 4.13757 0
M  V30 8312 N 801.13 -1.57531 -0.0467866 0
M  V30 8313 C 802.077 -2.05387 -1.05285 0
M  V30 8314 C 803.047 -0.939385 -1.36985 0
M  V30 8315 O 804.232 -1.20877 -1.47626 0
M  V30 8316 C 801.372 -2.52343 -2.35408 0
M  V30 8317 C 800.485 -3.77512 -2.10022 0
M  V30 8318 C 799.62 -4.1315 -3.33887 0
M  V30 8319 C 798.659 -5.31286 -3.03976 0
M  V30 8320 N 797.796 -5.62441 -4.20243 0
M  V30 8321 H 802.636 -2.91095 -0.637788 0
M  V30 8322 H 800.173 -1.43939 -0.303322 0
M  V30 8323 H 802.131 -2.77628 -3.11413 0
M  V30 8324 H 800.761 -1.69577 -2.7467 0
M  V30 8325 H 799.813 -3.59417 -1.24594 0
M  V30 8326 H 801.125 -4.63644 -1.83945 0
M  V30 8327 H 800.279 -4.39469 -4.18273 0
M  V30 8328 H 799.018 -3.25634 -3.63062 0
M  V30 8329 H 798.023 -5.04738 -2.17991 0
M  V30 8330 H 799.248 -6.20441 -2.76098 0
M  V30 8331 H 797.194 -4.77885 -4.49402 0
M  V30 8332 H 797.111 -6.43046 -3.97528 0
M  V30 8333 H 798.379 -5.93327 -5.05553 0
M  V30 8334 N 802.608 0.318715 -1.54344 0
M  V30 8335 C 803.854 1.05765 -1.73037 0
M  V30 8336 C 804.187 1.87514 -0.505181 0
M  V30 8337 O 803.462 1.88021 0.497838 0
M  V30 8338 C 803.745 1.97836 -3.00887 0
M  V30 8339 C 803.598 1.19384 -4.33668 0
M  V30 8340 C 804.917 2.97285 -3.24514 0
M  V30 8341 H 802.036 0.383104 -0.629603 0
M  V30 8342 H 804.678 0.333864 -1.87044 0
M  V30 8343 H 802.828 2.59552 -2.89076 0
M  V30 8344 H 804.5 0.600906 -4.57369 0
M  V30 8345 H 802.743 0.496198 -4.30953 0
M  V30 8346 H 803.414 1.87014 -5.19355 0
M  V30 8347 H 805.89 2.45693 -3.35819 0
M  V30 8348 H 804.766 3.58887 -4.15321 0
M  V30 8349 H 805.027 3.70003 -2.41971 0
M  V30 8350 N 804.086 1.46499 0.581025 0
M  V30 8351 C 805.034 1.57562 1.71105 0
M  V30 8352 C 806.028 0.44403 1.63477 0
M  V30 8353 O 807.234 0.620964 1.6895 0
M  V30 8354 H 803.609 0.495415 0.565746 0
M  V30 8355 H 805.58 2.5257 1.58905 0
M  V30 8356 C 804.329 1.58465 3.0949 0
M  V30 8357 H 803.652 2.44877 3.16031 0
M  V30 8358 H 805.092 1.70261 3.88313 0
M  V30 8359 C 803.551 0.313596 3.35437 0
M  V30 8360 O 804.081 -0.595456 3.97262 0
M  V30 8361 N 802.287 0.200986 2.89904 0
M  V30 8362 H 801.834 0.941643 2.39773 0
M  V30 8363 H 801.792 -0.648577 3.07638 0
M  V30 8364 N 805.565 -0.825799 1.34232 0
M  V30 8365 C 806.976 -1.39835 1.23706 0
M  V30 8366 C 807.327 -1.95709 -0.138649 0
M  V30 8367 O 806.452 -1.89833 -1.03886 0
M  V30 8368 C 807.047 -2.54203 2.23978 0
M  V30 8369 C 805.606 -3.07374 2.17251 0
M  V30 8370 C 804.753 -1.80232 2.10741 0
M  V30 8371 H 807.704 -0.630442 1.4564 0
M  V30 8372 H 807.725 -3.32214 1.8551 0
M  V30 8373 H 807.237 -2.13506 3.24094 0
M  V30 8374 H 805.338 -3.52583 1.20483 0
M  V30 8375 H 805.451 -3.6666 3.08379 0
M  V30 8376 H 803.815 -2.01012 1.56417 0
M  V30 8377 H 804.598 -1.41713 3.12686 0
M  V30 8378 N 807.043 -1.17915 -1.04565 0
M  V30 8379 C 808.29 -0.971424 -1.77678 0
M  V30 8380 C 808.618 0.499401 -1.87979 0
M  V30 8381 O 807.873 1.38695 -1.38066 0
M  V30 8382 C 808.172 -1.56528 -3.213 0
M  V30 8383 C 807.838 -3.06138 -3.31044 0
M  V30 8384 C 806.5 -3.46974 -3.33411 0
M  V30 8385 C 808.852 -4.02151 -3.31548 0
M  V30 8386 C 806.18 -4.82406 -3.33918 0
M  V30 8387 C 808.532 -5.37492 -3.33595 0
M  V30 8388 C 807.196 -5.77782 -3.34251 0
M  V30 8389 H 806.466 -0.355469 -0.650171 0
M  V30 8390 H 809.113 -1.46902 -1.22849 0
M  V30 8391 H 807.418 -0.98955 -3.79098 0
M  V30 8392 H 809.115 -1.38003 -3.76505 0
M  V30 8393 H 805.705 -2.73589 -3.29919 0
M  V30 8394 H 809.889 -3.71656 -3.28916 0
M  V30 8395 H 805.145 -5.12927 -3.3274 0
M  V30 8396 H 809.319 -6.1166 -3.32934 0
M  V30 8397 H 806.946 -6.82702 -3.34397 0
M  V30 8398 N 808.521 1.23394 -0.980386 0
M  V30 8399 C 809.484 2.23092 -0.525619 0
M  V30 8400 C 810.484 1.56129 0.384745 0
M  V30 8401 O 811.674 1.73284 0.178439 0
M  V30 8402 C 808.806 3.40074 0.23712 0
M  V30 8403 H 809.999 2.64839 -1.40714 0
M  V30 8404 H 807.552 1.36227 -0.766275 0
M  V30 8405 H 808.287 3.03783 1.13518 0
M  V30 8406 H 808.072 3.89883 -0.416356 0
M  V30 8407 H 809.562 4.14043 0.543892 0
M  V30 8408 N 809.999 0.752036 1.385 0
M  V30 8409 C 810.946 0.123288 2.3047 0
M  V30 8410 C 811.916 -0.711326 1.50098 0
M  V30 8411 O 813.101 -0.667775 1.78733 0
M  V30 8412 C 810.241 -0.765085 3.36512 0
M  V30 8413 C 809.354 0.0839885 4.31918 0
M  V30 8414 C 808.489 -0.807243 5.25031 0
M  V30 8415 C 807.528 0.0455583 6.12083 0
M  V30 8416 N 806.665 -0.802547 6.97498 0
M  V30 8417 H 811.505 0.913169 2.83664 0
M  V30 8418 H 809.042 0.46195 1.39658 0
M  V30 8419 H 811 -1.29476 3.966 0
M  V30 8420 H 809.63 -1.52077 2.84732 0
M  V30 8421 H 808.682 0.731276 3.73305 0
M  V30 8422 H 809.994 0.74265 4.9324 0
M  V30 8423 H 809.148 -1.40414 5.90228 0
M  V30 8424 H 807.887 -1.49964 4.64071 0
M  V30 8425 H 806.892 0.655137 5.45883 0
M  V30 8426 H 808.117 0.734994 6.75111 0
M  V30 8427 H 806.063 -1.47992 6.39089 0
M  V30 8428 H 805.98 -0.200747 7.55733 0
M  V30 8429 H 807.248 -1.38447 7.67107 0
M  V30 8430 N 811.477 -1.49425 0.500989 0
M  V30 8431 C 812.754 -1.9531 -0.106551 0
M  V30 8432 C 813.134 -1.44248 -1.54129 0
M  V30 8433 O 812.482 -0.656237 -2.18874 0
M  V30 8434 C 812.692 -3.48995 -0.0191972 0
M  V30 8435 C 814.04 -4.24161 -0.193129 0
M  V30 8436 O 815.064 -3.56075 -0.0943843 0
M  V30 8437 O 813.923 -5.45064 -0.395869 0
M  V30 8438 H 811.017 -0.82149 -0.0953068 0
M  V30 8439 H 813.563 -1.6007 0.563526 0
M  V30 8440 H 812.335 -3.78794 0.981353 0
M  V30 8441 H 811.958 -3.90852 -0.72942 0
M  V30 8442 N 812.955 -0.234822 -1.55841 0
M  V30 8443 C 814.371 0.120295 -1.59146 0
M  V30 8444 C 814.571 1.57896 -1.25184 0
M  V30 8445 O 813.627 2.32138 -0.993393 0
M  V30 8446 C 814.94 -0.217984 -2.99909 0
M  V30 8447 C 816.488 -0.161298 -3.12584 0
M  V30 8448 C 816.963 -0.473438 -4.55546 0
M  V30 8449 N 818.454 -0.423494 -4.6126 0
M  V30 8450 C 819.189 -0.638334 -5.69836 0
M  V30 8451 N 818.685 -0.915659 -6.86722 0
M  V30 8452 N 820.478 -0.569864 -5.59204 0
M  V30 8453 H 812.629 -1.18622 -1.76189 0
M  V30 8454 H 814.892 -0.476426 -0.819587 0
M  V30 8455 H 814.598 -1.2309 -3.29457 0
M  V30 8456 H 814.472 0.460707 -3.74376 0
M  V30 8457 H 816.859 0.842274 -2.82825 0
M  V30 8458 H 816.94 -0.873661 -2.40418 0
M  V30 8459 H 816.584 -1.47451 -4.86025 0
M  V30 8460 H 816.514 0.260268 -5.25956 0
M  V30 8461 H 819.005 -0.217383 -3.77274 0
M  V30 8462 H 819.318 -1.06734 -7.65394 0
M  V30 8463 H 817.663 -0.953 -6.88435 0
M  V30 8464 H 820.854 -0.35334 -4.66765 0
M  V30 8465 H 821.027 -0.740698 -6.43753 0
M  V30 8466 N 814.433 1.57553 0.0384317 0
M  V30 8467 C 815.679 1.89973 0.726772 0
M  V30 8468 C 816.034 0.832381 1.73462 0
M  V30 8469 O 815.327 -0.159975 1.90931 0
M  V30 8470 C 815.521 3.26862 1.44554 0
M  V30 8471 C 815.35 4.46812 0.508814 0
M  V30 8472 C 814.12 5.05124 0.133323 0
M  V30 8473 C 816.318 5.13876 -0.20881 0
M  V30 8474 N 814.3 6.08591 -0.805636 0
M  V30 8475 C 815.671 6.11821 -1.00376 0
M  V30 8476 C 817.726 4.9713 -0.276749 0
M  V30 8477 C 816.429 6.94825 -1.86038 0
M  V30 8478 C 818.455 5.80689 -1.12047 0
M  V30 8479 C 817.817 6.78197 -1.90337 0
M  V30 8480 H 813.916 0.744153 0.240334 0
M  V30 8481 H 816.5 1.94696 -0.0128735 0
M  V30 8482 H 814.671 3.23085 2.1557 0
M  V30 8483 H 816.403 3.46826 2.08552 0
M  V30 8484 H 813.158 4.71022 0.493484 0
M  V30 8485 H 813.582 6.64994 -1.26935 0
M  V30 8486 H 818.224 4.21631 0.314222 0
M  V30 8487 H 815.942 7.69676 -2.46219 0
M  V30 8488 H 819.528 5.69782 -1.17645 0
M  V30 8489 H 818.408 7.41731 -2.54569 0
M  V30 8490 N 815.911 -0.310526 1.54511 0
M  V30 8491 C 817.159 -1.04484 1.72996 0
M  V30 8492 C 817.48 -1.88118 0.513479 0
M  V30 8493 O 816.75 -1.90119 -0.472384 0
M  V30 8494 H 815.33 -0.388747 0.637875 0
M  V30 8495 H 817.992 -0.343811 1.91844 0
M  V30 8496 H 817.088 -1.70341 2.61515 0
M  V30 8497 N 817.389 -1.46805 -0.573248 0
M  V30 8498 C 818.337 -1.58468 -1.70267 0
M  V30 8499 C 819.331 -0.452694 -1.63239 0
M  V30 8500 O 820.537 -0.629915 -1.68618 0
M  V30 8501 H 816.912 -0.498408 -0.56311 0
M  V30 8502 H 818.883 -2.5341 -1.57563 0
M  V30 8503 C 817.632 -1.60104 -3.08645 0
M  V30 8504 H 816.955 -2.4655 -3.14727 0
M  V30 8505 H 818.395 -1.72318 -3.87405 0
M  V30 8506 C 816.854 -0.33138 -3.35266 0
M  V30 8507 O 817.384 0.57438 -3.97572 0
M  V30 8508 N 815.59 -0.216358 -2.89793 0
M  V30 8509 H 815.137 -0.954345 -2.3927 0
M  V30 8510 H 815.095 0.632253 -3.07977 0
M  V30 8511 N 818.867 0.818669 -1.34668 0
M  V30 8512 C 820.116 1.57017 -1.26604 0
M  V30 8513 C 820.429 1.94936 0.161036 0
M  V30 8514 O 821.635 2.69051 0.36386 0
M  V30 8515 C 820.091 2.83305 -2.2196 0
M  V30 8516 C 819.699 2.52671 -3.69948 0
M  V30 8517 C 821.443 3.61324 -2.22813 0
M  V30 8518 C 819.35 3.75178 -4.5716 0
M  V30 8519 H 818.28 0.589323 -0.470335 0
M  V30 8520 H 820.931 0.900956 -1.59859 0
M  V30 8521 H 819.313 3.51874 -1.81661 0
M  V30 8522 H 820.487 1.92186 -4.18809 0
M  V30 8523 H 818.802 1.8792 -3.71584 0
M  V30 8524 H 821.399 4.52294 -2.85192 0
M  V30 8525 H 821.742 3.97759 -1.22857 0
M  V30 8526 H 822.275 2.99703 -2.61578 0
M  V30 8527 H 819.014 3.43861 -5.58068 0
M  V30 8528 H 818.534 4.34931 -4.13031 0
M  V30 8529 H 820.213 4.42542 -4.71981 0
M  V30 8530 N 820.346 1.18468 1.03938 0
M  V30 8531 C 821.757 0.984808 1.58614 0
M  V30 8532 C 822.108 -0.465165 1.90606 0
M  V30 8533 O 821.233 -1.34274 1.69704 0
M  V30 8534 C 821.828 1.78135 2.8819 0
M  V30 8535 C 820.387 1.62579 3.39478 0
M  V30 8536 C 819.534 1.77501 2.13046 0
M  V30 8537 H 822.485 1.32993 0.865944 0
M  V30 8538 H 822.506 1.27119 3.58638 0
M  V30 8539 H 822.018 2.83661 2.64874 0
M  V30 8540 H 820.119 0.59595 3.67803 0
M  V30 8541 H 820.232 2.42463 4.13217 0
M  V30 8542 H 818.596 1.2046 2.24414 0
M  V30 8543 H 819.379 2.84464 1.92185 0
M  V30 8544 N 821.824 -1.22873 0.986916 0
M  V30 8545 C 822.754 -2.2688 0.552064 0
M  V30 8546 C 823.735 -1.64883 -0.418048 0
M  V30 8547 O 824.92 -1.9171 -0.30999 0
M  V30 8548 C 822.05 -3.47018 -0.139959 0
M  V30 8549 C 821.004 -4.21411 0.748091 0
M  V30 8550 C 820.33 -5.34645 -0.0765132 0
M  V30 8551 C 821.63 -4.80726 2.04206 0
M  V30 8552 H 823.324 -2.63507 1.42143 0
M  V30 8553 H 820.87 -1.26668 0.68492 0
M  V30 8554 H 822.823 -4.18931 -0.455527 0
M  V30 8555 H 821.547 -3.0947 -1.04382 0
M  V30 8556 H 820.206 -3.51325 1.04721 0
M  V30 8557 H 819.854 -4.93339 -0.981109 0
M  V30 8558 H 819.554 -5.85342 0.514606 0
M  V30 8559 H 821.078 -6.09377 -0.386313 0
M  V30 8560 H 822.492 -5.44612 1.79083 0
M  V30 8561 H 820.889 -5.41737 2.5815 0
M  V30 8562 H 821.959 -4.01109 2.72469 0
M  V30 8563 N 823.302 -0.75937 -1.38099 0
M  V30 8564 C 824.579 -0.243371 -1.9408 0
M  V30 8565 C 824.959 1.25942 -1.69416 0
M  V30 8566 O 824.307 2.03667 -1.03595 0
M  V30 8567 C 824.517 -0.603328 -3.43745 0
M  V30 8568 C 825.865 -0.566195 -4.20808 0
M  V30 8569 O 826.889 -0.541969 -3.52053 0
M  V30 8570 O 825.748 -0.582261 -5.43389 0
M  V30 8571 H 822.842 -0.0526825 -0.82532 0
M  V30 8572 H 825.388 -0.839884 -1.47459 0
M  V30 8573 H 824.16 -1.64098 -3.55229 0
M  V30 8574 H 823.783 0.0208887 -3.97595 0
M  V30 8575 N 824.78 1.49157 -0.508906 0
M  V30 8576 C 826.057 1.95363 0.0961913 0
M  V30 8577 C 826.437 1.45064 1.53362 0
M  V30 8578 O 825.785 0.667835 2.18523 0
M  V30 8579 C 825.995 3.49 0.000688881 0
M  V30 8580 C 827.343 4.24257 0.170632 0
M  V30 8581 O 828.367 3.5612 0.0754994 0
M  V30 8582 O 827.226 5.45267 0.366957 0
M  V30 8583 H 824.32 0.821984 0.0909489 0
M  V30 8584 H 826.866 1.59769 -0.572007 0
M  V30 8585 H 825.638 3.78269 -1.00143 0
M  V30 8586 H 825.261 3.91233 0.708682 0
M  V30 8587 N 826.258 0.243083 1.55714 0
M  V30 8588 C 827.221 -0.644723 2.19945 0
M  V30 8589 C 828.221 -1.10562 1.16759 0
M  V30 8590 O 829.411 -1.01095 1.41865 0
M  V30 8591 C 826.543 -1.88569 2.83997 0
M  V30 8592 H 827.736 -0.0843839 2.99781 0
M  V30 8593 H 825.289 -0.00647246 1.56299 0
M  V30 8594 H 826.024 -2.48736 2.08089 0
M  V30 8595 H 825.809 -1.56345 3.59581 0
M  V30 8596 H 827.299 -2.51774 3.33166 0
M  V30 8597 N 827.736 -1.57571 -0.0300757 0
M  V30 8598 C 828.982 -1.89506 -0.722159 0
M  V30 8599 C 829.315 -0.840699 -1.7506 0
M  V30 8600 O 828.59 0.144358 -1.93964 0
M  V30 8601 C 828.873 -3.32081 -1.39262 0
M  V30 8602 C 828.726 -4.48211 -0.377768 0
M  V30 8603 C 830.045 -3.73557 -2.32687 0
M  V30 8604 H 827.164 -0.689213 -0.261064 0
M  V30 8605 H 829.806 -1.89994 0.0150388 0
M  V30 8606 H 827.956 -3.31796 -2.02098 0
M  V30 8607 H 829.628 -4.6063 0.248591 0
M  V30 8608 H 827.871 -4.3274 0.303045 0
M  V30 8609 H 828.542 -5.44854 -0.885347 0
M  V30 8610 H 831.018 -3.75202 -1.79896 0
M  V30 8611 H 829.894 -4.74125 -2.7658 0
M  V30 8612 H 830.155 -3.05759 -3.19317 0
M  V30 8613 N 829.214 0.302327 -1.54673 0
M  V30 8614 C 830.146 1.39443 -1.81902 0
M  V30 8615 C 831.159 1.46891 -0.701914 0
M  V30 8616 O 832.348 1.49233 -0.979369 0
M  V30 8617 C 829.448 2.77824 -1.9408 0
M  V30 8618 C 828.621 2.93324 -3.24468 0
M  V30 8619 C 827.68 4.12196 -3.27079 0
M  V30 8620 O 826.706 4.04344 -4.00617 0
M  V30 8621 N 827.908 5.22768 -2.52376 0
M  V30 8622 H 830.673 1.1644 -2.76155 0
M  V30 8623 H 828.234 0.492392 -1.54231 0
M  V30 8624 H 830.226 3.5559 -1.9323 0
M  V30 8625 H 828.796 2.9378 -1.06828 0
M  V30 8626 H 828.016 2.02682 -3.38103 0
M  V30 8627 H 829.304 3.0059 -4.10516 0
M  V30 8628 H 828.702 5.32027 -1.92259 0
M  V30 8629 H 827.259 5.98874 -2.57281 0
M  V30 8630 N 830.692 1.47107 0.565454 0
M  V30 8631 C 831.939 1.53308 1.32299 0
M  V30 8632 C 832.267 0.1919 1.93551 0
M  V30 8633 O 831.522 -0.81435 1.77952 0
M  V30 8634 C 831.821 2.59309 2.45954 0
M  V30 8635 C 831.487 4.02827 2.02586 0
M  V30 8636 C 830.149 4.41897 1.90474 0
M  V30 8637 C 832.501 4.92913 1.6937 0
M  V30 8638 C 829.829 5.68898 1.4343 0
M  V30 8639 C 832.181 6.20368 1.238 0
M  V30 8640 C 830.845 6.58327 1.10278 0
M  V30 8641 H 830.115 0.560993 0.484116 0
M  V30 8642 H 832.762 1.80667 0.634965 0
M  V30 8643 H 831.067 2.25676 3.20277 0
M  V30 8644 H 832.764 2.61332 3.04149 0
M  V30 8645 H 829.354 3.71953 2.12952 0
M  V30 8646 H 833.538 4.63433 1.77605 0
M  V30 8647 H 828.794 5.97065 1.31618 0
M  V30 8648 H 832.968 6.89589 0.971586 0
M  V30 8649 H 830.595 7.56628 0.736027 0
M  V30 8650 N 832.17 -0.811516 1.35101 0
M  V30 8651 C 833.118 -1.94449 1.27642 0
M  V30 8652 C 834.112 -1.68522 0.172287 0
M  V30 8653 O 835.318 -1.76799 0.337967 0
M  V30 8654 H 831.693 -0.638776 0.396824 0
M  V30 8655 H 833.664 -1.97861 2.23369 0
M  V30 8656 C 832.413 -3.31139 1.06029 0
M  V30 8657 H 831.736 -3.51644 1.90227 0
M  V30 8658 H 833.176 -4.10831 1.0485 0
M  V30 8659 C 831.635 -3.36072 -0.236039 0
M  V30 8660 O 832.165 -3.82292 -1.23353 0
M  V30 8661 N 830.371 -2.89314 -0.273107 0
M  V30 8662 H 829.918 -2.51893 0.539211 0
M  V30 8663 H 829.876 -2.92996 -1.1402 0
M  V30 8664 N 833.648 -1.19017 -1.03309 0
M  V30 8665 C 834.598 -0.89194 -2.0983 0
M  V30 8666 C 835.582 0.14151 -1.60277 0
M  V30 8667 O 836.774 -0.0635946 -1.76886 0
M  V30 8668 C 833.903 -0.427793 -3.40624 0
M  V30 8669 C 832.989 -1.49374 -3.96923 0
M  V30 8670 N 833.38 -2.71213 -4.26939 0
M  V30 8671 C 831.678 -1.35605 -4.24885 0
M  V30 8672 C 832.379 -3.39849 -4.72099 0
M  V30 8673 N 831.355 -2.67239 -4.73375 0
M  V30 8674 H 835.157 -1.81801 -2.30923 0
M  V30 8675 H 832.671 -1.08171 -1.21131 0
M  V30 8676 H 834.668 -0.195608 -4.16441 0
M  V30 8677 H 833.328 0.491848 -3.20953 0
M  V30 8678 H 834.339 -3.08014 -4.16351 0
M  V30 8679 H 831.016 -0.499537 -4.14501 0
M  V30 8680 H 832.406 -4.44018 -5.04279 0
M  V30 8681 N 835.127 1.22348 -0.993418 0
M  V30 8682 C 836.057 2.26584 -0.564088 0
M  V30 8683 C 837.038 1.65102 0.409298 0
M  V30 8684 O 838.223 1.91872 0.299819 0
M  V30 8685 C 835.353 3.47087 0.121554 0
M  V30 8686 C 834.307 4.21009 -0.770429 0
M  V30 8687 C 833.633 5.34678 0.0481586 0
M  V30 8688 C 834.933 4.79636 -2.06752 0
M  V30 8689 H 836.627 2.62749 -1.43538 0
M  V30 8690 H 834.173 1.26303 -0.691628 0
M  V30 8691 H 836.126 4.19166 0.433303 0
M  V30 8692 H 834.85 3.1002 1.0274 0
M  V30 8693 H 833.509 3.50764 -1.06583 0
M  V30 8694 H 833.157 4.93852 0.954933 0
M  V30 8695 H 832.857 5.85061 -0.545641 0
M  V30 8696 H 834.381 6.09573 0.353991 0
M  V30 8697 H 835.795 5.43654 -1.81969 0
M  V30 8698 H 834.192 5.4036 -2.61019 0
M  V30 8699 H 835.262 3.99659 -2.74592 0
M  V30 8700 N 836.605 0.766683 1.37694 0
M  V30 8701 C 837.515 0.150158 2.34119 0
M  V30 8702 C 838.531 -0.685513 1.59927 0
M  V30 8703 O 839.707 -0.606616 1.92047 0
M  V30 8704 C 836.772 -0.722562 3.39087 0
M  V30 8705 C 835.833 0.128983 4.29106 0
M  V30 8706 C 835.066 -0.702178 5.29061 0
M  V30 8707 O 835.289 -1.93954 5.36412 0
M  V30 8708 O 834.223 -0.114056 6.01792 0
M  V30 8709 H 838.049 0.946829 2.88563 0
M  V30 8710 H 835.634 0.527765 1.39768 0
M  V30 8711 H 837.516 -1.22095 4.03325 0
M  V30 8712 H 836.191 -1.49751 2.86978 0
M  V30 8713 H 835.098 0.673612 3.67985 0
M  V30 8714 H 836.431 0.866892 4.84506 0
M  V30 8715 N 838.083 -1.48885 0.516809 0
M  V30 8716 C 839.329 -2.02788 -0.0220928 0
M  V30 8717 C 839.662 -1.39433 -1.35175 0
M  V30 8718 O 838.937 -0.535459 -1.86984 0
M  V30 8719 C 839.22 -3.59753 -0.158012 0
M  V30 8720 C 839.073 -4.33611 1.19588 0
M  V30 8721 C 840.392 -4.30984 -0.891133 0
M  V30 8722 H 837.511 -0.736971 -0.00655488 0
M  V30 8723 H 840.153 -1.77746 0.671287 0
M  V30 8724 H 838.303 -3.8122 -0.748568 0
M  V30 8725 H 839.975 -4.23598 1.82653 0
M  V30 8726 H 838.218 -3.95547 1.78116 0
M  V30 8727 H 838.889 -5.41846 1.05391 0
M  V30 8728 H 841.365 -4.14267 -0.39012 0
M  V30 8729 H 840.241 -5.40527 -0.955107 0
M  V30 8730 H 840.502 -3.97336 -1.93847 0
M  V30 8731 N 839.561 -0.251338 -1.55583 0
M  V30 8732 C 840.807 0.37272 -1.99346 0
M  V30 8733 C 841.14 1.57266 -1.13934 0
M  V30 8734 O 840.415 1.9343 -0.20377 0
M  V30 8735 C 840.698 0.778245 -3.5159 0
M  V30 8736 C 840.551 -0.427394 -4.47765 0
M  V30 8737 C 841.87 1.62358 -4.09057 0
M  V30 8738 H 838.989 0.134002 -0.724715 0
M  V30 8739 H 841.631 -0.353536 -1.86682 0
M  V30 8740 H 839.781 1.39704 -3.62512 0
M  V30 8741 H 841.453 -1.06586 -4.48818 0
M  V30 8742 H 839.696 -1.06972 -4.20404 0
M  V30 8743 H 840.367 -0.10025 -5.51909 0
M  V30 8744 H 842.843 1.1012 -4.01264 0
M  V30 8745 H 841.719 1.87617 -5.1584 0
M  V30 8746 H 841.98 2.59688 -3.57791 0
M  V30 8747 N 841.039 1.57585 0.0217189 0
M  V30 8748 C 841.986 2.07036 1.02004 0
M  V30 8749 C 842.956 0.96106 1.35473 0
M  V30 8750 O 844.141 1.23211 1.45684 0
M  V30 8751 C 841.281 2.56056 2.31364 0
M  V30 8752 C 840.394 3.80805 2.03989 0
M  V30 8753 C 839.529 4.18409 3.27272 0
M  V30 8754 C 838.568 5.36055 2.95486 0
M  V30 8755 N 837.705 5.69056 4.11242 0
M  V30 8756 H 842.545 2.92073 0.591396 0
M  V30 8757 H 840.082 1.44403 0.280384 0
M  V30 8758 H 842.04 2.82548 3.06957 0
M  V30 8759 H 840.67 1.73925 2.71937 0
M  V30 8760 H 839.722 3.61354 1.1886 0
M  V30 8761 H 841.034 4.66512 1.76546 0
M  V30 8762 H 840.188 4.46068 4.11228 0
M  V30 8763 H 838.927 3.31369 3.57835 0
M  V30 8764 H 837.932 5.08142 2.09933 0
M  V30 8765 H 839.157 6.24755 2.66193 0
M  V30 8766 H 837.103 4.84974 4.41742 0
M  V30 8767 H 837.02 6.49288 3.87247 0
M  V30 8768 H 838.288 6.01295 4.96049 0
M  V30 8769 N 842.517 -0.29412 1.54831 0
M  V30 8770 C 843.447 -1.36757 1.89261 0
M  V30 8771 C 844.428 -1.52564 0.752214 0
M  V30 8772 O 845.613 -1.65958 1.00855 0
M  V30 8773 C 842.743 -2.73066 2.14597 0
M  V30 8774 C 841.697 -2.72017 3.3044 0
M  V30 8775 C 841.023 -4.11679 3.4121 0
M  V30 8776 C 842.323 -2.33149 4.67375 0
M  V30 8777 H 844.017 -1.08191 2.79169 0
M  V30 8778 H 841.563 -0.519014 1.34321 0
M  V30 8779 H 843.516 -3.48255 2.37269 0
M  V30 8780 H 842.24 -3.03172 1.21467 0
M  V30 8781 H 840.899 -1.99285 3.07703 0
M  V30 8782 H 840.547 -4.38973 2.45584 0
M  V30 8783 H 840.247 -4.11877 4.19084 0
M  V30 8784 H 841.771 -4.88637 3.6615 0
M  V30 8785 H 843.185 -2.98054 4.89731 0
M  V30 8786 H 841.582 -2.44546 5.48012 0
M  V30 8787 H 842.652 -1.28275 4.67626 0
M  V30 8788 N 843.995 -1.47404 -0.557645 0
M  V30 8789 C 844.925 -1.62736 -1.67449 0
M  V30 8790 C 845.906 -0.476824 -1.6328 0
M  V30 8791 O 847.091 -0.706108 -1.80908 0
M  V30 8792 C 844.221 -1.641 -3.06086 0
M  V30 8793 C 843.175 -2.78377 -3.25101 0
M  V30 8794 C 842.501 -2.64812 -4.6452 0
M  V30 8795 C 843.801 -4.19971 -3.10518 0
M  V30 8796 H 845.495 -2.56232 -1.54873 0
M  V30 8797 H 843.041 -1.23312 -0.743649 0
M  V30 8798 H 844.994 -1.73417 -3.84063 0
M  V30 8799 H 843.718 -0.671652 -3.19619 0
M  V30 8800 H 842.377 -2.6857 -2.49531 0
M  V30 8801 H 842.025 -1.65906 -4.74852 0
M  V30 8802 H 841.725 -3.41477 -4.78191 0
M  V30 8803 H 843.249 -2.76057 -5.44633 0
M  V30 8804 H 844.663 -4.30757 -3.78313 0
M  V30 8805 H 843.06 -4.97419 -3.35699 0
M  V30 8806 H 844.13 -4.38369 -2.0727 0
M  V30 8807 N 845.473 0.80434 -1.35529 0
M  V30 8808 C 846.405 1.92445 -1.2449 0
M  V30 8809 C 847.418 1.61934 -0.167685 0
M  V30 8810 O 848.607 1.73461 -0.42115 0
M  V30 8811 C 845.707 3.26875 -0.894751 0
M  V30 8812 C 844.88 3.85275 -2.07079 0
M  V30 8813 C 843.939 4.98116 -1.69607 0
M  V30 8814 O 842.965 5.15424 -2.41509 0
M  V30 8815 N 844.167 5.77169 -0.621012 0
M  V30 8816 H 846.932 2.02441 -2.20993 0
M  V30 8817 H 844.493 0.981874 -1.28728 0
M  V30 8818 H 846.485 3.99837 -0.625511 0
M  V30 8819 H 845.055 3.12594 -0.0193306 0
M  V30 8820 H 844.275 3.0448 -2.5037 0
M  V30 8821 H 845.563 4.21024 -2.85685 0
M  V30 8822 H 844.961 5.65695 -0.0236679 0
M  V30 8823 H 843.518 6.50499 -0.411558 0
M  V30 8824 N 846.951 1.19563 1.02676 0
M  V30 8825 C 848.228 0.908857 1.73203 0
M  V30 8826 C 848.608 -0.584928 2.02834 0
M  V30 8827 O 847.956 -1.54372 1.68469 0
M  V30 8828 C 848.166 1.77105 3.00724 0
M  V30 8829 C 849.514 2.00667 3.7419 0
M  V30 8830 O 850.538 1.74274 3.10656 0
M  V30 8831 O 849.397 2.4518 4.88415 0
M  V30 8832 H 846.491 0.338909 0.754367 0
M  V30 8833 H 849.037 1.30387 1.08616 0
M  V30 8834 H 847.809 2.78303 2.7507 0
M  V30 8835 H 847.432 1.37546 3.73051 0
M  V30 8836 N 848.429 -1.21819 0.999893 0
M  V30 8837 C 849.659 -1.94475 0.697346 0
M  V30 8838 C 850.067 -1.73991 -0.743228 0
M  V30 8839 O 849.41 -1.04042 -1.51397 0
M  V30 8840 C 849.472 -3.47204 0.932181 0
M  V30 8841 C 849.136 -3.91432 2.3586 0
M  V30 8842 C 850.133 -3.98545 3.33853 0
M  V30 8843 C 847.818 -4.23888 2.69489 0
M  V30 8844 C 849.812 -4.37499 4.63545 0
M  V30 8845 C 847.499 -4.62519 3.99399 0
M  V30 8846 C 848.497 -4.69294 4.96238 0
M  V30 8847 O 848.185 -5.07048 6.23825 0
M  V30 8848 H 847.917 -0.625419 0.256567 0
M  V30 8849 H 850.471 -1.55728 1.33933 0
M  V30 8850 H 848.701 -3.85997 0.233025 0
M  V30 8851 H 850.39 -4.01078 0.623807 0
M  V30 8852 H 851.156 -3.73654 3.09205 0
M  V30 8853 H 847.035 -4.17815 1.94812 0
M  V30 8854 H 850.579 -4.42702 5.3913 0
M  V30 8855 H 846.476 -4.86864 4.23833 0
M  V30 8856 H 847.244 -5.25098 6.27865 0
M  V30 8857 N 849.908 -0.773975 -1.37286 0
M  V30 8858 C 850.84 -0.119938 -2.28886 0
M  V30 8859 C 851.853 0.661822 -1.48741 0
M  V30 8860 O 853.042 0.499548 -1.71367 0
M  V30 8861 C 850.142 0.853703 -3.27971 0
M  V30 8862 C 849.315 0.125286 -4.37221 0
M  V30 8863 C 848.374 1.01261 -5.16365 0
M  V30 8864 O 847.4 0.475565 -5.6721 0
M  V30 8865 N 848.602 2.33864 -5.31308 0
M  V30 8866 H 851.367 -0.906702 -2.85655 0
M  V30 8867 H 848.928 -0.626519 -1.49286 0
M  V30 8868 H 850.92 1.4508 -3.77801 0
M  V30 8869 H 849.49 1.54142 -2.71954 0
M  V30 8870 H 848.71 -0.652742 -3.88758 0
M  V30 8871 H 849.998 -0.377959 -5.07394 0
M  V30 8872 H 849.396 2.79929 -4.91585 0
M  V30 8873 H 847.953 2.88575 -5.84438 0
M  V30 8874 N 851.386 1.48609 -0.524698 0
M  V30 8875 C 852.663 1.95454 0.075465 0
M  V30 8876 C 853.043 1.46682 1.51814 0
M  V30 8877 O 852.391 0.690975 2.17802 0
M  V30 8878 C 852.601 3.48981 -0.0363273 0
M  V30 8879 C 853.949 4.24414 0.125624 0
M  V30 8880 O 854.973 3.5618 0.0377239 0
M  V30 8881 O 853.832 5.45625 0.309104 0
M  V30 8882 H 850.926 0.822902 0.0822256 0
M  V30 8883 H 853.472 1.59153 -0.588921 0
M  V30 8884 H 852.244 3.77185 -1.04149 0
M  V30 8885 H 851.867 3.91963 0.667146 0
M  V30 8886 N 852.864 0.259585 1.55447 0
M  V30 8887 C 854.089 -0.368317 2.04103 0
M  V30 8888 C 854.514 -1.49827 1.13725 0
M  V30 8889 O 853.872 -1.80814 0.132705 0
M  V30 8890 C 853.92 -0.841506 3.50644 0
M  V30 8891 O 853.024 -1.95008 3.63381 0
M  V30 8892 H 852.365 -0.0785227 0.659341 0
M  V30 8893 H 854.895 0.389349 2.00861 0
M  V30 8894 H 854.905 -1.14138 3.9171 0
M  V30 8895 H 853.58 -0.0147001 4.15897 0
M  V30 8896 H 852.157 -1.65393 3.34215 0
M  V30 8897 N 854.342 -1.57594 -0.0133615 0
M  V30 8898 C 855.572 -1.93969 -0.711295 0
M  V30 8899 C 855.98 -0.859084 -1.68572 0
M  V30 8900 O 855.323 0.171842 -1.82894 0
M  V30 8901 C 855.385 -3.2625 -1.51001 0
M  V30 8902 C 855.049 -4.51628 -0.698645 0
M  V30 8903 C 856.046 -5.19899 0.00791185 0
M  V30 8904 C 853.731 -4.98095 -0.648553 0
M  V30 8905 C 855.725 -6.32928 0.753691 0
M  V30 8906 C 853.412 -6.11017 0.10096 0
M  V30 8907 C 854.41 -6.78289 0.800828 0
M  V30 8908 O 854.098 -7.89048 1.53814 0
M  V30 8909 H 853.83 -0.6445 -0.203951 0
M  V30 8910 H 856.384 -2.05378 0.0298267 0
M  V30 8911 H 854.614 -3.11211 -2.29531 0
M  V30 8912 H 856.303 -3.47835 -2.09202 0
M  V30 8913 H 857.069 -4.84995 -0.0217192 0
M  V30 8914 H 852.948 -4.45568 -1.18282 0
M  V30 8915 H 856.492 -6.85371 1.3005 0
M  V30 8916 H 852.389 -6.45364 0.132459 0
M  V30 8917 H 853.157 -8.05492 1.45345 0
M  V30 8918 N 855.82 0.285905 -1.54985 0
M  V30 8919 C 857.048 1.03776 -1.78992 0
M  V30 8920 C 857.463 1.80402 -0.556814 0
M  V30 8921 O 856.82 1.76242 0.473801 0
M  V30 8922 C 856.871 2.0065 -3.00702 0
M  V30 8923 O 856.592 1.27131 -4.19249 0
M  V30 8924 C 858.093 2.87753 -3.37214 0
M  V30 8925 H 855.313 0.307126 -0.596586 0
M  V30 8926 H 857.857 0.3206 -2.01971 0
M  V30 8927 H 856.012 2.67847 -2.79887 0
M  V30 8928 H 856.426 1.92316 -4.8797 0
M  V30 8929 H 857.9 3.51548 -4.2558 0
M  V30 8930 H 858.377 3.56848 -2.56039 0
M  V30 8931 H 858.983 2.26065 -3.60242 0
M  V30 8932 N 857.298 1.47698 0.54982 0
M  V30 8933 C 858.228 1.63622 1.66583 0
M  V30 8934 C 859.209 0.485477 1.63025 0
M  V30 8935 O 860.394 0.715692 1.80531 0
M  V30 8936 C 857.524 1.65721 3.05211 0
M  V30 8937 C 856.478 2.80097 3.2362 0
M  V30 8938 C 855.804 2.67272 4.63109 0
M  V30 8939 C 857.104 4.21612 3.08286 0
M  V30 8940 H 858.798 2.57049 1.53512 0
M  V30 8941 H 856.344 1.23705 0.737099 0
M  V30 8942 H 858.297 1.75451 3.83138 0
M  V30 8943 H 857.021 0.688593 3.19258 0
M  V30 8944 H 855.68 2.69889 2.48104 0
M  V30 8945 H 855.328 1.68422 4.73965 0
M  V30 8946 H 855.028 3.44008 4.76374 0
M  V30 8947 H 856.552 2.78942 5.43161 0
M  V30 8948 H 857.966 4.32758 3.76024 0
M  V30 8949 H 856.363 4.99193 3.33057 0
M  V30 8950 H 857.433 4.39462 2.04942 0
M  V30 8951 N 858.776 -0.797141 1.35954 0
M  V30 8952 C 860.001 -1.59097 1.33053 0
M  V30 8953 C 860.426 -1.87897 -0.0874592 0
M  V30 8954 O 859.784 -1.47291 -1.05712 0
M  V30 8955 C 859.832 -2.89346 2.152 0
M  V30 8956 O 858.936 -3.826 1.5392 0
M  V30 8957 H 858.277 -0.482895 0.45575 0
M  V30 8958 H 860.807 -0.988633 1.79129 0
M  V30 8959 H 860.817 -3.38686 2.27499 0
M  V30 8960 H 859.492 -2.6771 3.18283 0
M  V30 8961 H 858.069 -3.41174 1.50516 0
M  V30 8962 N 860.254 -1.20106 -1.0204 0
M  V30 8963 C 861.164 -0.962051 -2.13967 0
M  V30 8964 C 862.18 0.0808053 -1.73812 0
M  V30 8965 O 863.356 -0.105774 -2.01122 0
M  V30 8966 C 860.421 -0.513108 -3.42882 0
M  V30 8967 C 859.482 -1.62636 -3.97301 0
M  V30 8968 C 858.715 -1.19875 -5.20063 0
M  V30 8969 O 858.938 -0.0658423 -5.70362 0
M  V30 8970 O 857.872 -2.00467 -5.67536 0
M  V30 8971 H 861.698 -1.8991 -2.36998 0
M  V30 8972 H 859.283 -0.984608 -1.12365 0
M  V30 8973 H 861.165 -0.271797 -4.20523 0
M  V30 8974 H 859.84 0.395402 -3.21276 0
M  V30 8975 H 858.747 -1.92192 -3.20957 0
M  V30 8976 H 860.08 -2.51174 -4.23288 0
M  V30 8977 N 861.732 1.21287 -1.00634 0
M  V30 8978 C 862.96 1.94385 -0.708678 0
M  V30 8979 C 863.375 1.7416 0.728957 0
M  V30 8980 O 862.732 1.04906 1.49335 0
M  V30 8981 C 862.783 3.46755 -1.02193 0
M  V30 8982 O 862.504 3.6631 -2.40309 0
M  V30 8983 C 864.005 4.37014 -0.743867 0
M  V30 8984 H 861.225 0.618136 -0.261052 0
M  V30 8985 H 863.769 1.54067 -1.34475 0
M  V30 8986 H 861.924 3.8499 -0.431441 0
M  V30 8987 H 862.338 4.60393 -2.51274 0
M  V30 8988 H 863.812 5.42621 -1.01321 0
M  V30 8989 H 864.289 4.38017 0.322084 0
M  V30 8990 H 864.895 4.04426 -1.31603 0
M  V30 8991 N 863.21 0.781244 1.36873 0
M  V30 8992 C 864.142 0.132075 2.28819 0
M  V30 8993 C 865.155 -0.653925 1.49089 0
M  V30 8994 O 866.344 -0.490453 1.7163 0
M  V30 8995 C 863.444 -0.836297 3.28419 0
M  V30 8996 C 862.617 -0.102097 4.37281 0
M  V30 8997 C 861.676 -0.985217 5.16894 0
M  V30 8998 O 860.702 -0.445478 5.67454 0
M  V30 8999 N 861.904 -2.31043 5.3254 0
M  V30 9000 H 864.669 0.921838 2.85171 0
M  V30 9001 H 862.23 0.634427 1.48952 0
M  V30 9002 H 864.222 -1.43074 3.78566 0
M  V30 9003 H 862.792 -1.52698 2.72767 0
M  V30 9004 H 862.012 0.67335 3.88407 0
M  V30 9005 H 863.3 0.404862 5.07187 0
M  V30 9006 H 862.698 -2.77318 4.93063 0
M  V30 9007 H 861.255 -2.85472 5.8596 0
M  V30 9008 N 864.689 -1.48329 0.532571 0
M  V30 9009 C 865.652 -2.2816 -0.218069 0
M  V30 9010 C 866.652 -1.35526 -0.865409 0
M  V30 9011 O 867.842 -1.58394 -0.725061 0
M  V30 9012 C 864.974 -3.1448 -1.31586 0
M  V30 9013 H 866.167 -2.95987 0.482865 0
M  V30 9014 H 863.72 -1.53612 0.288603 0
M  V30 9015 H 864.455 -2.5129 -2.04997 0
M  V30 9016 H 864.24 -3.82625 -0.856779 0
M  V30 9017 H 865.73 -3.74693 -1.84377 0
M  V30 9018 N 866.167 -0.267825 -1.55308 0
M  V30 9019 C 867.077 0.633055 -2.25897 0
M  V30 9020 C 868.093 1.17613 -1.28231 0
M  V30 9021 O 869.269 1.20797 -1.61153 0
M  V30 9022 C 866.334 1.80397 -2.96071 0
M  V30 9023 C 865.395 1.29829 -4.09198 0
M  V30 9024 C 864.628 2.4134 -4.76016 0
M  V30 9025 O 864.851 3.60537 -4.42006 0
M  V30 9026 O 863.785 2.09909 -5.64111 0
M  V30 9027 H 867.611 0.0614381 -3.03638 0
M  V30 9028 H 865.196 -0.0355072 -1.49358 0
M  V30 9029 H 867.078 2.48685 -3.40197 0
M  V30 9030 H 865.753 2.36281 -2.21253 0
M  V30 9031 H 864.66 0.582086 -3.69544 0
M  V30 9032 H 865.993 0.785288 -4.85895 0
M  V30 9033 N 867.645 1.57599 0.00500368 0
M  V30 9034 C 868.608 2.07058 0.982832 0
M  V30 9035 C 869.608 0.979045 1.27559 0
M  V30 9036 O 870.798 1.24187 1.22161 0
M  V30 9037 C 867.93 2.50782 2.30914 0
M  V30 9038 H 869.123 2.94718 0.555119 0
M  V30 9039 H 866.676 1.54249 0.25237 0
M  V30 9040 H 867.411 1.66351 2.78385 0
M  V30 9041 H 867.196 3.30495 2.10987 0
M  V30 9042 H 868.686 2.89391 3.0107 0
M  V30 9043 N 869.123 -0.277682 1.55134 0
M  V30 9044 C 870.086 -1.32635 1.86924 0
M  V30 9045 C 871.086 -1.42578 0.743507 0
M  V30 9046 O 872.276 -1.4181 1.01171 0
M  V30 9047 C 869.408 -2.70832 2.07034 0
M  V30 9048 H 870.601 -1.0568 2.80663 0
M  V30 9049 H 868.154 -0.515517 1.47554 0
M  V30 9050 H 868.889 -3.02974 1.15661 0
M  V30 9051 H 868.674 -2.65001 2.88993 0
M  V30 9052 H 870.164 -3.46611 2.32918 0
M  V30 9053 N 870.601 -1.47988 -0.541979 0
M  V30 9054 C 871.564 -1.61148 -1.62984 0
M  V30 9055 C 872.564 -0.48553 -1.53295 0
M  V30 9056 O 873.754 -0.751012 -1.5718 0
M  V30 9057 C 870.886 -1.57038 -3.02576 0
M  V30 9058 H 872.079 -2.58138 -1.52659 0
M  V30 9059 H 869.632 -1.36405 -0.763106 0
M  V30 9060 H 870.367 -0.614807 -3.18419 0
M  V30 9061 H 870.152 -2.38769 -3.11018 0
M  V30 9062 H 871.642 -1.69416 -3.81691 0
M  V30 9063 N 872.079 0.78992 -1.36375 0
M  V30 9064 C 872.989 1.93386 -1.32812 0
M  V30 9065 C 874.005 1.72468 -0.230377 0
M  V30 9066 O 875.181 1.96014 -0.462657 0
M  V30 9067 C 872.246 3.2824 -1.11621 0
M  V30 9068 C 871.307 3.61939 -2.30865 0
M  V30 9069 C 870.54 4.90359 -2.10675 0
M  V30 9070 O 870.763 5.6005 -1.08168 0
M  V30 9071 O 869.697 5.22702 -2.9844 0
M  V30 9072 H 873.523 1.99342 -2.29121 0
M  V30 9073 H 871.108 0.9301 -1.16917 0
M  V30 9074 H 872.99 4.08939 -1.01719 0
M  V30 9075 H 871.665 3.23178 -0.183732 0
M  V30 9076 H 870.572 2.81549 -2.46335 0
M  V30 9077 H 871.905 3.71725 -3.22617 0
M  V30 9078 N 873.557 1.20646 1.01402 0
M  V30 9079 C 874.52 0.959314 2.08158 0
M  V30 9080 C 875.52 -0.0661558 1.60664 0
M  V30 9081 O 876.71 0.170177 1.73367 0
M  V30 9082 C 873.842 0.444785 3.37986 0
M  V30 9083 H 875.035 1.90631 2.31517 0
M  V30 9084 H 872.588 1.02219 1.18241 0
M  V30 9085 H 873.323 -0.507553 3.20304 0
M  V30 9086 H 873.108 1.18435 3.73785 0
M  V30 9087 H 874.598 0.291443 4.16582 0
M  V30 9088 N 875.035 -1.20752 1.01276 0
M  V30 9089 C 875.965 -2.25658 0.600064 0
M  V30 9090 C 876.946 -1.65733 -0.38298 0
M  V30 9091 O 878.131 -1.92324 -0.269256 0
M  V30 9092 C 875.261 -3.47237 -0.0663197 0
M  V30 9093 C 874.215 -4.1973 0.83731 0
M  V30 9094 C 873.541 -5.34687 0.0369102 0
M  V30 9095 C 874.841 -4.76286 2.14357 0
M  V30 9096 H 876.535 -2.60432 1.477 0
M  V30 9097 H 874.081 -1.25187 0.711634 0
M  V30 9098 H 876.034 -4.19803 -0.366563 0
M  V30 9099 H 874.758 -3.11615 -0.977944 0
M  V30 9100 H 873.417 -3.49024 1.1215 0
M  V30 9101 H 873.065 -4.95309 -0.876244 0
M  V30 9102 H 872.765 -5.84119 0.63865 0
M  V30 9103 H 874.289 -6.10059 -0.256968 0
M  V30 9104 H 875.703 -5.40691 1.90595 0
M  V30 9105 H 874.1 -5.36139 2.69583 0
M  V30 9106 H 875.17 -3.9524 2.80916 0
M  V30 9107 N 876.513 -0.788492 -1.36457 0
M  V30 9108 C 877.738 -0.371224 -2.04051 0
M  V30 9109 C 878.163 1.004 -1.59064 0
M  V30 9110 O 877.521 1.64663 -0.758679 0
M  V30 9111 C 877.569 -0.442275 -3.57877 0
M  V30 9112 O 876.673 0.55113 -4.08701 0
M  V30 9113 H 876.014 -0.157808 -0.644975 0
M  V30 9114 H 878.544 -1.06935 -1.74431 0
M  V30 9115 H 878.554 -0.305548 -4.06854 0
M  V30 9116 H 877.229 -1.44547 -3.89973 0
M  V30 9117 H 875.806 0.37614 -3.70998 0
M  V30 9118 N 877.991 1.48044 -0.54043 0
M  V30 9119 C 878.938 2.29781 0.216597 0
M  V30 9120 C 879.908 1.38021 0.924094 0
M  V30 9121 O 881.093 1.66985 0.923078 0
M  V30 9122 C 878.233 3.21623 1.2511 0
M  V30 9123 C 877.346 4.28467 0.551384 0
M  V30 9124 C 876.481 5.07477 1.56972 0
M  V30 9125 C 875.52 6.06113 0.854048 0
M  V30 9126 N 874.657 6.78143 1.81842 0
M  V30 9127 H 879.497 2.94001 -0.486578 0
M  V30 9128 H 877.034 1.44929 -0.251789 0
M  V30 9129 H 878.992 3.73279 1.8633 0
M  V30 9130 H 877.622 2.59305 1.92252 0
M  V30 9131 H 876.674 3.79997 -0.174982 0
M  V30 9132 H 877.986 4.98799 -0.0100542 0
M  V30 9133 H 877.14 5.63199 2.25592 0
M  V30 9134 H 875.879 4.37008 2.16507 0
M  V30 9135 H 874.884 5.49585 0.153838 0
M  V30 9136 H 876.109 6.78584 0.264675 0
M  V30 9137 H 874.055 6.10417 2.40265 0
M  V30 9138 H 873.972 7.44587 1.3087 0
M  V30 9139 H 875.24 7.38448 2.49628 0
M  V30 9140 N 879.47 0.276058 1.55163 0
M  V30 9141 C 880.38 -0.621066 2.2623 0
M  V30 9142 C 881.396 -1.16931 1.28853 0
M  V30 9143 O 882.572 -1.1994 1.61791 0
M  V30 9144 C 879.637 -1.78824 2.97023 0
M  V30 9145 C 878.698 -1.27657 4.09881 0
M  V30 9146 C 877.931 -2.38812 4.77289 0
M  V30 9147 O 878.154 -3.58188 4.43912 0
M  V30 9148 O 877.088 -2.06915 5.65217 0
M  V30 9149 H 880.914 -0.0453346 3.03666 0
M  V30 9150 H 878.499 0.0434275 1.49337 0
M  V30 9151 H 880.381 -2.46877 3.41511 0
M  V30 9152 H 879.056 -2.35104 2.22503 0
M  V30 9153 H 877.963 -0.56248 3.69847 0
M  V30 9154 H 879.296 -0.759509 4.86305 0
M  V30 9155 N 880.948 -1.576 0.00335426 0
M  V30 9156 C 881.896 -2.09759 -1.00517 0
M  V30 9157 C 882.89 -1.01833 -1.35375 0
M  V30 9158 O 884.096 -1.20294 -1.339 0
M  V30 9159 H 880.471 -0.669821 -0.341825 0
M  V30 9160 H 882.442 -2.93478 -0.539718 0
M  V30 9161 C 881.191 -2.6189 -2.28711 0
M  V30 9162 H 880.514 -3.44571 -2.02758 0
M  V30 9163 H 881.954 -3.02061 -2.97548 0
M  V30 9164 C 880.413 -1.53455 -2.99922 0
M  V30 9165 O 880.943 -0.919402 -3.91037 0
M  V30 9166 N 879.149 -1.2612 -2.61806 0
M  V30 9167 H 878.696 -1.76329 -1.87792 0
M  V30 9168 H 878.654 -0.537872 -3.09765 0
M  V30 9169 N 882.426 0.269451 -1.5528 0
M  V30 9170 C 883.356 1.33729 -1.91413 0
M  V30 9171 C 884.337 1.51348 -0.776391 0
M  V30 9172 O 885.522 1.64332 -1.03482 0
M  V30 9173 C 882.652 2.69618 -2.18914 0
M  V30 9174 C 881.606 2.66725 -3.34726 0
M  V30 9175 C 880.932 4.06199 -3.47716 0
M  V30 9176 C 882.232 2.25684 -4.71025 0
M  V30 9177 H 883.926 1.03736 -2.80854 0
M  V30 9178 H 881.472 0.497579 -1.3513 0
M  V30 9179 H 883.425 3.44436 -2.42779 0
M  V30 9180 H 882.149 3.01201 -1.26275 0
M  V30 9181 H 880.808 1.94365 -3.10834 0
M  V30 9182 H 880.456 4.3501 -2.52537 0
M  V30 9183 H 880.156 4.05157 -4.25583 0
M  V30 9184 H 881.68 4.8275 -3.73877 0
M  V30 9185 H 883.094 2.90225 -4.94411 0
M  V30 9186 H 881.491 2.35797 -5.51833 0
M  V30 9187 H 882.561 1.20819 -4.69607 0
M  V30 9188 N 883.904 1.48273 0.534124 0
M  V30 9189 C 884.814 1.65162 1.66609 0
M  V30 9190 C 885.83 0.534177 1.65598 0
M  V30 9191 O 887.006 0.804715 1.84625 0
M  V30 9192 C 884.071 1.68354 3.03081 0
M  V30 9193 C 883.132 2.91696 3.1498 0
M  V30 9194 C 882.365 2.94725 4.44941 0
M  V30 9195 O 882.588 2.06285 5.31792 0
M  V30 9196 O 881.522 3.8685 4.61119 0
M  V30 9197 H 885.348 2.60991 1.55298 0
M  V30 9198 H 882.933 1.31626 0.706749 0
M  V30 9199 H 884.815 1.72998 3.84252 0
M  V30 9200 H 883.49 0.756978 3.14725 0
M  V30 9201 H 882.397 2.92586 2.33119 0
M  V30 9202 H 883.73 3.83722 3.0825 0
M  V30 9203 N 885.382 -0.782676 1.36792 0
M  V30 9204 C 886.607 -1.57676 1.34733 0
M  V30 9205 C 887.032 -1.87979 -0.0675253 0
M  V30 9206 O 886.39 -1.48404 -1.04144 0
M  V30 9207 C 886.438 -2.87047 2.18257 0
M  V30 9208 O 885.542 -3.80946 1.57969 0
M  V30 9209 H 884.883 -0.478034 0.460846 0
M  V30 9210 H 887.413 -0.969578 1.80168 0
M  V30 9211 H 887.423 -3.36254 2.31079 0
M  V30 9212 H 886.098 -2.64319 3.21104 0
M  V30 9213 H 884.675 -3.39558 1.54126 0
M  V30 9214 N 886.86 -1.21182 -1.00761 0
M  V30 9215 C 887.793 -0.912033 -2.09182 0
M  V30 9216 C 888.771 0.139421 -1.62001 0
M  V30 9217 O 889.955 0.0110272 -1.88497 0
M  V30 9218 C 887.082 -0.368957 -3.36684 0
M  V30 9219 C 886.128 -1.4028 -4.0277 0
M  V30 9220 S 886.961 -2.97108 -4.45519 0
M  V30 9221 C 888.117 -2.444 -5.76211 0
M  V30 9222 H 888.35 -1.83019 -2.34289 0
M  V30 9223 H 885.883 -1.04127 -1.14004 0
M  V30 9224 H 887.841 -0.0621883 -4.10453 0
M  V30 9225 H 886.502 0.527841 -3.09633 0
M  V30 9226 H 885.695 -0.97238 -4.94531 0
M  V30 9227 H 885.297 -1.65752 -3.35265 0
M  V30 9228 H 887.589 -1.84723 -6.51831 0
M  V30 9229 H 888.532 -3.34593 -6.24062 0
M  V30 9230 H 888.94 -1.86203 -5.32906 0
M  V30 9231 N 888.338 1.20213 -1.01915 0
M  V30 9232 C 889.584 1.89928 -0.711007 0
M  V30 9233 C 889.917 1.7881 0.75767 0
M  V30 9234 O 889.192 1.17399 1.55073 0
M  V30 9235 C 889.475 3.41225 -1.15053 0
M  V30 9236 C 889.328 3.61264 -2.67971 0
M  V30 9237 C 890.647 4.34108 -0.72377 0
M  V30 9238 H 887.766 0.689702 -0.259768 0
M  V30 9239 H 890.408 1.41557 -1.26734 0
M  V30 9240 H 888.558 3.82552 -0.677199 0
M  V30 9241 H 890.23 3.29173 -3.23176 0
M  V30 9242 H 888.473 3.04647 -3.08824 0
M  V30 9243 H 889.144 4.67331 -2.93779 0
M  V30 9244 H 891.62 4.00442 -1.13073 0
M  V30 9245 H 890.496 5.38581 -1.05931 0
M  V30 9246 H 890.757 4.40512 0.374424 0
M  V30 9247 O 889.855 0.931791 1.31909 0
M  V30 9248 H 890.546 0.55575 1.85556 0
M  V30 END ATOM
M  V30 BEGIN BOND
M  V30 END BOND
M  V30 END CTAB
M  END
$$$$
