drugbank_target|P47229 2-hydroxy-6-oxo-6-phenylhexa-2,4-dienoate hydrolase (DB07510; DB07516; DB07911; DB07915)
 OpenBabel12092120443D

  0  0  0     0  0            999 V3000
M  V30 BEGIN CTAB
M  V30 COUNTS 4487 4544 0 0 0
M  V30 BEGIN ATOM
M  V30 1 H -0.908 1.98254 -0.117106 0
M  V30 2 N 0 1.576 0 0
M  V30 3 C 0.933 2.03868 1.02534 0
M  V30 4 C 1.911 0.928543 1.3348 0
M  V30 5 O 3.095 1.19667 1.45644 0
M  V30 6 C 0.222 2.43627 2.35294 0
M  V30 7 C -0.732 3.65373 2.2001 0
M  V30 8 S 0.101 5.13292 1.52614 0
M  V30 9 C 1.257 5.56322 2.86805 0
M  V30 10 H 1.49 2.90518 0.631377 0
M  V30 11 H -0.977 1.52953 0.210867 0
M  V30 12 H 0.981 2.67203 3.11629 0
M  V30 13 H -0.358 1.57376 2.7183 0
M  V30 14 H -1.165 3.90944 3.18086 0
M  V30 15 H -1.563 3.418 1.51819 0
M  V30 16 H 0.729 5.58782 3.83104 0
M  V30 17 H 1.672 6.56266 2.65933 0
M  V30 18 H 2.08 4.83886 2.90714 0
M  V30 19 N 1.4781 -0.272755 1.55222 0
M  V30 20 C 2.7061 -1.02255 1.79865 0
M  V30 21 C 3.1211 -1.79924 0.572088 0
M  V30 22 O 2.4781 -1.76638 -0.458842 0
M  V30 23 C 2.5291 -1.98094 3.02392 0
M  V30 24 O 2.2501 -1.23572 4.20311 0
M  V30 25 C 3.7511 -2.84884 3.39641 0
M  V30 26 H 0.9711 -0.302057 0.599168 0
M  V30 27 H 3.5151 -0.303465 2.02236 0
M  V30 28 H 1.6701 -2.65465 2.82147 0
M  V30 29 H 2.0841 -1.88172 4.89583 0
M  V30 30 H 3.5581 -3.47927 4.28545 0
M  V30 31 H 4.0351 -3.54665 2.59055 0
M  V30 32 H 4.6411 -2.23003 3.62146 0
M  V30 33 N 2.9562 -1.48159 -0.537278 0
M  V30 34 C 3.9192 -1.61665 -1.62472 0
M  V30 35 C 4.9192 -0.490395 -1.5314 0
M  V30 36 O 6.1092 -0.755998 -1.5694 0
M  V30 37 C 3.2412 -1.57997 -3.02076 0
M  V30 38 H 4.4342 -2.58621 -1.51839 0
M  V30 39 H 1.9872 -1.36647 -0.758771 0
M  V30 40 H 2.7222 -0.624913 -3.18222 0
M  V30 41 H 2.5072 -2.39755 -3.10258 0
M  V30 42 H 3.9972 -1.70627 -3.81151 0
M  V30 43 N 4.4343 0.785586 -1.36625 0
M  V30 44 C 5.3643 1.91259 -1.33949 0
M  V30 45 C 6.3453 1.68795 -0.210325 0
M  V30 46 O 7.5303 1.89854 -0.408561 0
M  V30 47 C 4.6603 3.28339 -1.13186 0
M  V30 48 C 3.6143 3.65335 -2.22967 0
M  V30 49 C 2.9403 5.00806 -1.87342 0
M  V30 50 C 4.2403 3.7352 -3.65075 0
M  V30 51 H 5.9343 1.93755 -2.28253 0
M  V30 52 H 3.4803 0.930788 -1.09874 0
M  V30 53 H 5.4333 4.06804 -1.09948 0
M  V30 54 H 4.1573 3.2624 -0.153332 0
M  V30 55 H 2.8163 2.89169 -2.25337 0
M  V30 56 H 2.4643 4.95233 -0.880545 0
M  V30 57 H 2.1643 5.26529 -2.60846 0
M  V30 58 H 3.6883 5.81687 -1.85667 0
M  V30 59 H 5.1023 4.42168 -3.64911 0
M  V30 60 H 3.4993 4.10731 -4.37516 0
M  V30 61 H 4.5693 2.74527 -3.99703 0
M  V30 62 N 5.9124 1.20967 1.01018 0
M  V30 63 C 7.1404 1.04956 1.78303 0
M  V30 64 C 7.5554 -0.400915 1.84494 0
M  V30 65 O 6.9124 -1.27826 1.30257 0
M  V30 66 C 6.9634 1.63403 3.22462 0
M  V30 67 O 6.6844 3.02775 3.16637 0
M  V30 68 C 8.1854 1.52432 4.16268 0
M  V30 69 H 5.4054 0.368858 0.560522 0
M  V30 70 H 7.9494 1.60193 1.27116 0
M  V30 71 H 6.1044 1.1227 3.70775 0
M  V30 72 H 6.5184 3.30626 4.07169 0
M  V30 73 H 7.9924 1.98078 5.15237 0
M  V30 74 H 8.4694 0.477875 4.36592 0
M  V30 75 H 9.0754 2.02787 3.73841 0
M  V30 76 N 7.3905 -1.2043 1.01659 0
M  V30 77 C 8.3005 -2.2689 0.596484 0
M  V30 78 C 9.3165 -1.70107 -0.36599 0
M  V30 79 O 10.4925 -2.00117 -0.226942 0
M  V30 80 C 7.5575 -3.4665 -0.0586659 0
M  V30 81 C 6.6185 -4.18662 0.949751 0
M  V30 82 C 5.8515 -5.32705 0.32577 0
M  V30 83 O 6.0745 -5.63656 -0.874509 0
M  V30 84 O 5.0085 -5.92803 1.04249 0
M  V30 85 H 8.8345 -2.65041 1.4828 0
M  V30 86 H 6.4195 -1.27048 0.786082 0
M  V30 87 H 8.3015 -4.19256 -0.424564 0
M  V30 88 H 6.9765 -3.10375 -0.91918 0
M  V30 89 H 5.8835 -3.48229 1.36702 0
M  V30 90 H 7.2165 -4.58878 1.78023 0
M  V30 91 N 8.8686 -0.792821 -1.36206 0
M  V30 92 C 10.0936 -0.377701 -2.03932 0
M  V30 93 C 10.5186 0.998947 -1.59382 0
M  V30 94 O 9.8766 1.64421 -0.763903 0
M  V30 95 C 9.9246 -0.453635 -3.57735 0
M  V30 96 O 9.0286 0.538151 -4.08874 0
M  V30 97 H 8.3696 -0.159855 -0.644471 0
M  V30 98 H 10.8996 -1.07488 -1.7409 0
M  V30 99 H 10.9096 -0.318464 -4.06755 0
M  V30 100 H 9.5846 -1.45784 -3.89512 0
M  V30 101 H 8.1616 0.364359 -3.71116 0
M  V30 102 N 10.3467 1.47872 -0.545128 0
M  V30 103 C 11.5717 2.07391 -0.0190611 0
M  V30 104 C 11.9967 1.39688 1.25971 0
M  V30 105 O 11.3547 0.467816 1.7516 0
M  V30 106 C 11.4027 3.60188 0.172335 0
M  V30 107 O 10.5067 3.9339 1.23766 0
M  V30 108 H 9.8477 0.662411 -0.0459059 0
M  V30 109 H 12.3777 1.90066 -0.757365 0
M  V30 110 H 12.3877 4.06129 0.390305 0
M  V30 111 H 11.0627 4.08865 -0.761725 0
M  V30 112 H 9.6397 3.5921 1.00114 0
M  V30 113 N 11.8248 0.280983 1.55075 0
M  V30 114 C 13.0528 -0.337293 2.04132 0
M  V30 115 C 13.4678 -1.4903 1.15912 0
M  V30 116 O 12.8248 -1.81606 0.180459 0
M  V30 117 C 12.8758 -0.812706 3.52246 0
M  V30 118 O 12.5968 0.294387 4.3711 0
M  V30 119 C 14.0978 -1.4982 4.17216 0
M  V30 120 H 11.3178 -0.0761638 0.666663 0
M  V30 121 H 13.8618 0.414787 2.00249 0
M  V30 122 H 12.0168 -1.51486 3.56554 0
M  V30 123 H 12.4308 -0.0721325 5.2445 0
M  V30 124 H 13.9048 -1.7822 5.22438 0
M  V30 125 H 14.3818 -2.43168 3.65741 0
M  V30 126 H 14.9878 -0.839742 4.16927 0
M  V30 127 N 13.3029 -1.57598 0.00835791 0
M  V30 128 C 14.5279 -1.95617 -0.689103 0
M  V30 129 C 14.9529 -0.883753 -1.66046 0
M  V30 130 O 14.3109 0.157352 -1.80616 0
M  V30 131 C 14.3589 -3.32736 -1.38994 0
M  V30 132 O 13.4629 -3.27631 -2.50463 0
M  V30 133 H 12.8039 -0.638379 -0.182668 0
M  V30 134 H 15.3339 -2.045 0.064036 0
M  V30 135 H 15.3439 -3.68494 -1.75147 0
M  V30 136 H 14.0189 -4.1034 -0.677778 0
M  V30 137 H 12.5959 -3.03561 -2.16576 0
M  V30 138 N 14.781 0.264519 -1.55364 0
M  V30 139 C 15.728 1.32717 -1.88825 0
M  V30 140 C 16.698 1.48675 -0.740605 0
M  V30 141 O 17.883 1.62945 -0.992657 0
M  V30 142 C 15.023 2.68089 -2.17307 0
M  V30 143 C 14.136 2.60284 -3.44785 0
M  V30 144 C 13.271 3.87892 -3.62924 0
M  V30 145 C 12.31 3.74631 -4.84064 0
M  V30 146 N 11.447 4.94092 -4.98816 0
M  V30 147 H 16.287 1.03481 -2.79456 0
M  V30 148 H 13.824 0.499757 -1.3835 0
M  V30 149 H 15.782 3.46864 -2.31821 0
M  V30 150 H 14.412 2.95509 -1.299 0
M  V30 151 H 13.464 1.73173 -3.38697 0
M  V30 152 H 14.776 2.46388 -4.33698 0
M  V30 153 H 13.93 4.75109 -3.77302 0
M  V30 154 H 12.669 4.04664 -2.7221 0
M  V30 155 H 11.674 2.85797 -4.69681 0
M  V30 156 H 12.899 3.5937 -5.76221 0
M  V30 157 H 10.845 5.11259 -4.11036 0
M  V30 158 H 10.762 4.8276 -5.81789 0
M  V30 159 H 12.03 5.82857 -5.17588 0
M  V30 160 N 16.2591 1.48442 0.529413 0
M  V30 161 C 17.5061 1.56488 1.28521 0
M  V30 162 C 17.8341 0.239042 1.93025 0
M  V30 163 O 17.0891 -0.770713 1.79885 0
M  V30 164 C 17.3881 2.6523 2.39558 0
M  V30 165 C 17.0541 4.07648 1.92702 0
M  V30 166 C 15.7161 4.46411 1.79641 0
M  V30 167 C 18.0681 4.96896 1.573 0
M  V30 168 C 15.3961 5.72226 1.29514 0
M  V30 169 C 17.7481 6.23202 1.08636 0
M  V30 170 C 16.4121 6.60821 0.941919 0
M  V30 171 H 15.6821 0.572631 0.470292 0
M  V30 172 H 18.3291 1.82161 0.59072 0
M  V30 173 H 16.6341 2.33419 3.14679 0
M  V30 174 H 18.3311 2.68671 2.97686 0
M  V30 175 H 14.9211 3.77036 2.03819 0
M  V30 176 H 19.1051 4.67626 1.66251 0
M  V30 177 H 14.3611 6.00097 1.17019 0
M  V30 178 H 18.5351 6.91753 0.803136 0
M  V30 179 H 16.1621 7.58198 0.5513 0
M  V30 180 N 17.7372 -0.778329 1.37039 0
M  V30 181 C 18.9832 -1.53892 1.32079 0
M  V30 182 C 19.3162 -1.9396 -0.0965386 0
M  V30 183 O 18.5912 -1.63568 -1.05242 0
M  V30 184 C 18.8742 -2.80847 2.25382 0
M  V30 185 C 18.7272 -2.47076 3.75864 0
M  V30 186 C 20.0462 -3.82741 2.1725 0
M  V30 187 H 17.1652 -0.558303 0.48111 0
M  V30 188 H 19.8072 -0.893397 1.67685 0
M  V30 189 H 17.9572 -3.35931 1.95148 0
M  V30 190 H 19.6292 -1.97957 4.16666 0
M  V30 191 H 17.8722 -1.79863 3.94755 0
M  V30 192 H 18.5432 -3.37798 4.36574 0
M  V30 193 H 21.0192 -3.37133 2.43887 0
M  V30 194 H 19.8952 -4.69303 2.84686 0
M  V30 195 H 20.1562 -4.2652 1.16331 0
M  V30 196 N 19.2153 -1.21501 -1.00376 0
M  V30 197 C 20.1623 -0.975387 -2.09177 0
M  V30 198 C 21.1323 0.0990615 -1.65804 0
M  V30 199 O 22.3173 -0.0483147 -1.90739 0
M  V30 200 C 19.4573 -0.547507 -3.40729 0
M  V30 201 C 18.5703 -1.69153 -3.97506 0
M  V30 202 C 17.7053 -1.2127 -5.17172 0
M  V30 203 C 16.7443 -2.32897 -5.66061 0
M  V30 204 N 15.8813 -1.86138 -6.76976 0
M  V30 205 H 20.7213 -1.9068 -2.29009 0
M  V30 206 H 18.2583 -0.950257 -1.12288 0
M  V30 207 H 20.2163 -0.280667 -4.16255 0
M  V30 208 H 18.8463 0.346904 -3.20931 0
M  V30 209 H 17.8983 -2.07298 -3.18954 0
M  V30 210 H 19.2103 -2.5316 -4.29781 0
M  V30 211 H 18.3643 -0.902591 -5.99948 0
M  V30 212 H 17.1033 -0.342692 -4.86495 0
M  V30 213 H 16.1083 -2.64709 -4.81881 0
M  V30 214 H 17.3333 -3.20396 -5.98768 0
M  V30 215 H 15.2793 -1.01484 -6.48103 0
M  V30 216 H 15.1963 -2.63717 -7.08512 0
M  V30 217 H 16.4643 -1.58165 -7.63285 0
M  V30 218 N 20.6934 1.19889 -1.02296 0
M  V30 219 C 21.9424 1.88743 -0.711257 0
M  V30 220 C 22.2554 1.80112 0.762817 0
M  V30 221 O 23.4614 2.44161 1.18733 0
M  V30 222 C 21.9174 3.38525 -1.22185 0
M  V30 223 C 21.5254 3.55727 -2.72328 0
M  V30 224 C 23.2694 4.12893 -0.985864 0
M  V30 225 C 21.1764 4.99369 -3.16835 0
M  V30 226 H 20.1064 0.706885 -0.262353 0
M  V30 227 H 22.7574 1.35586 -1.23648 0
M  V30 228 H 21.1394 3.91044 -0.624571 0
M  V30 229 H 22.3134 3.13564 -3.3766 0
M  V30 230 H 20.6284 2.94739 -2.9414 0
M  V30 231 H 23.2254 5.18813 -1.29374 0
M  V30 232 H 23.5684 4.16228 0.0775055 0
M  V30 233 H 24.1014 3.66494 -1.54684 0
M  V30 234 H 20.8404 5.01193 -4.22476 0
M  V30 235 H 20.3604 5.42317 -2.56228 0
M  V30 236 H 22.0394 5.67988 -3.09837 0
M  V30 237 N 22.1715 0.800033 1.35784 0
M  V30 238 C 23.1195 0.193851 2.31791 0
M  V30 239 C 24.1135 -0.652744 1.56319 0
M  V30 240 O 25.3195 -0.546641 1.71499 0
M  V30 241 H 21.6945 0.04392 0.750716 0
M  V30 242 H 23.6655 1.01883 2.80468 0
M  V30 243 C 22.4145 -0.648338 3.41602 0
M  V30 244 H 21.7375 -0.00624665 3.998 0
M  V30 245 H 23.1775 -1.03898 4.11073 0
M  V30 246 C 21.6365 -1.8111 2.84079 0
M  V30 247 O 22.1665 -2.90825 2.77099 0
M  V30 248 N 20.3725 -1.62056 2.41218 0
M  V30 249 H 19.9195 -0.728123 2.47095 0
M  V30 250 H 19.8775 -2.40013 2.03079 0
M  V30 251 N 23.6496 -1.47581 0.552962 0
M  V30 252 C 24.5596 -2.33743 -0.200353 0
M  V30 253 C 25.5756 -1.47928 -0.916151 0
M  V30 254 O 26.7516 -1.80865 -0.885993 0
M  V30 255 C 23.8166 -3.24536 -1.21973 0
M  V30 256 C 22.8776 -4.26238 -0.511819 0
M  V30 257 C 22.1106 -5.12693 -1.48263 0
M  V30 258 O 22.3336 -5.01525 -2.71714 0
M  V30 259 O 21.2676 -5.93375 -1.00945 0
M  V30 260 H 25.0936 -2.9945 0.506304 0
M  V30 261 H 22.6786 -1.46071 0.313622 0
M  V30 262 H 24.5606 -3.80631 -1.80827 0
M  V30 263 H 23.2356 -2.61462 -1.90839 0
M  V30 264 H 22.1426 -3.73914 0.117799 0
M  V30 265 H 23.4756 -4.92014 0.135308 0
M  V30 266 N 25.1277 -0.289203 -1.54924 0
M  V30 267 C 26.0747 0.592115 -2.23075 0
M  V30 268 C 27.0447 1.13881 -1.20915 0
M  V30 269 O 28.2297 1.18551 -1.495 0
M  V30 270 C 25.3697 1.76376 -2.96623 0
M  V30 271 C 24.4827 1.24959 -4.13533 0
M  V30 272 C 23.6177 2.38416 -4.74691 0
M  V30 273 C 22.6567 1.84072 -5.83767 0
M  V30 274 N 21.7937 2.91057 -6.38929 0
M  V30 275 H 26.6337 0.00432038 -2.98 0
M  V30 276 H 24.1707 -0.00963529 -1.47097 0
M  V30 277 H 26.1287 2.45268 -3.3749 0
M  V30 278 H 24.7587 2.32337 -2.24097 0
M  V30 279 H 23.8107 0.453307 -3.77689 0
M  V30 280 H 25.1227 0.811662 -4.92152 0
M  V30 281 H 24.2767 3.15276 -5.18349 0
M  V30 282 H 23.0157 2.8553 -3.95378 0
M  V30 283 H 22.0207 1.05697 -5.39545 0
M  V30 284 H 23.2457 1.37877 -6.64956 0
M  V30 285 H 21.1917 3.37526 -5.62505 0
M  V30 286 H 21.1087 2.51724 -7.12861 0
M  V30 287 H 22.3767 3.6785 -6.87246 0
M  V30 288 N 26.6058 1.57591 -0.0167156 0
M  V30 289 C 27.8538 1.90906 0.663285 0
M  V30 290 C 28.1748 0.892509 1.73376 0
M  V30 291 O 27.4448 -0.0677623 1.95783 0
M  V30 292 H 26.0248 0.704637 0.247983 0
M  V30 293 H 28.6868 1.94803 -0.0615909 0
M  V30 294 H 27.7828 2.9116 1.12393 0
M  V30 295 N 28.0839 -0.256276 1.55502 0
M  V30 296 C 29.3309 -0.985619 1.76895 0
M  V30 297 C 29.6589 -1.85671 0.579355 0
M  V30 298 O 28.9139 -1.90744 -0.437651 0
M  V30 299 C 29.2129 -1.88432 3.03691 0
M  V30 300 C 28.8789 -1.16936 4.35473 0
M  V30 301 C 27.5409 -0.97173 4.71286 0
M  V30 302 C 29.8929 -0.661889 5.1698 0
M  V30 303 C 27.2209 -0.254179 5.86149 0
M  V30 304 C 29.5729 0.042149 6.32586 0
M  V30 305 C 28.2369 0.25134 6.67027 0
M  V30 306 H 27.5069 -0.360663 0.647304 0
M  V30 307 H 30.1539 -0.256483 1.89775 0
M  V30 308 H 28.4589 -2.68021 2.85783 0
M  V30 309 H 30.1559 -2.45015 3.1744 0
M  V30 310 H 26.7459 -1.33332 4.07333 0
M  V30 311 H 30.9299 -0.802145 4.89775 0
M  V30 312 H 26.1859 -0.0815408 6.11346 0
M  V30 313 H 30.3599 0.443049 6.94989 0
M  V30 314 H 27.9869 0.809314 7.5588 0
M  V30 315 N 29.562 -1.4872 -0.521534 0
M  V30 316 C 30.787 -1.61101 -1.30618 0
M  V30 317 C 31.212 -0.274611 -1.86085 0
M  V30 318 O 30.57 0.754937 -1.64834 0
M  V30 319 C 30.618 -2.66709 -2.4269 0
M  V30 320 O 29.722 -2.24456 -3.45967 0
M  V30 321 H 29.063 -0.539921 -0.386499 0
M  V30 322 H 31.593 -1.94767 -0.626645 0
M  V30 323 H 31.603 -2.88245 -2.88754 0
M  V30 324 H 30.278 -3.63727 -2.01682 0
M  V30 325 H 28.855 -2.13168 -3.05964 0
M  V30 326 N 31.0401 0.771051 -1.3745 0
M  V30 327 C 32.3171 1.519 -1.23231 0
M  V30 328 C 32.6971 2.10383 0.173809 0
M  V30 329 O 32.0451 1.95583 1.18151 0
M  V30 330 C 32.2551 2.59933 -2.32886 0
M  V30 331 C 33.6031 3.27316 -2.70461 0
M  V30 332 O 34.6271 2.70228 -2.32068 0
M  V30 333 O 33.4861 4.30531 -3.36608 0
M  V30 334 H 30.5801 0.672803 -0.480901 0
M  V30 335 H 33.1261 0.807957 -1.49232 0
M  V30 336 H 31.8981 2.14842 -3.27045 0
M  V30 337 H 31.5211 3.38637 -2.08353 0
M  V30 338 N 32.5182 1.22032 0.997298 0
M  V30 339 C 33.7652 1.04222 1.73621 0
M  V30 340 C 34.0932 -0.423264 1.89839 0
M  V30 341 O 33.3482 -1.3302 1.43542 0
M  V30 342 C 33.6472 1.69345 3.14733 0
M  V30 343 C 33.3132 3.19226 3.18442 0
M  V30 344 C 31.9752 3.60124 3.19161 0
M  V30 345 C 34.3272 4.15181 3.15078 0
M  V30 346 C 31.6552 4.95467 3.14212 0
M  V30 347 C 34.0072 5.50495 3.1167 0
M  V30 348 C 32.6712 5.90779 3.10703 0
M  V30 349 H 31.9412 0.381374 0.635323 0
M  V30 350 H 34.5882 1.51732 1.16831 0
M  V30 351 H 32.8932 1.14147 3.74803 0
M  V30 352 H 34.5902 1.53059 3.7064 0
M  V30 353 H 31.1802 2.86659 3.18629 0
M  V30 354 H 35.3642 3.84605 3.13676 0
M  V30 355 H 30.6202 5.25916 3.11805 0
M  V30 356 H 34.7942 6.24576 3.08022 0
M  V30 357 H 32.4212 6.9562 3.06622 0
M  V30 358 N 33.9963 -1.19345 1.0293 0
M  V30 359 C 34.9443 -2.24621 0.604001 0
M  V30 360 C 35.9383 -1.65452 -0.363587 0
M  V30 361 O 37.1443 -1.78497 -0.23212 0
M  V30 362 H 33.5193 -0.730858 0.177061 0
M  V30 363 H 35.4903 -2.5781 1.50255 0
M  V30 364 C 34.2393 -3.47688 -0.0289127 0
M  V30 365 H 33.5623 -3.93505 0.706651 0
M  V30 366 H 35.0023 -4.23011 -0.289432 0
M  V30 367 C 33.4613 -3.11817 -1.2756 0
M  V30 368 O 33.9913 -3.2451 -2.36762 0
M  V30 369 N 32.1973 -2.66246 -1.16453 0
M  V30 370 H 31.7443 -2.56118 -0.275914 0
M  V30 371 H 31.7023 -2.42617 -1.99961 0
M  V30 372 N 35.4744 -0.807222 -1.35358 0
M  V30 373 C 36.7234 -0.384376 -1.98004 0
M  V30 374 C 37.0364 1.0543 -1.64754 0
M  V30 375 O 38.2424 1.58029 -2.20769 0
M  V30 376 C 36.6984 -0.636326 -3.5423 0
M  V30 377 C 36.3064 -2.08759 -3.96388 0
M  V30 378 C 38.0504 -0.278869 -4.23583 0
M  V30 379 C 35.9574 -2.28525 -5.45463 0
M  V30 380 H 34.8874 -0.139986 -0.740891 0
M  V30 381 H 37.5384 -0.991369 -1.54415 0
M  V30 382 H 35.9204 0.0406256 -3.95979 0
M  V30 383 H 37.0944 -2.8024 -3.6579 0
M  V30 384 H 35.4094 -2.40497 -3.39926 0
M  V30 385 H 38.0064 -0.404599 -5.33167 0
M  V30 386 H 38.3494 0.775012 -4.09022 0
M  V30 387 H 38.8824 -0.909764 -3.87257 0
M  V30 388 H 35.6214 -3.32361 -5.64992 0
M  V30 389 H 35.1414 -1.61569 -5.77629 0
M  V30 390 H 36.8204 -2.10109 -6.11934 0
M  V30 391 N 36.9525 1.47285 -0.560781 0
M  V30 392 C 37.9025 2.27073 0.205384 0
M  V30 393 C 38.8865 1.34569 0.882044 0
M  V30 394 O 40.0785 1.58899 0.77976 0
M  V30 395 C 37.2075 3.20414 1.23247 0
M  V30 396 C 36.2935 4.20399 0.559041 0
M  V30 397 N 36.6845 5.04423 -0.372927 0
M  V30 398 C 34.9825 4.38536 0.812522 0
M  V30 399 C 35.6835 5.76655 -0.764446 0
M  V30 400 N 34.6595 5.43471 -0.11848 0
M  V30 401 H 38.4615 2.89422 -0.511117 0
M  V30 402 H 35.9755 1.57868 -0.380975 0
M  V30 403 H 37.9725 3.76262 1.79534 0
M  V30 404 H 36.6325 2.59623 1.95002 0
M  V30 405 H 37.6435 5.1248 -0.747287 0
M  V30 406 H 34.3205 3.88913 1.51832 0
M  V30 407 H 35.7105 6.54238 -1.53045 0
M  V30 408 N 38.4306 0.297415 1.54768 0
M  V30 409 C 39.6606 -0.315165 2.04182 0
M  V30 410 C 40.0686 -1.4834 1.17439 0
M  V30 411 O 39.4116 -1.82695 0.191891 0
M  V30 412 C 39.4736 -0.837583 3.49607 0
M  V30 413 C 39.1376 0.204912 4.5654 0
M  V30 414 C 40.1346 1.03214 5.09552 0
M  V30 415 C 37.8196 0.345578 5.0111 0
M  V30 416 C 39.8136 1.986 6.05671 0
M  V30 417 C 37.5006 1.30289 5.97049 0
M  V30 418 C 38.4986 2.12159 6.49213 0
M  V30 419 O 38.1866 3.06268 7.43273 0
M  V30 420 H 37.9186 -0.0729646 0.672051 0
M  V30 421 H 40.4726 0.433907 2.00765 0
M  V30 422 H 38.7026 -1.63712 3.50336 0
M  V30 423 H 40.3916 -1.36566 3.82236 0
M  V30 424 H 41.1576 0.934312 4.75916 0
M  V30 425 H 37.0366 -0.28171 4.60138 0
M  V30 426 H 40.5806 2.62542 6.46311 0
M  V30 427 H 36.4776 1.40145 6.30103 0
M  V30 428 H 37.2456 3.01205 7.61064 0
M  V30 429 N 39.9087 -1.5758 0.0250728 0
M  V30 430 C 40.8567 -2.11125 -0.97617 0
M  V30 431 C 41.8507 -1.03689 -1.33959 0
M  V30 432 O 43.0567 -1.22128 -1.3223 0
M  V30 433 H 39.4317 -0.674468 -0.332561 0
M  V30 434 H 41.4027 -2.94194 -0.499223 0
M  V30 435 C 40.1517 -2.65017 -2.2508 0
M  V30 436 H 39.4747 -3.47333 -1.9799 0
M  V30 437 H 40.9147 -3.06133 -2.93357 0
M  V30 438 C 39.3737 -1.57574 -2.97779 0
M  V30 439 O 39.9037 -0.973203 -3.89733 0
M  V30 440 N 38.1097 -1.29716 -2.60043 0
M  V30 441 H 37.6567 -1.789 -1.85345 0
M  V30 442 H 37.6147 -0.58051 -3.08994 0
M  V30 443 N 41.3868 0.248026 -1.55636 0
M  V30 444 C 42.2968 1.32859 -1.93354 0
M  V30 445 C 43.3128 1.52719 -0.833838 0
M  V30 446 O 44.4888 1.66363 -1.13513 0
M  V30 447 C 41.5538 2.66337 -2.21958 0
M  V30 448 C 40.6148 2.55008 -3.45354 0
M  V30 449 C 39.8478 3.82121 -3.72584 0
M  V30 450 O 40.0708 4.83951 -3.01907 0
M  V30 451 O 39.0048 3.80822 -4.6611 0
M  V30 452 H 42.8308 1.03862 -2.85388 0
M  V30 453 H 40.4158 0.448686 -1.42503 0
M  V30 454 H 42.2978 3.45216 -2.4167 0
M  V30 455 H 40.9728 2.95068 -1.33103 0
M  V30 456 H 39.8798 1.7442 -3.30951 0
M  V30 457 H 41.2128 2.31222 -4.34508 0
M  V30 458 N 42.8649 1.48995 0.513639 0
M  V30 459 C 43.8279 1.64229 1.59879 0
M  V30 460 C 44.8279 0.514696 1.5234 0
M  V30 461 O 46.0179 0.78087 1.55718 0
M  V30 462 C 43.1499 1.62783 2.99524 0
M  V30 463 H 44.3429 2.61004 1.47705 0
M  V30 464 H 41.8959 1.37837 0.736936 0
M  V30 465 H 42.6309 0.675461 3.17188 0
M  V30 466 H 42.4159 2.4466 3.06404 0
M  V30 467 H 43.9059 1.76669 3.78388 0
M  V30 468 N 44.343 -0.763751 1.37857 0
M  V30 469 C 45.591 -1.51957 1.33243 0
M  V30 470 C 45.912 -1.94835 -0.0801709 0
M  V30 471 O 45.182 -1.66894 -1.02582 0
M  V30 472 H 43.762 -0.563626 0.49024 0
M  V30 473 H 46.424 -0.908504 1.7243 0
M  V30 474 H 45.52 -2.41523 1.97669 0
M  V30 475 N 45.8211 -1.22559 -0.990812 0
M  V30 476 C 46.7691 -0.994798 -2.10253 0
M  V30 477 C 47.7631 0.0627798 -1.69284 0
M  V30 478 O 48.9691 -0.0898392 -1.79776 0
M  V30 479 H 45.3441 -0.304527 -0.687581 0
M  V30 480 H 47.3151 -1.93812 -2.26891 0
M  V30 481 C 46.0641 -0.591439 -3.42633 0
M  V30 482 H 45.3871 -1.3969 -3.74602 0
M  V30 483 H 46.8271 -0.469385 -4.21394 0
M  V30 484 C 45.2861 0.699232 -3.29564 0
M  V30 485 O 45.8161 1.75112 -3.61523 0
M  V30 486 N 44.0221 0.671182 -2.82743 0
M  V30 487 H 43.5691 -0.185136 -2.56934 0
M  V30 488 H 43.5271 1.53502 -2.7438 0
M  V30 489 N 47.2992 1.18797 -1.03562 0
M  V30 490 C 48.5472 1.88278 -0.734569 0
M  V30 491 C 48.8682 1.8043 0.739586 0
M  V30 492 O 48.1382 1.21925 1.53333 0
M  V30 493 H 46.7182 0.696991 -0.268725 0
M  V30 494 H 49.3802 1.44192 -1.31129 0
M  V30 495 H 48.4762 2.94443 -1.03489 0
M  V30 496 N 48.7773 0.814389 1.34928 0
M  V30 497 C 49.6873 0.231978 2.3345 0
M  V30 498 C 50.7033 -0.629139 1.62228 0
M  V30 499 O 51.8793 -0.539052 1.94052 0
M  V30 500 C 48.9443 -0.603482 3.41407 0
M  V30 501 C 48.0053 0.279037 4.28392 0
M  V30 502 C 47.2383 -0.516643 5.31193 0
M  V30 503 O 47.4613 -1.75068 5.4287 0
M  V30 504 O 46.3953 0.0965652 6.01823 0
M  V30 505 H 50.2213 1.04721 2.85074 0
M  V30 506 H 47.8063 0.576343 1.37836 0
M  V30 507 H 49.6883 -1.07908 4.0735 0
M  V30 508 H 48.3633 -1.39618 2.92042 0
M  V30 509 H 47.2703 0.801948 3.65403 0
M  V30 510 H 48.6033 1.03588 4.81176 0
M  V30 511 N 50.2554 -1.46986 0.568584 0
M  V30 512 C 51.4834 -2.0683 0.0539956 0
M  V30 513 C 51.8984 -1.41953 -1.24478 0
M  V30 514 O 51.2554 -0.519933 -1.74937 0
M  V30 515 C 51.3064 -3.61254 -0.133362 0
M  V30 516 O 51.0274 -4.237 1.11399 0
M  V30 517 C 52.5284 -4.37992 -0.683927 0
M  V30 518 H 49.7484 -0.669058 0.0510141 0
M  V30 519 H 52.2924 -1.88824 0.785234 0
M  V30 520 H 50.4474 -3.78735 -0.81477 0
M  V30 521 H 50.8614 -5.16388 0.91888 0
M  V30 522 H 52.3354 -5.46684 -0.764263 0
M  V30 523 H 52.8124 -4.05058 -1.69778 0
M  V30 524 H 53.4184 -4.25283 -0.0378494 0
M  V30 525 N 51.7335 -0.305618 -1.54608 0
M  V30 526 C 52.9795 0.302746 -2.00528 0
M  V30 527 C 53.3125 1.53184 -1.19367 0
M  V30 528 O 52.5875 1.92598 -0.271321 0
M  V30 529 C 52.8705 0.654756 -3.54097 0
M  V30 530 C 52.7235 -0.583793 -4.45995 0
M  V30 531 C 54.0425 1.47947 -4.14487 0
M  V30 532 H 51.1615 0.108564 -0.72896 0
M  V30 533 H 53.8035 -0.418634 -1.85331 0
M  V30 534 H 51.9535 1.26935 -3.67178 0
M  V30 535 H 53.6255 -1.22224 -4.44814 0
M  V30 536 H 51.8685 -1.21615 -4.16404 0
M  V30 537 H 52.5395 -0.293287 -5.5122 0
M  V30 538 H 55.0155 0.96013 -4.04871 0
M  V30 539 H 53.8915 1.69454 -5.22088 0
M  V30 540 H 54.1525 2.47011 -3.66658 0
M  V30 541 N 53.2116 1.57565 -0.0334293 0
M  V30 542 C 54.4606 1.91155 0.643639 0
M  V30 543 C 54.7736 0.91192 1.73042 0
M  V30 544 O 55.9796 1.13923 2.46442 0
M  V30 545 C 54.4356 3.39443 1.1961 0
M  V30 546 C 54.0436 4.47774 0.142381 0
M  V30 547 C 55.7876 3.82094 1.84944 0
M  V30 548 C 53.6946 5.87162 0.706727 0
M  V30 549 H 52.6246 0.713368 0.244176 0
M  V30 550 H 55.2756 1.8323 -0.0994323 0
M  V30 551 H 53.6576 3.42313 1.99092 0
M  V30 552 H 54.8316 4.56469 -0.630296 0
M  V30 553 H 53.1466 4.14352 -0.412446 0
M  V30 554 H 55.7436 4.83591 2.2813 0
M  V30 555 H 56.0866 3.17386 2.69392 0
M  V30 556 H 56.6196 3.81665 1.12145 0
M  V30 557 H 53.3586 6.55424 -0.0997178 0
M  V30 558 H 52.8786 5.82064 1.44779 0
M  V30 559 H 54.5576 6.35866 1.19514 0
M  V30 560 N 54.6897 -0.239769 1.55765 0
M  V30 561 C 55.6227 -1.32356 1.85895 0
M  V30 562 C 56.6007 -1.46053 0.714662 0
M  V30 563 O 57.7847 -1.62154 0.961157 0
M  V30 564 C 54.9117 -2.6962 2.04994 0
M  V30 565 C 53.9577 -2.73036 3.27648 0
M  V30 566 S 54.7907 -2.28929 4.84099 0
M  V30 567 C 55.9467 -3.68103 5.06212 0
M  V30 568 H 56.1797 -1.06601 2.77531 0
M  V30 569 H 53.7127 -0.441112 1.47965 0
M  V30 570 H 55.6707 -3.48653 2.16682 0
M  V30 571 H 54.3317 -2.92609 1.14188 0
M  V30 572 H 53.5247 -3.7386 3.38 0
M  V30 573 H 53.1267 -2.02052 3.14723 0
M  V30 574 H 55.4187 -4.63656 4.93993 0
M  V30 575 H 56.3617 -3.6268 6.08168 0
M  V30 576 H 56.7697 -3.60947 4.34025 0
M  V30 577 N 56.1678 -1.49265 -0.50573 0
M  V30 578 C 57.0978 -1.68495 -1.61653 0
M  V30 579 C 58.0788 -0.53366 -1.61512 0
M  V30 580 O 59.2638 -0.76897 -1.78327 0
M  V30 581 C 56.3938 -1.74709 -3.00157 0
M  V30 582 C 55.3478 -2.89581 -3.15162 0
M  V30 583 C 54.6738 -2.80903 -4.5497 0
M  V30 584 C 55.9738 -4.30578 -2.95634 0
M  V30 585 H 57.6678 -2.61493 -1.45814 0
M  V30 586 H 55.2138 -1.25838 -0.70005 0
M  V30 587 H 57.1668 -1.86748 -3.77761 0
M  V30 588 H 55.8908 -0.783067 -3.17074 0
M  V30 589 H 54.5498 -2.77136 -2.39982 0
M  V30 590 H 54.1978 -1.82419 -4.68756 0
M  V30 591 H 53.8978 -3.57999 -4.65951 0
M  V30 592 H 55.4218 -2.94944 -5.34641 0
M  V30 593 H 56.8358 -4.4373 -3.63011 0
M  V30 594 H 55.2328 -5.0886 -3.18091 0
M  V30 595 H 56.3028 -4.45352 -1.91806 0
M  V30 596 N 57.6459 0.756429 -1.3826 0
M  V30 597 C 58.5959 1.86069 -1.31766 0
M  V30 598 C 59.5799 1.59621 -0.202483 0
M  V30 599 O 60.7719 1.7149 -0.438211 0
M  V30 600 C 57.9009 3.23742 -1.1422 0
M  V30 601 C 56.9869 3.56091 -2.30348 0
M  V30 602 N 57.3779 3.59517 -3.55783 0
M  V30 603 C 55.6759 3.86341 -2.22838 0
M  V30 604 C 56.3769 3.89052 -4.32451 0
M  V30 605 N 55.3529 4.05736 -3.61772 0
M  V30 606 H 59.1549 1.86992 -2.26741 0
M  V30 607 H 56.6689 0.953643 -1.31451 0
M  V30 608 H 58.6659 4.02761 -1.07652 0
M  V30 609 H 57.3259 3.24073 -0.201763 0
M  V30 610 H 58.3369 3.41347 -3.89491 0
M  V30 611 H 55.0139 3.94404 -1.36937 0
M  V30 612 H 56.4039 3.98349 -5.4108 0
M  V30 613 N 59.124 1.23083 0.984299 0
M  V30 614 C 60.372 1.05848 1.72165 0
M  V30 615 C 60.693 -0.406049 1.90726 0
M  V30 616 O 59.963 -1.29139 1.47309 0
M  V30 617 H 58.543 0.388685 0.637913 0
M  V30 618 H 61.205 1.54736 1.18503 0
M  V30 619 H 60.301 1.54327 2.71274 0
M  V30 620 N 60.6021 -1.18246 1.0419 0
M  V30 621 C 61.8501 -1.87886 0.744543 0
M  V30 622 C 62.1711 -1.8082 -0.730006 0
M  V30 623 O 61.4411 -1.22736 -1.52685 0
M  V30 624 H 60.0211 -0.695556 0.272417 0
M  V30 625 H 62.6831 -1.43494 1.31892 0
M  V30 626 H 61.7791 -2.9389 1.05049 0
M  V30 627 N 62.0802 -0.821533 -1.34494 0
M  V30 628 C 63.3282 -0.408139 -1.97936 0
M  V30 629 C 63.6492 1.03193 -1.65457 0
M  V30 630 O 62.9192 1.71622 -0.944595 0
M  V30 631 H 61.4992 -0.147928 -0.732206 0
M  V30 632 H 64.1612 -1.05067 -1.64155 0
M  V30 633 H 63.2572 -0.52601 -3.07635 0
M  V30 634 N 63.5583 1.46682 -0.576371 0
M  V30 635 C 64.9693 1.86112 -0.148091 0
M  V30 636 C 65.3203 1.48073 1.2872 0
M  V30 637 O 64.4453 0.892656 1.97131 0
M  V30 638 C 65.0403 3.37786 -0.261982 0
M  V30 639 C 63.5993 3.76235 0.111384 0
M  V30 640 C 62.7463 2.70713 -0.60083 0
M  V30 641 H 65.6973 1.37927 -0.78497 0
M  V30 642 H 65.7183 3.77007 0.514364 0
M  V30 643 H 65.2303 3.6544 -1.30671 0
M  V30 644 H 63.3313 3.54198 1.15649 0
M  V30 645 H 63.4443 4.78391 -0.26052 0
M  V30 646 H 61.8083 2.54666 -0.0417783 0
M  V30 647 H 62.5913 3.01208 -1.64708 0
M  V30 648 N 65.0364 0.313813 1.54444 0
M  V30 649 C 66.2844 -0.291099 1.99993 0
M  V30 650 C 66.6054 -1.53418 1.20366 0
M  V30 651 O 65.8754 -1.93544 0.302927 0
M  V30 652 H 64.4554 -0.110552 0.738774 0
M  V30 653 H 67.1174 0.428106 1.9014 0
M  V30 654 H 66.2134 -0.554268 3.07139 0
M  V30 655 N 66.5145 -1.57545 0.0417849 0
M  V30 656 C 67.4775 -2.09885 -0.92093 0
M  V30 657 C 68.4775 -1.01648 -1.24596 0
M  V30 658 O 69.6675 -1.27759 -1.1842 0
M  V30 659 C 66.7995 -2.57527 -2.23367 0
M  V30 660 H 67.9925 -2.96236 -0.467382 0
M  V30 661 H 65.5455 -1.5493 -0.206467 0
M  V30 662 H 66.2805 -1.74542 -2.73323 0
M  V30 663 H 66.0655 -3.36613 -2.01083 0
M  V30 664 H 67.5555 -2.98201 -2.92346 0
M  V30 665 N 67.9926 0.231505 -1.5589 0
M  V30 666 C 69.2406 0.955461 -1.78088 0
M  V30 667 C 69.5616 1.85262 -0.608533 0
M  V30 668 O 68.8316 1.92277 0.375035 0
M  V30 669 H 67.4116 0.355787 -0.656829 0
M  V30 670 H 70.0736 0.245751 -1.93344 0
M  V30 671 H 69.1696 1.56814 -2.69844 0
M  V30 672 N 69.4707 1.49531 0.497807 0
M  V30 673 C 70.7187 1.58865 1.24926 0
M  V30 674 C 71.0397 0.278721 1.92998 0
M  V30 675 O 70.3097 -0.702144 1.82885 0
M  V30 676 H 68.8897 0.585343 0.464094 0
M  V30 677 H 71.5517 1.86174 0.57666 0
M  V30 678 H 70.6477 2.38633 2.01149 0
M  V30 679 N 70.9488 -0.749086 1.3866 0
M  V30 680 C 72.1948 -1.50959 1.36319 0
M  V30 681 C 72.5498 -1.92347 -0.0452451 0
M  V30 682 O 71.8428 -1.6289 -1.00884 0
M  V30 683 C 72.0368 -2.7712 2.25697 0
M  V30 684 C 71.8658 -2.48067 3.7509 0
M  V30 685 C 70.6358 -2.41062 4.44091 0
M  V30 686 C 72.8338 -2.14544 4.67414 0
M  V30 687 N 70.8158 -2.04331 5.78897 0
M  V30 688 C 72.1868 -1.88141 5.90765 0
M  V30 689 C 74.2418 -2.00892 4.55573 0
M  V30 690 C 72.9448 -1.49463 7.036 0
M  V30 691 C 74.9708 -1.63616 5.68317 0
M  V30 692 C 74.3328 -1.38088 6.90732 0
M  V30 693 H 70.4318 -0.551804 0.554108 0
M  V30 694 H 73.0158 -0.871886 1.74087 0
M  V30 695 H 71.1868 -3.38693 1.9011 0
M  V30 696 H 72.9188 -3.4321 2.1445 0
M  V30 697 H 69.6738 -2.57685 3.9736 0
M  V30 698 H 70.0978 -1.88598 6.502 0
M  V30 699 H 74.7398 -2.19301 3.61479 0
M  V30 700 H 72.4578 -1.29794 7.97608 0
M  V30 701 H 76.0438 -1.53678 5.61137 0
M  V30 702 H 74.9238 -1.09674 7.76493 0
M  V30 703 N 72.4269 -1.23603 -0.977757 0
M  V30 704 C 73.6519 -1.09735 -1.75991 0
M  V30 705 C 74.0769 0.346858 -1.84874 0
M  V30 706 O 73.4349 1.25093 -1.3123 0
M  V30 707 C 73.4829 -1.73051 -3.16363 0
M  V30 708 O 72.5869 -0.994452 -4.0023 0
M  V30 709 H 71.9279 -0.384476 -0.541364 0
M  V30 710 H 74.4579 -1.6371 -1.2272 0
M  V30 711 H 74.4679 -1.78398 -3.66931 0
M  V30 712 H 73.1429 -2.78137 -3.09213 0
M  V30 713 H 71.7199 -1.01812 -3.58732 0
M  V30 714 N 73.905 1.17692 -1.04816 0
M  V30 715 C 74.853 2.23632 -0.63966 0
M  V30 716 C 75.847 1.6601 0.337219 0
M  V30 717 O 77.053 1.78844 0.203693 0
M  V30 718 H 73.428 0.727949 -0.188665 0
M  V30 719 H 75.399 2.55387 -1.54337 0
M  V30 720 C 74.148 3.4769 -0.0264051 0
M  V30 721 H 73.471 3.92331 -0.769164 0
M  V30 722 H 74.911 4.23418 0.222098 0
M  V30 723 C 73.37 3.13807 1.22584 0
M  V30 724 O 73.9 3.28236 2.31569 0
M  V30 725 N 72.106 2.68065 1.12202 0
M  V30 726 H 71.653 2.56525 0.235133 0
M  V30 727 H 71.611 2.45767 1.96076 0
M  V30 728 N 75.3831 0.828654 1.34056 0
M  V30 729 C 76.6131 0.431993 2.02033 0
M  V30 730 C 77.0211 -0.96844 1.62536 0
M  V30 731 O 76.3641 -1.6391 0.829408 0
M  V30 732 C 76.4261 0.461224 3.56529 0
M  V30 733 C 76.0901 1.81599 4.1937 0
M  V30 734 C 77.0871 2.7777 4.39477 0
M  V30 735 C 74.7721 2.10604 4.56017 0
M  V30 736 C 76.7661 4.01115 4.95364 0
M  V30 737 C 74.4531 3.34207 5.11614 0
M  V30 738 C 75.4511 4.2928 5.31232 0
M  V30 739 O 75.1391 5.50699 5.8565 0
M  V30 740 H 74.8711 0.170943 0.654029 0
M  V30 741 H 77.4251 1.11988 1.72185 0
M  V30 742 H 75.6551 -0.283388 3.8566 0
M  V30 743 H 77.3441 0.0838149 4.05813 0
M  V30 744 H 78.1101 2.56659 4.11523 0
M  V30 745 H 73.9891 1.37402 4.40047 0
M  V30 746 H 77.5331 4.75333 5.10592 0
M  V30 747 H 73.4301 3.55179 5.38997 0
M  V30 748 H 74.1981 5.52298 6.04077 0
M  V30 749 N 76.8612 -1.46375 0.584142 0
M  V30 750 C 78.0912 -2.06461 0.0758195 0
M  V30 751 C 78.4992 -1.43322 -1.23512 0
M  V30 752 O 77.8422 -0.533216 -1.75791 0
M  V30 753 C 77.9042 -3.59131 -0.162773 0
M  V30 754 C 77.5682 -4.4447 1.06279 0
M  V30 755 C 78.5652 -4.80918 1.97519 0
M  V30 756 C 76.2502 -4.85584 1.28504 0
M  V30 757 C 78.2442 -5.57309 3.09331 0
M  V30 758 C 75.9312 -5.61734 2.4062 0
M  V30 759 C 76.9292 -5.9751 3.30863 0
M  V30 760 O 76.6172 -6.72121 4.41032 0
M  V30 761 H 76.3492 -0.673745 0.0551725 0
M  V30 762 H 78.9032 -1.88969 0.804984 0
M  V30 763 H 77.1332 -3.74936 -0.946565 0
M  V30 764 H 78.8222 -4.0114 -0.619782 0
M  V30 765 H 79.5882 -4.49732 1.81565 0
M  V30 766 H 75.4672 -4.57187 0.591702 0
M  V30 767 H 79.0112 -5.85152 3.79793 0
M  V30 768 H 74.9082 -5.92334 2.56537 0
M  V30 769 H 75.6762 -6.90547 4.39417 0
M  V30 770 N 78.3393 -0.321999 -1.54275 0
M  V30 771 C 79.7553 0.0306999 -1.5957 0
M  V30 772 C 79.9553 1.50614 -1.33857 0
M  V30 773 O 79.0113 2.2619 -1.12223 0
M  V30 774 C 80.3243 -0.386122 -2.98211 0
M  V30 775 C 81.8723 -0.336647 -3.11184 0
M  V30 776 C 82.3473 -0.728607 -4.52167 0
M  V30 777 N 83.8383 -0.681952 -4.58152 0
M  V30 778 C 84.5733 -0.957449 -5.6535 0
M  V30 779 N 84.0693 -1.3 -6.80494 0
M  V30 780 N 85.8623 -0.883113 -5.55119 0
M  V30 781 H 78.0133 -1.28332 -1.69247 0
M  V30 782 H 80.2763 -0.521716 -0.791528 0
M  V30 783 H 79.9823 -1.41404 -3.22022 0
M  V30 784 H 79.8563 0.249662 -3.76373 0
M  V30 785 H 82.2433 0.682058 -2.8711 0
M  V30 786 H 82.3243 -1.00734 -2.3513 0
M  V30 787 H 81.9683 -1.74522 -4.76974 0
M  V30 788 H 81.8983 -0.0356152 -5.26588 0
M  V30 789 H 84.3893 -0.428985 -3.75457 0
M  V30 790 H 84.7023 -1.49563 -7.58189 0
M  V30 791 H 83.0473 -1.33824 -6.81994 0
M  V30 792 H 86.2383 -0.615001 -4.64042 0
M  V30 793 H 86.4113 -1.10118 -6.38575 0
M  V30 794 N 79.8174 1.5752 -0.0501392 0
M  V30 795 C 80.7654 2.12651 0.942459 0
M  V30 796 C 81.7594 1.05807 1.32292 0
M  V30 797 O 82.9654 1.24217 1.3027 0
M  V30 798 H 79.3404 0.679673 0.321789 0
M  V30 799 H 81.3114 2.94951 0.452356 0
M  V30 800 C 80.0604 2.68565 2.20836 0
M  V30 801 H 79.3834 3.50439 1.92439 0
M  V30 802 H 80.8234 3.10761 2.8845 0
M  V30 803 C 79.2824 1.62291 2.95234 0
M  V30 804 O 79.8124 1.03508 3.88135 0
M  V30 805 N 78.0184 1.33836 2.57946 0
M  V30 806 H 77.5654 1.81826 1.82475 0
M  V30 807 H 77.5234 0.629595 3.08032 0
M  V30 808 N 81.2955 -0.223234 1.56011 0
M  V30 809 C 82.5415 -0.949279 1.79211 0
M  V30 810 C 82.8745 -1.84054 0.619494 0
M  V30 811 O 82.1495 -1.90726 -0.381317 0
M  V30 812 C 82.4325 -1.78965 3.12479 0
M  V30 813 C 82.2855 -0.924997 4.40186 0
M  V30 814 C 83.6045 -2.76774 3.42175 0
M  V30 815 H 80.7235 -0.343676 0.651963 0
M  V30 816 H 83.3655 -0.218253 1.88742 0
M  V30 817 H 81.5155 -2.41291 3.04485 0
M  V30 818 H 83.1875 -0.318615 4.60198 0
M  V30 819 H 81.4305 -0.230344 4.33188 0
M  V30 820 H 82.1015 -1.54735 5.29869 0
M  V30 821 H 84.5775 -2.24584 3.50287 0
M  V30 822 H 83.4535 -3.32678 4.36597 0
M  V30 823 H 83.7145 -3.54429 2.64258 0
M  V30 824 N 82.7736 -1.49793 -0.48987 0
M  V30 825 C 84.0216 -1.59525 -1.24081 0
M  V30 826 C 84.3426 -0.288953 -1.92847 0
M  V30 827 O 83.6126 0.692436 -1.83254 0
M  V30 828 H 82.1926 -0.587796 -0.460983 0
M  V30 829 H 84.8546 -1.86477 -0.566778 0
M  V30 830 H 83.9506 -2.39696 -1.99881 0
M  V30 831 N 84.2517 0.741722 -1.39055 0
M  V30 832 C 85.6627 1.31966 -1.32068 0
M  V30 833 C 86.0137 1.96192 0.0180797 0
M  V30 834 O 85.1387 1.95861 0.920196 0
M  V30 835 C 85.7337 2.39954 -2.39181 0
M  V30 836 C 84.2927 2.93438 -2.35735 0
M  V30 837 C 83.4397 1.66936 -2.21422 0
M  V30 838 H 86.3907 0.539721 -1.4924 0
M  V30 839 H 86.4117 3.20182 -2.05581 0
M  V30 840 H 85.9237 1.9318 -3.36605 0
M  V30 841 H 84.0247 3.4451 -1.41929 0
M  V30 842 H 84.1377 3.4701 -3.30335 0
M  V30 843 H 82.5017 1.91016 -1.68478 0
M  V30 844 H 83.2847 1.22224 -3.20806 0
M  V30 845 N 85.7298 1.2412 0.971189 0
M  V30 846 C 86.9768 1.07881 1.71371 0
M  V30 847 C 87.3048 -0.382901 1.90694 0
M  V30 848 O 86.5598 -1.29945 1.46331 0
M  V30 849 C 86.8588 1.75983 3.11071 0
M  V30 850 C 86.5248 3.25909 3.11599 0
M  V30 851 C 85.1868 3.66813 3.11451 0
M  V30 852 C 87.5388 4.21771 3.062 0
M  V30 853 C 84.8668 5.02021 3.03631 0
M  V30 854 C 87.2188 5.56982 2.99923 0
M  V30 855 C 85.8828 5.97237 2.98102 0
M  V30 856 H 85.1528 0.394764 0.62709 0
M  V30 857 H 87.7998 1.54176 1.13587 0
M  V30 858 H 86.1048 1.22072 3.72298 0
M  V30 859 H 87.8018 1.60887 3.6731 0
M  V30 860 H 84.3918 2.93353 3.12477 0
M  V30 861 H 88.5758 3.91172 3.05447 0
M  V30 862 H 83.8318 5.32411 3.0058 0
M  V30 863 H 88.0058 6.30969 2.94704 0
M  V30 864 H 85.6328 7.01967 2.91798 0
M  V30 865 N 87.2079 -1.17134 1.05439 0
M  V30 866 C 88.4539 -1.87733 0.767077 0
M  V30 867 C 88.7869 -1.8098 -0.704253 0
M  V30 868 O 88.0619 -1.21951 -1.5152 0
M  V30 869 C 88.3449 -3.37659 1.25133 0
M  V30 870 C 88.1979 -3.53149 2.78578 0
M  V30 871 C 89.5169 -4.31768 0.852324 0
M  V30 872 H 86.6359 -0.681687 0.280129 0
M  V30 873 H 89.2779 -1.37732 1.30881 0
M  V30 874 H 87.4279 -3.80373 0.790469 0
M  V30 875 H 89.0999 -3.19434 3.32806 0
M  V30 876 H 87.3429 -2.95345 3.17732 0
M  V30 877 H 88.0139 -4.58403 3.07523 0
M  V30 878 H 90.4899 -3.96909 1.24911 0
M  V30 879 H 89.3659 -5.35199 1.21873 0
M  V30 880 H 89.6269 -4.41429 -0.243485 0
M  V30 881 N 88.686 -0.835752 -1.33615 0
M  V30 882 C 89.963 -0.352017 -1.92406 0
M  V30 883 C 90.343 1.16225 -1.76224 0
M  V30 884 O 89.691 1.97526 -1.14873 0
M  V30 885 C 89.901 -0.795485 -3.39813 0
M  V30 886 C 91.249 -0.801703 -4.16963 0
M  V30 887 O 92.273 -0.738889 -3.48452 0
M  V30 888 O 91.132 -0.886607 -5.3926 0
M  V30 889 H 88.226 -0.0989641 -0.821057 0
M  V30 890 H 90.772 -0.921397 -1.42507 0
M  V30 891 H 89.544 -1.83795 -3.45449 0
M  V30 892 H 89.167 -0.202505 -3.97084 0
M  V30 893 N 90.1641 1.46063 -0.591896 0
M  V30 894 C 91.1271 2.28854 0.125973 0
M  V30 895 C 92.1271 1.38903 0.810107 0
M  V30 896 O 93.3171 1.61186 0.66066 0
M  V30 897 C 90.4491 3.19526 1.1881 0
M  V30 898 H 91.6421 2.93802 -0.601717 0
M  V30 899 H 89.1951 1.52325 -0.350254 0
M  V30 900 H 89.9301 2.59345 1.94707 0
M  V30 901 H 89.7151 3.85766 0.701936 0
M  V30 902 H 91.2051 3.81817 1.69132 0
M  V30 903 N 91.6422 0.330177 1.54103 0
M  V30 904 C 92.8902 -0.269871 2.0029 0
M  V30 905 C 93.2112 -1.52133 1.21986 0
M  V30 906 O 92.4812 -1.93212 0.323438 0
M  V30 907 H 91.0612 -0.10271 0.739905 0
M  V30 908 H 93.7232 0.448249 1.89675 0
M  V30 909 H 92.8192 -0.52166 3.07709 0
M  V30 910 N 93.1203 -1.57491 0.0584922 0
M  V30 911 C 94.3503 -1.9701 -0.622134 0
M  V30 912 C 94.7583 -0.935034 -1.6448 0
M  V30 913 O 94.1013 0.0882904 -1.83488 0
M  V30 914 C 94.1633 -3.32794 -1.35972 0
M  V30 915 C 93.8273 -4.54343 -0.492043 0
M  V30 916 C 94.8243 -5.19323 0.244901 0
M  V30 917 C 92.5093 -5.00534 -0.420821 0
M  V30 918 C 94.5033 -6.28835 1.04143 0
M  V30 919 C 92.1903 -6.09921 0.379389 0
M  V30 920 C 93.1883 -6.73933 1.10919 0
M  V30 921 O 92.8763 -7.81216 1.89623 0
M  V30 922 H 92.6083 -0.653127 -0.174359 0
M  V30 923 H 95.1623 -2.05029 0.123418 0
M  V30 924 H 93.3923 -3.21351 -2.15105 0
M  V30 925 H 95.0813 -3.5701 -1.93129 0
M  V30 926 H 95.8473 -4.8459 0.19939 0
M  V30 927 H 91.7263 -4.50496 -0.978474 0
M  V30 928 H 95.2703 -6.7873 1.61157 0
M  V30 929 H 91.1673 -6.44089 0.426512 0
M  V30 930 H 91.9353 -7.98029 1.81913 0
M  V30 931 N 94.5984 0.214957 -1.56127 0
M  V30 932 C 96.0144 0.564948 -1.49267 0
M  V30 933 C 96.2144 1.86827 -0.754838 0
M  V30 934 O 95.2704 2.50745 -0.297198 0
M  V30 935 C 96.5834 0.638071 -2.93852 0
M  V30 936 C 98.1314 0.728253 -3.0441 0
M  V30 937 C 98.6064 0.832663 -4.50367 0
M  V30 938 N 100.097 0.896712 -4.54437 0
M  V30 939 C 100.832 0.997324 -5.6466 0
M  V30 940 N 100.328 1.06147 -6.8462 0
M  V30 941 N 102.121 1.03297 -5.52527 0
M  V30 942 H 94.2724 -0.640211 -2.02522 0
M  V30 943 H 96.5354 -0.225507 -0.920788 0
M  V30 944 H 96.2414 -0.250126 -3.50809 0
M  V30 945 H 96.1154 1.49947 -3.46115 0
M  V30 946 H 98.5024 1.60689 -2.47514 0
M  V30 947 H 98.5834 -0.158952 -2.55306 0
M  V30 948 H 98.2274 -0.0415417 -5.07883 0
M  V30 949 H 98.1574 1.73538 -4.97184 0
M  V30 950 H 100.648 0.857188 -3.6805 0
M  V30 951 H 100.961 1.1382 -7.64372 0
M  V30 952 H 99.3064 1.03049 -6.87318 0
M  V30 953 H 102.497 0.979558 -4.57736 0
M  V30 954 H 102.67 1.10793 -6.38458 0
M  V30 955 N 96.0765 1.50051 0.48192 0
M  V30 956 C 97.3225 1.60736 1.2366 0
M  V30 957 C 97.6555 0.301786 1.91841 0
M  V30 958 O 96.9305 -0.696025 1.8162 0
M  V30 959 C 97.2135 2.78009 2.28874 0
M  V30 960 C 97.0665 4.18416 1.65069 0
M  V30 961 C 98.3855 2.90867 3.30279 0
M  V30 962 H 95.5045 0.585031 0.448228 0
M  V30 963 H 98.1465 1.82402 0.531946 0
M  V30 964 H 96.2965 2.59667 2.88973 0
M  V30 965 H 97.9685 4.48322 1.0865 0
M  V30 966 H 96.2115 4.23177 0.954148 0
M  V30 967 H 96.8825 4.96381 2.41474 0
M  V30 968 H 99.3585 3.07623 2.80191 0
M  V30 969 H 98.2345 3.74566 4.01238 0
M  V30 970 H 98.4955 2.01021 3.93755 0
M  V30 971 N 97.5546 -0.734337 1.39446 0
M  V30 972 C 98.8036 -1.48937 1.36017 0
M  V30 973 C 99.1166 -1.95557 -0.0409005 0
M  V30 974 O 100.323 -2.70779 -0.19778 0
M  V30 975 C 98.7786 -2.69125 2.38955 0
M  V30 976 C 98.3866 -2.29452 3.8478 0
M  V30 977 C 100.131 -3.46944 2.44603 0
M  V30 978 C 98.0376 -3.46366 4.79358 0
M  V30 979 H 96.9676 -0.559296 0.505672 0
M  V30 980 H 99.6186 -0.800983 1.65095 0
M  V30 981 H 98.0006 -3.40041 2.02948 0
M  V30 982 H 99.1746 -1.66077 4.29831 0
M  V30 983 H 97.4896 -1.64723 3.82433 0
M  V30 984 H 100.087 -4.33907 3.12456 0
M  V30 985 H 100.43 -3.89454 1.47076 0
M  V30 986 H 100.963 -2.83056 2.79507 0
M  V30 987 H 97.7016 -3.08905 5.78151 0
M  V30 988 H 97.2216 -4.08719 4.38986 0
M  V30 989 H 98.9006 -4.12691 4.98292 0
M  V30 990 N 99.0327 -1.24633 -0.964593 0
M  V30 991 C 99.9627 -1.06611 -2.07741 0
M  V30 992 C 100.944 0.0218666 -1.70086 0
M  V30 993 O 102.129 -0.145793 -1.93652 0
M  V30 994 C 99.2587 -0.673444 -3.40708 0
M  V30 995 C 98.2127 -1.71054 -3.92332 0
M  V30 996 C 97.5387 -1.17285 -5.21678 0
M  V30 997 C 98.8387 -3.10718 -4.19824 0
M  V30 998 H 100.533 -1.99693 -2.23076 0
M  V30 999 H 98.0787 -0.96152 -1.07195 0
M  V30 1000 H 100.032 -0.534345 -4.17998 0
M  V30 1001 H 98.7557 0.293073 -3.25282 0
M  V30 1002 H 97.4147 -1.83791 -3.17201 0
M  V30 1003 H 97.0627 -0.196847 -5.02615 0
M  V30 1004 H 96.7627 -1.86592 -5.57187 0
M  V30 1005 H 98.2867 -1.04593 -6.01575 0
M  V30 1006 H 99.7007 -3.01192 -4.87808 0
M  V30 1007 H 98.0977 -3.77406 -4.66567 0
M  V30 1008 H 99.1677 -3.58524 -3.26479 0
M  V30 1009 N 100.511 1.16574 -1.06058 0
M  V30 1010 C 101.458 2.20883 -0.669263 0
M  V30 1011 C 102.428 1.62729 0.332918 0
M  V30 1012 O 103.613 1.895 0.222346 0
M  V30 1013 C 100.753 3.45049 -0.0593572 0
M  V30 1014 C 99.8658 4.17458 -1.11143 0
M  V30 1015 C 99.0008 5.29135 -0.467916 0
M  V30 1016 C 98.0398 5.93343 -1.50369 0
M  V30 1017 N 97.1768 6.96516 -0.883706 0
M  V30 1018 H 102.017 2.53709 -1.5632 0
M  V30 1019 H 99.5538 1.24616 -0.781625 0
M  V30 1020 H 101.512 4.16033 0.311771 0
M  V30 1021 H 100.142 3.12781 0.797992 0
M  V30 1022 H 99.1938 3.45101 -1.60029 0
M  V30 1023 H 100.506 4.61307 -1.89731 0
M  V30 1024 H 99.6598 6.06684 -0.0436871 0
M  V30 1025 H 98.3988 4.86443 0.349864 0
M  V30 1026 H 97.4038 5.14517 -1.93784 0
M  V30 1027 H 98.6288 6.38114 -2.32352 0
M  V30 1028 H 96.5748 6.55943 -0.086595 0
M  V30 1029 H 96.4918 7.38723 -1.607 0
M  V30 1030 H 97.7598 7.77993 -0.484543 0
M  V30 1031 N 101.989 0.842826 1.3317 0
M  V30 1032 C 103.266 0.362216 1.92217 0
M  V30 1033 C 103.646 -1.15289 1.76838 0
M  V30 1034 O 102.994 -1.96914 1.15919 0
M  V30 1035 C 103.204 0.813495 3.39387 0
M  V30 1036 C 104.552 0.823804 4.16532 0
M  V30 1037 O 105.576 0.757358 3.48055 0
M  V30 1038 O 104.435 0.915193 5.38782 0
M  V30 1039 H 101.529 0.103317 0.820521 0
M  V30 1040 H 104.075 0.928942 1.42017 0
M  V30 1041 H 102.847 1.85624 3.4447 0
M  V30 1042 H 102.47 0.223561 3.96971 0
M  V30 1043 N 103.467 -1.45747 0.599634 0
M  V30 1044 C 104.692 -2.07178 0.0960198 0
M  V30 1045 C 105.117 -1.44268 -1.207 0
M  V30 1046 O 104.475 -0.532503 -1.73303 0
M  V30 1047 C 104.523 -3.60579 -0.0385348 0
M  V30 1048 O 103.627 -3.97713 -1.0908 0
M  V30 1049 H 102.968 -0.660251 0.0704593 0
M  V30 1050 H 105.498 -1.87124 0.827385 0
M  V30 1051 H 105.508 -4.07298 -0.239304 0
M  V30 1052 H 104.183 -4.05756 0.912947 0
M  V30 1053 H 102.76 -3.62678 -0.867135 0
M  V30 1054 N 104.945 -0.338344 -1.53925 0
M  V30 1055 C 106.356 0.146651 -1.86123 0
M  V30 1056 C 106.707 1.5042 -1.2597 0
M  V30 1057 O 105.832 2.08723 -0.571294 0
M  V30 1058 C 106.427 0.272879 -3.37699 0
M  V30 1059 C 104.986 0.702103 -3.69794 0
M  V30 1060 C 104.133 -0.167304 -2.76795 0
M  V30 1061 H 107.084 -0.558123 -1.48562 0
M  V30 1062 H 107.105 1.10128 -3.64214 0
M  V30 1063 H 106.617 -0.715307 -3.81451 0
M  V30 1064 H 104.718 1.6995 -3.31584 0
M  V30 1065 H 104.831 0.495604 -4.7653 0
M  V30 1066 H 103.195 0.359527 -2.5215 0
M  V30 1067 H 103.978 -1.15253 -3.23375 0
M  V30 1068 N 106.423 1.57458 -0.0668435 0
M  V30 1069 C 107.671 1.92919 0.602214 0
M  V30 1070 C 107.992 0.947215 1.70449 0
M  V30 1071 O 107.262 -0.00544117 1.95899 0
M  V30 1072 H 105.842 0.71217 0.22544 0
M  V30 1073 H 108.504 1.94508 -0.123535 0
M  V30 1074 H 107.6 2.94589 1.03073 0
M  V30 1075 N 107.901 -0.206675 1.56239 0
M  V30 1076 C 109.148 -0.928842 1.79941 0
M  V30 1077 C 109.476 -1.83734 0.638131 0
M  V30 1078 O 108.731 -1.92039 -0.376746 0
M  V30 1079 C 109.03 -1.78675 3.09532 0
M  V30 1080 C 108.696 -1.03022 4.38973 0
M  V30 1081 C 107.358 -0.821302 4.74139 0
M  V30 1082 C 109.71 -0.497081 5.18824 0
M  V30 1083 C 107.038 -0.0675719 5.86661 0
M  V30 1084 C 109.39 0.24338 6.32132 0
M  V30 1085 C 108.054 0.463422 6.65889 0
M  V30 1086 H 107.324 -0.339887 0.658451 0
M  V30 1087 H 109.971 -0.195977 1.90495 0
M  V30 1088 H 108.276 -2.58794 2.94165 0
M  V30 1089 H 109.973 -2.34792 3.25075 0
M  V30 1090 H 106.563 -1.20306 4.11369 0
M  V30 1091 H 110.747 -0.645921 4.92079 0
M  V30 1092 H 106.003 0.112995 6.11296 0
M  V30 1093 H 110.177 0.66393 6.93228 0
M  V30 1094 H 107.804 1.04938 7.52922 0
M  V30 1095 N 109.379 -1.50304 -0.473955 0
M  V30 1096 C 110.327 -1.69482 -1.59307 0
M  V30 1097 C 111.321 -0.560669 -1.59853 0
M  V30 1098 O 112.527 -0.741087 -1.64036 0
M  V30 1099 H 108.902 -0.534892 -0.528578 0
M  V30 1100 H 110.873 -2.63364 -1.40293 0
M  V30 1101 C 109.622 -1.80354 -2.97267 0
M  V30 1102 H 108.945 -2.67012 -2.97564 0
M  V30 1103 H 110.385 -1.97798 -3.75036 0
M  V30 1104 C 108.844 -0.55448 -3.32306 0
M  V30 1105 O 109.374 0.307661 -4.0052 0
M  V30 1106 N 107.58 -0.409354 -2.87702 0
M  V30 1107 H 107.127 -1.11196 -2.32364 0
M  V30 1108 H 107.085 0.425223 -3.11511 0
M  V30 1109 N 110.857 0.726932 -1.39834 0
M  V30 1110 C 111.804 1.841 -1.39197 0
M  V30 1111 C 112.774 1.642 -0.250502 0
M  V30 1112 O 113.959 1.85494 -0.446846 0
M  V30 1113 C 111.099 3.21697 -1.24919 0
M  V30 1114 C 110.212 3.53247 -2.48678 0
M  V30 1115 C 109.347 4.80289 -2.26928 0
M  V30 1116 C 108.386 5.04707 -3.4632 0
M  V30 1117 N 107.523 6.22956 -3.23836 0
M  V30 1118 H 112.363 1.83979 -2.34427 0
M  V30 1119 H 109.9 0.898876 -1.16442 0
M  V30 1120 H 111.858 4.01137 -1.1465 0
M  V30 1121 H 110.488 3.21076 -0.333153 0
M  V30 1122 H 109.54 2.68447 -2.69519 0
M  V30 1123 H 110.852 3.67205 -3.37582 0
M  V30 1124 H 110.006 5.67725 -2.13947 0
M  V30 1125 H 108.745 4.68519 -1.35431 0
M  V30 1126 H 107.75 4.1573 -3.5979 0
M  V30 1127 H 108.975 5.18357 -4.38729 0
M  V30 1128 H 106.921 6.12459 -2.35011 0
M  V30 1129 H 106.838 6.37539 -4.063 0
M  V30 1130 H 108.106 7.1321 -3.14566 0
M  V30 1131 N 112.336 1.25143 0.95797 0
M  V30 1132 C 113.561 1.12521 1.74223 0
M  V30 1133 C 113.986 -0.317402 1.85403 0
M  V30 1134 O 113.344 -1.2299 1.33204 0
M  V30 1135 C 113.392 1.78062 3.1357 0
M  V30 1136 O 112.496 1.058 3.98598 0
M  V30 1137 H 111.837 0.39304 0.535178 0
M  V30 1138 H 114.367 1.65641 1.201 0
M  V30 1139 H 114.377 1.84213 3.64046 0
M  V30 1140 H 113.052 2.83021 3.04749 0
M  V30 1141 H 111.629 1.07506 3.57067 0
M  V30 1142 N 113.814 -1.1601 1.06675 0
M  V30 1143 C 115.091 -1.82679 0.699114 0
M  V30 1144 C 115.471 -1.94559 -0.819137 0
M  V30 1145 O 114.819 -1.49169 -1.73092 0
M  V30 1146 C 115.029 -3.19445 1.40555 0
M  V30 1147 C 116.377 -3.95171 1.55323 0
M  V30 1148 O 117.401 -3.28976 1.36577 0
M  V30 1149 O 116.26 -5.13833 1.86112 0
M  V30 1150 H 113.354 -0.788954 0.247951 0
M  V30 1151 H 115.9 -1.23179 1.16726 0
M  V30 1152 H 114.672 -3.05856 2.44065 0
M  V30 1153 H 114.295 -3.86625 0.927733 0
M  V30 1154 N 115.292 -0.849877 -1.32721 0
M  V30 1155 C 116.255 -0.296122 -2.27279 0
M  V30 1156 C 117.255 0.541458 -1.5141 0
M  V30 1157 O 118.445 0.353658 -1.70572 0
M  V30 1158 C 115.577 0.581579 -3.35902 0
M  V30 1159 H 116.77 -1.13064 -2.77771 0
M  V30 1160 H 114.323 -0.62383 -1.43311 0
M  V30 1161 H 115.058 1.43809 -2.9067 0
M  V30 1162 H 114.843 -0.0178814 -3.92096 0
M  V30 1163 H 116.333 0.961951 -4.0637 0
M  V30 1164 N 116.77 1.45427 -0.607355 0
M  V30 1165 C 118.016 2.0254 -0.102607 0
M  V30 1166 C 118.349 1.47478 1.26348 0
M  V30 1167 O 117.624 0.64939 1.83339 0
M  V30 1168 C 117.907 3.60044 -0.0634347 0
M  V30 1169 C 117.76 4.2544 -1.46017 0
M  V30 1170 C 119.079 4.35646 0.624514 0
M  V30 1171 H 116.198 0.73598 -0.0387607 0
M  V30 1172 H 118.84 1.73284 -0.779282 0
M  V30 1173 H 116.99 3.85101 0.512808 0
M  V30 1174 H 118.662 4.11569 -2.08347 0
M  V30 1175 H 116.905 3.83849 -2.02094 0
M  V30 1176 H 117.576 5.34342 -1.385 0
M  V30 1177 H 120.052 4.15882 0.134723 0
M  V30 1178 H 118.928 5.45376 0.621028 0
M  V30 1179 H 119.189 4.08501 1.69055 0
M  V30 1180 N 118.248 0.346503 1.53744 0
M  V30 1181 C 119.494 -0.249473 2.0126 0
M  V30 1182 C 119.827 -1.49965 1.23386 0
M  V30 1183 O 119.102 -1.91811 0.32229 0
M  V30 1184 C 119.385 -0.560643 3.55709 0
M  V30 1185 C 119.238 0.701836 4.44291 0
M  V30 1186 C 120.557 -1.36905 4.18264 0
M  V30 1187 H 117.676 -0.0891987 0.731582 0
M  V30 1188 H 120.318 0.467624 1.84156 0
M  V30 1189 H 118.468 -1.17156 3.70414 0
M  V30 1190 H 120.14 1.33974 4.41417 0
M  V30 1191 H 118.383 1.32612 4.13033 0
M  V30 1192 H 119.054 0.43933 5.50249 0
M  V30 1193 H 121.53 -0.852448 4.07275 0
M  V30 1194 H 120.406 -1.55553 5.26398 0
M  V30 1195 H 120.667 -2.37203 3.73078 0
M  V30 1196 N 119.726 -1.57421 0.075193 0
M  V30 1197 C 120.659 -2.08528 -0.926904 0
M  V30 1198 C 121.637 -0.991171 -1.28898 0
M  V30 1199 O 122.821 -1.26479 -1.39769 0
M  V30 1200 C 119.948 -2.54576 -2.23402 0
M  V30 1201 C 118.994 -3.75454 -2.02327 0
M  V30 1202 S 119.827 -5.19989 -1.27951 0
M  V30 1203 C 120.983 -5.69372 -2.59935 0
M  V30 1204 H 121.216 -2.932 -0.492048 0
M  V30 1205 H 118.749 -1.53785 -0.137651 0
M  V30 1206 H 120.707 -2.81767 -2.98526 0
M  V30 1207 H 119.368 -1.70166 -2.64012 0
M  V30 1208 H 118.561 -4.05675 -2.99071 0
M  V30 1209 H 118.163 -3.48654 -1.35339 0
M  V30 1210 H 120.455 -5.76424 -3.56008 0
M  V30 1211 H 121.398 -6.68207 -2.34319 0
M  V30 1212 H 121.806 -4.97205 -2.67296 0
M  V30 1213 N 121.204 0.198386 -1.56346 0
M  V30 1214 C 122.481 0.944982 -1.71258 0
M  V30 1215 C 122.861 2.0151 -0.629048 0
M  V30 1216 O 122.209 2.25639 0.360473 0
M  V30 1217 C 122.419 1.5344 -3.1346 0
M  V30 1218 C 123.767 2.01778 -3.73591 0
M  V30 1219 O 124.791 1.63288 -3.16568 0
M  V30 1220 O 123.65 2.72594 -4.73661 0
M  V30 1221 H 120.744 0.442939 -0.69838 0
M  V30 1222 H 123.29 0.188342 -1.68652 0
M  V30 1223 H 122.062 0.762869 -3.83792 0
M  V30 1224 H 121.685 2.35596 -3.20282 0
M  V30 1225 N 122.682 1.50554 0.465978 0
M  V30 1226 C 123.592 1.72585 1.58907 0
M  V30 1227 C 124.608 0.60911 1.6299 0
M  V30 1228 O 125.784 0.88804 1.80765 0
M  V30 1229 C 122.849 1.81995 2.95091 0
M  V30 1230 C 121.91 3.05751 3.01355 0
M  V30 1231 C 121.143 3.14702 4.31043 0
M  V30 1232 O 121.366 2.30313 5.21835 0
M  V30 1233 O 120.3 4.07468 4.43005 0
M  V30 1234 H 124.126 2.67799 1.43239 0
M  V30 1235 H 121.711 1.34711 0.646013 0
M  V30 1236 H 123.593 1.90335 3.75966 0
M  V30 1237 H 122.268 0.899659 3.10947 0
M  V30 1238 H 121.175 3.02908 2.19539 0
M  V30 1239 H 122.508 3.97375 2.90437 0
M  V30 1240 N 124.16 -0.719506 1.40217 0
M  V30 1241 C 125.092 -1.84428 1.36084 0
M  V30 1242 C 126.105 -1.60597 0.266913 0
M  V30 1243 O 127.294 -1.70544 0.526983 0
M  V30 1244 C 124.394 -3.20757 1.094 0
M  V30 1245 C 123.567 -3.71817 2.30372 0
M  V30 1246 C 122.626 -4.86748 1.99907 0
M  V30 1247 O 121.652 -4.99603 2.72737 0
M  V30 1248 N 122.854 -5.7226 0.974635 0
M  V30 1249 H 125.619 -1.88473 2.33019 0
M  V30 1250 H 123.18 -0.900885 1.3452 0
M  V30 1251 H 125.172 -3.95235 0.870116 0
M  V30 1252 H 123.742 -3.11884 0.211452 0
M  V30 1253 H 122.962 -2.88514 2.68614 0
M  V30 1254 H 124.25 -4.02666 3.11026 0
M  V30 1255 H 123.648 -5.6448 0.371368 0
M  V30 1256 H 122.205 -6.46739 0.810656 0
M  V30 1257 N 125.638 -1.25649 -0.95132 0
M  V30 1258 C 127.054 -1.02542 -1.223 0
M  V30 1259 C 127.254 0.255715 -1.99871 0
M  V30 1260 O 126.31 0.967558 -2.33226 0
M  V30 1261 C 127.623 -2.25065 -1.99415 0
M  V30 1262 C 129.171 -2.29861 -2.12446 0
M  V30 1263 C 129.646 -3.52048 -2.92961 0
M  V30 1264 N 131.137 -3.52465 -3.00538 0
M  V30 1265 C 131.872 -4.43672 -3.63239 0
M  V30 1266 N 131.368 -5.45157 -4.27523 0
M  V30 1267 N 133.161 -4.31346 -3.60412 0
M  V30 1268 H 125.312 -2.07951 -0.432471 0
M  V30 1269 H 127.575 -0.91339 -0.253816 0
M  V30 1270 H 127.281 -3.18194 -1.49817 0
M  V30 1271 H 127.155 -2.28502 -3.00111 0
M  V30 1272 H 129.542 -1.37252 -2.61239 0
M  V30 1273 H 129.623 -2.3044 -1.11044 0
M  V30 1274 H 129.267 -4.44981 -2.44856 0
M  V30 1275 H 129.197 -3.48715 -3.94596 0
M  V30 1276 H 131.688 -2.79056 -2.54826 0
M  V30 1277 H 132.001 -6.10958 -4.73234 0
M  V30 1278 H 130.346 -5.49025 -4.26141 0
M  V30 1279 H 133.537 -3.51288 -3.09377 0
M  V30 1280 H 133.71 -5.02624 -4.0899 0
M  V30 1281 N 127.117 1.15442 -1.07289 0
M  V30 1282 C 128.365 1.85845 -0.794096 0
M  V30 1283 C 128.686 1.82692 0.681809 0
M  V30 1284 O 127.956 1.26741 1.49377 0
M  V30 1285 H 126.536 0.688089 -0.290763 0
M  V30 1286 H 129.198 1.39947 -1.3565 0
M  V30 1287 H 128.294 2.91001 -1.12804 0
M  V30 1288 N 128.595 0.856903 1.32268 0
M  V30 1289 C 129.525 0.31858 2.31316 0
M  V30 1290 C 130.506 -0.583487 1.59779 0
M  V30 1291 O 131.691 -0.503259 1.87566 0
M  V30 1292 C 128.821 -0.491979 3.43798 0
M  V30 1293 C 127.775 0.315849 4.26833 0
M  V30 1294 C 127.101 -0.619586 5.31098 0
M  V30 1295 C 128.401 1.54282 4.98993 0
M  V30 1296 H 130.095 1.14621 2.76591 0
M  V30 1297 H 127.641 0.552613 1.32974 0
M  V30 1298 H 129.594 -0.879012 4.1213 0
M  V30 1299 H 128.318 -1.35299 2.97257 0
M  V30 1300 H 126.977 0.684664 3.6015 0
M  V30 1301 H 126.625 -1.47751 4.8081 0
M  V30 1302 H 126.325 -0.0830621 5.87541 0
M  V30 1303 H 127.849 -1.00375 6.02293 0
M  V30 1304 H 129.263 1.22796 5.59995 0
M  V30 1305 H 127.66 2.01745 5.65172 0
M  V30 1306 H 128.73 2.30285 4.26728 0
M  V30 1307 N 130.073 -1.45103 0.615059 0
M  V30 1308 C 131.319 -2.02483 0.113347 0
M  V30 1309 C 131.652 -1.48146 -1.25564 0
M  V30 1310 O 130.927 -0.659104 -1.82992 0
M  V30 1311 C 131.21 -3.60005 0.0825278 0
M  V30 1312 C 131.063 -4.2466 1.48271 0
M  V30 1313 C 132.382 -4.35972 -0.601401 0
M  V30 1314 H 129.501 -0.735764 0.0426632 0
M  V30 1315 H 132.143 -1.72868 0.788461 0
M  V30 1316 H 130.293 -3.85367 -0.492378 0
M  V30 1317 H 131.965 -4.10458 2.10527 0
M  V30 1318 H 130.208 -3.82772 2.04127 0
M  V30 1319 H 130.879 -5.336 1.41332 0
M  V30 1320 H 133.355 -4.15947 -0.112666 0
M  V30 1321 H 132.231 -5.45697 -0.592097 0
M  V30 1322 H 132.492 -4.09391 -1.66887 0
M  V30 1323 N 131.551 -0.354651 -1.53558 0
M  V30 1324 C 132.499 0.512195 -2.26891 0
M  V30 1325 C 133.493 1.09263 -1.29452 0
M  V30 1326 O 134.699 1.03709 -1.47121 0
M  V30 1327 H 131.074 0.183878 -0.729173 0
M  V30 1328 H 133.045 -0.128202 -2.98124 0
M  V30 1329 C 131.794 1.64563 -3.06291 0
M  V30 1330 H 131.117 1.20829 -3.81104 0
M  V30 1331 H 132.557 2.22711 -3.60799 0
M  V30 1332 C 131.016 2.58158 -2.16462 0
M  V30 1333 O 131.546 3.60695 -1.76811 0
M  V30 1334 N 129.752 2.27096 -1.81317 0
M  V30 1335 H 129.299 1.43751 -2.1376 0
M  V30 1336 H 129.257 2.89975 -1.21498 0
M  V30 1337 N 133.029 1.57378 -0.0835403 0
M  V30 1338 C 133.992 2.12252 0.864959 0
M  V30 1339 C 134.992 1.04916 1.21858 0
M  V30 1340 O 136.182 1.30853 1.14991 0
M  V30 1341 C 133.314 2.63358 2.16461 0
M  V30 1342 H 134.507 2.97371 0.388676 0
M  V30 1343 H 132.06 1.55423 0.165317 0
M  V30 1344 H 132.795 1.81727 2.686 0
M  V30 1345 H 132.58 3.41826 1.92087 0
M  V30 1346 H 134.07 3.05847 2.84337 0
M  V30 1347 N 134.507 -0.190092 1.56449 0
M  V30 1348 C 135.923 -0.54113 1.50146 0
M  V30 1349 C 136.123 -1.85603 0.784465 0
M  V30 1350 O 135.179 -2.5024 0.337051 0
M  V30 1351 C 136.492 -0.591241 2.9483 0
M  V30 1352 C 138.04 -0.679732 3.0553 0
M  V30 1353 C 138.515 -0.760908 4.51635 0
M  V30 1354 N 140.006 -0.824302 4.55806 0
M  V30 1355 C 140.741 -0.907365 5.66175 0
M  V30 1356 N 140.237 -0.952422 6.86222 0
M  V30 1357 N 142.03 -0.94494 5.541 0
M  V30 1358 H 134.181 0.67235 2.01478 0
M  V30 1359 H 136.444 0.240127 0.917084 0
M  V30 1360 H 136.15 0.305905 3.50367 0
M  V30 1361 H 136.024 -1.44422 3.48457 0
M  V30 1362 H 138.411 -1.56731 2.50039 0
M  V30 1363 H 138.492 0.199549 2.5502 0
M  V30 1364 H 138.136 0.122336 5.07753 0
M  V30 1365 H 138.066 -1.65606 4.99882 0
M  V30 1366 H 140.557 -0.798526 3.69367 0
M  V30 1367 H 140.87 -1.01645 7.66086 0
M  V30 1368 H 139.215 -0.921014 6.8887 0
M  V30 1369 H 142.406 -0.906612 4.59236 0
M  V30 1370 H 142.579 -1.00622 6.4014 0
M  V30 1371 N 135.985 -1.50799 -0.457987 0
M  V30 1372 C 136.948 -1.7005 -1.53674 0
M  V30 1373 C 137.948 -0.570881 -1.50325 0
M  V30 1374 O 139.138 -0.838126 -1.52712 0
M  V30 1375 C 136.27 -1.73788 -2.93276 0
M  V30 1376 H 137.463 -2.66306 -1.37917 0
M  V30 1377 H 135.016 -1.40477 -0.685271 0
M  V30 1378 H 135.751 -0.792717 -3.14462 0
M  V30 1379 H 135.536 -2.55864 -2.97113 0
M  V30 1380 H 137.026 -1.90591 -3.71571 0
M  V30 1381 N 137.463 0.71206 -1.40597 0
M  V30 1382 C 138.709 1.47416 -1.39271 0
M  V30 1383 C 139.042 1.942 0.00388791 0
M  V30 1384 O 138.317 1.68403 0.973179 0
M  V30 1385 C 138.6 2.69774 -2.38525 0
M  V30 1386 C 138.453 2.28861 -3.87224 0
M  V30 1387 C 139.772 3.71939 -2.35264 0
M  V30 1388 H 136.891 0.534713 -0.5072 0
M  V30 1389 H 139.533 0.812375 -1.71757 0
M  V30 1390 H 137.683 3.26238 -2.10953 0
M  V30 1391 H 139.355 1.77852 -4.25636 0
M  V30 1392 H 137.598 1.60824 -4.02887 0
M  V30 1393 H 138.269 3.16584 -4.52193 0
M  V30 1394 H 140.745 3.25113 -2.59694 0
M  V30 1395 H 139.621 4.55186 -3.06753 0
M  V30 1396 H 139.882 4.20484 -1.36549 0
M  V30 1397 N 138.941 1.26152 0.944643 0
M  V30 1398 C 139.888 1.07408 2.04285 0
M  V30 1399 C 140.858 -0.0198413 1.66088 0
M  V30 1400 O 142.043 0.139264 1.90291 0
M  V30 1401 C 139.183 0.70945 3.37729 0
M  V30 1402 C 138.296 1.87926 3.88983 0
M  V30 1403 C 137.431 1.45807 5.10797 0
M  V30 1404 C 136.47 2.5964 5.54305 0
M  V30 1405 N 135.607 2.18226 6.67324 0
M  V30 1406 H 140.447 2.01389 2.1965 0
M  V30 1407 H 137.984 1.00275 1.07626 0
M  V30 1408 H 139.942 0.478948 4.14442 0
M  V30 1409 H 138.572 -0.193389 3.2222 0
M  V30 1410 H 137.624 2.22279 3.08701 0
M  V30 1411 H 138.936 2.73377 4.17213 0
M  V30 1412 H 138.09 1.18781 5.94959 0
M  V30 1413 H 136.829 0.574414 4.84305 0
M  V30 1414 H 135.834 2.87399 4.68702 0
M  V30 1415 H 137.059 3.48599 5.828 0
M  V30 1416 H 135.005 1.3229 6.42523 0
M  V30 1417 H 134.922 2.97221 6.95123 0
M  V30 1418 H 136.19 1.94403 7.54869 0
M  V30 1419 N 140.419 -1.14872 1.07899 0
M  V30 1420 C 141.667 -1.85422 0.803941 0
M  V30 1421 C 141.988 -1.83051 -0.67211 0
M  V30 1422 O 141.258 -1.27532 -1.48703 0
M  V30 1423 H 139.838 -0.686537 0.294408 0
M  V30 1424 H 142.5 -1.39226 1.3639 0
M  V30 1425 H 141.596 -2.90399 1.14346 0
M  V30 1426 N 141.898 -0.863906 -1.31812 0
M  V30 1427 C 142.828 -0.330843 -2.31144 0
M  V30 1428 C 143.809 0.575005 -1.60087 0
M  V30 1429 O 144.994 0.493304 -1.8783 0
M  V30 1430 C 142.124 0.47374 -3.44054 0
M  V30 1431 C 141.078 -0.338481 -4.26659 0
M  V30 1432 C 140.404 0.591412 -5.31419 0
M  V30 1433 C 141.704 -1.56926 -4.98168 0
M  V30 1434 H 143.398 -1.16086 -2.75979 0
M  V30 1435 H 140.944 -0.559657 -1.32679 0
M  V30 1436 H 142.897 0.857143 -4.12591 0
M  V30 1437 H 141.621 1.33721 -2.9797 0
M  V30 1438 H 140.28 -0.703754 -3.59782 0
M  V30 1439 H 139.928 1.45199 -4.81587 0
M  V30 1440 H 139.628 0.0519022 -5.87577 0
M  V30 1441 H 141.152 0.97179 -6.02817 0
M  V30 1442 H 142.566 -1.25764 -5.59336 0
M  V30 1443 H 140.963 -2.04739 -5.64094 0
M  V30 1444 H 142.033 -2.32544 -4.25501 0
M  V30 1445 N 143.376 1.44774 -0.622745 0
M  V30 1446 C 144.309 2.27792 0.136329 0
M  V30 1447 C 145.287 1.38041 0.859264 0
M  V30 1448 O 146.471 1.67478 0.86506 0
M  V30 1449 C 143.598 3.16776 1.19878 0
M  V30 1450 C 142.644 4.22575 0.57731 0
M  V30 1451 S 143.477 5.31825 -0.626294 0
M  V30 1452 C 144.633 6.24377 0.436378 0
M  V30 1453 H 144.866 2.91824 -0.567967 0
M  V30 1454 H 142.399 1.48838 -0.410677 0
M  V30 1455 H 144.357 3.68596 1.80686 0
M  V30 1456 H 143.018 2.5198 1.87523 0
M  V30 1457 H 142.211 4.84818 1.37721 0
M  V30 1458 H 141.813 3.73974 0.0440439 0
M  V30 1459 H 144.105 6.64689 1.31128 0
M  V30 1460 H 145.048 7.07941 -0.150271 0
M  V30 1461 H 145.456 5.59381 0.758513 0
M  V30 1462 N 144.854 0.36279 1.53368 0
M  V30 1463 C 146.131 -0.284021 1.93527 0
M  V30 1464 C 146.511 -1.66628 1.29608 0
M  V30 1465 O 145.859 -2.23942 0.45413 0
M  V30 1466 C 146.069 -0.337028 3.47369 0
M  V30 1467 C 147.417 -0.578708 4.20638 0
M  V30 1468 O 148.441 -0.418352 3.53735 0
M  V30 1469 O 147.3 -0.89074 5.39192 0
M  V30 1470 H 144.394 -0.169743 0.809393 0
M  V30 1471 H 146.94 0.41537 1.64538 0
M  V30 1472 H 145.712 0.632217 3.86159 0
M  V30 1473 H 145.335 -1.08243 3.82582 0
M  V30 1474 N 146.332 -1.57332 0.0918853 0
M  V30 1475 C 147.295 -2.12708 -0.85369 0
M  V30 1476 C 148.295 -1.05561 -1.213 0
M  V30 1477 O 149.485 -1.31461 -1.14296 0
M  V30 1478 C 146.617 -2.64503 -2.15061 0
M  V30 1479 H 147.81 -2.97573 -0.3729 0
M  V30 1480 H 145.363 -1.55509 -0.157072 0
M  V30 1481 H 146.098 -1.83149 -2.67632 0
M  V30 1482 H 145.883 -3.4284 -1.90272 0
M  V30 1483 H 147.373 -3.07351 -2.82711 0
M  V30 1484 N 147.81 0.181792 -1.56548 0
M  V30 1485 C 148.74 1.22765 -1.98623 0
M  V30 1486 C 149.721 1.46747 -0.860189 0
M  V30 1487 O 150.906 1.58259 -1.12551 0
M  V30 1488 C 148.036 2.56894 -2.33715 0
M  V30 1489 C 146.99 2.475 -3.49182 0
M  V30 1490 C 146.316 3.86023 -3.69986 0
M  V30 1491 C 147.616 1.98866 -4.82959 0
M  V30 1492 H 149.31 0.877942 -2.86239 0
M  V30 1493 H 146.856 0.42088 -1.37712 0
M  V30 1494 H 148.809 3.30253 -2.61746 0
M  V30 1495 H 147.533 2.93632 -1.42997 0
M  V30 1496 H 146.192 1.76596 -3.21262 0
M  V30 1497 H 145.84 4.20136 -2.76576 0
M  V30 1498 H 145.54 3.80609 -4.47672 0
M  V30 1499 H 147.064 4.60984 -4.00407 0
M  V30 1500 H 148.478 2.61992 -5.09934 0
M  V30 1501 H 146.875 2.04424 -5.64208 0
M  V30 1502 H 147.945 0.942465 -4.75653 0
M  V30 1503 N 149.288 1.51039 0.449983 0
M  V30 1504 C 150.565 1.53612 1.21089 0
M  V30 1505 C 150.945 0.292997 2.09057 0
M  V30 1506 O 150.293 -0.72259 2.16774 0
M  V30 1507 C 150.503 2.84337 2.0237 0
M  V30 1508 C 151.851 3.35807 2.59843 0
M  V30 1509 O 152.875 2.85802 2.12593 0
M  V30 1510 O 151.734 4.23029 3.45989 0
M  V30 1511 H 148.828 0.617057 0.550608 0
M  V30 1512 H 151.374 1.63344 0.460082 0
M  V30 1513 H 150.146 3.66278 1.37681 0
M  V30 1514 H 149.769 2.77708 2.84542 0
M  V30 1515 N 150.766 -0.704594 1.40972 0
M  V30 1516 C 152.015 -1.46018 1.39146 0
M  V30 1517 C 152.328 -1.956 0.000589254 0
M  V30 1518 O 153.534 -2.71137 -0.1403 0
M  V30 1519 C 151.99 -2.63996 2.4461 0
M  V30 1520 C 151.598 -2.21238 3.89561 0
M  V30 1521 C 153.342 -3.41677 2.51907 0
M  V30 1522 C 151.249 -3.3612 4.86598 0
M  V30 1523 H 150.179 -0.548444 0.517422 0
M  V30 1524 H 152.83 -0.765784 1.66757 0
M  V30 1525 H 151.212 -3.3566 2.10115 0
M  V30 1526 H 152.386 -1.56923 4.33257 0
M  V30 1527 H 150.701 -1.56574 3.85841 0
M  V30 1528 H 153.298 -4.27182 3.2159 0
M  V30 1529 H 153.641 -3.86247 1.55303 0
M  V30 1530 H 154.174 -2.77064 2.85448 0
M  V30 1531 H 150.913 -2.96572 5.84573 0
M  V30 1532 H 150.433 -3.99315 4.47557 0
M  V30 1533 H 152.112 -4.02029 5.06934 0
M  V30 1534 N 152.244 -1.26651 -0.937939 0
M  V30 1535 C 153.521 -1.0313 -1.66204 0
M  V30 1536 C 153.901 0.437256 -2.06522 0
M  V30 1537 O 153.249 1.41831 -1.79154 0
M  V30 1538 C 153.459 -1.98314 -2.87181 0
M  V30 1539 C 154.807 -2.27107 -3.58758 0
M  V30 1540 O 155.831 -1.96205 -2.97291 0
M  V30 1541 O 154.69 -2.79736 -4.69479 0
M  V30 1542 H 151.784 -0.392384 -0.727986 0
M  V30 1543 H 154.33 -1.37874 -0.989382 0
M  V30 1544 H 153.102 -2.97399 -2.54302 0
M  V30 1545 H 152.725 -1.64068 -3.6217 0
M  V30 1546 N 153.722 1.14298 -1.08507 0
M  V30 1547 C 155.138 1.37347 -0.812901 0
M  V30 1548 C 155.338 1.93052 0.577325 0
M  V30 1549 O 154.394 2.14389 1.33393 0
M  V30 1550 C 155.707 2.33359 -1.89642 0
M  V30 1551 C 157.255 2.46996 -1.92255 0
M  V30 1552 C 157.73 3.46309 -2.99724 0
M  V30 1553 N 159.221 3.53853 -2.98902 0
M  V30 1554 C 159.956 4.3055 -3.787 0
M  V30 1555 N 159.452 5.10482 -4.6838 0
M  V30 1556 N 161.245 4.25757 -3.66998 0
M  V30 1557 H 153.396 0.764867 -1.9815 0
M  V30 1558 H 155.659 0.398966 -0.859959 0
M  V30 1559 H 155.365 1.99565 -2.89597 0
M  V30 1560 H 155.239 3.33274 -1.76659 0
M  V30 1561 H 157.626 2.80081 -0.929445 0
M  V30 1562 H 157.707 1.47039 -2.09316 0
M  V30 1563 H 157.351 3.13957 -3.99241 0
M  V30 1564 H 157.281 4.46049 -2.79907 0
M  V30 1565 H 159.772 2.96812 -2.33904 0
M  V30 1566 H 160.085 5.66284 -5.25873 0
M  V30 1567 H 158.43 5.09747 -4.72422 0
M  V30 1568 H 161.621 3.62383 -2.96304 0
M  V30 1569 H 161.794 4.85279 -4.29427 0
M  V30 1570 N 155.201 0.870884 1.31352 0
M  V30 1571 C 156.164 0.332243 2.26779 0
M  V30 1572 C 157.164 -0.517302 1.52252 0
M  V30 1573 O 158.354 -0.326477 1.71113 0
M  V30 1574 C 155.486 -0.528066 3.36785 0
M  V30 1575 H 156.679 1.17469 2.75937 0
M  V30 1576 H 154.232 0.64655 1.423 0
M  V30 1577 H 154.967 -1.39167 2.92922 0
M  V30 1578 H 154.752 0.0802582 3.92018 0
M  V30 1579 H 156.242 -0.897179 4.07849 0
M  V30 1580 N 156.679 -1.44442 0.630414 0
M  V30 1581 C 157.629 -2.27794 -0.0968103 0
M  V30 1582 C 158.613 -1.38624 -0.816834 0
M  V30 1583 O 159.805 -1.62438 -0.70306 0
M  V30 1584 C 156.934 -3.25929 -1.07819 0
M  V30 1585 C 156.02 -4.22588 -0.357826 0
M  V30 1586 N 156.411 -5.0207 0.613169 0
M  V30 1587 C 154.709 -4.41914 -0.602365 0
M  V30 1588 C 155.41 -5.72351 1.03871 0
M  V30 1589 N 154.386 -5.42287 0.377642 0
M  V30 1590 H 158.188 -2.86653 0.648621 0
M  V30 1591 H 155.702 -1.55871 0.455862 0
M  V30 1592 H 157.699 -3.84399 -1.61378 0
M  V30 1593 H 156.359 -2.68631 -1.82393 0
M  V30 1594 H 157.37 -5.08331 0.990947 0
M  V30 1595 H 154.047 -3.95714 -1.33103 0
M  V30 1596 H 155.437 -6.4619 1.84086 0
M  V30 1597 N 158.157 -0.370918 -1.53173 0
M  V30 1598 C 159.087 0.464847 -2.28826 0
M  V30 1599 C 160.068 1.07936 -1.31468 0
M  V30 1600 O 161.253 1.0956 -1.60344 0
M  V30 1601 C 158.383 1.60196 -3.08147 0
M  V30 1602 C 157.337 1.11443 -4.13237 0
M  V30 1603 C 156.663 2.3422 -4.80672 0
M  V30 1604 C 157.963 0.195384 -5.21934 0
M  V30 1605 H 159.657 -0.166329 -2.98938 0
M  V30 1606 H 157.203 -0.0814359 -1.4377 0
M  V30 1607 H 159.156 2.19332 -3.59822 0
M  V30 1608 H 157.88 2.26045 -2.35735 0
M  V30 1609 H 156.539 0.545727 -3.62515 0
M  V30 1610 H 156.187 2.98537 -4.04827 0
M  V30 1611 H 155.887 2.02269 -5.51689 0
M  V30 1612 H 157.411 2.94032 -5.35143 0
M  V30 1613 H 158.825 0.694375 -5.69079 0
M  V30 1614 H 157.222 -0.0335027 -6.00091 0
M  V30 1615 H 158.292 -0.760961 -4.78892 0
M  V30 1616 N 159.635 1.57281 -0.100228 0
M  V30 1617 C 160.881 1.94826 0.563101 0
M  V30 1618 C 161.214 0.982475 1.67514 0
M  V30 1619 O 160.489 0.0164069 1.94493 0
M  V30 1620 C 160.772 3.42453 1.11346 0
M  V30 1621 C 160.625 4.498 0.00612081 0
M  V30 1622 C 161.944 3.91506 2.01024 0
M  V30 1623 H 159.063 0.708428 0.203221 0
M  V30 1624 H 161.705 1.8922 -0.171979 0
M  V30 1625 H 159.855 3.47361 1.7399 0
M  V30 1626 H 161.527 4.57 -0.628357 0
M  V30 1627 H 159.77 4.28756 -0.659581 0
M  V30 1628 H 160.441 5.50306 0.432109 0
M  V30 1629 H 162.917 3.88784 1.48278 0
M  V30 1630 H 161.793 4.95358 2.36457 0
M  V30 1631 H 162.054 3.31099 2.92961 0
M  V30 1632 N 161.113 -0.173488 1.56642 0
M  V30 1633 C 162.361 -0.888706 1.81512 0
M  V30 1634 C 162.682 -1.82875 0.676872 0
M  V30 1635 O 161.952 -1.93536 -0.303414 0
M  V30 1636 H 160.532 -0.331164 0.669582 0
M  V30 1637 H 163.194 -0.173823 1.94123 0
M  V30 1638 H 162.29 -1.46691 2.75478 0
M  V30 1639 N 162.591 -1.51276 -0.441967 0
M  V30 1640 C 163.539 -1.72823 -1.55676 0
M  V30 1641 C 164.533 -0.59445 -1.58627 0
M  V30 1642 O 165.739 -0.775715 -1.62427 0
M  V30 1643 H 162.114 -0.545983 -0.517113 0
M  V30 1644 H 164.085 -2.6628 -1.34675 0
M  V30 1645 C 162.834 -1.86619 -2.93375 0
M  V30 1646 H 162.157 -2.73264 -2.91834 0
M  V30 1647 H 163.597 -2.05709 -3.70756 0
M  V30 1648 C 162.056 -0.624842 -3.31055 0
M  V30 1649 O 162.586 0.222636 -4.01083 0
M  V30 1650 N 160.792 -0.470288 -2.86769 0
M  V30 1651 H 160.339 -1.161 -2.29953 0
M  V30 1652 H 160.297 0.359051 -3.12343 0
M  V30 1653 N 164.069 0.697108 -1.41344 0
M  V30 1654 C 165.294 1.49096 -1.44171 0
M  V30 1655 C 165.719 1.88038 -0.0481568 0
M  V30 1656 O 165.077 1.54525 0.948243 0
M  V30 1657 C 165.125 2.73088 -2.3549 0
M  V30 1658 O 164.229 3.70514 -1.81088 0
M  V30 1659 H 163.57 0.448801 -0.489361 0
M  V30 1660 H 166.1 0.856992 -1.85787 0
M  V30 1661 H 166.11 3.21413 -2.51312 0
M  V30 1662 H 164.785 2.44081 -3.36745 0
M  V30 1663 H 163.362 3.29441 -1.74708 0
M  V30 1664 N 165.547 1.27147 0.931209 0
M  V30 1665 C 166.48 1.0389 2.0318 0
M  V30 1666 C 167.458 -0.0395716 1.62552 0
M  V30 1667 O 168.642 0.104867 1.88208 0
M  V30 1668 C 165.769 0.575227 3.3378 0
M  V30 1669 C 164.815 1.64774 3.93385 0
M  V30 1670 S 165.648 3.23933 4.26413 0
M  V30 1671 C 166.804 2.79358 5.60098 0
M  V30 1672 H 167.037 1.97075 2.22596 0
M  V30 1673 H 164.57 1.10938 1.07387 0
M  V30 1674 H 166.528 0.314385 4.09294 0
M  V30 1675 H 165.189 -0.336505 3.12292 0
M  V30 1676 H 164.382 1.27454 4.87618 0
M  V30 1677 H 163.984 1.86048 3.24441 0
M  V30 1678 H 166.276 2.24443 6.39243 0
M  V30 1679 H 167.219 3.72322 6.02314 0
M  V30 1680 H 167.627 2.1861 5.20452 0
M  V30 1681 N 167.025 -1.13721 1.09112 0
M  V30 1682 C 168.273 -1.84559 0.823562 0
M  V30 1683 C 168.594 -1.83754 -0.652658 0
M  V30 1684 O 167.864 -1.29102 -1.47342 0
M  V30 1685 H 166.444 -0.683376 0.301673 0
M  V30 1686 H 169.106 -1.37771 1.37859 0
M  V30 1687 H 168.202 -2.8917 1.17419 0
M  V30 1688 N 168.503 -0.877838 -1.30888 0
M  V30 1689 C 169.751 -0.491723 -1.96027 0
M  V30 1690 C 170.072 0.960827 -1.69685 0
M  V30 1691 O 169.342 1.67462 -1.01654 0
M  V30 1692 H 167.922 -0.17885 -0.725273 0
M  V30 1693 H 170.584 -1.11935 -1.59551 0
M  V30 1694 H 169.68 -0.656016 -3.05128 0
M  V30 1695 N 169.982 1.44106 -0.638065 0
M  V30 1696 C 170.945 2.29138 0.0531013 0
M  V30 1697 C 171.945 1.41409 0.765506 0
M  V30 1698 O 173.135 1.63206 0.609046 0
M  V30 1699 C 170.267 3.23144 1.08584 0
M  V30 1700 H 171.46 2.91739 -0.694883 0
M  V30 1701 H 169.013 1.51134 -0.398538 0
M  V30 1702 H 169.748 2.65408 1.86357 0
M  V30 1703 H 169.533 3.87804 0.578852 0
M  V30 1704 H 171.023 3.87004 1.56899 0
M  V30 1705 N 171.46 0.379036 1.52974 0
M  V30 1706 C 172.688 -0.20679 2.05864 0
M  V30 1707 C 173.103 -1.41356 1.25155 0
M  V30 1708 O 172.46 -1.8009 0.295588 0
M  V30 1709 C 172.511 -0.587045 3.56702 0
M  V30 1710 O 172.232 0.571776 4.34353 0
M  V30 1711 C 173.733 -1.22983 4.25899 0
M  V30 1712 H 170.953 -0.0336123 0.670158 0
M  V30 1713 H 173.497 0.541298 1.97206 0
M  V30 1714 H 171.652 -1.28504 3.65466 0
M  V30 1715 H 172.066 0.261544 5.23847 0
M  V30 1716 H 173.54 -1.44635 5.32715 0
M  V30 1717 H 174.017 -2.19416 3.80465 0
M  V30 1718 H 174.623 -0.572892 4.21424 0
M  V30 1719 N 172.938 -1.57226 0.108567 0
M  V30 1720 C 173.901 -2.13602 -0.831082 0
M  V30 1721 C 174.901 -1.06841 -1.20173 0
M  V30 1722 O 176.091 -1.32666 -1.12895 0
M  V30 1723 C 173.223 -2.66769 -2.12243 0
M  V30 1724 H 174.416 -2.97951 -0.341317 0
M  V30 1725 H 171.969 -1.55667 -0.14057 0
M  V30 1726 H 172.704 -1.85977 -2.65675 0
M  V30 1727 H 172.489 -3.44839 -1.86625 0
M  V30 1728 H 173.979 -3.10332 -2.79435 0
M  V30 1729 N 174.416 0.165178 -1.56732 0
M  V30 1730 C 175.346 1.20651 -1.99914 0
M  V30 1731 C 176.327 1.45827 -0.875705 0
M  V30 1732 O 177.512 1.57057 -1.14223 0
M  V30 1733 C 174.642 2.54401 -2.36427 0
M  V30 1734 C 173.596 2.43782 -3.51787 0
M  V30 1735 C 172.922 3.82078 -3.7406 0
M  V30 1736 C 174.222 1.93732 -4.85041 0
M  V30 1737 H 175.916 0.847534 -2.87154 0
M  V30 1738 H 173.462 0.40625 -1.38151 0
M  V30 1739 H 175.415 3.27458 -2.65234 0
M  V30 1740 H 174.139 2.92098 -1.46103 0
M  V30 1741 H 172.798 1.73178 -3.23117 0
M  V30 1742 H 172.446 4.17179 -2.81017 0
M  V30 1743 H 172.146 3.7584 -4.51684 0
M  V30 1744 H 173.67 4.56712 -4.05274 0
M  V30 1745 H 175.084 2.56569 -5.12684 0
M  V30 1746 H 173.481 1.98428 -5.66345 0
M  V30 1747 H 174.551 0.891962 -4.76626 0
M  V30 1748 N 175.894 1.51508 0.433938 0
M  V30 1749 C 176.842 1.73646 1.54757 0
M  V30 1750 C 177.836 0.602854 1.5831 0
M  V30 1751 O 179.042 0.784318 1.62014 0
M  V30 1752 H 175.417 0.548718 0.51421 0
M  V30 1753 H 177.388 2.66991 1.33261 0
M  V30 1754 C 176.137 1.88172 2.92381 0
M  V30 1755 H 175.46 2.74808 2.90381 0
M  V30 1756 H 176.9 2.07672 3.6966 0
M  V30 1757 C 175.359 0.64239 3.30719 0
M  V30 1758 O 175.889 -0.201362 4.01195 0
M  V30 1759 N 174.095 0.485489 2.86516 0
M  V30 1760 H 173.642 1.17318 2.29334 0
M  V30 1761 H 173.6 -0.342482 3.12529 0
M  V30 1762 N 177.372 -0.689602 1.41712 0
M  V30 1763 C 178.619 -1.44966 1.4139 0
M  V30 1764 C 178.947 -1.94484 0.025105 0
M  V30 1765 O 178.202 -1.70307 -0.964048 0
M  V30 1766 C 178.501 -2.67298 2.37247 0
M  V30 1767 C 178.167 -2.36405 3.83958 0
M  V30 1768 C 176.829 -2.27691 4.23923 0
M  V30 1769 C 179.181 -2.11043 4.76561 0
M  V30 1770 C 176.509 -1.91719 5.54492 0
M  V30 1771 C 178.861 -1.76578 6.07456 0
M  V30 1772 C 177.525 -1.66363 6.46436 0
M  V30 1773 H 176.795 -0.53047 0.517381 0
M  V30 1774 H 179.442 -0.787655 1.74552 0
M  V30 1775 H 177.747 -3.38461 1.9736 0
M  V30 1776 H 179.444 -3.25452 2.34269 0
M  V30 1777 H 176.034 -2.44085 3.52308 0
M  V30 1778 H 180.218 -2.16717 4.46483 0
M  V30 1779 H 175.474 -1.82367 5.83568 0
M  V30 1780 H 179.648 -1.55974 6.78708 0
M  V30 1781 H 177.275 -1.38258 7.47522 0
M  V30 1782 N 178.85 -1.27639 -0.924453 0
M  V30 1783 C 179.813 -1.10681 -2.00705 0
M  V30 1784 C 180.813 -0.0497823 -1.60723 0
M  V30 1785 O 182.003 -0.294654 -1.7169 0
M  V30 1786 C 179.135 -0.687164 -3.33902 0
M  V30 1787 H 180.328 -2.06817 -2.17179 0
M  V30 1788 H 177.881 -1.10473 -1.10569 0
M  V30 1789 H 178.616 0.275439 -3.23128 0
M  V30 1790 H 178.401 -1.45061 -3.6428 0
M  V30 1791 H 179.891 -0.590853 -4.13399 0
M  V30 1792 N 180.328 1.1314 -1.09713 0
M  V30 1793 C 181.258 2.20748 -0.761102 0
M  V30 1794 C 182.239 1.68061 0.262566 0
M  V30 1795 O 183.424 1.93765 0.129977 0
M  V30 1796 C 180.554 3.46812 -0.184054 0
M  V30 1797 C 179.508 4.12606 -1.13757 0
M  V30 1798 C 178.834 5.33031 -0.422083 0
M  V30 1799 C 180.134 4.59603 -2.48118 0
M  V30 1800 H 181.828 2.49113 -1.66082 0
M  V30 1801 H 179.374 1.19734 -0.799987 0
M  V30 1802 H 181.327 4.21353 0.0631215 0
M  V30 1803 H 180.051 3.17851 0.750868 0
M  V30 1804 H 178.71 3.40036 -1.37007 0
M  V30 1805 H 178.358 5.00335 0.517072 0
M  V30 1806 H 178.058 5.77999 -1.05788 0
M  V30 1807 H 179.582 6.10325 -0.183277 0
M  V30 1808 H 180.996 5.25552 -2.29059 0
M  V30 1809 H 179.393 5.15321 -3.07514 0
M  V30 1810 H 180.463 3.73971 -3.08665 0
M  V30 1811 N 181.806 0.884767 1.30421 0
M  V30 1812 C 182.716 0.355398 2.31892 0
M  V30 1813 C 183.732 -0.542261 1.65335 0
M  V30 1814 O 184.908 -0.435432 1.96637 0
M  V30 1815 C 181.973 -0.421661 3.44126 0
M  V30 1816 C 181.034 0.505727 4.26311 0
M  V30 1817 C 180.267 -0.234343 5.33185 0
M  V30 1818 O 180.49 -1.46045 5.51386 0
M  V30 1819 O 179.424 0.415443 6.00465 0
M  V30 1820 H 183.25 1.19685 2.79122 0
M  V30 1821 H 180.835 0.648596 1.34587 0
M  V30 1822 H 182.717 -0.861641 4.12497 0
M  V30 1823 H 181.392 -1.23942 2.99032 0
M  V30 1824 H 180.299 0.994513 3.60639 0
M  V30 1825 H 181.632 1.28948 4.75009 0
M  V30 1826 N 183.284 -1.43765 0.645699 0
M  V30 1827 C 184.514 -2.05953 0.163318 0
M  V30 1828 C 184.922 -1.48432 -1.17322 0
M  V30 1829 O 184.265 -0.607295 -1.73371 0
M  V30 1830 C 184.327 -3.59499 -0.0103065 0
M  V30 1831 C 183.991 -4.39563 1.25035 0
M  V30 1832 C 184.988 -4.72108 2.17739 0
M  V30 1833 C 182.673 -4.79697 1.48983 0
M  V30 1834 C 184.667 -5.43688 3.3269 0
M  V30 1835 C 182.354 -5.51023 2.64229 0
M  V30 1836 C 183.352 -5.8294 3.55908 0
M  V30 1837 O 183.04 -6.5281 4.69142 0
M  V30 1838 H 182.772 -0.670798 0.0836986 0
M  V30 1839 H 185.326 -1.85384 0.884407 0
M  V30 1840 H 183.556 -3.78613 -0.78669 0
M  V30 1841 H 185.245 -4.03408 -0.449087 0
M  V30 1842 H 186.011 -4.41627 2.00476 0
M  V30 1843 H 181.89 -4.54266 0.785078 0
M  V30 1844 H 185.434 -5.68517 4.04269 0
M  V30 1845 H 181.331 -5.8092 2.81429 0
M  V30 1846 H 182.099 -6.71288 4.6831 0
M  V30 1847 N 184.763 -0.387143 -1.52771 0
M  V30 1848 C 186.174 0.0873634 -1.86495 0
M  V30 1849 C 186.525 1.46336 -1.30691 0
M  V30 1850 O 185.65 2.068 -0.637409 0
M  V30 1851 C 186.245 0.165305 -3.38396 0
M  V30 1852 C 184.804 0.584101 -3.7184 0
M  V30 1853 C 183.951 -0.255279 -2.76122 0
M  V30 1854 H 186.902 -0.605104 -1.46711 0
M  V30 1855 H 186.923 0.984848 -3.67534 0
M  V30 1856 H 186.435 -0.836301 -3.78982 0
M  V30 1857 H 184.536 1.59315 -3.36823 0
M  V30 1858 H 184.649 0.343749 -4.77865 0
M  V30 1859 H 183.013 0.279126 -2.53166 0
M  V30 1860 H 183.796 -1.25482 -3.19545 0
M  V30 1861 N 186.241 1.57166 -0.116904 0
M  V30 1862 C 187.518 1.86645 0.585049 0
M  V30 1863 C 187.898 1.0177 1.84949 0
M  V30 1864 O 187.246 0.0960379 2.28298 0
M  V30 1865 C 187.456 3.37736 0.879507 0
M  V30 1866 C 188.804 4.06289 1.23348 0
M  V30 1867 O 189.828 3.42743 0.969836 0
M  V30 1868 O 188.687 5.18455 1.7282 0
M  V30 1869 H 185.781 0.772593 0.295007 0
M  V30 1870 H 188.327 1.69025 -0.151249 0
M  V30 1871 H 187.099 3.91296 -0.0166136 0
M  V30 1872 H 186.722 3.6078 1.67103 0
M  V30 1873 N 187.719 -0.156864 1.56817 0
M  V30 1874 C 189.135 -0.50916 1.5126 0
M  V30 1875 C 189.335 -1.83897 0.823658 0
M  V30 1876 O 188.391 -2.49469 0.390055 0
M  V30 1877 C 189.704 -0.52857 2.96018 0
M  V30 1878 C 191.252 -0.614771 3.06903 0
M  V30 1879 C 191.727 -0.664938 4.53147 0
M  V30 1880 N 193.218 -0.727433 4.57452 0
M  V30 1881 C 193.953 -0.787067 5.67973 0
M  V30 1882 N 193.449 -0.806649 6.88088 0
M  V30 1883 N 195.242 -0.827195 5.5598 0
M  V30 1884 H 187.393 0.714935 2.00006 0
M  V30 1885 H 189.656 0.259526 0.911784 0
M  V30 1886 H 189.362 0.380154 3.49639 0
M  V30 1887 H 189.236 -1.36998 3.51442 0
M  V30 1888 H 191.623 -1.51392 2.53307 0
M  V30 1889 H 191.704 0.253597 2.5454 0
M  V30 1890 H 191.348 0.230011 5.07379 0
M  V30 1891 H 191.278 -1.54966 5.03282 0
M  V30 1892 H 193.769 -0.719998 3.70978 0
M  V30 1893 H 194.082 -0.853727 7.6807 0
M  V30 1894 H 192.427 -0.774687 6.90669 0
M  V30 1895 H 195.618 -0.808998 4.61056 0
M  V30 1896 H 195.791 -0.870206 6.4213 0
M  V30 1897 N 189.197 -1.51736 -0.425897 0
M  V30 1898 C 190.446 -1.64201 -1.17136 0
M  V30 1899 C 190.759 -0.369705 -1.92074 0
M  V30 1900 O 191.965 -0.373898 -2.68913 0
M  V30 1901 C 190.421 -2.90035 -2.13091 0
M  V30 1902 C 190.029 -4.24312 -1.43747 0
M  V30 1903 C 191.773 -3.1186 -2.87999 0
M  V30 1904 C 189.68 -5.41285 -2.38253 0
M  V30 1905 H 188.61 -0.611624 -0.440944 0
M  V30 1906 H 191.261 -1.78212 -0.437328 0
M  V30 1907 H 189.643 -2.69684 -2.89977 0
M  V30 1908 H 190.817 -4.55086 -0.723408 0
M  V30 1909 H 189.132 -4.08456 -0.809465 0
M  V30 1910 H 191.729 -3.96427 -3.58817 0
M  V30 1911 H 192.072 -2.25403 -3.49999 0
M  V30 1912 H 192.605 -3.32605 -2.18217 0
M  V30 1913 H 189.344 -6.30037 -1.80925 0
M  V30 1914 H 188.864 -5.14872 -3.0768 0
M  V30 1915 H 190.543 -5.73694 -2.99139 0
M  V30 1916 N 190.675 0.682077 -1.42076 0
M  V30 1917 C 191.923 1.4393 -1.41876 0
M  V30 1918 C 192.244 1.94971 -0.0335599 0
M  V30 1919 O 191.514 1.72591 0.926773 0
M  V30 1920 H 190.094 0.534085 -0.522267 0
M  V30 1921 H 192.756 0.806427 -1.77434 0
M  V30 1922 H 191.852 2.29588 -2.11414 0
M  V30 1923 N 192.153 1.28127 0.917671 0
M  V30 1924 C 193.1 1.11717 2.0196 0
M  V30 1925 C 194.07 0.0153929 1.66093 0
M  V30 1926 O 195.255 0.179596 1.89953 0
M  V30 1927 C 192.395 0.780927 3.36148 0
M  V30 1928 C 191.508 1.96135 3.84909 0
M  V30 1929 C 190.643 1.56609 5.0759 0
M  V30 1930 C 189.682 2.71339 5.48673 0
M  V30 1931 N 188.819 2.32332 6.62545 0
M  V30 1932 H 193.659 2.06003 2.15329 0
M  V30 1933 H 191.196 1.02535 1.05475 0
M  V30 1934 H 193.154 0.56675 4.13333 0
M  V30 1935 H 191.784 -0.124998 3.22558 0
M  V30 1936 H 190.836 2.28777 3.03916 0
M  V30 1937 H 192.148 2.82165 4.1132 0
M  V30 1938 H 191.302 1.31374 5.92305 0
M  V30 1939 H 190.041 0.677014 4.82978 0
M  V30 1940 H 189.046 2.97276 4.62501 0
M  V30 1941 H 190.271 3.60882 5.75274 0
M  V30 1942 H 188.217 1.45889 6.39572 0
M  V30 1943 H 188.134 3.11899 6.88662 0
M  V30 1944 H 189.402 2.10371 7.50576 0
M  V30 1945 N 193.631 -1.12557 1.10312 0
M  V30 1946 C 194.561 -2.20341 0.772798 0
M  V30 1947 C 195.542 -1.68198 -0.25365 0
M  V30 1948 O 196.727 -1.93831 -0.119699 0
M  V30 1949 C 193.857 -3.46709 0.202443 0
M  V30 1950 C 192.811 -4.11996 1.15943 0
M  V30 1951 C 192.137 -5.328 0.450345 0
M  V30 1952 C 193.437 -4.5828 2.50552 0
M  V30 1953 H 195.131 -2.48229 1.674 0
M  V30 1954 H 192.677 -1.19308 0.806326 0
M  V30 1955 H 194.63 -4.2138 -0.0407752 0
M  V30 1956 H 193.354 -3.18245 -0.734001 0
M  V30 1957 H 192.013 -3.39305 1.38808 0
M  V30 1958 H 191.661 -5.00602 -0.490531 0
M  V30 1959 H 191.361 -5.7743 1.08851 0
M  V30 1960 H 192.885 -6.10219 0.215642 0
M  V30 1961 H 194.299 -5.2433 2.31843 0
M  V30 1962 H 192.696 -5.13683 3.10242 0
M  V30 1963 H 193.766 -3.72329 3.10643 0
M  V30 1964 N 195.109 -0.891671 -1.2995 0
M  V30 1965 C 196.358 -0.509521 -1.95158 0
M  V30 1966 C 196.671 0.947388 -1.71125 0
M  V30 1967 O 197.877 1.43669 -2.30372 0
M  V30 1968 C 196.333 -0.860315 -3.49466 0
M  V30 1969 C 195.941 -2.33545 -3.8231 0
M  V30 1970 C 197.685 -0.547687 -4.20952 0
M  V30 1971 C 195.592 -2.62752 -5.29826 0
M  V30 1972 H 194.522 -0.18682 -0.730489 0
M  V30 1973 H 197.173 -1.08756 -1.47798 0
M  V30 1974 H 195.555 -0.211285 -3.95436 0
M  V30 1975 H 196.729 -3.02936 -3.47227 0
M  V30 1976 H 195.044 -2.61629 -3.23944 0
M  V30 1977 H 197.641 -0.742854 -5.29515 0
M  V30 1978 H 197.984 0.51332 -4.13123 0
M  V30 1979 H 198.517 -1.1542 -3.80688 0
M  V30 1980 H 195.256 -3.6762 -5.42712 0
M  V30 1981 H 194.776 -1.97977 -5.66185 0
M  V30 1982 H 196.455 -2.48601 -5.97333 0
M  V30 1983 N 196.587 1.43421 -0.653314 0
M  V30 1984 C 197.517 2.33487 0.0246656 0
M  V30 1985 C 198.498 1.49475 0.811863 0
M  V30 1986 O 199.683 1.78139 0.773322 0
M  V30 1987 C 196.813 3.32841 0.99166 0
M  V30 1988 C 195.767 4.26842 0.314568 0
M  V30 1989 C 195.093 5.16236 1.39302 0
M  V30 1990 C 196.393 5.16243 -0.793095 0
M  V30 1991 H 198.087 2.90427 -0.727481 0
M  V30 1992 H 195.633 1.39649 -0.351287 0
M  V30 1993 H 197.586 3.94747 1.47487 0
M  V30 1994 H 196.31 2.74158 1.77497 0
M  V30 1995 H 194.969 3.663 -0.148199 0
M  V30 1996 H 194.617 4.53891 2.16776 0
M  V30 1997 H 194.317 5.79948 0.945223 0
M  V30 1998 H 195.841 5.81015 1.87759 0
M  V30 1999 H 197.255 5.71958 -0.392039 0
M  V30 2000 H 195.652 5.88676 -1.16536 0
M  V30 2001 H 196.722 4.55927 -1.65103 0
M  V30 2002 N 198.065 0.39524 1.52563 0
M  V30 2003 C 198.998 -0.4813 2.23067 0
M  V30 2004 C 199.976 -1.05927 1.23362 0
M  V30 2005 O 201.16 -1.10979 1.52368 0
M  V30 2006 C 198.287 -1.66676 2.9485 0
M  V30 2007 C 197.333 -1.21348 4.08873 0
M  V30 2008 S 198.166 -0.190102 5.35162 0
M  V30 2009 C 199.322 -1.38121 6.1047 0
M  V30 2010 H 199.555 0.117381 2.97068 0
M  V30 2011 H 197.088 0.179458 1.53354 0
M  V30 2012 H 199.046 -2.3466 3.36816 0
M  V30 2013 H 197.707 -2.23676 2.20518 0
M  V30 2014 H 196.9 -2.09877 4.58222 0
M  V30 2015 H 196.502 -0.612486 3.68951 0
M  V30 2016 H 198.794 -2.30726 6.37002 0
M  V30 2017 H 199.737 -0.928521 7.01986 0
M  V30 2018 H 200.145 -1.60071 5.41329 0
M  V30 2019 N 199.544 -1.57102 0.125237 0
M  V30 2020 C 200.792 -1.95021 -0.530198 0
M  V30 2021 C 201.113 -1.00982 -1.66816 0
M  V30 2022 O 200.383 -0.0672693 -1.95784 0
M  V30 2023 H 198.963 -0.720046 -0.198853 0
M  V30 2024 H 201.625 -1.93916 0.19564 0
M  V30 2025 H 200.721 -2.98211 -0.920681 0
M  V30 2026 N 201.022 0.148545 -1.56898 0
M  V30 2027 C 202.433 0.708766 -1.72723 0
M  V30 2028 C 202.784 1.81734 -0.739395 0
M  V30 2029 O 201.909 2.16194 0.0943169 0
M  V30 2030 C 202.504 1.29245 -3.13179 0
M  V30 2031 C 201.063 1.79925 -3.30611 0
M  V30 2032 C 200.21 0.687111 -2.68652 0
M  V30 2033 H 203.161 -0.0771063 -1.58513 0
M  V30 2034 H 203.182 2.16224 -3.13093 0
M  V30 2035 H 202.694 0.485382 -3.85053 0
M  V30 2036 H 200.795 2.63203 -2.63732 0
M  V30 2037 H 200.908 1.92903 -4.38549 0
M  V30 2038 H 199.272 1.11335 -2.29078 0
M  V30 2039 H 200.055 -0.108483 -3.43129 0
M  V30 2040 N 202.5 1.5196 0.417844 0
M  V30 2041 C 203.748 1.65263 1.16329 0
M  V30 2042 C 204.069 0.380634 1.91249 0
M  V30 2043 O 203.339 -0.604214 1.86349 0
M  V30 2044 H 201.919 0.60912 0.432414 0
M  V30 2045 H 204.581 1.88969 0.477162 0
M  V30 2046 H 203.677 2.4896 1.88217 0
M  V30 2047 N 203.978 -0.674533 1.42435 0
M  V30 2048 C 205.226 -1.43175 1.42637 0
M  V30 2049 C 205.547 -1.94951 0.0438992 0
M  V30 2050 O 204.817 -1.7308 -0.917607 0
M  V30 2051 H 203.397 -0.531307 0.525092 0
M  V30 2052 H 206.059 -0.797006 1.77859 0
M  V30 2053 H 205.155 -2.28463 2.12629 0
M  V30 2054 N 205.456 -1.28612 -0.910864 0
M  V30 2055 C 206.386 -1.15326 -2.03032 0
M  V30 2056 C 207.367 -0.0502924 -1.70026 0
M  V30 2057 O 208.552 -0.227797 -1.92859 0
M  V30 2058 C 205.682 -0.817343 -3.37545 0
M  V30 2059 C 204.636 -1.8754 -3.84724 0
M  V30 2060 C 203.962 -1.39305 -5.16235 0
M  V30 2061 C 205.262 -3.28244 -4.06267 0
M  V30 2062 H 206.956 -2.08975 -2.14406 0
M  V30 2063 H 204.502 -1.00612 -1.03021 0
M  V30 2064 H 206.455 -0.711151 -4.15356 0
M  V30 2065 H 205.179 0.154846 -3.26233 0
M  V30 2066 H 203.838 -1.97079 -3.09121 0
M  V30 2067 H 203.486 -0.409846 -5.01328 0
M  V30 2068 H 203.186 -2.10057 -5.48771 0
M  V30 2069 H 204.71 -1.30014 -5.96598 0
M  V30 2070 H 206.124 -3.21611 -4.74594 0
M  V30 2071 H 204.521 -3.96855 -4.5014 0
M  V30 2072 H 205.591 -3.72048 -3.10979 0
M  V30 2073 N 206.934 1.1197 -1.10907 0
M  V30 2074 C 208.182 1.83225 -0.852819 0
M  V30 2075 C 208.503 1.84769 0.623341 0
M  V30 2076 O 207.773 1.3143 1.45269 0
M  V30 2077 H 206.353 0.67849 -0.312507 0
M  V30 2078 H 209.015 1.3556 -1.40033 0
M  V30 2079 H 208.111 2.87265 -1.22005 0
M  V30 2080 N 208.412 0.89855 1.29475 0
M  V30 2081 C 209.823 0.572537 1.77705 0
M  V30 2082 C 210.174 -0.911778 1.73727 0
M  V30 2083 O 209.299 -1.71288 1.32247 0
M  V30 2084 C 209.894 1.03252 3.22683 0
M  V30 2085 C 208.453 0.757687 3.68695 0
M  V30 2086 C 207.6 1.20787 2.49612 0
M  V30 2087 H 210.551 1.08139 1.16153 0
M  V30 2088 H 210.572 0.367307 3.78723 0
M  V30 2089 H 210.084 2.11285 3.25546 0
M  V30 2090 H 208.185 -0.310079 3.71308 0
M  V30 2091 H 208.298 1.35476 4.59547 0
M  V30 2092 H 206.662 0.626888 2.46865 0
M  V30 2093 H 207.445 2.29622 2.55203 0
M  V30 2094 N 209.89 -1.43072 0.660911 0
M  V30 2095 C 211.115 -2.06584 0.183805 0
M  V30 2096 C 211.54 -1.49257 -1.14472 0
M  V30 2097 O 210.898 -0.605528 -1.70889 0
M  V30 2098 C 210.946 -3.60418 0.114434 0
M  V30 2099 O 210.05 -4.01981 -0.921137 0
M  V30 2100 H 209.391 -0.656669 0.0983994 0
M  V30 2101 H 211.921 -1.83447 0.906006 0
M  V30 2102 H 211.931 -4.07946 -0.0663394 0
M  V30 2103 H 210.606 -4.01519 1.08422 0
M  V30 2104 H 209.183 -3.66029 -0.71253 0
M  V30 2105 N 211.368 -0.403325 -1.52352 0
M  V30 2106 C 212.301 0.469463 -2.23319 0
M  V30 2107 C 213.279 1.05272 -1.23922 0
M  V30 2108 O 214.463 1.10169 -1.52954 0
M  V30 2109 C 211.59 1.6511 -2.9573 0
M  V30 2110 C 210.636 1.19178 -4.0951 0
M  V30 2111 S 211.469 0.161718 -5.35256 0
M  V30 2112 C 212.625 1.34882 -6.11194 0
M  V30 2113 H 212.858 -0.133134 -2.97002 0
M  V30 2114 H 210.391 -0.187588 -1.53256 0
M  V30 2115 H 212.349 2.3287 -3.38056 0
M  V30 2116 H 211.01 2.22503 -2.21701 0
M  V30 2117 H 210.203 2.07444 -4.59329 0
M  V30 2118 H 209.805 0.592911 -3.6927 0
M  V30 2119 H 212.097 2.27345 -6.38217 0
M  V30 2120 H 213.04 0.89128 -7.02468 0
M  V30 2121 H 213.448 1.57198 -5.42171 0
M  V30 2122 N 212.846 1.57033 -0.133567 0
M  V30 2123 C 214.093 1.95686 0.520877 0
M  V30 2124 C 214.421 1.0177 1.6575 0
M  V30 2125 O 213.676 0.0443195 1.9565 0
M  V30 2126 C 213.975 3.40674 1.08057 0
M  V30 2127 C 213.641 4.50855 0.0637899 0
M  V30 2128 C 212.303 4.80716 -0.215757 0
M  V30 2129 C 214.655 5.17398 -0.62835 0
M  V30 2130 C 211.983 5.74433 -1.19348 0
M  V30 2131 C 214.335 6.12167 -1.5948 0
M  V30 2132 C 212.999 6.40414 -1.88218 0
M  V30 2133 H 212.269 0.716067 0.190602 0
M  V30 2134 H 214.916 1.9026 -0.217556 0
M  V30 2135 H 213.221 3.42865 1.89606 0
M  V30 2136 H 214.918 3.67902 1.59529 0
M  V30 2137 H 211.508 4.27605 0.291855 0
M  V30 2138 H 215.692 4.94472 -0.425562 0
M  V30 2139 H 210.948 5.94616 -1.42272 0
M  V30 2140 H 215.122 6.6281 -2.13671 0
M  V30 2141 H 212.749 7.12838 -2.64133 0
M  V30 2142 N 214.325 -0.140222 1.56975 0
M  V30 2143 C 215.288 -1.15689 1.97861 0
M  V30 2144 C 216.288 -1.3549 0.865974 0
M  V30 2145 O 217.478 -1.32367 1.13246 0
M  V30 2146 C 214.61 -2.51582 2.30042 0
M  V30 2147 H 215.803 -0.805971 2.88867 0
M  V30 2148 H 213.356 -0.383801 1.51515 0
M  V30 2149 H 214.091 -2.91632 1.41849 0
M  V30 2150 H 213.876 -2.38569 3.11171 0
M  V30 2151 H 215.366 -3.24792 2.62488 0
M  V30 2152 N 215.803 -1.52179 -0.40978 0
M  V30 2153 C 217.214 -1.58377 -0.988615 0
M  V30 2154 C 217.565 -0.423879 -1.91566 0
M  V30 2155 O 216.69 0.455844 -2.11544 0
M  V30 2156 C 217.285 -2.87044 -1.79976 0
M  V30 2157 C 215.844 -2.95722 -2.32863 0
M  V30 2158 C 214.991 -2.53309 -1.12828 0
M  V30 2159 H 217.942 -1.57558 -0.190039 0
M  V30 2160 H 217.963 -2.7236 -2.65707 0
M  V30 2161 H 217.475 -3.71444 -1.12478 0
M  V30 2162 H 215.576 -2.15814 -3.03735 0
M  V30 2163 H 215.689 -3.99951 -2.63773 0
M  V30 2164 H 214.053 -2.07142 -1.48204 0
M  V30 2165 H 214.836 -3.40082 -0.46897 0
M  V30 2166 N 217.281 0.66697 -1.42791 0
M  V30 2167 C 218.214 1.79177 -1.41318 0
M  V30 2168 C 219.192 1.60234 -0.276401 0
M  V30 2169 O 220.376 1.82602 -0.46785 0
M  V30 2170 C 217.503 3.16289 -1.21157 0
M  V30 2171 C 216.549 3.53964 -2.37932 0
M  V30 2172 S 217.382 3.55501 -4.00474 0
M  V30 2173 C 218.538 4.95292 -3.8267 0
M  V30 2174 H 218.771 1.80153 -2.365 0
M  V30 2175 H 216.304 0.838357 -1.29657 0
M  V30 2176 H 218.262 3.95428 -1.10212 0
M  V30 2177 H 216.923 3.1289 -0.275481 0
M  V30 2178 H 216.116 4.53646 -2.19594 0
M  V30 2179 H 215.718 2.82204 -2.45432 0
M  V30 2180 H 218.01 5.83584 -3.44145 0
M  V30 2181 H 218.953 5.18679 -4.82055 0
M  V30 2182 H 219.361 4.68179 -3.15386 0
M  V30 2183 N 218.759 1.29093 0.90403 0
M  V30 2184 C 220.17 1.15186 1.46932 0
M  V30 2185 C 220.521 -0.254587 1.94541 0
M  V30 2186 O 219.646 -1.14972 1.83332 0
M  V30 2187 C 220.241 2.08492 2.67051 0
M  V30 2188 C 218.8 1.98621 3.19729 0
M  V30 2189 C 217.947 1.9967 1.92425 0
M  V30 2190 H 220.898 1.41641 0.715789 0
M  V30 2191 H 220.919 1.65461 3.42641 0
M  V30 2192 H 220.431 3.10847 2.3237 0
M  V30 2193 H 218.532 0.993389 3.59114 0
M  V30 2194 H 218.645 2.86068 3.8432 0
M  V30 2195 H 217.009 1.44208 2.09943 0
M  V30 2196 H 217.792 3.03721 1.60026 0
M  V30 2197 N 220.237 -1.11381 1.11499 0
M  V30 2198 C 221.17 -2.16621 0.71769 0
M  V30 2199 C 222.148 -1.60058 -0.286413 0
M  V30 2200 O 223.332 -1.87613 -0.182689 0
M  V30 2201 C 220.459 -3.38646 0.0607265 0
M  V30 2202 C 219.505 -4.13874 1.03008 0
M  V30 2203 S 220.338 -4.70731 2.55289 0
M  V30 2204 C 221.494 -5.96079 1.90895 0
M  V30 2205 H 221.727 -2.49987 1.60915 0
M  V30 2206 H 219.26 -1.23015 0.933092 0
M  V30 2207 H 221.218 -4.09313 -0.311965 0
M  V30 2208 H 219.879 -3.03537 -0.807702 0
M  V30 2209 H 219.072 -5.01333 0.517853 0
M  V30 2210 H 218.674 -3.4897 1.34522 0
M  V30 2211 H 220.966 -6.65948 1.24577 0
M  V30 2212 H 221.909 -6.51946 2.76354 0
M  V30 2213 H 222.317 -5.47652 1.36885 0
M  V30 2214 N 221.715 -0.905404 -1.28997 0
M  V30 2215 C 222.625 -0.392246 -2.31298 0
M  V30 2216 C 223.641 0.515889 -1.66176 0
M  V30 2217 O 224.817 0.404093 -1.97304 0
M  V30 2218 C 221.882 0.36686 -3.44754 0
M  V30 2219 C 220.943 -0.573485 -4.25452 0
M  V30 2220 C 220.176 0.149488 -5.33491 0
M  V30 2221 O 220.399 1.37255 -5.5364 0
M  V30 2222 O 219.333 -0.510919 -5.99728 0
M  V30 2223 H 223.159 -1.2411 -2.77183 0
M  V30 2224 H 220.744 -0.669926 -1.33538 0
M  V30 2225 H 222.626 0.795907 -4.13816 0
M  V30 2226 H 221.301 1.19169 -3.00966 0
M  V30 2227 H 220.208 -1.05176 -3.59011 0
M  V30 2228 H 221.541 -1.36489 -4.72897 0
M  V30 2229 N 223.193 1.4272 -0.668489 0
M  V30 2230 C 224.441 2.01226 -0.187769 0
M  V30 2231 C 224.762 1.53092 1.2078 0
M  V30 2232 O 224.032 0.74993 1.80977 0
M  V30 2233 H 222.612 0.744041 -0.0664272 0
M  V30 2234 H 225.274 1.74723 -0.863583 0
M  V30 2235 H 224.37 3.11556 -0.184166 0
M  V30 2236 N 224.671 0.411399 1.52136 0
M  V30 2237 C 225.92 -0.165009 2.01024 0
M  V30 2238 C 226.233 -1.4603 1.30133 0
M  V30 2239 O 227.439 -2.1181 1.69849 0
M  V30 2240 C 225.895 -0.344618 3.58246 0
M  V30 2241 C 225.503 0.938716 4.38055 0
M  V30 2242 C 227.247 -0.876195 4.15359 0
M  V30 2243 C 225.154 0.726172 5.86925 0
M  V30 2244 H 224.084 -0.0654407 0.751155 0
M  V30 2245 H 226.735 0.537192 1.75461 0
M  V30 2246 H 225.117 -1.10921 3.80148 0
M  V30 2247 H 226.291 1.70963 4.27912 0
M  V30 2248 H 224.606 1.39688 3.92271 0
M  V30 2249 H 227.203 -1.05128 5.24263 0
M  V30 2250 H 227.546 -1.85152 3.7286 0
M  V30 2251 H 228.079 -0.170607 3.97434 0
M  V30 2252 H 224.818 1.67312 6.33788 0
M  V30 2253 H 224.338 -0.00540283 5.998 0
M  V30 2254 H 226.017 0.369231 6.45946 0
M  V30 2255 N 226.149 -1.5696 0.141893 0
M  V30 2256 C 227.096 -2.16501 -0.799737 0
M  V30 2257 C 228.066 -1.09643 -1.24771 0
M  V30 2258 O 229.251 -1.3766 -1.32115 0
M  V30 2259 C 226.391 -2.78679 -2.03549 0
M  V30 2260 C 225.504 -3.99914 -1.6338 0
M  V30 2261 C 224.639 -4.50106 -2.82096 0
M  V30 2262 C 223.678 -5.63819 -2.38275 0
M  V30 2263 N 222.815 -6.08651 -3.49983 0
M  V30 2264 H 227.655 -2.96632 -0.285179 0
M  V30 2265 H 225.192 -1.46533 -0.129053 0
M  V30 2266 H 227.15 -3.1287 -2.75986 0
M  V30 2267 H 225.78 -2.012 -2.52425 0
M  V30 2268 H 224.832 -3.71735 -0.807279 0
M  V30 2269 H 226.144 -4.82311 -1.27192 0
M  V30 2270 H 225.298 -4.86325 -3.62729 0
M  V30 2271 H 224.037 -3.66706 -3.21525 0
M  V30 2272 H 223.042 -5.2718 -1.56081 0
M  V30 2273 H 224.267 -6.49 -1.99938 0
M  V30 2274 H 222.213 -5.28188 -3.89042 0
M  V30 2275 H 222.13 -6.85961 -3.17794 0
M  V30 2276 H 223.398 -6.49515 -4.30988 0
M  V30 2277 N 227.627 0.131896 -1.57047 0
M  V30 2278 C 228.557 1.16384 -2.02428 0
M  V30 2279 C 229.538 1.43936 -0.90644 0
M  V30 2280 O 230.723 1.54599 -1.17528 0
M  V30 2281 C 227.853 2.49328 -2.4177 0
M  V30 2282 C 226.807 2.36266 -3.56879 0
M  V30 2283 C 226.133 3.74057 -3.8208 0
M  V30 2284 C 227.433 1.834 -4.89042 0
M  V30 2285 H 229.127 0.786433 -2.88887 0
M  V30 2286 H 226.673 0.376855 -1.38981 0
M  V30 2287 H 228.626 3.21759 -2.7212 0
M  V30 2288 H 227.35 2.88934 -1.52266 0
M  V30 2289 H 226.009 1.66286 -3.26718 0
M  V30 2290 H 225.657 4.11125 -2.89803 0
M  V30 2291 H 225.357 3.66174 -4.59554 0
M  V30 2292 H 226.881 4.48012 -4.1487 0
M  V30 2293 H 228.295 2.45636 -5.18011 0
M  V30 2294 H 226.692 1.8637 -5.70426 0
M  V30 2295 H 227.762 0.790662 -4.7841 0
M  V30 2296 N 229.106 1.52395 0.401703 0
M  V30 2297 C 230.036 1.79231 1.49661 0
M  V30 2298 C 231.017 0.643654 1.57452 0
M  V30 2299 O 232.202 0.889989 1.72606 0
M  V30 2300 C 229.332 1.94971 2.87409 0
M  V30 2301 C 228.286 3.10604 2.94465 0
M  V30 2302 C 227.612 3.11577 4.34538 0
M  V30 2303 C 228.912 4.49921 2.6527 0
M  V30 2304 H 230.606 2.70917 1.27454 0
M  V30 2305 H 228.152 1.30362 0.6117 0
M  V30 2306 H 230.105 2.12328 3.63999 0
M  V30 2307 H 228.829 0.999632 3.10926 0
M  V30 2308 H 227.488 2.93009 2.20321 0
M  V30 2309 H 227.136 2.14277 4.55076 0
M  V30 2310 H 226.836 3.89247 4.40183 0
M  V30 2311 H 228.36 3.31073 5.13053 0
M  V30 2312 H 229.774 4.67683 3.31581 0
M  V30 2313 H 228.171 5.29564 2.82281 0
M  V30 2314 H 229.241 4.57507 1.60671 0
M  V30 2315 N 230.584 -0.659388 1.43143 0
M  V30 2316 C 231.831 -1.41935 1.44433 0
M  V30 2317 C 232.159 -1.94387 0.0663522 0
M  V30 2318 O 231.414 -1.72314 -0.927706 0
M  V30 2319 C 231.713 -2.62206 2.42864 0
M  V30 2320 C 231.379 -2.28208 3.88886 0
M  V30 2321 C 230.041 -2.18647 4.28657 0
M  V30 2322 C 232.393 -2.00887 4.8093 0
M  V30 2323 C 229.721 -1.79914 5.58433 0
M  V30 2324 C 232.073 -1.63653 6.11065 0
M  V30 2325 C 230.737 -1.52614 6.49819 0
M  V30 2326 H 230.007 -0.519376 0.528517 0
M  V30 2327 H 232.654 -0.750453 1.76183 0
M  V30 2328 H 230.959 -3.34199 2.04495 0
M  V30 2329 H 232.656 -3.2041 2.41119 0
M  V30 2330 H 229.246 -2.36557 3.57406 0
M  V30 2331 H 233.43 -2.07198 4.5098 0
M  V30 2332 H 228.686 -1.69948 5.87305 0
M  V30 2333 H 232.86 -1.41543 6.81864 0
M  V30 2334 H 230.487 -1.22371 7.50286 0
M  V30 2335 N 232.062 -1.29571 -0.897171 0
M  V30 2336 C 233.009 -1.14916 -2.00158 0
M  V30 2337 C 233.979 -0.0418149 -1.66047 0
M  V30 2338 O 235.164 -0.209793 -1.89643 0
M  V30 2339 C 232.304 -0.834307 -3.34863 0
M  V30 2340 C 231.417 -2.02234 -3.8174 0
M  V30 2341 C 230.552 -1.64664 -5.05034 0
M  V30 2342 C 229.591 -2.80033 -5.44286 0
M  V30 2343 N 228.728 -2.42843 -6.58765 0
M  V30 2344 H 233.568 -2.09403 -2.12025 0
M  V30 2345 H 231.105 -1.042 -1.0383 0
M  V30 2346 H 233.063 -0.632436 -4.12379 0
M  V30 2347 H 231.693 0.0736656 -3.22716 0
M  V30 2348 H 230.745 -2.33583 -3.00238 0
M  V30 2349 H 232.057 -2.88673 -4.06779 0
M  V30 2350 H 231.211 -1.4078 -5.9014 0
M  V30 2351 H 229.95 -0.753766 -4.8184 0
M  V30 2352 H 228.955 -3.04596 -4.57713 0
M  V30 2353 H 230.18 -3.69989 -5.6946 0
M  V30 2354 H 228.126 -1.56046 -6.3717 0
M  V30 2355 H 228.043 -3.22815 -6.83613 0
M  V30 2356 H 229.311 -2.22285 -7.47134 0
M  V30 2357 N 233.54 1.10788 -1.12088 0
M  V30 2358 C 234.47 2.19083 -0.807755 0
M  V30 2359 C 235.451 1.6858 0.226859 0
M  V30 2360 O 236.636 1.93997 0.0888475 0
M  V30 2361 C 233.766 3.46344 -0.257576 0
M  V30 2362 C 232.72 4.101 -1.22483 0
M  V30 2363 C 232.046 5.32016 -0.535052 0
M  V30 2364 C 233.346 4.54236 -2.57811 0
M  V30 2365 H 235.04 2.45534 -1.71328 0
M  V30 2366 H 232.586 1.1801 -0.825205 0
M  V30 2367 H 234.539 4.21392 -0.0262679 0
M  V30 2368 H 233.263 3.19373 0.683278 0
M  V30 2369 H 231.922 3.37054 -1.44189 0
M  V30 2370 H 231.57 5.01319 0.410827 0
M  V30 2371 H 231.27 5.75625 -1.18024 0
M  V30 2372 H 232.794 6.09799 -0.312695 0
M  V30 2373 H 234.208 5.20575 -2.40155 0
M  V30 2374 H 232.605 5.08682 -3.18375 0
M  V30 2375 H 233.675 3.6734 -3.16528 0
M  V30 2376 N 235.018 0.912232 1.28515 0
M  V30 2377 C 236.248 0.559604 1.98877 0
M  V30 2378 C 236.656 -0.863113 1.68366 0
M  V30 2379 O 235.999 -1.58304 0.931969 0
M  V30 2380 C 236.061 0.68703 3.52874 0
M  V30 2381 C 235.725 2.07901 4.06972 0
M  V30 2382 C 236.722 3.05157 4.20922 0
M  V30 2383 C 234.407 2.39178 4.417 0
M  V30 2384 C 236.401 4.31806 4.68852 0
M  V30 2385 C 234.088 3.66068 4.89324 0
M  V30 2386 C 235.086 4.62195 5.02856 0
M  V30 2387 O 234.774 5.86829 5.49442 0
M  V30 2388 H 234.506 0.212191 0.641834 0
M  V30 2389 H 237.06 1.22712 1.64715 0
M  V30 2390 H 235.29 -0.0375486 3.86682 0
M  V30 2391 H 236.979 0.341727 4.04459 0
M  V30 2392 H 237.745 2.82311 3.94367 0
M  V30 2393 H 233.624 1.65109 4.30418 0
M  V30 2394 H 237.168 5.06842 4.79329 0
M  V30 2395 H 233.065 3.88739 5.15318 0
M  V30 2396 H 233.833 5.89597 5.6773 0
M  V30 2397 N 236.496 -1.42363 0.676048 0
M  V30 2398 C 237.459 -2.29199 0.00766941 0
M  V30 2399 C 238.459 -1.43389 -0.727745 0
M  V30 2400 O 239.649 -1.64764 -0.56556 0
M  V30 2401 C 236.781 -3.2591 -0.999785 0
M  V30 2402 H 237.974 -2.89794 0.771988 0
M  V30 2403 H 235.527 -1.50024 0.438468 0
M  V30 2404 H 236.262 -2.70256 -1.79255 0
M  V30 2405 H 236.047 -3.89202 -0.475829 0
M  V30 2406 H 237.537 -3.91028 -1.46583 0
M  V30 2407 N 237.974 -0.419461 -1.51915 0
M  V30 2408 C 238.884 0.407528 -2.31033 0
M  V30 2409 C 239.9 1.04413 -1.3919 0
M  V30 2410 O 241.076 1.0434 -1.72265 0
M  V30 2411 C 238.141 1.50365 -3.12396 0
M  V30 2412 C 237.202 0.889029 -4.19994 0
M  V30 2413 C 236.435 1.93291 -4.97468 0
M  V30 2414 O 236.658 3.15259 -4.75361 0
M  V30 2415 O 235.592 1.53339 -5.8204 0
M  V30 2416 H 239.418 -0.237865 -3.02767 0
M  V30 2417 H 237.003 -0.182413 -1.48282 0
M  V30 2418 H 238.885 2.13975 -3.63032 0
M  V30 2419 H 237.56 2.13345 -2.43445 0
M  V30 2420 H 236.467 0.215353 -3.7348 0
M  V30 2421 H 237.8 0.302991 -4.91267 0
M  V30 2422 N 239.452 1.56882 -0.150215 0
M  V30 2423 C 240.863 1.82995 0.370076 0
M  V30 2424 C 241.214 1.06907 1.64515 0
M  V30 2425 O 240.339 0.315369 2.1409 0
M  V30 2426 C 240.934 3.31942 0.678208 0
M  V30 2427 C 239.493 3.58625 1.14301 0
M  V30 2428 C 238.64 2.76792 0.167778 0
M  V30 2429 H 241.591 1.54209 -0.374858 0
M  V30 2430 H 241.612 3.48272 1.53254 0
M  V30 2431 H 241.124 3.87294 -0.249991 0
M  V30 2432 H 239.225 3.08664 2.08704 0
M  V30 2433 H 239.338 4.67073 1.06676 0
M  V30 2434 H 237.702 2.45972 0.661037 0
M  V30 2435 H 238.485 3.34916 -0.754069 0
M  V30 2436 N 240.93 -0.123565 1.57115 0
M  V30 2437 C 242.155 -0.850398 1.89164 0
M  V30 2438 C 242.58 -1.7286 0.741688 0
M  V30 2439 O 241.938 -1.78665 -0.307958 0
M  V30 2440 C 241.986 -1.66353 3.19936 0
M  V30 2441 O 241.09 -2.77004 3.0552 0
M  V30 2442 H 240.431 -0.235454 0.620852 0
M  V30 2443 H 242.961 -0.107335 2.04318 0
M  V30 2444 H 242.971 -2.05372 3.52543 0
M  V30 2445 H 241.646 -1.01881 4.03228 0
M  V30 2446 H 240.223 -2.41221 2.84371 0
M  V30 2447 N 242.408 -1.52605 -0.393616 0
M  V30 2448 C 243.638 -1.71046 -1.15874 0
M  V30 2449 C 244.046 -0.426483 -1.84331 0
M  V30 2450 O 243.389 0.608513 -1.73329 0
M  V30 2451 C 243.451 -2.80118 -2.25332 0
M  V30 2452 C 243.115 -4.21381 -1.76881 0
M  V30 2453 C 244.112 -5.04697 -1.24808 0
M  V30 2454 C 241.797 -4.67683 -1.83244 0
M  V30 2455 C 243.791 -6.32393 -0.797387 0
M  V30 2456 C 241.478 -5.95364 -1.37787 0
M  V30 2457 C 242.476 -6.77549 -0.861208 0
M  V30 2458 O 242.164 -8.02837 -0.413252 0
M  V30 2459 H 241.896 -0.576155 -0.353583 0
M  V30 2460 H 244.45 -2.00018 -0.467123 0
M  V30 2461 H 242.68 -2.46557 -2.97904 0
M  V30 2462 H 244.369 -2.87006 -2.87023 0
M  V30 2463 H 245.135 -4.70111 -1.19252 0
M  V30 2464 H 241.014 -4.03805 -2.22401 0
M  V30 2465 H 244.558 -6.9649 -0.393437 0
M  V30 2466 H 240.455 -6.29455 -1.43026 0
M  V30 2467 H 241.223 -8.16749 -0.53515 0
M  V30 2468 N 243.887 0.651787 -1.4349 0
M  V30 2469 C 244.797 1.79368 -1.5121 0
M  V30 2470 C 245.813 1.69361 -0.399093 0
M  V30 2471 O 246.989 1.90505 -0.653431 0
M  V30 2472 C 244.054 3.15653 -1.43401 0
M  V30 2473 C 243.115 3.37446 -2.65384 0
M  V30 2474 C 242.348 4.67229 -2.57939 0
M  V30 2475 O 242.571 5.46676 -1.62792 0
M  V30 2476 O 241.505 4.90773 -3.48462 0
M  V30 2477 H 245.331 1.7581 -2.47638 0
M  V30 2478 H 242.916 0.810447 -1.25507 0
M  V30 2479 H 244.798 3.96935 -1.41494 0
M  V30 2480 H 243.473 3.19798 -0.501085 0
M  V30 2481 H 242.38 2.55923 -2.72863 0
M  V30 2482 H 243.713 3.38148 -3.57654 0
M  V30 2483 N 245.365 1.30045 0.890287 0
M  V30 2484 C 246.593 1.21472 1.67487 0
M  V30 2485 C 247.008 -0.223241 1.87476 0
M  V30 2486 O 246.365 -1.14828 1.41847 0
M  V30 2487 C 246.416 1.93394 3.05419 0
M  V30 2488 O 246.137 3.31576 2.86337 0
M  V30 2489 C 247.638 1.91414 3.99844 0
M  V30 2490 H 244.858 0.420604 0.522813 0
M  V30 2491 H 247.402 1.7158 1.11268 0
M  V30 2492 H 245.557 1.47099 3.58386 0
M  V30 2493 H 245.971 3.67929 3.73802 0
M  V30 2494 H 247.445 2.46285 4.94012 0
M  V30 2495 H 247.922 0.891833 4.3005 0
M  V30 2496 H 248.528 2.37496 3.52811 0
M  V30 2497 N 246.843 -1.10192 1.12674 0
M  V30 2498 C 247.773 -2.18652 0.819362 0
M  V30 2499 C 248.754 -1.68698 -0.217915 0
M  V30 2500 O 249.939 -1.94041 -0.0785581 0
M  V30 2501 C 247.069 -3.46202 0.27594 0
M  V30 2502 C 246.023 -4.09444 1.24656 0
M  V30 2503 C 245.349 -5.31725 0.563258 0
M  V30 2504 C 246.649 -4.52863 2.60217 0
M  V30 2505 H 248.343 -2.44622 1.72628 0
M  V30 2506 H 245.889 -1.17571 0.831451 0
M  V30 2507 H 247.842 -4.21372 0.0486149 0
M  V30 2508 H 246.566 -3.1973 -0.666331 0
M  V30 2509 H 245.225 -3.36284 1.45974 0
M  V30 2510 H 244.873 -5.0153 -0.384235 0
M  V30 2511 H 244.573 -5.74991 1.21075 0
M  V30 2512 H 246.097 -6.09624 0.34503 0
M  V30 2513 H 247.511 -5.19294 2.42913 0
M  V30 2514 H 245.908 -5.06986 3.21068 0
M  V30 2515 H 246.978 -3.65656 3.18471 0
M  V30 2516 N 248.321 -0.919034 -1.28029 0
M  V30 2517 C 249.268 -0.410005 -2.27129 0
M  V30 2518 C 250.238 0.518405 -1.57803 0
M  V30 2519 O 251.423 0.439451 -1.8567 0
M  V30 2520 C 248.563 0.339054 -3.4343 0
M  V30 2521 C 247.676 -0.622468 -4.27492 0
M  V30 2522 C 246.811 0.145567 -5.31001 0
M  V30 2523 C 245.85 -0.809226 -6.06727 0
M  V30 2524 N 244.987 -0.0743728 -7.02061 0
M  V30 2525 H 249.827 -1.26011 -2.70047 0
M  V30 2526 H 247.364 -0.632663 -1.328 0
M  V30 2527 H 249.322 0.789586 -4.0966 0
M  V30 2528 H 247.952 1.15346 -3.01488 0
M  V30 2529 H 247.004 -1.19153 -3.61257 0
M  V30 2530 H 248.316 -1.35252 -4.80113 0
M  V30 2531 H 247.47 0.656417 -6.03139 0
M  V30 2532 H 246.209 0.908643 -4.79161 0
M  V30 2533 H 245.214 -1.3314 -5.33436 0
M  V30 2534 H 246.439 -1.57194 -6.60656 0
M  V30 2535 H 244.385 0.670616 -6.52563 0
M  V30 2536 H 244.302 -0.744157 -7.52329 0
M  V30 2537 H 245.57 0.416109 -7.78389 0
M  V30 2538 N 249.799 1.42003 -0.683588 0
M  V30 2539 C 250.731 2.29183 0.0283068 0
M  V30 2540 C 251.744 1.4415 0.756611 0
M  V30 2541 O 252.933 1.67779 0.609306 0
M  V30 2542 C 250.033 3.21765 1.06398 0
M  V30 2543 C 249.206 4.35496 0.407723 0
M  V30 2544 C 248.265 5.08737 1.34437 0
M  V30 2545 O 247.291 5.62948 0.841318 0
M  V30 2546 N 248.493 5.15075 2.67728 0
M  V30 2547 H 251.258 2.9092 -0.720105 0
M  V30 2548 H 248.819 1.53025 -0.528682 0
M  V30 2549 H 250.811 3.6763 1.69204 0
M  V30 2550 H 249.381 2.61418 1.71404 0
M  V30 2551 H 248.601 3.92165 -0.400012 0
M  V30 2552 H 249.889 5.08776 -0.0490956 0
M  V30 2553 H 249.287 4.72457 3.11129 0
M  V30 2554 H 247.844 5.64556 3.2576 0
M  V30 2555 N 251.277 0.427512 1.51691 0
M  V30 2556 C 252.21 -0.433876 2.24037 0
M  V30 2557 C 253.188 -1.03287 1.25581 0
M  V30 2558 O 254.372 -1.07722 1.54688 0
M  V30 2559 C 251.499 -1.60385 2.98319 0
M  V30 2560 C 250.545 -1.12648 4.11355 0
M  V30 2561 S 251.378 -0.076543 5.35445 0
M  V30 2562 C 252.534 -1.25141 6.13262 0
M  V30 2563 H 252.767 0.180367 2.96752 0
M  V30 2564 H 250.3 0.211946 1.52938 0
M  V30 2565 H 252.258 -2.27462 3.41718 0
M  V30 2566 H 250.919 -2.18948 2.25213 0
M  V30 2567 H 250.112 -2.0011 4.62571 0
M  V30 2568 H 249.714 -0.534088 3.70167 0
M  V30 2569 H 252.006 -2.17162 6.41753 0
M  V30 2570 H 252.949 -0.779411 7.03797 0
M  V30 2571 H 253.357 -1.48553 5.44603 0
M  V30 2572 N 252.755 -1.56801 0.158532 0
M  V30 2573 C 253.685 -2.20347 -0.772609 0
M  V30 2574 C 254.666 -1.15518 -1.24859 0
M  V30 2575 O 255.851 -1.43902 -1.30406 0
M  V30 2576 C 252.981 -2.83417 -2.00729 0
M  V30 2577 C 251.935 -3.94174 -1.66765 0
M  V30 2578 C 251.261 -4.44233 -2.97592 0
M  V30 2579 C 252.561 -5.14392 -0.905447 0
M  V30 2580 H 254.255 -2.98413 -0.242959 0
M  V30 2581 H 251.801 -1.43537 -0.115419 0
M  V30 2582 H 253.754 -3.26543 -2.6636 0
M  V30 2583 H 252.478 -2.02701 -2.56086 0
M  V30 2584 H 251.137 -3.51684 -1.03508 0
M  V30 2585 H 250.785 -3.60325 -3.50963 0
M  V30 2586 H 250.485 -5.18945 -2.75626 0
M  V30 2587 H 252.009 -4.90037 -3.64274 0
M  V30 2588 H 253.423 -5.5429 -1.46408 0
M  V30 2589 H 251.82 -5.9494 -0.7853 0
M  V30 2590 H 252.89 -4.84795 0.100668 0
M  V30 2591 N 254.233 0.115231 -1.57178 0
M  V30 2592 C 255.165 1.16694 -1.97269 0
M  V30 2593 C 256.178 1.37445 -0.872502 0
M  V30 2594 O 257.367 1.36454 -1.15077 0
M  V30 2595 C 254.467 2.52627 -2.25905 0
M  V30 2596 C 253.64 2.52427 -3.57211 0
M  V30 2597 C 252.699 3.70134 -3.74016 0
M  V30 2598 O 251.725 3.53546 -4.46087 0
M  V30 2599 N 252.927 4.88844 -3.13068 0
M  V30 2600 H 255.692 0.82588 -2.88096 0
M  V30 2601 H 253.253 0.304461 -1.59011 0
M  V30 2602 H 255.245 3.29937 -2.34359 0
M  V30 2603 H 253.815 2.789 -1.41186 0
M  V30 2604 H 253.035 1.60805 -3.5991 0
M  V30 2605 H 254.323 2.49353 -4.43509 0
M  V30 2606 H 253.721 5.05225 -2.54489 0
M  V30 2607 H 252.278 5.63817 -3.27037 0
M  V30 2608 N 255.711 1.52812 0.385517 0
M  V30 2609 C 256.957 1.68275 1.13188 0
M  V30 2610 C 257.29 0.423179 1.89533 0
M  V30 2611 O 256.565 -0.579113 1.85679 0
M  V30 2612 C 256.848 2.92001 2.1073 0
M  V30 2613 C 256.701 4.28067 1.38125 0
M  V30 2614 C 258.02 3.11283 3.11113 0
M  V30 2615 H 255.139 0.612352 0.410115 0
M  V30 2616 H 257.781 1.85415 0.414869 0
M  V30 2617 H 255.931 2.77519 2.71874 0
M  V30 2618 H 257.603 4.54324 0.799187 0
M  V30 2619 H 255.846 4.28388 0.683092 0
M  V30 2620 H 256.517 5.10733 2.09417 0
M  V30 2621 H 258.993 3.2482 2.6006 0
M  V30 2622 H 257.869 3.99325 3.76605 0
M  V30 2623 H 258.13 2.25656 3.80173 0
M  V30 2624 N 257.189 -0.644168 1.43834 0
M  V30 2625 C 258.436 -1.40395 1.4593 0
M  V30 2626 C 258.764 -1.94305 0.0869658 0
M  V30 2627 O 258.019 -1.73288 -0.909378 0
M  V30 2628 C 258.318 -2.59615 2.45631 0
M  V30 2629 C 257.984 -2.2407 3.91284 0
M  V30 2630 C 256.646 -2.14089 4.30952 0
M  V30 2631 C 258.998 -1.95775 4.83034 0
M  V30 2632 C 256.326 -1.73981 5.6031 0
M  V30 2633 C 258.678 -1.57163 6.12766 0
M  V30 2634 C 257.342 -1.45713 6.51402 0
M  V30 2635 H 256.612 -0.513741 0.533995 0
M  V30 2636 H 259.259 -0.731724 1.76969 0
M  V30 2637 H 257.564 -3.32011 2.08028 0
M  V30 2638 H 259.261 -3.17834 2.44504 0
M  V30 2639 H 255.851 -2.32753 3.59895 0
M  V30 2640 H 260.035 -2.02403 4.53152 0
M  V30 2641 H 255.291 -1.63709 5.89075 0
M  V30 2642 H 259.465 -1.34303 6.83327 0
M  V30 2643 H 257.092 -1.14406 7.51542 0
M  V30 2644 N 258.668 -1.30515 -0.883378 0
M  V30 2645 C 259.598 -1.19607 -2.00541 0
M  V30 2646 C 260.579 -0.086346 -1.69881 0
M  V30 2647 O 261.764 -0.268654 -1.92333 0
M  V30 2648 C 258.894 -0.888758 -3.35736 0
M  V30 2649 C 257.848 -1.95659 -3.8066 0
M  V30 2650 C 257.174 -1.50224 -5.13164 0
M  V30 2651 C 258.474 -3.36788 -3.99213 0
M  V30 2652 H 260.168 -2.13476 -2.09925 0
M  V30 2653 H 257.714 -1.02775 -1.00863 0
M  V30 2654 H 259.667 -0.799094 -4.13754 0
M  V30 2655 H 258.391 0.0856125 -3.26488 0
M  V30 2656 H 257.05 -2.03591 -3.04871 0
M  V30 2657 H 256.698 -0.516092 -5.00345 0
M  V30 2658 H 256.398 -2.2165 -5.44192 0
M  V30 2659 H 257.922 -1.42639 -5.93706 0
M  V30 2660 H 259.336 -3.31605 -4.67665 0
M  V30 2661 H 257.733 -4.06314 -4.41621 0
M  V30 2662 H 258.803 -3.78561 -3.03017 0
M  V30 2663 N 260.146 1.09593 -1.13257 0
M  V30 2664 C 261.376 1.85231 -0.915049 0
M  V30 2665 C 261.784 1.81345 0.539498 0
M  V30 2666 O 261.127 1.20664 1.38513 0
M  V30 2667 C 261.189 3.34275 -1.3229 0
M  V30 2668 C 260.853 3.6191 -2.79052 0
M  V30 2669 C 261.85 3.57777 -3.77216 0
M  V30 2670 C 259.535 3.90309 -3.16171 0
M  V30 2671 C 261.529 3.81652 -5.1051 0
M  V30 2672 C 259.216 4.13839 -4.49644 0
M  V30 2673 C 260.214 4.09502 -5.46623 0
M  V30 2674 O 259.902 4.32426 -6.77689 0
M  V30 2675 H 259.634 0.591997 -0.326367 0
M  V30 2676 H 262.188 1.394 -1.50854 0
M  V30 2677 H 260.418 3.80805 -0.672667 0
M  V30 2678 H 262.107 3.9132 -1.07812 0
M  V30 2679 H 262.873 3.35865 -3.49885 0
M  V30 2680 H 258.752 3.92811 -2.41289 0
M  V30 2681 H 262.296 3.78182 -5.86195 0
M  V30 2682 H 258.193 4.35232 -4.767 0
M  V30 2683 H 258.961 4.49896 -6.83766 0
M  V30 2684 N 261.624 0.925811 1.2754 0
M  V30 2685 C 262.901 0.483726 1.89524 0
M  V30 2686 C 263.281 -1.03809 1.83812 0
M  V30 2687 O 262.629 -1.89143 1.28207 0
M  V30 2688 C 262.839 1.02769 3.33526 0
M  V30 2689 C 264.187 1.08703 4.10449 0
M  V30 2690 O 265.211 0.977175 3.42534 0
M  V30 2691 O 264.07 1.25599 5.31871 0
M  V30 2692 H 261.164 0.15529 0.812289 0
M  V30 2693 H 263.71 1.01738 1.35822 0
M  V30 2694 H 262.482 2.07155 3.31967 0
M  V30 2695 H 262.105 0.475567 3.94746 0
M  V30 2696 N 263.102 -1.41638 0.69111 0
M  V30 2697 C 264.034 -2.29194 -0.0161523 0
M  V30 2698 C 265.047 -1.44549 -0.748955 0
M  V30 2699 O 266.236 -1.681 -0.6004 0
M  V30 2700 C 263.336 -3.22325 -1.0469 0
M  V30 2701 C 262.509 -4.35706 -0.384621 0
M  V30 2702 C 261.568 -5.09443 -1.31737 0
M  V30 2703 O 260.594 -5.63386 -0.811451 0
M  V30 2704 N 261.796 -5.16487 -2.64993 0
M  V30 2705 H 264.561 -2.90534 0.735523 0
M  V30 2706 H 262.122 -1.52742 0.53679 0
M  V30 2707 H 264.114 -3.68522 -1.67252 0
M  V30 2708 H 262.684 -2.62323 -1.70015 0
M  V30 2709 H 261.904 -3.91948 0.420804 0
M  V30 2710 H 263.192 -5.08743 0.0760765 0
M  V30 2711 H 262.59 -4.741 -3.08619 0
M  V30 2712 H 261.147 -5.66276 -3.22761 0
M  V30 2713 N 264.58 -0.43555 -1.51462 0
M  V30 2714 C 265.805 0.132627 -2.06976 0
M  V30 2715 C 266.23 1.35848 -1.30104 0
M  V30 2716 O 265.588 1.78112 -0.338493 0
M  V30 2717 C 265.636 0.43523 -3.57964 0
M  V30 2718 O 264.74 1.52198 -3.83288 0
M  V30 2719 H 264.081 0.00265 -0.663995 0
M  V30 2720 H 266.611 -0.616369 -1.95095 0
M  V30 2721 H 266.621 0.686206 -4.02188 0
M  V30 2722 H 265.296 -0.460739 -4.1334 0
M  V30 2723 H 263.873 1.2611 -3.50928 0
M  V30 2724 N 266.058 1.56714 -0.166846 0
M  V30 2725 C 266.988 2.20754 0.760913 0
M  V30 2726 C 267.969 1.16178 1.24244 0
M  V30 2727 O 269.154 1.44592 1.29641 0
M  V30 2728 C 266.284 2.84478 1.99223 0
M  V30 2729 C 265.238 3.95053 1.64672 0
M  V30 2730 C 264.564 4.45805 2.95232 0
M  V30 2731 C 265.864 5.14865 0.878155 0
M  V30 2732 H 267.558 2.98537 0.22713 0
M  V30 2733 H 265.104 1.43596 0.107805 0
M  V30 2734 H 267.057 3.27951 2.64624 0
M  V30 2735 H 265.781 2.04056 2.55007 0
M  V30 2736 H 264.44 3.52228 1.01641 0
M  V30 2737 H 264.088 3.62181 3.49047 0
M  V30 2738 H 263.788 5.204 2.7287 0
M  V30 2739 H 265.312 4.91962 3.6167 0
M  V30 2740 H 266.726 5.55059 1.43466 0
M  V30 2741 H 265.123 5.95348 0.753738 0
M  V30 2742 H 266.193 4.84735 -0.126377 0
M  V30 2743 N 267.536 -0.106894 1.57237 0
M  V30 2744 C 268.785 -0.811163 1.8467 0
M  V30 2745 C 269.098 -1.80469 0.754342 0
M  V30 2746 O 270.304 -2.55601 0.915439 0
M  V30 2747 C 268.76 -1.49337 3.27454 0
M  V30 2748 C 268.368 -0.540217 4.44731 0
M  V30 2749 C 270.112 -2.18206 3.64124 0
M  V30 2750 C 268.019 -1.22634 5.78545 0
M  V30 2751 H 266.949 -0.306679 0.688813 0
M  V30 2752 H 269.6 -0.0639887 1.83388 0
M  V30 2753 H 267.982 -2.2876 3.23241 0
M  V30 2754 H 269.156 0.221659 4.60267 0
M  V30 2755 H 267.471 0.042146 4.16379 0
M  V30 2756 H 270.068 -2.70253 4.61376 0
M  V30 2757 H 270.411 -2.96562 2.92158 0
M  V30 2758 H 270.944 -1.45658 3.70174 0
M  V30 2759 H 267.683 -0.483832 6.53712 0
M  V30 2760 H 267.203 -1.95993 5.66874 0
M  V30 2761 H 268.882 -1.75615 6.2271 0
M  V30 2762 N 269.014 -1.53014 -0.377408 0
M  V30 2763 C 270.242 -1.72515 -1.14219 0
M  V30 2764 C 270.657 -0.448735 -1.8339 0
M  V30 2765 O 270.014 0.577592 -1.73119 0
M  V30 2766 C 270.065 -2.8826 -2.18148 0
M  V30 2767 O 269.786 -4.10962 -1.51795 0
M  V30 2768 C 271.287 -3.19536 -3.07264 0
M  V30 2769 H 268.507 -0.577301 -0.342001 0
M  V30 2770 H 271.051 -1.99712 -0.439935 0
M  V30 2771 H 269.206 -2.63492 -2.83991 0
M  V30 2772 H 269.62 -4.75693 -2.20945 0
M  V30 2773 H 271.094 -4.03959 -3.76193 0
M  V30 2774 H 271.571 -2.34403 -3.71419 0
M  V30 2775 H 272.177 -3.46186 -2.47053 0
M  V30 2776 N 270.492 0.636531 -1.44174 0
M  V30 2777 C 271.402 1.77754 -1.53103 0
M  V30 2778 C 272.418 1.68928 -0.417034 0
M  V30 2779 O 273.594 1.89801 -0.6736 0
M  V30 2780 C 270.659 3.14115 -1.46741 0
M  V30 2781 C 269.72 3.34612 -2.68948 0
M  V30 2782 C 268.953 4.64467 -2.6288 0
M  V30 2783 O 269.176 5.44919 -1.68581 0
M  V30 2784 O 268.11 4.87049 -3.53648 0
M  V30 2785 H 271.936 1.73174 -2.49489 0
M  V30 2786 H 269.521 0.79709 -1.2636 0
M  V30 2787 H 271.403 3.95412 -1.45696 0
M  V30 2788 H 270.078 3.19249 -0.534975 0
M  V30 2789 H 268.985 2.53014 -2.75562 0
M  V30 2790 H 270.318 3.34336 -3.61221 0
M  V30 2791 N 271.97 1.30982 0.876444 0
M  V30 2792 C 272.88 1.2003 2.01569 0
M  V30 2793 C 273.896 0.11838 1.73597 0
M  V30 2794 O 275.072 0.33495 1.98595 0
M  V30 2795 C 272.137 0.901637 3.34771 0
M  V30 2796 C 271.198 2.06979 3.76109 0
M  V30 2797 C 270.431 1.78529 5.02954 0
M  V30 2798 O 270.654 0.717296 5.65872 0
M  V30 2799 O 269.588 2.64019 5.40905 0
M  V30 2800 H 273.414 2.15753 2.13739 0
M  V30 2801 H 270.999 1.10658 1.00375 0
M  V30 2802 H 272.881 0.750645 4.1466 0
M  V30 2803 H 271.556 -0.0256141 3.2369 0
M  V30 2804 H 270.463 2.27616 2.96887 0
M  V30 2805 H 271.796 2.97907 3.91807 0
M  V30 2806 N 273.449 -1.08991 1.13837 0
M  V30 2807 C 274.379 -2.17771 0.842507 0
M  V30 2808 C 275.36 -1.6892 -0.20001 0
M  V30 2809 O 276.545 -1.94113 -0.0579731 0
M  V30 2810 C 273.675 -3.4589 0.312644 0
M  V30 2811 C 272.629 -4.08099 1.28992 0
M  V30 2812 C 271.955 -5.31098 0.619623 0
M  V30 2813 C 273.255 -4.50077 2.65005 0
M  V30 2814 H 274.949 -2.42777 1.75213 0
M  V30 2815 H 272.495 -1.16682 0.843875 0
M  V30 2816 H 274.448 -4.21297 0.0933043 0
M  V30 2817 H 273.172 -3.20419 -0.632382 0
M  V30 2818 H 271.831 -3.34717 1.49533 0
M  V30 2819 H 271.479 -5.0191 -0.33102 0
M  V30 2820 H 271.179 -5.73674 1.27167 0
M  V30 2821 H 272.703 -6.09224 0.409669 0
M  V30 2822 H 274.117 -5.16688 2.48407 0
M  V30 2823 H 272.514 -5.03553 3.26427 0
M  V30 2824 H 273.584 -3.62257 3.22332 0
M  V30 2825 N 274.927 -0.932562 -1.27047 0
M  V30 2826 C 275.857 -0.452902 -2.29066 0
M  V30 2827 C 276.838 0.489338 -1.62909 0
M  V30 2828 O 278.023 0.393046 -1.90181 0
M  V30 2829 C 275.153 0.290698 -3.46081 0
M  V30 2830 C 274.107 -0.564168 -4.24265 0
M  V30 2831 C 273.433 0.308886 -5.33807 0
M  V30 2832 C 274.733 -1.83112 -4.89149 0
M  V30 2833 H 276.427 -1.30552 -2.69437 0
M  V30 2834 H 273.973 -0.629201 -1.29526 0
M  V30 2835 H 275.926 0.637233 -4.16554 0
M  V30 2836 H 274.65 1.17738 -3.0464 0
M  V30 2837 H 273.309 -0.893477 -3.55545 0
M  V30 2838 H 272.957 1.19467 -4.88607 0
M  V30 2839 H 272.657 -0.259633 -5.87026 0
M  V30 2840 H 274.181 0.650884 -6.07121 0
M  V30 2841 H 275.595 -1.55236 -5.51883 0
M  V30 2842 H 273.992 -2.34353 -5.52448 0
M  V30 2843 H 275.062 -2.54772 -4.12576 0
M  V30 2844 N 276.405 1.4127 -0.698611 0
M  V30 2845 C 277.337 2.292 0.00399731 0
M  V30 2846 C 278.35 1.44944 0.741279 0
M  V30 2847 O 279.539 1.68416 0.591477 0
M  V30 2848 C 276.639 3.22875 1.02979 0
M  V30 2849 C 275.812 4.35904 0.36151 0
M  V30 2850 C 274.871 5.10134 1.29033 0
M  V30 2851 O 273.897 5.63809 0.781562 0
M  V30 2852 N 275.099 5.17885 2.6225 0
M  V30 2853 H 277.864 2.9014 -0.750921 0
M  V30 2854 H 275.425 1.52455 -0.544882 0
M  V30 2855 H 277.417 3.69404 1.65296 0
M  V30 2856 H 275.987 2.63221 1.68622 0
M  V30 2857 H 275.207 3.91719 -0.441584 0
M  V30 2858 H 276.495 5.08696 -0.103055 0
M  V30 2859 H 275.893 4.7573 3.061 0
M  V30 2860 H 274.45 5.6798 3.19754 0
M  V30 2861 N 277.883 0.443576 1.51229 0
M  V30 2862 C 279.131 -0.120557 2.0174 0
M  V30 2863 C 279.452 -1.42665 1.32935 0
M  V30 2864 O 278.722 -1.9028 0.465866 0
M  V30 2865 H 277.302 -0.0475426 0.745486 0
M  V30 2866 H 279.964 0.587711 1.85828 0
M  V30 2867 H 279.06 -0.291972 3.10731 0
M  V30 2868 N 279.361 -1.56624 0.175154 0
M  V30 2869 C 280.777 -1.58571 -0.180966 0
M  V30 2870 C 280.977 -1.19065 -1.6256 0
M  V30 2871 O 280.033 -0.904044 -2.35761 0
M  V30 2872 C 281.346 -3.00522 0.103326 0
M  V30 2873 C 282.894 -3.12972 0.0418426 0
M  V30 2874 C 283.369 -4.57022 0.299175 0
M  V30 2875 N 284.86 -4.62541 0.247086 0
M  V30 2876 C 285.595 -5.71857 0.420318 0
M  V30 2877 N 285.091 -6.89717 0.652816 0
M  V30 2878 N 286.884 -5.60972 0.355957 0
M  V30 2879 H 279.035 -1.80589 1.11809 0
M  V30 2880 H 281.298 -0.837178 0.444788 0
M  V30 2881 H 281.004 -3.33916 1.10422 0
M  V30 2882 H 280.878 -3.72344 -0.603299 0
M  V30 2883 H 283.265 -2.79403 -0.949636 0
M  V30 2884 H 283.346 -2.43578 0.781238 0
M  V30 2885 H 282.99 -4.913 1.28788 0
M  V30 2886 H 282.92 -5.24579 -0.460876 0
M  V30 2887 H 285.411 -3.77829 0.0731895 0
M  V30 2888 H 285.724 -7.68911 0.774347 0
M  V30 2889 H 284.069 -6.91572 0.689476 0
M  V30 2890 H 287.26 -4.67773 0.174882 0
M  V30 2891 H 287.433 -6.46111 0.494388 0
M  V30 2892 N 280.839 0.0985539 -1.57292 0
M  V30 2893 C 282.085 0.798769 -1.87059 0
M  V30 2894 C 282.44 1.76514 -0.76555 0
M  V30 2895 O 281.733 1.90181 0.232752 0
M  V30 2896 C 281.927 1.56927 -3.21105 0
M  V30 2897 C 281.756 0.679026 -4.44544 0
M  V30 2898 C 280.526 0.326071 -5.04247 0
M  V30 2899 C 282.724 -0.0124715 -5.14298 0
M  V30 2900 N 280.706 -0.572702 -6.11223 0
M  V30 2901 C 282.077 -0.769446 -6.15207 0
M  V30 2902 C 284.132 -0.0867545 -4.97824 0
M  V30 2903 C 282.835 -1.59376 -7.01421 0
M  V30 2904 C 284.861 -0.897955 -5.84543 0
M  V30 2905 C 284.223 -1.64306 -6.84969 0
M  V30 2906 H 280.322 0.268568 -0.734435 0
M  V30 2907 H 282.906 0.0614664 -1.94603 0
M  V30 2908 H 281.077 2.27748 -3.1462 0
M  V30 2909 H 282.809 2.21641 -3.38611 0
M  V30 2910 H 279.564 0.67295 -4.68795 0
M  V30 2911 H 279.988 -1.01454 -6.69355 0
M  V30 2912 H 284.63 0.474963 -4.20124 0
M  V30 2913 H 282.348 -2.16655 -7.78515 0
M  V30 2914 H 285.934 -0.958059 -5.73858 0
M  V30 2915 H 284.814 -2.26065 -7.50909 0
M  V30 2916 N 282.317 1.53212 0.369288 0
M  V30 2917 C 283.227 1.82342 1.47609 0
M  V30 2918 C 284.243 0.711532 1.58787 0
M  V30 2919 O 285.419 1.0012 1.74751 0
M  V30 2920 C 282.484 2.00393 2.8292 0
M  V30 2921 C 281.545 3.24297 2.81301 0
M  V30 2922 C 280.778 3.41478 4.10157 0
M  V30 2923 O 281.001 2.63033 5.06132 0
M  V30 2924 O 279.935 4.34817 4.16194 0
M  V30 2925 H 283.761 2.76366 1.25918 0
M  V30 2926 H 281.346 1.38547 0.559034 0
M  V30 2927 H 283.228 2.13859 3.63101 0
M  V30 2928 H 281.903 1.09559 3.04596 0
M  V30 2929 H 280.81 3.16257 1.99831 0
M  V30 2930 H 282.143 4.15041 2.64578 0
M  V30 2931 N 283.795 -0.628877 1.44509 0
M  V30 2932 C 284.758 -1.72263 1.51188 0
M  V30 2933 C 285.758 -1.55907 0.39367 0
M  V30 2934 O 286.948 -1.61361 0.656377 0
M  V30 2935 C 284.08 -3.11365 1.38798 0
M  V30 2936 H 285.273 -1.67714 2.4862 0
M  V30 2937 H 282.826 -0.842737 1.31634 0
M  V30 2938 H 283.561 -3.21507 0.424693 0
M  V30 2939 H 283.346 -3.24644 2.19884 0
M  V30 2940 H 284.836 -3.91075 1.46458 0
M  V30 2941 N 285.273 -1.31445 -0.869486 0
M  V30 2942 C 286.522 -1.20517 -1.61736 0
M  V30 2943 C 286.835 0.235341 -1.94179 0
M  V30 2944 O 288.041 0.466312 -2.67465 0
M  V30 2945 C 286.497 -2.10982 -2.91573 0
M  V30 2946 C 286.105 -3.60032 -2.66611 0
M  V30 2947 C 287.849 -2.08856 -3.69567 0
M  V30 2948 C 285.756 -4.42503 -3.92358 0
M  V30 2949 H 284.686 -0.447493 -0.606849 0
M  V30 2950 H 287.337 -1.56303 -0.96133 0
M  V30 2951 H 285.719 -1.68095 -3.58553 0
M  V30 2952 H 286.893 -4.11167 -2.08035 0
M  V30 2953 H 285.208 -3.64139 -2.0197 0
M  V30 2954 H 287.805 -2.67716 -4.62852 0
M  V30 2955 H 288.148 -1.07582 -4.02159 0
M  V30 2956 H 288.681 -2.49945 -3.09471 0
M  V30 2957 H 285.42 -5.44533 -3.64916 0
M  V30 2958 H 284.94 -3.96125 -4.50383 0
M  V30 2959 H 286.619 -4.54741 -4.60238 0
M  V30 2960 N 286.751 1.08385 -1.14413 0
M  V30 2961 C 287.683 2.1519 -0.789036 0
M  V30 2962 C 288.696 1.61638 0.19417 0
M  V30 2963 O 289.885 1.78479 -0.0275711 0
M  V30 2964 C 286.985 3.38565 -0.15058 0
M  V30 2965 C 286.158 4.21501 -1.16857 0
M  V30 2966 C 285.217 5.23277 -0.553832 0
M  V30 2967 O 284.243 5.56041 -1.21686 0
M  V30 2968 N 285.445 5.76629 0.669296 0
M  V30 2969 H 288.21 2.46257 -1.70814 0
M  V30 2970 H 285.771 1.24198 -1.03858 0
M  V30 2971 H 287.763 4.03777 0.273181 0
M  V30 2972 H 286.333 3.05299 0.671667 0
M  V30 2973 H 285.553 3.52265 -1.76926 0
M  V30 2974 H 286.841 4.73731 -1.85624 0
M  V30 2975 H 286.239 5.52243 1.22654 0
M  V30 2976 H 284.796 6.43521 1.03556 0
M  V30 2977 N 288.23 0.939286 1.26551 0
M  V30 2978 C 289.646 0.641304 1.46149 0
M  V30 2979 C 289.846 -0.805964 1.84679 0
M  V30 2980 O 288.902 -1.58278 1.96734 0
M  V30 2981 C 290.215 1.6011 2.54529 0
M  V30 2982 C 291.763 1.6106 2.68382 0
M  V30 2983 C 292.238 2.55765 3.79932 0
M  V30 2984 N 293.729 2.5404 3.87322 0
M  V30 2985 C 294.464 3.24004 4.73085 0
M  V30 2986 N 293.96 4.03388 5.63249 0
M  V30 2987 N 295.753 3.12965 4.66914 0
M  V30 2988 H 287.904 1.87478 0.998285 0
M  V30 2989 H 290.167 0.805559 0.499779 0
M  V30 2990 H 289.873 2.63412 2.33039 0
M  V30 2991 H 289.747 1.35171 3.52149 0
M  V30 2992 H 292.134 0.584835 2.89247 0
M  V30 2993 H 292.215 1.90053 1.71212 0
M  V30 2994 H 291.859 3.58458 3.5982 0
M  V30 2995 H 291.789 2.24063 4.76554 0
M  V30 2996 H 294.28 1.96396 3.22858 0
M  V30 2997 H 294.593 4.5373 6.25579 0
M  V30 2998 H 292.938 4.07489 5.63008 0
M  V30 2999 H 296.129 2.50432 3.95476 0
M  V30 3000 H 296.302 3.67759 5.33533 0
M  V30 3001 N 289.708 -1.40897 0.706093 0
M  V30 3002 C 290.64 -2.29199 0.00815776 0
M  V30 3003 C 291.653 -1.45336 -0.733582 0
M  V30 3004 O 292.842 -1.68727 -0.582537 0
M  V30 3005 C 289.942 -3.23417 -1.01265 0
M  V30 3006 C 289.115 -4.36089 -0.338387 0
M  V30 3007 C 288.174 -5.10811 -1.26326 0
M  V30 3008 O 287.2 -5.64215 -0.751651 0
M  V30 3009 N 288.402 -5.19269 -2.595 0
M  V30 3010 H 291.167 -2.89738 0.766297 0
M  V30 3011 H 288.728 -1.52164 0.55296 0
M  V30 3012 H 290.72 -3.70276 -1.63334 0
M  V30 3013 H 289.29 -2.64112 -1.67223 0
M  V30 3014 H 288.51 -3.91479 0.462352 0
M  V30 3015 H 289.798 -5.08634 0.130031 0
M  V30 3016 H 289.196 -4.77347 -3.03573 0
M  V30 3017 H 287.753 -5.69667 -3.16737 0
M  V30 3018 N 291.186 -0.45159 -1.50991 0
M  V30 3019 C 292.597 0.00818571 -1.86698 0
M  V30 3020 C 292.948 1.40661 -1.3678 0
M  V30 3021 O 292.073 2.0391 -0.724546 0
M  V30 3022 C 292.668 0.0216303 -3.38793 0
M  V30 3023 C 291.227 0.425865 -3.73983 0
M  V30 3024 C 290.374 -0.372163 -2.74791 0
M  V30 3025 H 293.325 -0.666785 -1.44013 0
M  V30 3026 H 293.346 0.828078 -3.7138 0
M  V30 3027 H 292.858 -0.996288 -3.75094 0
M  V30 3028 H 290.959 1.44886 -3.43277 0
M  V30 3029 H 291.072 0.140761 -4.78893 0
M  V30 3030 H 289.436 0.171498 -2.54122 0
M  V30 3031 H 290.219 -1.38922 -3.13935 0
M  V30 3032 N 292.664 1.56529 -0.183458 0
M  V30 3033 C 293.574 2.22144 0.754272 0
M  V30 3034 C 294.59 1.21684 1.24374 0
M  V30 3035 O 295.766 1.54385 1.29333 0
M  V30 3036 C 292.831 2.85884 1.96141 0
M  V30 3037 C 291.892 4.01579 1.51765 0
M  V30 3038 C 291.125 4.6227 2.66725 0
M  V30 3039 O 291.348 4.21865 3.83909 0
M  V30 3040 O 290.282 5.51936 2.40104 0
M  V30 3041 H 294.108 3.02861 0.225527 0
M  V30 3042 H 291.693 1.49331 0.0453032 0
M  V30 3043 H 293.575 3.26253 2.66715 0
M  V30 3044 H 292.25 2.08154 2.47899 0
M  V30 3045 H 291.157 3.65856 0.781049 0
M  V30 3046 H 292.49 4.80938 1.04686 0
M  V30 3047 N 294.142 -0.090211 1.57342 0
M  V30 3048 C 295.092 -1.11557 1.98844 0
M  V30 3049 C 296.076 -1.35503 0.867624 0
M  V30 3050 O 297.268 -1.36113 1.13148 0
M  V30 3051 C 294.397 -2.43446 2.42051 0
M  V30 3052 C 293.483 -2.22853 3.60828 0
M  V30 3053 N 293.874 -1.72141 4.75606 0
M  V30 3054 C 292.172 -2.53401 3.67021 0
M  V30 3055 C 292.873 -1.65932 5.57531 0
M  V30 3056 N 291.849 -2.11323 5.00843 0
M  V30 3057 H 295.651 -0.716499 2.85032 0
M  V30 3058 H 293.165 -0.297567 1.59651 0
M  V30 3059 H 295.162 -3.17644 2.70014 0
M  V30 3060 H 293.822 -2.84087 1.57241 0
M  V30 3061 H 294.833 -1.41268 4.98261 0
M  V30 3062 H 291.51 -2.97532 2.92884 0
M  V30 3063 H 292.9 -1.27733 6.59647 0
M  V30 3064 N 295.62 -1.53406 -0.361157 0
M  V30 3065 C 296.55 -1.83136 -1.44857 0
M  V30 3066 C 297.531 -0.685174 -1.5569 0
M  V30 3067 O 298.716 -0.93544 -1.70186 0
M  V30 3068 C 295.846 -2.02522 -2.82138 0
M  V30 3069 C 294.8 -3.18302 -2.86126 0
M  V30 3070 C 294.126 -3.22989 -4.26125 0
M  V30 3071 C 295.426 -4.56796 -2.53248 0
M  V30 3072 H 297.12 -2.74201 -1.20226 0
M  V30 3073 H 294.666 -1.31938 -0.576922 0
M  V30 3074 H 296.619 -2.21904 -3.58241 0
M  V30 3075 H 295.343 -1.08172 -3.08166 0
M  V30 3076 H 294.002 -2.98747 -2.12475 0
M  V30 3077 H 293.65 -2.26267 -4.49235 0
M  V30 3078 H 293.35 -4.00781 -4.29708 0
M  V30 3079 H 294.874 -3.44559 -5.04094 0
M  V30 3080 H 296.288 -4.7631 -3.19064 0
M  V30 3081 H 294.685 -5.36862 -2.68141 0
M  V30 3082 H 295.755 -4.61606 -1.48484 0
M  V30 3083 N 297.098 0.621204 -1.44841 0
M  V30 3084 C 298.045 1.73267 -1.5247 0
M  V30 3085 C 299.015 1.6189 -0.371611 0
M  V30 3086 O 300.2 1.81668 -0.58321 0
M  V30 3087 C 297.34 3.11545 -1.48438 0
M  V30 3088 C 296.453 3.33827 -2.74196 0
M  V30 3089 C 295.588 4.62133 -2.61929 0
M  V30 3090 C 294.627 4.77627 -3.82804 0
M  V30 3091 N 293.764 5.97219 -3.69153 0
M  V30 3092 H 298.604 1.66082 -2.47428 0
M  V30 3093 H 296.141 0.810026 -1.22788 0
M  V30 3094 H 298.099 3.91528 -1.4409 0
M  V30 3095 H 296.729 3.1772 -0.570402 0
M  V30 3096 H 295.781 2.47715 -2.88689 0
M  V30 3097 H 297.093 3.41153 -3.6389 0
M  V30 3098 H 296.247 5.50291 -2.5547 0
M  V30 3099 H 294.986 4.57182 -1.69811 0
M  V30 3100 H 293.991 3.87896 -3.89637 0
M  V30 3101 H 295.216 4.84385 -4.75971 0
M  V30 3102 H 293.162 5.93339 -2.79794 0
M  V30 3103 H 293.079 6.05644 -4.52472 0
M  V30 3104 H 294.347 6.87912 -3.66603 0
M  V30 3105 N 298.576 1.31904 0.862503 0
M  V30 3106 C 299.524 1.20125 1.9918 0
M  V30 3107 C 300.518 0.107824 1.69056 0
M  V30 3108 O 301.724 0.270223 1.7796 0
M  V30 3109 H 298.099 0.372148 0.65346 0
M  V30 3110 H 300.07 2.15652 2.06244 0
M  V30 3111 C 298.819 0.933099 3.34946 0
M  V30 3112 H 298.142 1.76664 3.5865 0
M  V30 3113 H 299.582 0.890892 4.14535 0
M  V30 3114 C 298.041 -0.364172 3.34926 0
M  V30 3115 O 298.571 -1.37858 3.77304 0
M  V30 3116 N 296.777 -0.383362 2.8806 0
M  V30 3117 H 296.324 0.442651 2.53768 0
M  V30 3118 H 296.282 -1.25123 2.8843 0
M  V30 3119 N 300.054 -1.07777 1.14986 0
M  V30 3120 C 301.301 -1.8029 0.922056 0
M  V30 3121 C 301.629 -1.86531 -0.55105 0
M  V30 3122 O 300.884 -1.34189 -1.42449 0
M  V30 3123 C 301.183 -3.25495 1.47608 0
M  V30 3124 C 300.849 -3.39361 2.96893 0
M  V30 3125 C 299.511 -3.42852 3.37647 0
M  V30 3126 C 301.863 -3.42512 3.92854 0
M  V30 3127 C 299.191 -3.47094 4.73015 0
M  V30 3128 C 301.543 -3.4829 5.28088 0
M  V30 3129 C 300.207 -3.50058 5.68345 0
M  V30 3130 H 299.477 -0.659727 0.337404 0
M  V30 3131 H 302.124 -1.26854 1.43459 0
M  V30 3132 H 300.429 -3.81683 0.88463 0
M  V30 3133 H 302.126 -3.80168 1.27568 0
M  V30 3134 H 298.716 -3.37339 2.64387 0
M  V30 3135 H 302.9 -3.3904 3.62444 0
M  V30 3136 H 298.156 -3.46758 5.03556 0
M  V30 3137 H 302.33 -3.49675 6.02246 0
M  V30 3138 H 299.957 -3.53097 6.73221 0
M  V30 3139 N 301.532 -0.945985 -1.26051 0
M  V30 3140 C 302.462 -0.477172 -2.28572 0
M  V30 3141 C 303.443 0.472032 -1.63419 0
M  V30 3142 O 304.628 0.372853 -1.90587 0
M  V30 3143 C 301.758 0.253975 -3.4637 0
M  V30 3144 C 300.712 -0.609135 -4.23643 0
M  V30 3145 C 300.038 0.252252 -5.34105 0
M  V30 3146 C 301.338 -1.8829 -4.8718 0
M  V30 3147 H 303.032 -1.33402 -2.68038 0
M  V30 3148 H 300.578 -0.642904 -1.28852 0
M  V30 3149 H 302.531 0.593016 -4.17207 0
M  V30 3150 H 301.255 1.145 -3.05871 0
M  V30 3151 H 299.914 -0.931138 -3.54578 0
M  V30 3152 H 299.562 1.14278 -4.89846 0
M  V30 3153 H 299.262 -0.32188 -5.86718 0
M  V30 3154 H 300.786 0.586454 -6.07777 0
M  V30 3155 H 302.2 -1.61081 -5.50205 0
M  V30 3156 H 300.597 -2.40199 -5.49931 0
M  V30 3157 H 301.667 -2.59134 -4.09851 0
M  V30 3158 N 303.011 1.40521 -0.713556 0
M  V30 3159 C 304.26 2.00155 -0.249192 0
M  V30 3160 C 304.573 1.57224 1.16362 0
M  V30 3161 O 305.779 2.09542 1.72639 0
M  V30 3162 C 304.235 3.5773 -0.3946 0
M  V30 3163 C 303.843 4.09635 -1.81392 0
M  V30 3164 C 305.587 4.24499 0.00907364 0
M  V30 3165 C 303.494 5.59707 -1.91003 0
M  V30 3166 H 302.424 0.74868 -0.0894114 0
M  V30 3167 H 305.075 1.60784 -0.884352 0
M  V30 3168 H 303.457 3.94792 0.30911 0
M  V30 3169 H 304.631 3.83955 -2.54785 0
M  V30 3170 H 302.946 3.55456 -2.16888 0
M  V30 3171 H 305.543 5.34683 -0.0420404 0
M  V30 3172 H 305.886 4.02824 1.05065 0
M  V30 3173 H 306.419 3.92536 -0.645007 0
M  V30 3174 H 303.158 5.86234 -2.93275 0
M  V30 3175 H 302.678 5.87258 -1.22019 0
M  V30 3176 H 304.357 6.24776 -1.6812 0
M  V30 3177 N 304.489 0.459591 1.5075 0
M  V30 3178 C 305.714 -0.0996819 2.0716 0
M  V30 3179 C 306.139 -1.33761 1.32249 0
M  V30 3180 O 305.497 -1.77551 0.366786 0
M  V30 3181 C 305.545 -0.378226 3.58611 0
M  V30 3182 O 304.649 -1.46081 3.85661 0
M  V30 3183 H 303.99 0.00791392 0.663953 0
M  V30 3184 H 306.52 0.647329 1.9409 0
M  V30 3185 H 306.53 -0.622135 4.03229 0
M  V30 3186 H 305.205 0.526439 4.12555 0
M  V30 3187 H 303.782 -1.20511 3.5289 0
M  V30 3188 N 305.967 -1.56429 0.191757 0
M  V30 3189 C 306.93 -2.17707 -0.716688 0
M  V30 3190 C 307.93 -1.13061 -1.14341 0
M  V30 3191 O 309.12 -1.38464 -1.05704 0
M  V30 3192 C 306.252 -2.77644 -1.97804 0
M  V30 3193 H 307.445 -2.99342 -0.1829 0
M  V30 3194 H 304.998 -1.56193 -0.0578566 0
M  V30 3195 H 305.733 -1.99799 -2.55443 0
M  V30 3196 H 305.518 -3.54246 -1.68083 0
M  V30 3197 H 307.008 -3.24708 -2.62592 0
M  V30 3198 N 307.445 0.0818655 -1.57387 0
M  V30 3199 C 308.377 1.12484 -1.997 0
M  V30 3200 C 309.39 1.35564 -0.90146 0
M  V30 3201 O 310.579 1.33982 -1.17945 0
M  V30 3202 C 307.679 2.47778 -2.31213 0
M  V30 3203 C 306.852 2.44793 -3.62485 0
M  V30 3204 C 305.911 3.62117 -3.81782 0
M  V30 3205 O 304.937 3.44005 -4.53486 0
M  V30 3206 N 306.139 4.82094 -3.23367 0
M  V30 3207 H 308.904 0.764585 -2.89783 0
M  V30 3208 H 306.465 0.270664 -1.59621 0
M  V30 3209 H 308.457 3.24891 -2.41304 0
M  V30 3210 H 307.027 2.75843 -1.4707 0
M  V30 3211 H 306.247 1.53134 -3.6324 0
M  V30 3212 H 307.535 2.39889 -4.48699 0
M  V30 3213 H 306.933 4.99713 -2.65148 0
M  V30 3214 H 305.49 5.56753 -3.38923 0
M  V30 3215 N 308.923 1.53595 0.353017 0
M  V30 3216 C 309.87 1.80919 1.43308 0
M  V30 3217 C 310.84 0.654288 1.5267 0
M  V30 3218 O 312.025 0.897759 1.6836 0
M  V30 3219 C 309.165 2.01605 2.80089 0
M  V30 3220 C 308.278 3.29321 2.79593 0
M  V30 3221 C 307.413 3.40125 4.0803 0
M  V30 3222 C 306.452 4.61826 4.01725 0
M  V30 3223 N 305.589 4.69716 5.21834 0
M  V30 3224 H 310.429 2.73074 1.19308 0
M  V30 3225 H 307.966 1.35263 0.578131 0
M  V30 3226 H 309.924 2.11586 3.59565 0
M  V30 3227 H 308.554 1.12772 3.0246 0
M  V30 3228 H 307.606 3.28229 1.92276 0
M  V30 3229 H 308.918 4.18884 2.70809 0
M  V30 3230 H 308.072 3.49488 4.95927 0
M  V30 3231 H 306.811 2.48601 4.19582 0
M  V30 3232 H 305.816 4.52552 3.12213 0
M  V30 3233 H 307.041 5.54705 3.91764 0
M  V30 3234 H 304.987 3.81097 5.33948 0
M  V30 3235 H 304.904 5.53202 5.1527 0
M  V30 3236 H 306.172 4.83376 6.11529 0
M  V30 3237 N 310.401 -0.613514 1.45168 0
M  V30 3238 C 311.364 -1.7065 1.53007 0
M  V30 3239 C 312.364 -1.5548 0.410184 0
M  V30 3240 O 313.554 -1.60656 0.673455 0
M  V30 3241 C 310.686 -3.09875 1.42093 0
M  V30 3242 H 311.879 -1.65068 2.50385 0
M  V30 3243 H 309.432 -0.828728 1.32521 0
M  V30 3244 H 310.167 -3.21039 0.458769 0
M  V30 3245 H 309.952 -3.22293 2.23315 0
M  V30 3246 H 311.442 -3.895 1.50598 0
M  V30 3247 N 311.879 -1.3236 -0.855495 0
M  V30 3248 C 313.29 -1.2056 -1.42556 0
M  V30 3249 C 313.641 0.182209 -1.95352 0
M  V30 3250 O 312.766 1.08088 -1.87472 0
M  V30 3251 C 313.361 -2.1826 -2.59129 0
M  V30 3252 C 311.92 -2.10351 -3.12137 0
M  V30 3253 C 311.067 -2.06674 -1.84882 0
M  V30 3254 H 314.018 -1.442 -0.662727 0
M  V30 3255 H 314.039 -1.78064 -3.36264 0
M  V30 3256 H 313.551 -3.19257 -2.20673 0
M  V30 3257 H 311.652 -1.12599 -3.55179 0
M  V30 3258 H 311.765 -3.00135 -3.73438 0
M  V30 3259 H 310.129 -1.51901 -2.04446 0
M  V30 3260 H 310.912 -3.09451 -1.48643 0
M  V30 3261 N 313.357 1.07166 -1.15556 0
M  V30 3262 C 314.287 2.16403 -0.877046 0
M  V30 3263 C 315.268 1.69217 0.173111 0
M  V30 3264 O 316.453 1.94181 0.027084 0
M  V30 3265 C 313.583 3.45349 -0.367632 0
M  V30 3266 C 312.537 4.05995 -1.35468 0
M  V30 3267 C 311.863 5.30045 -0.704038 0
M  V30 3268 C 313.163 4.45804 -2.72132 0
M  V30 3269 H 314.857 2.39959 -1.79053 0
M  V30 3270 H 312.403 1.15325 -0.862331 0
M  V30 3271 H 314.356 4.21095 -0.160317 0
M  V30 3272 H 313.08 3.21385 0.581326 0
M  V30 3273 H 311.739 3.32296 -1.54839 0
M  V30 3274 H 311.387 5.02373 0.251128 0
M  V30 3275 H 311.087 5.71579 -1.36277 0
M  V30 3276 H 312.611 6.08495 -0.50654 0
M  V30 3277 H 314.025 5.12671 -2.56595 0
M  V30 3278 H 312.422 4.98296 -3.34397 0
M  V30 3279 H 313.492 3.57083 -3.28054 0
M  V30 3280 N 314.835 0.952656 1.25548 0
M  V30 3281 C 316.06 0.623025 1.97821 0
M  V30 3282 C 316.485 -0.7976 1.70352 0
M  V30 3283 O 315.843 -1.53905 0.958283 0
M  V30 3284 C 315.891 0.885532 3.49558 0
M  V30 3285 O 314.995 -0.0366641 4.12384 0
M  V30 3286 H 314.336 0.237082 0.620232 0
M  V30 3287 H 316.866 1.27871 1.59719 0
M  V30 3288 H 316.876 0.811009 3.99858 0
M  V30 3289 H 315.551 1.92094 3.6888 0
M  V30 3290 H 314.128 0.0898954 3.72792 0
M  V30 3291 N 316.313 -1.40141 0.720998 0
M  V30 3292 C 317.541 -2.05096 0.272656 0
M  V30 3293 C 317.956 -1.54334 -1.0875 0
M  V30 3294 O 317.313 -0.702211 -1.6845 0
M  V30 3295 C 317.364 -3.60636 0.249835 0
M  V30 3296 O 317.085 -4.09526 1.55629 0
M  V30 3297 C 318.586 -4.42772 -0.216396 0
M  V30 3298 H 315.806 -0.659897 0.121558 0
M  V30 3299 H 318.35 -1.79449 0.980723 0
M  V30 3300 H 316.505 -3.85232 -0.409237 0
M  V30 3301 H 316.919 -5.03758 1.4604 0
M  V30 3302 H 318.393 -5.51702 -0.181212 0
M  V30 3303 H 318.87 -4.20756 -1.25941 0
M  V30 3304 H 319.476 -4.23294 0.412596 0
M  V30 3305 N 317.792 -0.46758 -1.50504 0
M  V30 3306 C 319.038 0.0808869 -2.03239 0
M  V30 3307 C 319.393 1.37721 -1.34353 0
M  V30 3308 O 318.686 1.86016 -0.459194 0
M  V30 3309 C 318.88 0.323995 -3.55928 0
M  V30 3310 C 318.709 -0.947215 -4.39611 0
M  V30 3311 C 317.479 -1.48951 -4.82848 0
M  V30 3312 C 319.677 -1.84166 -4.80195 0
M  V30 3313 N 317.659 -2.71011 -5.50842 0
M  V30 3314 C 319.03 -2.90815 -5.47564 0
M  V30 3315 C 321.085 -1.85246 -4.62156 0
M  V30 3316 C 319.788 -3.98529 -5.98805 0
M  V30 3317 C 321.814 -2.91914 -5.14335 0
M  V30 3318 C 321.176 -3.97282 -5.81676 0
M  V30 3319 H 317.275 -0.0103394 -0.781932 0
M  V30 3320 H 319.859 -0.635003 -1.84054 0
M  V30 3321 H 318.03 1.00892 -3.75067 0
M  V30 3322 H 319.762 0.866492 -3.95315 0
M  V30 3323 H 316.517 -1.03918 -4.62058 0
M  V30 3324 H 316.941 -3.32988 -5.89447 0
M  V30 3325 H 321.583 -1.05103 -4.09528 0
M  V30 3326 H 319.301 -4.79491 -6.50472 0
M  V30 3327 H 322.887 -2.93729 -5.0221 0
M  V30 3328 H 321.767 -4.78462 -6.21324 0
M  V30 3329 N 319.27 1.56325 -0.20005 0
M  V30 3330 C 320.547 1.89484 0.48529 0
M  V30 3331 C 320.927 1.1143 1.79294 0
M  V30 3332 O 320.275 0.216919 2.27468 0
M  V30 3333 C 320.485 3.41923 0.699243 0
M  V30 3334 C 321.833 4.12256 1.01638 0
M  V30 3335 O 322.857 3.47402 0.786792 0
M  V30 3336 O 321.716 5.26887 1.45095 0
M  V30 3337 H 318.81 0.787144 0.253639 0
M  V30 3338 H 321.356 1.67985 -0.240633 0
M  V30 3339 H 320.128 3.90658 -0.224008 0
M  V30 3340 H 319.751 3.69131 1.47744 0
M  V30 3341 N 320.748 -0.0735177 1.57428 0
M  V30 3342 C 321.994 -0.774145 1.87443 0
M  V30 3343 C 322.327 -1.77311 0.792103 0
M  V30 3344 O 321.602 -1.93492 -0.197793 0
M  V30 3345 C 321.885 -1.48367 3.28115 0
M  V30 3346 C 321.738 -0.501227 4.46999 0
M  V30 3347 C 323.057 -2.429 3.66998 0
M  V30 3348 H 320.176 -0.279971 0.681752 0
M  V30 3349 H 322.818 -0.0373616 1.89963 0
M  V30 3350 H 320.968 -2.11171 3.26097 0
M  V30 3351 H 322.64 0.121468 4.6114 0
M  V30 3352 H 320.883 0.183593 4.33411 0
M  V30 3353 H 321.554 -1.03526 5.42205 0
M  V30 3354 H 324.03 -1.90175 3.70098 0
M  V30 3355 H 322.906 -2.89549 4.66318 0
M  V30 3356 H 323.167 -3.27628 2.96837 0
M  V30 3357 N 322.226 -1.5378 -0.344866 0
M  V30 3358 C 323.454 -1.74899 -1.10534 0
M  V30 3359 C 323.869 -0.487534 -1.82397 0
M  V30 3360 O 323.226 0.540741 -1.74305 0
M  V30 3361 C 323.277 -2.92822 -2.11984 0
M  V30 3362 O 322.998 -4.14089 -1.43044 0
M  V30 3363 C 324.499 -3.25982 -3.00417 0
M  V30 3364 H 321.719 -0.584426 -0.329678 0
M  V30 3365 H 324.263 -2.006 -0.397474 0
M  V30 3366 H 322.418 -2.69457 -2.78338 0
M  V30 3367 H 322.832 -4.80272 -2.10805 0
M  V30 3368 H 324.306 -4.11848 -3.67539 0
M  V30 3369 H 324.783 -2.42228 -3.66363 0
M  V30 3370 H 325.389 -3.51349 -2.39654 0
M  V30 3371 N 323.704 0.605807 -1.45491 0
M  V30 3372 C 324.667 1.69836 -1.5391 0
M  V30 3373 C 325.667 1.55261 -0.418424 0
M  V30 3374 O 326.857 1.60296 -0.681965 0
M  V30 3375 C 323.989 3.09117 -1.43734 0
M  V30 3376 H 325.182 1.63738 -2.51257 0
M  V30 3377 H 322.735 0.821689 -1.32959 0
M  V30 3378 H 323.47 3.20791 -0.475788 0
M  V30 3379 H 323.255 3.21104 -2.25021 0
M  V30 3380 H 324.745 3.88696 -1.52661 0
M  V30 3381 N 325.182 1.32811 0.848464 0
M  V30 3382 C 326.598 1.11937 1.13764 0
M  V30 3383 C 326.798 -0.0960789 2.01271 0
M  V30 3384 O 325.854 -0.779165 2.40178 0
M  V30 3385 C 327.167 2.402 1.809 0
M  V30 3386 C 328.715 2.46016 1.93508 0
M  V30 3387 C 329.19 3.74215 2.64059 0
M  V30 3388 N 330.681 3.75232 2.71579 0
M  V30 3389 C 331.416 4.71134 3.26833 0
M  V30 3390 N 330.912 5.77406 3.8285 0
M  V30 3391 N 332.705 4.58623 3.24995 0
M  V30 3392 H 324.856 2.1073 0.265855 0
M  V30 3393 H 327.119 0.930671 0.180431 0
M  V30 3394 H 326.825 3.29093 1.24058 0
M  V30 3395 H 326.699 2.51628 2.81004 0
M  V30 3396 H 329.086 1.57577 2.49506 0
M  V30 3397 H 329.167 2.38536 0.923811 0
M  V30 3398 H 328.811 4.63031 2.08722 0
M  V30 3399 H 328.741 3.78968 3.65637 0
M  V30 3400 H 331.232 2.98423 2.31845 0
M  V30 3401 H 331.545 6.46632 4.23187 0
M  V30 3402 H 329.89 5.81152 3.81165 0
M  V30 3403 H 333.081 3.74762 2.80484 0
M  V30 3404 H 333.254 5.33535 3.67756 0
M  V30 3405 N 326.66 -1.06551 1.16123 0
M  V30 3406 C 327.59 -2.15935 0.88851 0
M  V30 3407 C 328.571 -1.69306 -0.164135 0
M  V30 3408 O 329.756 -1.94193 -0.0167857 0
M  V30 3409 C 326.886 -3.45149 0.385942 0
M  V30 3410 C 325.84 -4.05271 1.3762 0
M  V30 3411 C 325.166 -5.29664 0.732137 0
M  V30 3412 C 326.466 -4.44355 2.74493 0
M  V30 3413 H 328.16 -2.39006 1.80323 0
M  V30 3414 H 325.706 -1.14866 0.868435 0
M  V30 3415 H 327.659 -4.21004 0.182647 0
M  V30 3416 H 326.383 -3.21689 -0.564274 0
M  V30 3417 H 325.042 -3.3147 1.56599 0
M  V30 3418 H 324.69 -5.02499 -0.224483 0
M  V30 3419 H 324.39 -5.70848 1.39307 0
M  V30 3420 H 325.914 -6.08218 0.538802 0
M  V30 3421 H 327.328 -5.11303 2.59311 0
M  V30 3422 H 325.725 -4.96515 3.37035 0
M  V30 3423 H 326.795 -3.55339 3.29943 0
M  V30 3424 N 328.138 -0.959301 -1.25041 0
M  V30 3425 C 329.386 -0.615393 -1.92503 0
M  V30 3426 C 329.707 0.850969 -1.75452 0
M  V30 3427 O 328.977 1.60658 -1.12098 0
M  V30 3428 H 327.557 -0.224613 -0.712431 0
M  V30 3429 H 330.219 -1.21855 -1.5211 0
M  V30 3430 H 329.315 -0.848738 -3.00338 0
M  V30 3431 N 329.616 1.39756 -0.72842 0
M  V30 3432 C 330.526 2.34444 -0.0855374 0
M  V30 3433 C 331.542 1.57976 0.729356 0
M  V30 3434 O 332.718 1.90301 0.659346 0
M  V30 3435 C 329.783 3.36965 0.815798 0
M  V30 3436 C 328.844 4.29299 -0.0105996 0
M  V30 3437 C 328.077 5.26923 0.84781 0
M  V30 3438 O 328.3 5.30859 2.08673 0
M  V30 3439 O 327.234 6.01249 0.279969 0
M  V30 3440 H 331.06 2.91065 -0.866892 0
M  V30 3441 H 328.645 1.4117 -0.48902 0
M  V30 3442 H 330.527 3.99804 1.33171 0
M  V30 3443 H 329.202 2.82739 1.57608 0
M  V30 3444 H 328.109 3.69703 -0.571877 0
M  V30 3445 H 329.442 4.86712 -0.73295 0
M  V30 3446 N 331.094 0.475555 1.50254 0
M  V30 3447 C 332.343 -0.0795996 2.01543 0
M  V30 3448 C 332.656 -1.4038 1.36209 0
M  V30 3449 O 333.862 -2.04415 1.7868 0
M  V30 3450 C 332.318 -0.192363 3.59386 0
M  V30 3451 C 331.926 1.12367 4.33679 0
M  V30 3452 C 333.67 -0.699238 4.18701 0
M  V30 3453 C 331.577 0.974453 5.83317 0
M  V30 3454 H 330.507 -0.0335228 0.753254 0
M  V30 3455 H 333.158 0.611128 1.73025 0
M  V30 3456 H 331.54 -0.946974 3.84511 0
M  V30 3457 H 332.714 1.88958 4.20276 0
M  V30 3458 H 331.029 1.562 3.85993 0
M  V30 3459 H 333.626 -0.827978 5.28251 0
M  V30 3460 H 333.969 -1.69171 3.80377 0
M  V30 3461 H 334.502 -0.00188807 3.978 0
M  V30 3462 H 331.241 1.94042 6.26121 0
M  V30 3463 H 330.761 0.248998 5.99283 0
M  V30 3464 H 332.44 0.642867 6.43798 0
M  V30 3465 N 332.573 -1.56217 0.208337 0
M  V30 3466 C 333.52 -2.19699 -0.707192 0
M  V30 3467 C 334.49 -1.14836 -1.20008 0
M  V30 3468 O 335.675 -1.4314 -1.26157 0
M  V30 3469 C 332.815 -2.87061 -1.91546 0
M  V30 3470 C 331.928 -4.06483 -1.46271 0
M  V30 3471 C 331.063 -4.61665 -2.62752 0
M  V30 3472 C 330.102 -5.73417 -2.14147 0
M  V30 3473 N 329.239 -6.22948 -3.23853 0
M  V30 3474 H 334.079 -2.97575 -0.159111 0
M  V30 3475 H 331.616 -1.46948 -0.0667874 0
M  V30 3476 H 333.574 -3.24294 -2.62468 0
M  V30 3477 H 332.204 -2.11725 -2.43664 0
M  V30 3478 H 331.256 -3.74825 -0.648886 0
M  V30 3479 H 332.568 -4.87271 -1.06622 0
M  V30 3480 H 331.722 -5.01272 -3.41776 0
M  V30 3481 H 330.461 -3.80013 -3.05682 0
M  V30 3482 H 329.466 -5.33326 -1.33581 0
M  V30 3483 H 330.691 -6.56897 -1.72232 0
M  V30 3484 H 328.637 -5.44213 -3.6629 0
M  V30 3485 H 328.554 -6.98823 -2.88414 0
M  V30 3486 H 329.822 -6.6721 -4.03052 0
M  V30 3487 N 334.051 0.0651679 -1.57465 0
M  V30 3488 C 335.014 1.06117 -2.03155 0
M  V30 3489 C 336.014 1.31204 -0.929632 0
M  V30 3490 O 337.204 1.26813 -1.19432 0
M  V30 3491 C 334.336 2.4032 -2.41783 0
M  V30 3492 H 335.529 0.667231 -2.92383 0
M  V30 3493 H 333.082 0.311075 -1.53173 0
M  V30 3494 H 333.817 2.84532 -1.55601 0
M  V30 3495 H 333.602 2.23451 -3.22199 0
M  V30 3496 H 335.092 3.11898 -2.77685 0
M  V30 3497 N 335.529 1.53961 0.336706 0
M  V30 3498 C 336.476 1.82428 1.41381 0
M  V30 3499 C 337.446 0.670444 1.51968 0
M  V30 3500 O 338.631 0.915565 1.67398 0
M  V30 3501 C 335.771 2.04564 2.77934 0
M  V30 3502 C 334.884 3.32267 2.76084 0
M  V30 3503 C 334.019 3.44434 4.04399 0
M  V30 3504 C 333.058 4.66061 3.96804 0
M  V30 3505 N 332.195 4.75224 5.16823 0
M  V30 3506 H 337.035 2.74324 1.16405 0
M  V30 3507 H 334.572 1.35869 0.563752 0
M  V30 3508 H 336.53 2.15388 3.57301 0
M  V30 3509 H 335.16 1.15974 3.01247 0
M  V30 3510 H 334.212 3.3025 1.88784 0
M  V30 3511 H 335.524 4.21733 2.66351 0
M  V30 3512 H 334.678 3.54728 4.92192 0
M  V30 3513 H 333.417 2.53037 4.16921 0
M  V30 3514 H 332.422 4.55838 3.07396 0
M  V30 3515 H 333.647 5.58829 3.85858 0
M  V30 3516 H 331.593 3.86739 5.29876 0
M  V30 3517 H 331.51 5.58636 5.09374 0
M  V30 3518 H 332.778 4.89835 6.06367 0
M  V30 3519 N 337.007 -0.598083 1.45811 0
M  V30 3520 C 338.235 -1.38322 1.53866 0
M  V30 3521 C 338.65 -1.87992 0.174479 0
M  V30 3522 O 338.007 -1.62756 -0.825627 0
M  V30 3523 C 338.058 -2.58125 2.53089 0
M  V30 3524 O 337.779 -2.10516 3.84206 0
M  V30 3525 C 339.28 -3.50869 2.70935 0
M  V30 3526 H 336.5 -0.423093 0.520801 0
M  V30 3527 H 339.044 -0.728527 1.91083 0
M  V30 3528 H 337.199 -3.19615 2.18917 0
M  V30 3529 H 337.613 -2.88425 4.38077 0
M  V30 3530 H 339.087 -4.31451 3.44317 0
M  V30 3531 H 339.564 -4.01822 1.77301 0
M  V30 3532 H 340.17 -2.95225 3.06141 0
M  V30 3533 N 338.485 -1.33259 -0.841409 0
M  V30 3534 C 339.732 -1.24572 -1.5965 0
M  V30 3535 C 340.06 0.189137 -1.93578 0
M  V30 3536 O 339.315 1.14566 -1.5866 0
M  V30 3537 C 339.614 -2.06381 -2.9179 0
M  V30 3538 C 339.28 -3.556 -2.77235 0
M  V30 3539 C 337.942 -3.96282 -2.72973 0
M  V30 3540 C 340.294 -4.50433 -2.62221 0
M  V30 3541 C 337.622 -5.30017 -2.51592 0
M  V30 3542 C 339.974 -5.84327 -2.42374 0
M  V30 3543 C 338.638 -6.24194 -2.36512 0
M  V30 3544 H 337.908 -0.455842 -0.5842 0
M  V30 3545 H 340.555 -1.6482 -0.975016 0
M  V30 3546 H 338.86 -1.58903 -3.5813 0
M  V30 3547 H 340.557 -1.97019 -3.49263 0
M  V30 3548 H 337.147 -3.23298 -2.81384 0
M  V30 3549 H 341.331 -4.19914 -2.64549 0
M  V30 3550 H 336.587 -5.59947 -2.45499 0
M  V30 3551 H 340.761 -6.57414 -2.29739 0
M  V30 3552 H 338.388 -7.27759 -2.19706 0
M  V30 3553 N 339.963 1.05934 -1.16686 0
M  V30 3554 C 341.212 1.78188 -0.945085 0
M  V30 3555 C 341.525 1.88338 0.528021 0
M  V30 3556 O 342.731 2.57258 0.867799 0
M  V30 3557 C 341.187 3.20277 -1.64167 0
M  V30 3558 C 340.795 3.18281 -3.15279 0
M  V30 3559 C 342.539 3.97039 -1.502 0
M  V30 3560 C 340.446 4.55112 -3.7766 0
M  V30 3561 H 339.376 0.667866 -0.349959 0
M  V30 3562 H 342.027 1.18794 -1.39858 0
M  V30 3563 H 340.409 3.79952 -1.11589 0
M  V30 3564 H 341.583 2.68167 -3.74731 0
M  V30 3565 H 339.898 2.55018 -3.29173 0
M  V30 3566 H 342.495 4.98194 -1.94183 0
M  V30 3567 H 342.838 4.13845 -0.451461 0
M  V30 3568 H 343.371 3.43894 -1.99954 0
M  V30 3569 H 340.11 4.43512 -4.82677 0
M  V30 3570 H 339.63 5.05406 -3.22994 0
M  V30 3571 H 341.309 5.24064 -3.79428 0
M  V30 3572 N 341.441 0.965919 1.2453 0
M  V30 3573 C 342.669 0.644385 1.96609 0
M  V30 3574 C 343.084 -0.785823 1.71669 0
M  V30 3575 O 342.441 -1.52703 0.999399 0
M  V30 3576 C 342.492 0.907375 3.49927 0
M  V30 3577 O 342.213 2.28136 3.74013 0
M  V30 3578 C 343.714 0.599784 4.39224 0
M  V30 3579 H 340.934 0.240588 0.626385 0
M  V30 3580 H 343.478 1.29337 1.58405 0
M  V30 3581 H 341.633 0.304631 3.862 0
M  V30 3582 H 342.047 2.36002 4.68405 0
M  V30 3583 H 343.521 0.834263 5.45659 0
M  V30 3584 H 343.998 -0.465921 4.36722 0
M  V30 3585 H 344.604 1.18235 4.08535 0
M  V30 3586 N 342.919 -1.39368 0.735821 0
M  V30 3587 C 344.165 -2.01272 0.293439 0
M  V30 3588 C 344.52 -1.57344 -1.10728 0
M  V30 3589 O 343.813 -0.792744 -1.74431 0
M  V30 3590 C 344.007 -3.5583 0.334651 0
M  V30 3591 C 343.836 -4.14764 1.73784 0
M  V30 3592 C 342.606 -4.47315 2.35026 0
M  V30 3593 C 344.804 -4.38246 2.69157 0
M  V30 3594 N 342.786 -4.91756 3.6749 0
M  V30 3595 C 344.157 -4.849 3.86357 0
M  V30 3596 C 346.212 -4.20315 2.66908 0
M  V30 3597 C 344.915 -5.15505 5.01645 0
M  V30 3598 C 346.941 -4.52033 3.8134 0
M  V30 3599 C 346.303 -4.98895 4.97276 0
M  V30 3600 H 342.402 -0.766756 0.153652 0
M  V30 3601 H 344.986 -1.69276 0.961967 0
M  V30 3602 H 343.157 -3.87212 -0.303527 0
M  V30 3603 H 344.889 -4.04503 -0.126358 0
M  V30 3604 H 341.644 -4.35143 1.86943 0
M  V30 3605 H 342.068 -5.18333 4.35499 0
M  V30 3606 H 346.71 -3.83287 1.78468 0
M  V30 3607 H 344.428 -5.51437 5.90713 0
M  V30 3608 H 348.014 -4.39781 3.80899 0
M  V30 3609 H 346.894 -5.22973 5.84353 0
M  V30 3610 N 344.397 -0.483516 -1.5 0
M  V30 3611 C 345.645 0.067027 -2.01989 0
M  V30 3612 C 345.966 1.3909 -1.36671 0
M  V30 3613 O 345.236 1.88978 -0.516152 0
M  V30 3614 H 343.816 0.0277606 -0.746484 0
M  V30 3615 H 346.478 -0.636773 -1.84204 0
M  V30 3616 H 345.574 0.209484 -3.11396 0
M  V30 3617 N 345.875 1.56104 -0.216619 0
M  V30 3618 C 347.291 1.58995 0.13886 0
M  V30 3619 C 347.491 1.23333 1.59346 0
M  V30 3620 O 346.547 0.966234 2.33281 0
M  V30 3621 C 347.86 3.00143 -0.182968 0
M  V30 3622 C 349.408 3.12751 -0.124807 0
M  V30 3623 C 349.883 4.56068 -0.420241 0
M  V30 3624 N 351.374 4.61723 -0.369634 0
M  V30 3625 C 352.109 5.70542 -0.571789 0
M  V30 3626 N 351.605 6.87744 -0.835453 0
M  V30 3627 N 353.398 5.59831 -0.504563 0
M  V30 3628 H 345.549 1.77562 -1.16557 0
M  V30 3629 H 347.812 0.825091 -0.466828 0
M  V30 3630 H 347.518 3.30871 -1.19237 0
M  V30 3631 H 347.392 3.73813 0.504367 0
M  V30 3632 H 349.779 2.81822 0.875223 0
M  V30 3633 H 349.86 2.41421 -0.845544 0
M  V30 3634 H 349.504 4.87713 -1.41769 0
M  V30 3635 H 349.434 5.25617 0.321631 0
M  V30 3636 H 351.925 3.77502 -0.173338 0
M  V30 3637 H 352.238 7.66587 -0.977938 0
M  V30 3638 H 350.583 6.895 -0.872592 0
M  V30 3639 H 353.774 4.67145 -0.298842 0
M  V30 3640 H 353.947 6.44573 -0.665519 0
M  V30 3641 N 347.353 -0.0568162 1.57498 0
M  V30 3642 C 348.63 -0.786954 1.79071 0
M  V30 3643 C 349.01 -1.95028 0.80792 0
M  V30 3644 O 348.358 -2.27968 -0.155858 0
M  V30 3645 C 348.568 -1.24594 3.26002 0
M  V30 3646 C 349.916 -1.67323 3.90241 0
M  V30 3647 O 350.94 -1.34124 3.29984 0
M  V30 3648 O 349.799 -2.28842 4.9628 0
M  V30 3649 H 346.893 -0.378262 0.735423 0
M  V30 3650 H 349.439 -0.035734 1.69662 0
M  V30 3651 H 348.211 -0.41423 3.89101 0
M  V30 3652 H 347.834 -2.05803 3.40192 0
M  V30 3653 N 348.832 -1.54138 -0.328536 0
M  V30 3654 C 350.109 -1.62749 -1.08499 0
M  V30 3655 C 350.489 -0.458198 -2.06067 0
M  V30 3656 O 349.837 0.548046 -2.2183 0
M  V30 3657 C 350.047 -2.99519 -1.79135 0
M  V30 3658 C 351.395 -3.55394 -2.32337 0
M  V30 3659 O 352.419 -3.01792 -1.89209 0
M  V30 3660 O 351.278 -4.49186 -3.11279 0
M  V30 3661 H 348.372 -0.65886 -0.499832 0
M  V30 3662 H 350.918 -1.66484 -0.328826 0
M  V30 3663 H 349.69 -3.76061 -1.08139 0
M  V30 3664 H 349.313 -2.99441 -2.61574 0
M  V30 3665 N 350.31 0.590341 -1.46126 0
M  V30 3666 C 351.726 0.912917 -1.30912 0
M  V30 3667 C 351.926 1.99616 -0.274893 0
M  V30 3668 O 350.982 2.50397 0.325197 0
M  V30 3669 C 352.295 1.3375 -2.69317 0
M  V30 3670 C 353.843 1.45077 -2.77348 0
M  V30 3671 C 354.318 1.90904 -4.16317 0
M  V30 3672 N 355.809 1.9811 -4.18696 0
M  V30 3673 C 356.544 2.34828 -5.23109 0
M  V30 3674 N 356.04 2.70393 -6.37856 0
M  V30 3675 N 357.833 2.35317 -5.10473 0
M  V30 3676 H 349.984 -0.125358 -2.1203 0
M  V30 3677 H 352.247 0.00658481 -0.947977 0
M  V30 3678 H 351.953 0.615614 -3.4627 0
M  V30 3679 H 351.827 2.30058 -2.9892 0
M  V30 3680 H 354.214 2.16353 -2.00687 0
M  V30 3681 H 354.295 0.4704 -2.51438 0
M  V30 3682 H 353.939 1.20209 -4.9347 0
M  V30 3683 H 353.869 2.89886 -4.39629 0
M  V30 3684 H 356.36 1.73146 -3.359 0
M  V30 3685 H 356.673 2.97341 -7.13308 0
M  V30 3686 H 355.018 2.68048 -6.41229 0
M  V30 3687 H 358.209 2.0695 -4.19868 0
M  V30 3688 H 358.382 2.63605 -5.9196 0
M  V30 3689 N 351.788 1.33704 0.83433 0
M  V30 3690 C 353.035 1.25417 1.58987 0
M  V30 3691 C 353.363 -0.178869 1.93676 0
M  V30 3692 O 352.618 -1.13723 1.59265 0
M  V30 3693 C 352.917 2.07926 2.90692 0
M  V30 3694 C 352.583 3.57066 2.75345 0
M  V30 3695 C 351.245 3.97724 2.70867 0
M  V30 3696 C 353.597 4.51817 2.59828 0
M  V30 3697 C 350.925 5.31344 2.48778 0
M  V30 3698 C 353.277 5.85604 2.39272 0
M  V30 3699 C 351.941 6.25439 2.33199 0
M  V30 3700 H 351.211 0.458934 0.581774 0
M  V30 3701 H 353.858 1.65335 0.966261 0
M  V30 3702 H 352.163 1.608 3.57282 0
M  V30 3703 H 353.86 1.98868 3.48213 0
M  V30 3704 H 350.45 3.24785 2.79665 0
M  V30 3705 H 354.634 4.21311 2.62319 0
M  V30 3706 H 349.89 5.61241 2.42526 0
M  V30 3707 H 354.064 6.58623 2.2625 0
M  V30 3708 H 351.691 7.28914 2.15843 0
M  V30 3709 N 353.266 -1.05314 1.17247 0
M  V30 3710 C 354.512 -1.78557 0.961513 0
M  V30 3711 C 354.845 -1.87419 -0.508697 0
M  V30 3712 O 354.12 -1.37307 -1.37757 0
M  V30 3713 C 354.403 -3.22514 1.60176 0
M  V30 3714 C 354.256 -3.21673 3.14399 0
M  V30 3715 C 355.575 -4.20318 1.30463 0
M  V30 3716 H 352.694 -0.6482 0.350723 0
M  V30 3717 H 355.336 -1.23102 1.44727 0
M  V30 3718 H 353.486 -3.69867 1.18871 0
M  V30 3719 H 355.158 -2.82405 3.64753 0
M  V30 3720 H 353.401 -2.60048 3.47214 0
M  V30 3721 H 354.072 -4.23271 3.54324 0
M  V30 3722 H 356.548 -3.81454 1.66229 0
M  V30 3723 H 355.424 -5.19289 1.77848 0
M  V30 3724 H 355.685 -4.41526 0.22521 0
M  V30 3725 N 354.744 -0.972509 -1.24016 0
M  V30 3726 C 356.155 -0.67517 -1.74064 0
M  V30 3727 C 356.506 0.808939 -1.78747 0
M  V30 3728 O 355.631 1.63286 -1.42009 0
M  V30 3729 C 356.226 -1.21889 -3.16115 0
M  V30 3730 C 354.785 -0.971358 -3.6365 0
M  V30 3731 C 353.932 -1.35134 -2.42145 0
M  V30 3732 H 356.883 -1.14727 -1.09651 0
M  V30 3733 H 356.904 -0.587489 -3.75937 0
M  V30 3734 H 356.416 -2.29906 -3.12674 0
M  V30 3735 H 354.517 0.0930686 -3.72484 0
M  V30 3736 H 354.63 -1.62039 -4.50866 0
M  V30 3737 H 352.994 -0.769751 -2.4279 0
M  V30 3738 H 353.777 -2.4411 -2.41381 0
M  V30 3739 N 356.222 1.38976 -0.743202 0
M  V30 3740 C 357.152 2.33171 -0.123873 0
M  V30 3741 C 358.133 1.54336 0.71516 0
M  V30 3742 O 359.318 1.82696 0.658467 0
M  V30 3743 C 356.448 3.38474 0.777978 0
M  V30 3744 C 355.402 4.27979 0.0424758 0
M  V30 3745 C 354.728 5.2405 1.06189 0
M  V30 3746 C 356.028 5.10155 -1.1198 0
M  V30 3747 H 357.722 2.85213 -0.910709 0
M  V30 3748 H 355.268 1.37133 -0.439388 0
M  V30 3749 H 357.221 4.03328 1.22084 0
M  V30 3750 H 355.945 2.84891 1.59702 0
M  V30 3751 H 354.604 3.64616 -0.380853 0
M  V30 3752 H 354.252 4.66758 1.87472 0
M  V30 3753 H 353.952 5.84785 0.574485 0
M  V30 3754 H 355.476 5.9178 1.50428 0
M  V30 3755 H 356.89 5.68307 -0.75499 0
M  V30 3756 H 355.287 5.80073 -1.53738 0
M  V30 3757 H 356.357 4.44504 -1.93764 0
M  V30 3758 N 357.7 0.491464 1.49741 0
M  V30 3759 C 358.977 -0.118984 1.95238 0
M  V30 3760 C 359.357 -1.55044 1.43264 0
M  V30 3761 O 358.705 -2.19287 0.642287 0
M  V30 3762 C 358.915 -0.0414187 3.48975 0
M  V30 3763 C 360.263 -0.220133 4.24029 0
M  V30 3764 O 361.287 -0.117055 3.56008 0
M  V30 3765 O 360.146 -0.430567 5.44801 0
M  V30 3766 H 357.24 -0.100536 0.820866 0
M  V30 3767 H 359.786 0.553322 1.60426 0
M  V30 3768 H 358.558 0.957214 3.79412 0
M  V30 3769 H 358.181 -0.754292 3.9038 0
M  V30 3770 N 359.178 -1.55987 0.224894 0
M  V30 3771 C 360.128 -2.17076 -0.697296 0
M  V30 3772 C 361.112 -1.12006 -1.15514 0
M  V30 3773 O 362.304 -1.37985 -1.10857 0
M  V30 3774 C 359.433 -2.85679 -1.90374 0
M  V30 3775 C 358.519 -3.97977 -1.46543 0
M  V30 3776 N 358.91 -5.00359 -0.739909 0
M  V30 3777 C 357.208 -4.10128 -1.75245 0
M  V30 3778 C 357.909 -5.79407 -0.515939 0
M  V30 3779 N 356.885 -5.32892 -1.07364 0
M  V30 3780 H 360.687 -2.93592 -0.134594 0
M  V30 3781 H 358.201 -1.62379 0.0262885 0
M  V30 3782 H 360.198 -3.27857 -2.57518 0
M  V30 3783 H 358.858 -2.1066 -2.47088 0
M  V30 3784 H 359.869 -5.16412 -0.392253 0
M  V30 3785 H 356.546 -3.46263 -2.33255 0
M  V30 3786 H 357.936 -6.71872 0.0617349 0
M  V30 3787 N 360.656 0.0484629 -1.57525 0
M  V30 3788 C 361.904 0.741657 -1.88 0
M  V30 3789 C 362.225 1.76918 -0.820054 0
M  V30 3790 O 361.495 1.95335 0.148661 0
M  V30 3791 H 360.075 0.276908 -0.69378 0
M  V30 3792 H 362.737 0.019013 -1.94891 0
M  V30 3793 H 361.833 1.24336 -2.86264 0
M  V30 3794 N 362.134 1.5431 0.320358 0
M  V30 3795 C 363.064 1.86912 1.3995 0
M  V30 3796 C 364.045 0.726211 1.53819 0
M  V30 3797 O 365.23 0.980233 1.67646 0
M  V30 3798 C 362.36 2.09932 2.7667 0
M  V30 3799 C 361.314 3.25776 2.77586 0
M  V30 3800 C 360.64 3.34173 4.17412 0
M  V30 3801 C 361.94 4.6335 2.41048 0
M  V30 3802 H 363.634 2.77292 1.12914 0
M  V30 3803 H 361.18 1.33421 0.541738 0
M  V30 3804 H 363.133 2.31324 3.52232 0
M  V30 3805 H 361.857 1.16304 3.0519 0
M  V30 3806 H 360.516 3.04276 2.04479 0
M  V30 3807 H 360.164 2.38098 4.43078 0
M  V30 3808 H 359.864 4.12033 4.18931 0
M  V30 3809 H 361.388 3.57803 4.94782 0
M  V30 3810 H 362.802 4.84602 3.06324 0
M  V30 3811 H 361.199 5.43782 2.53813 0
M  V30 3812 H 362.269 4.65381 1.36193 0
M  V30 3813 N 363.613 -0.582584 1.46437 0
M  V30 3814 C 364.56 -1.69164 1.5701 0
M  V30 3815 C 365.53 -1.60847 0.414403 0
M  V30 3816 O 366.715 -1.80058 0.631171 0
M  V30 3817 C 363.855 -3.075 1.56646 0
M  V30 3818 C 362.968 -3.2644 2.82951 0
M  V30 3819 C 362.103 -4.55026 2.7409 0
M  V30 3820 C 361.142 -4.6731 3.95333 0
M  V30 3821 N 360.279 -5.87221 3.84858 0
M  V30 3822 H 365.119 -1.59464 2.51744 0
M  V30 3823 H 362.656 -0.777186 1.24893 0
M  V30 3824 H 364.614 -3.8757 1.5442 0
M  V30 3825 H 363.244 -3.16096 0.654439 0
M  V30 3826 H 362.296 -2.39974 2.95155 0
M  V30 3827 H 363.608 -3.31385 3.72808 0
M  V30 3828 H 362.762 -5.43324 2.6997 0
M  V30 3829 H 361.501 -4.52519 1.81873 0
M  V30 3830 H 360.506 -3.77429 3.99784 0
M  V30 3831 H 361.731 -4.71595 4.88646 0
M  V30 3832 H 359.677 -5.85712 2.95427 0
M  V30 3833 H 359.594 -5.93435 4.6837 0
M  V30 3834 H 360.862 -6.7795 3.84713 0
M  V30 3835 N 365.091 -1.34144 -0.827227 0
M  V30 3836 C 366.021 -1.28005 -1.95287 0
M  V30 3837 C 367.002 -0.158321 -1.69362 0
M  V30 3838 O 368.187 -0.349987 -1.9102 0
M  V30 3839 C 365.317 -1.03036 -3.31664 0
M  V30 3840 C 364.271 -2.11628 -3.72019 0
M  V30 3841 C 363.597 -1.71854 -5.0633 0
M  V30 3842 C 364.897 -3.53417 -3.8457 0
M  V30 3843 H 366.591 -2.22187 -2.00682 0
M  V30 3844 H 364.137 -1.0696 -0.964135 0
M  V30 3845 H 366.09 -0.973863 -4.09993 0
M  V30 3846 H 364.814 -0.0529391 -3.26557 0
M  V30 3847 H 363.473 -2.16339 -2.95961 0
M  V30 3848 H 363.121 -0.727841 -4.97706 0
M  V30 3849 H 362.821 -2.44531 -5.34302 0
M  V30 3850 H 364.345 -1.67692 -5.87122 0
M  V30 3851 H 365.759 -3.51142 -4.5318 0
M  V30 3852 H 364.156 -4.24679 -4.2399 0
M  V30 3853 H 365.226 -3.91072 -2.86689 0
M  V30 3854 N 366.569 1.04691 -1.17803 0
M  V30 3855 C 367.499 2.14494 -0.92275 0
M  V30 3856 C 368.48 1.69546 0.137179 0
M  V30 3857 O 369.665 1.94195 -0.0141108 0
M  V30 3858 C 366.795 3.44491 -0.440803 0
M  V30 3859 C 365.749 4.03031 -1.4405 0
M  V30 3860 C 365.075 5.28432 -0.81631 0
M  V30 3861 C 366.375 4.39932 -2.81527 0
M  V30 3862 H 368.069 2.36107 -1.84103 0
M  V30 3863 H 365.615 1.1347 -0.886599 0
M  V30 3864 H 367.568 4.2066 -0.249602 0
M  V30 3865 H 366.292 3.22546 0.513025 0
M  V30 3866 H 364.951 3.28937 -1.61853 0
M  V30 3867 H 364.599 5.02792 0.144511 0
M  V30 3868 H 364.299 5.68559 -1.48371 0
M  V30 3869 H 365.823 6.07284 -0.635496 0
M  V30 3870 H 367.237 5.07113 -2.67412 0
M  V30 3871 H 365.634 4.9109 -3.44892 0
M  V30 3872 H 366.704 3.50045 -3.35554 0
M  V30 3873 N 368.047 0.979072 1.23499 0
M  V30 3874 C 369.293 0.6578 1.9247 0
M  V30 3875 C 369.648 -0.799746 1.74991 0
M  V30 3876 O 368.941 -1.56922 1.09937 0
M  V30 3877 C 369.135 0.981932 3.43646 0
M  V30 3878 C 368.964 2.46944 3.75831 0
M  V30 3879 C 367.734 3.13119 3.96591 0
M  V30 3880 C 369.932 3.45006 3.81412 0
M  V30 3881 N 367.914 4.51489 4.15969 0
M  V30 3882 C 369.285 4.68778 4.05768 0
M  V30 3883 C 371.34 3.39505 3.64198 0
M  V30 3884 C 370.043 5.87723 4.14697 0
M  V30 3885 C 372.069 4.57814 3.7438 0
M  V30 3886 C 371.431 5.80381 3.99171 0
M  V30 3887 H 367.53 0.291746 0.72554 0
M  V30 3888 H 370.114 1.25626 1.48749 0
M  V30 3889 H 368.285 0.412179 3.86207 0
M  V30 3890 H 370.017 0.618068 3.99953 0
M  V30 3891 H 366.772 2.63619 3.93449 0
M  V30 3892 H 367.196 5.23221 4.29615 0
M  V30 3893 H 371.838 2.45773 3.44029 0
M  V30 3894 H 369.556 6.81874 4.33675 0
M  V30 3895 H 373.142 4.55132 3.62417 0
M  V30 3896 H 372.022 6.70398 4.06861 0
M  V30 3897 N 369.525 -1.3858 0.750561 0
M  V30 3898 C 370.473 -2.32339 0.110162 0
M  V30 3899 C 371.467 -1.53864 -0.708674 0
M  V30 3900 O 372.673 -1.69417 -0.608112 0
M  V30 3901 H 369.048 -0.751812 0.0168275 0
M  V30 3902 H 371.019 -2.83959 0.917053 0
M  V30 3903 C 369.768 -3.39043 -0.771067 0
M  V30 3904 H 369.091 -3.99517 -0.150374 0
M  V30 3905 H 370.531 -4.07061 -1.1865 0
M  V30 3906 C 368.99 -2.77365 -1.91234 0
M  V30 3907 O 369.52 -2.66434 -3.00626 0
M  V30 3908 N 367.726 -2.35219 -1.70646 0
M  V30 3909 H 367.273 -2.4431 -0.81673 0
M  V30 3910 H 367.231 -1.94294 -2.47178 0
M  V30 3911 N 371.003 -0.499398 -1.49478 0
M  V30 3912 C 372.252 0.0475259 -2.01644 0
M  V30 3913 C 372.565 1.38195 -1.38425 0
M  V30 3914 O 373.771 2.01547 -1.8191 0
M  V30 3915 C 372.227 0.135164 -3.59646 0
M  V30 3916 C 371.835 -1.19252 -4.31837 0
M  V30 3917 C 373.579 0.632538 -4.19761 0
M  V30 3918 C 371.486 -1.06713 -5.81693 0
M  V30 3919 H 370.416 0.0215349 -0.753692 0
M  V30 3920 H 373.067 -0.638577 -1.7203 0
M  V30 3921 H 371.449 0.885681 -3.85969 0
M  V30 3922 H 372.623 -1.9562 -4.17216 0
M  V30 3923 H 370.938 -1.62321 -3.83459 0
M  V30 3924 H 373.535 0.743833 -5.29501 0
M  V30 3925 H 373.878 1.63098 -3.83021 0
M  V30 3926 H 374.411 -0.0613987 -3.97753 0
M  V30 3927 H 371.15 -2.03979 -6.22955 0
M  V30 3928 H 370.67 -0.344307 -5.98811 0
M  V30 3929 H 372.349 -0.745208 -6.42694 0
M  V30 3930 N 372.481 1.55866 -0.233164 0
M  V30 3931 C 373.758 1.90471 0.444988 0
M  V30 3932 C 374.138 1.15209 1.7689 0
M  V30 3933 O 373.486 0.265119 2.26957 0
M  V30 3934 C 373.696 3.4333 0.626559 0
M  V30 3935 C 375.044 4.14319 0.92871 0
M  V30 3936 O 376.068 3.48993 0.712926 0
M  V30 3937 O 374.927 5.29846 1.33887 0
M  V30 3938 H 372.021 0.792347 0.236885 0
M  V30 3939 H 374.567 1.67437 -0.276211 0
M  V30 3940 H 373.339 3.90095 -0.306822 0
M  V30 3941 H 372.962 3.72181 1.39881 0
M  V30 3942 N 373.959 -0.0401083 1.57549 0
M  V30 3943 C 375.236 -0.767917 1.79896 0
M  V30 3944 C 375.616 -1.9416 0.82856 0
M  V30 3945 O 374.964 -2.2812 -0.131671 0
M  V30 3946 C 375.174 -1.2113 3.27305 0
M  V30 3947 C 376.522 -1.63175 3.91994 0
M  V30 3948 O 377.546 -1.30616 3.31388 0
M  V30 3949 O 376.405 -2.23565 4.98679 0
M  V30 3950 H 373.499 -0.370441 0.739393 0
M  V30 3951 H 376.045 -0.017737 1.69691 0
M  V30 3952 H 374.817 -0.372937 3.89519 0
M  V30 3953 H 374.44 -2.02183 3.42356 0
M  V30 3954 N 375.437 -1.54477 -0.31217 0
M  V30 3955 C 376.4 -1.83923 -1.36766 0
M  V30 3956 C 377.4 -0.711563 -1.44199 0
M  V30 3957 O 378.59 -0.979866 -1.44029 0
M  V30 3958 C 375.722 -2.0095 -2.75376 0
M  V30 3959 H 376.915 -2.78239 -1.11906 0
M  V30 3960 H 374.468 -1.46369 -0.548257 0
M  V30 3961 H 375.203 -1.08883 -3.05475 0
M  V30 3962 H 374.988 -2.83018 -2.71373 0
M  V30 3963 H 376.478 -2.2514 -3.51713 0
M  V30 3964 N 376.915 0.57481 -1.46744 0
M  V30 3965 C 378.331 0.898981 -1.31873 0
M  V30 3966 C 378.531 1.99313 -0.29605 0
M  V30 3967 O 377.587 2.50728 0.298621 0
M  V30 3968 C 378.9 1.30886 -2.7072 0
M  V30 3969 C 380.448 1.42127 -2.78871 0
M  V30 3970 C 380.923 1.86478 -4.18318 0
M  V30 3971 N 382.414 1.93658 -4.20774 0
M  V30 3972 C 383.149 2.29267 -5.2557 0
M  V30 3973 N 382.645 2.63612 -6.40688 0
M  V30 3974 N 384.438 2.29889 -5.1294 0
M  V30 3975 H 376.589 -0.147839 -2.11885 0
M  V30 3976 H 378.852 -0.00347013 -0.947994 0
M  V30 3977 H 378.558 0.578853 -3.46904 0
M  V30 3978 H 378.432 2.26874 -3.01343 0
M  V30 3979 H 380.819 2.14213 -2.0297 0
M  V30 3980 H 380.9 0.443705 -2.51922 0
M  V30 3981 H 380.544 1.14968 -4.94717 0
M  V30 3982 H 380.474 2.85207 -4.42679 0
M  V30 3983 H 382.965 1.69574 -3.37718 0
M  V30 3984 H 383.278 2.89759 -7.16421 0
M  V30 3985 H 381.623 2.61232 -6.44036 0
M  V30 3986 H 384.814 2.02485 -4.22039 0
M  V30 3987 H 384.987 2.57312 -5.94722 0
M  V30 3988 N 378.394 1.34581 0.820102 0
M  V30 3989 C 379.324 1.29038 1.94606 0
M  V30 3990 C 380.305 0.1673 1.69275 0
M  V30 3991 O 381.49 0.360112 1.90832 0
M  V30 3992 C 378.62 1.04793 3.31113 0
M  V30 3993 C 377.574 2.13597 3.70891 0
M  V30 3994 C 376.9 1.74537 5.05412 0
M  V30 3995 C 378.2 3.55451 3.8269 0
M  V30 3996 H 379.894 2.23248 1.99501 0
M  V30 3997 H 377.44 1.0747 0.958449 0
M  V30 3998 H 379.393 0.995592 4.0947 0
M  V30 3999 H 378.117 0.0702565 3.26524 0
M  V30 4000 H 376.776 2.17905 2.9481 0
M  V30 4001 H 376.424 0.754226 4.97313 0
M  V30 4002 H 376.124 2.47361 5.32997 0
M  V30 4003 H 377.648 1.70803 5.86224 0
M  V30 4004 H 379.062 3.5354 4.51312 0
M  V30 4005 H 377.459 4.26922 4.21732 0
M  V30 4006 H 378.529 3.92587 2.84611 0
M  V30 4007 N 379.872 -1.04064 1.18357 0
M  V30 4008 C 380.822 -2.10393 0.878561 0
M  V30 4009 C 381.806 -1.60183 -0.151713 0
M  V30 4010 O 382.998 -1.76923 0.0523303 0
M  V30 4011 C 380.127 -3.4089 0.406096 0
M  V30 4012 C 379.213 -3.97866 1.46844 0
M  V30 4013 N 379.604 -4.28657 2.68489 0
M  V30 4014 C 377.902 -4.2574 1.32896 0
M  V30 4015 C 378.603 -4.74253 3.36836 0
M  V30 4016 N 377.579 -4.75068 2.64219 0
M  V30 4017 H 381.381 -2.32076 1.80327 0
M  V30 4018 H 378.895 -1.21818 1.07397 0
M  V30 4019 H 380.892 -4.16557 0.169088 0
M  V30 4020 H 379.552 -3.20633 -0.512275 0
M  V30 4021 H 380.563 -4.18304 3.05356 0
M  V30 4022 H 377.24 -4.1481 0.473134 0
M  V30 4023 H 378.63 -5.07096 4.40798 0
M  V30 4024 N 381.35 -0.985608 -1.22978 0
M  V30 4025 C 382.596 -0.65836 -1.91816 0
M  V30 4026 C 382.929 0.806692 -1.76653 0
M  V30 4027 O 382.204 1.58252 -1.13078 0
M  V30 4028 C 382.487 -1.056 -3.44268 0
M  V30 4029 C 382.34 -2.57906 -3.68516 0
M  V30 4030 C 383.659 -0.603781 -4.35939 0
M  V30 4031 H 380.778 -0.24065 -0.696604 0
M  V30 4032 H 383.42 -1.22783 -1.44998 0
M  V30 4033 H 381.57 -0.571445 -3.84274 0
M  V30 4034 H 383.242 -3.13976 -3.3796 0
M  V30 4035 H 381.485 -3.00305 -3.13048 0
M  V30 4036 H 382.156 -2.80779 -4.75255 0
M  V30 4037 H 384.632 -1.01987 -4.03408 0
M  V30 4038 H 383.508 -0.910383 -5.41298 0
M  V30 4039 H 383.769 0.495761 -4.39312 0
M  V30 4040 N 382.828 1.3818 -0.7579 0
M  V30 4041 C 384.075 2.00019 -0.315985 0
M  V30 4042 C 384.403 1.60163 1.10355 0
M  V30 4043 O 383.658 0.83264 1.77103 0
M  V30 4044 C 383.957 3.55252 -0.391218 0
M  V30 4045 C 383.623 4.14834 -1.76702 0
M  V30 4046 C 382.285 4.30821 -2.14353 0
M  V30 4047 C 384.637 4.47658 -2.66931 0
M  V30 4048 C 381.965 4.76928 -3.41696 0
M  V30 4049 C 384.317 4.95184 -3.93669 0
M  V30 4050 C 382.981 5.09377 -4.31383 0
M  V30 4051 H 382.251 0.731923 -0.115627 0
M  V30 4052 H 384.898 1.65161 -0.969223 0
M  V30 4053 H 383.203 3.90273 0.34558 0
M  V30 4054 H 384.9 4.00988 -0.030805 0
M  V30 4055 H 381.49 4.02808 -1.46435 0
M  V30 4056 H 385.674 4.34904 -2.39106 0
M  V30 4057 H 380.93 4.86103 -3.70829 0
M  V30 4058 H 385.104 5.19551 -4.63724 0
M  V30 4059 H 382.731 5.44865 -5.30119 0
M  V30 4060 N 384.306 0.507319 1.49211 0
M  V30 4061 C 385.531 -0.033725 2.07373 0
M  V30 4062 C 385.956 -1.29485 1.36437 0
M  V30 4063 O 385.314 -1.76294 0.423087 0
M  V30 4064 C 385.362 -0.263945 3.59633 0
M  V30 4065 O 384.466 -1.33737 3.90113 0
M  V30 4066 H 383.807 0.0290331 0.663365 0
M  V30 4067 H 386.337 0.708749 1.91932 0
M  V30 4068 H 386.347 -0.493536 4.05004 0
M  V30 4069 H 385.022 0.657424 4.10671 0
M  V30 4070 H 383.599 -1.09224 3.56545 0
M  V30 4071 N 385.784 -1.5574 0.241426 0
M  V30 4072 C 386.731 -2.21149 -0.660432 0
M  V30 4073 C 387.701 -1.17356 -1.17545 0
M  V30 4074 O 388.886 -1.45784 -1.23093 0
M  V30 4075 C 386.026 -2.91059 -1.85414 0
M  V30 4076 C 385.139 -4.09495 -1.37616 0
M  V30 4077 C 384.274 -4.67135 -2.529 0
M  V30 4078 C 383.313 -5.77831 -2.01936 0
M  V30 4079 N 382.45 -6.29677 -3.10566 0
M  V30 4080 H 387.29 -2.97845 -0.095955 0
M  V30 4081 H 384.827 -1.47057 -0.0356024 0
M  V30 4082 H 386.785 -3.29788 -2.5553 0
M  V30 4083 H 385.415 -2.16846 -2.39118 0
M  V30 4084 H 384.467 -3.76117 -0.569235 0
M  V30 4085 H 385.779 -4.89423 -0.962618 0
M  V30 4086 H 384.933 -5.08409 -3.31067 0
M  V30 4087 H 383.672 -3.86411 -2.97553 0
M  V30 4088 H 382.677 -5.36039 -1.22238 0
M  V30 4089 H 383.902 -6.60402 -1.58259 0
M  V30 4090 H 381.848 -5.5186 -3.54664 0
M  V30 4091 H 381.765 -7.04783 -2.73526 0
M  V30 4092 H 383.033 -6.75609 -3.88809 0
M  V30 4093 N 387.262 0.0317525 -1.57568 0
M  V30 4094 C 388.502 0.727979 -1.90997 0
M  V30 4095 C 388.866 1.72664 -0.839708 0
M  V30 4096 O 390.067 2.47092 -1.05825 0
M  V30 4097 C 388.338 1.38239 -3.29583 0
M  V30 4098 S 389.897 2.10814 -3.84841 0
M  V30 4099 H 386.715 0.241226 -0.668828 0
M  V30 4100 H 389.317 -0.0173037 -1.95492 0
M  V30 4101 H 388.021 0.642288 -4.05343 0
M  V30 4102 H 387.552 2.16628 -3.28384 0
M  V30 4103 H 389.567 3.3792 -3.63352 0
M  V30 4104 N 388.74 1.54641 0.303973 0
M  V30 4105 C 389.988 1.73437 1.0375 0
M  V30 4106 C 390.309 0.521449 1.87899 0
M  V30 4107 O 389.579 -0.46432 1.90318 0
M  V30 4108 H 388.159 0.639518 0.386039 0
M  V30 4109 H 390.821 1.91988 0.335675 0
M  V30 4110 H 389.917 2.62235 1.69231 0
M  V30 4111 N 390.218 -0.567019 1.47046 0
M  V30 4112 C 391.168 -1.67018 1.55207 0
M  V30 4113 C 392.152 -1.55543 0.411714 0
M  V30 4114 O 393.344 -1.64192 0.661064 0
M  V30 4115 C 390.473 -3.05801 1.56014 0
M  V30 4116 C 389.559 -3.22515 2.75399 0
M  V30 4117 N 389.95 -3.09329 4.00186 0
M  V30 4118 C 388.248 -3.53493 2.71954 0
M  V30 4119 C 388.949 -3.2847 4.80086 0
M  V30 4120 N 387.925 -3.54352 4.12233 0
M  V30 4121 H 391.727 -1.55377 2.4947 0
M  V30 4122 H 389.241 -0.771503 1.42904 0
M  V30 4123 H 391.238 -3.84996 1.59949 0
M  V30 4124 H 389.898 -3.18561 0.628396 0
M  V30 4125 H 390.909 -2.86863 4.31196 0
M  V30 4126 H 387.586 -3.7284 1.87873 0
M  V30 4127 H 388.976 -3.23326 5.88991 0
M  V30 4128 N 391.696 -1.35014 -0.812953 0
M  V30 4129 C 392.942 -1.29129 -1.57154 0
M  V30 4130 C 393.297 0.134922 -1.91926 0
M  V30 4131 O 392.59 1.08373 -1.58006 0
M  V30 4132 C 392.784 -2.12524 -2.87347 0
M  V30 4133 C 392.613 -3.6311 -2.65294 0
M  V30 4134 C 391.383 -4.32363 -2.61516 0
M  V30 4135 C 393.581 -4.56897 -2.36114 0
M  V30 4136 N 391.563 -5.68735 -2.31113 0
M  V30 4137 C 392.934 -5.81345 -2.15494 0
M  V30 4138 C 394.989 -4.45706 -2.21925 0
M  V30 4139 C 393.692 -6.95862 -1.82122 0
M  V30 4140 C 395.718 -5.60066 -1.89948 0
M  V30 4141 C 395.08 -6.83539 -1.7016 0
M  V30 4142 H 391.179 -0.527764 -0.577052 0
M  V30 4143 H 393.763 -1.6983 -0.952146 0
M  V30 4144 H 391.934 -1.74104 -3.47192 0
M  V30 4145 H 393.666 -1.98207 -3.5284 0
M  V30 4146 H 390.421 -3.84907 -2.75941 0
M  V30 4147 H 390.845 -6.40694 -2.18724 0
M  V30 4148 H 395.487 -3.50855 -2.35925 0
M  V30 4149 H 393.205 -7.90685 -1.6686 0
M  V30 4150 H 396.791 -5.53357 -1.79687 0
M  V30 4151 H 395.671 -7.70531 -1.45777 0
M  V30 4152 N 393.175 1.03435 -1.18907 0
M  V30 4153 C 394.138 2.09756 -0.923844 0
M  V30 4154 C 395.138 1.60528 0.093416 0
M  V30 4155 O 396.328 1.73631 -0.140727 0
M  V30 4156 C 393.46 3.38692 -0.387354 0
M  V30 4157 H 394.653 2.34719 -1.86674 0
M  V30 4158 H 392.206 1.19959 -1.00197 0
M  V30 4159 H 392.941 3.19396 0.561845 0
M  V30 4160 H 392.726 3.75742 -1.12074 0
M  V30 4161 H 394.216 4.17016 -0.220694 0
M  V30 4162 N 394.653 0.992116 1.22453 0
M  V30 4163 C 395.585 0.500024 2.23679 0
M  V30 4164 C 396.598 -0.404463 1.57696 0
M  V30 4165 O 397.787 -0.206722 1.77299 0
M  V30 4166 C 394.887 -0.294711 3.37616 0
M  V30 4167 C 394.06 0.605723 4.33186 0
M  V30 4168 C 393.119 -0.13717 5.26021 0
M  V30 4169 O 392.145 0.477164 5.67196 0
M  V30 4170 N 393.347 -1.4197 5.62872 0
M  V30 4171 H 396.112 1.37045 2.66531 0
M  V30 4172 H 393.673 0.866741 1.36745 0
M  V30 4173 H 395.665 -0.800329 3.96707 0
M  V30 4174 H 394.235 -1.06623 2.93854 0
M  V30 4175 H 393.455 1.29202 3.72425 0
M  V30 4176 H 394.743 1.21896 4.93983 0
M  V30 4177 H 394.141 -1.94015 5.31389 0
M  V30 4178 H 392.698 -1.87052 6.24383 0
M  V30 4179 N 396.131 -1.37776 0.765217 0
M  V30 4180 C 397.377 -2.00604 0.336066 0
M  V30 4181 C 397.732 -1.59657 -1.07366 0
M  V30 4182 O 397.025 -0.829565 -1.7271 0
M  V30 4183 C 397.219 -3.5504 0.410053 0
M  V30 4184 C 397.048 -4.10985 1.82542 0
M  V30 4185 C 395.818 -4.42229 2.44461 0
M  V30 4186 C 398.016 -4.32438 2.78392 0
M  V30 4187 N 395.998 -4.8385 3.77839 0
M  V30 4188 C 397.369 -4.76596 3.96556 0
M  V30 4189 C 399.424 -4.14559 2.75764 0
M  V30 4190 C 398.127 -5.04748 5.12466 0
M  V30 4191 C 400.153 -4.43843 3.90842 0
M  V30 4192 C 399.515 -4.88235 5.07746 0
M  V30 4193 H 395.614 -0.763325 0.169881 0
M  V30 4194 H 398.198 -1.67197 0.997656 0
M  V30 4195 H 396.369 -3.87769 -0.221325 0
M  V30 4196 H 398.101 -4.0468 -0.0405285 0
M  V30 4197 H 394.856 -4.31079 1.96131 0
M  V30 4198 H 395.28 -5.08979 4.46396 0
M  V30 4199 H 399.922 -3.79415 1.86558 0
M  V30 4200 H 397.64 -5.38783 6.02277 0
M  V30 4201 H 401.226 -4.31603 3.90141 0
M  V30 4202 H 400.106 -5.10461 5.95315 0
M  V30 4203 N 397.609 -0.515225 -1.4894 0
M  V30 4204 C 398.519 0.259774 -2.33157 0
M  V30 4205 C 399.535 0.953501 -1.45548 0
M  V30 4206 O 400.711 0.931735 -1.78552 0
M  V30 4207 C 397.776 1.30193 -3.21326 0
M  V30 4208 C 396.837 0.620129 -4.24797 0
M  V30 4209 C 396.07 1.61263 -5.08753 0
M  V30 4210 O 396.293 2.84389 -4.94448 0
M  V30 4211 O 395.227 1.16013 -5.90614 0
M  V30 4212 H 399.053 -0.429932 -3.00641 0
M  V30 4213 H 396.638 -0.276346 -1.46822 0
M  V30 4214 H 398.52 1.90455 -3.75905 0
M  V30 4215 H 397.195 1.97431 -2.56521 0
M  V30 4216 H 396.102 -0.0226019 -3.74093 0
M  V30 4217 H 397.435 -0.0100493 -4.92199 0
M  V30 4218 N 399.087 1.5561 -0.249682 0
M  V30 4219 C 400.037 2.18157 0.662673 0
M  V30 4220 C 401.021 1.1383 1.13717 0
M  V30 4221 O 402.213 1.39731 1.08648 0
M  V30 4222 C 399.342 2.88672 1.85805 0
M  V30 4223 C 398.428 4.00258 1.40193 0
M  V30 4224 N 398.819 5.01473 0.660213 0
M  V30 4225 C 397.117 4.12864 1.68698 0
M  V30 4226 C 397.818 5.80155 0.423695 0
M  V30 4227 N 396.794 5.34533 0.988721 0
M  V30 4228 H 400.596 2.93769 0.0878688 0
M  V30 4229 H 398.11 1.62316 -0.0521183 0
M  V30 4230 H 400.107 3.31912 2.5227 0
M  V30 4231 H 398.767 2.14564 2.43705 0
M  V30 4232 H 399.778 5.16971 0.310047 0
M  V30 4233 H 396.455 3.4993 2.27717 0
M  V30 4234 H 397.845 6.71688 -0.168616 0
M  V30 4235 N 400.565 -0.0233959 1.57583 0
M  V30 4236 C 401.528 -1.00693 2.05897 0
M  V30 4237 C 402.528 -1.28693 0.964092 0
M  V30 4238 O 403.718 -1.23602 1.22753 0
M  V30 4239 C 400.85 -2.33825 2.4807 0
M  V30 4240 H 402.043 -0.589476 2.9405 0
M  V30 4241 H 399.596 -0.270354 1.53944 0
M  V30 4242 H 400.331 -2.80307 1.6309 0
M  V30 4243 H 400.116 -2.1483 3.2801 0
M  V30 4244 H 401.606 -3.04426 2.85857 0
M  V30 4245 N 402.043 -1.548 -0.295768 0
M  V30 4246 C 403.32 -1.65014 -1.05023 0
M  V30 4247 C 403.7 -0.501805 -2.05049 0
M  V30 4248 O 403.048 0.500869 -2.22943 0
M  V30 4249 C 403.258 -3.03252 -1.72741 0
M  V30 4250 C 404.606 -3.60242 -2.24746 0
M  V30 4251 O 405.63 -3.05737 -1.82765 0
M  V30 4252 O 404.489 -4.55687 -3.01681 0
M  V30 4253 H 401.583 -0.669314 -0.485744 0
M  V30 4254 H 404.129 -1.67144 -0.293438 0
M  V30 4255 H 402.901 -3.7827 -1.00138 0
M  V30 4256 H 402.524 -3.04922 -2.55163 0
M  V30 4257 N 403.521 0.559213 -1.47345 0
M  V30 4258 C 404.431 1.69388 -1.62311 0
M  V30 4259 C 405.447 1.6648 -0.505993 0
M  V30 4260 O 406.623 1.85964 -0.773262 0
M  V30 4261 C 403.688 3.05894 -1.63185 0
M  V30 4262 C 402.749 3.19885 -2.86307 0
M  V30 4263 C 401.982 4.49879 -2.87131 0
M  V30 4264 O 402.205 5.35217 -1.97229 0
M  V30 4265 O 401.139 4.67618 -3.78968 0
M  V30 4266 H 404.965 1.59706 -2.58317 0
M  V30 4267 H 402.55 0.728989 -1.30407 0
M  V30 4268 H 404.432 3.87133 -1.66451 0
M  V30 4269 H 403.107 3.15964 -0.70345 0
M  V30 4270 H 402.014 2.38052 -2.88587 0
M  V30 4271 H 403.347 3.14718 -3.78435 0
M  V30 4272 N 404.999 1.35443 0.805782 0
M  V30 4273 C 406.246 1.28761 1.56291 0
M  V30 4274 C 406.574 -0.137747 1.94012 0
M  V30 4275 O 405.829 -1.1032 1.61642 0
M  V30 4276 C 406.128 2.14045 2.86216 0
M  V30 4277 C 405.794 3.62826 2.67709 0
M  V30 4278 C 404.456 4.0338 2.6237 0
M  V30 4279 C 406.808 4.57227 2.50186 0
M  V30 4280 C 404.136 5.36501 2.37451 0
M  V30 4281 C 406.488 5.90547 2.26797 0
M  V30 4282 C 405.152 6.30245 2.1988 0
M  V30 4283 H 404.422 0.471171 0.571908 0
M  V30 4284 H 407.069 1.67347 0.930974 0
M  V30 4285 H 405.374 1.68342 3.53791 0
M  V30 4286 H 407.071 2.0621 3.43917 0
M  V30 4287 H 403.661 3.30644 2.72713 0
M  V30 4288 H 407.845 4.2678 2.53323 0
M  V30 4289 H 403.101 5.66259 2.30567 0
M  V30 4290 H 407.275 6.63274 2.12228 0
M  V30 4291 H 404.902 7.33328 2.00333 0
M  V30 4292 N 406.477 -1.02803 1.19454 0
M  V30 4293 C 407.425 -2.13213 0.929673 0
M  V30 4294 C 408.419 -1.69011 -0.114806 0
M  V30 4295 O 409.625 -1.79967 0.0345147 0
M  V30 4296 H 406 -0.69662 0.28324 0
M  V30 4297 H 407.971 -2.32744 1.86743 0
M  V30 4298 C 406.72 -3.4429 0.485797 0
M  V30 4299 H 406.043 -3.7872 1.28105 0
M  V30 4300 H 407.483 -4.22638 0.339582 0
M  V30 4301 C 405.942 -3.27258 -0.800244 0
M  V30 4302 O 406.472 -3.55967 -1.86146 0
M  V30 4303 N 404.678 -2.80545 -0.75781 0
M  V30 4304 H 404.225 -2.57382 0.106039 0
M  V30 4305 H 404.183 -2.6953 -1.61867 0
M  V30 4306 N 407.956 -0.998596 -1.21925 0
M  V30 4307 C 409.372 -0.710303 -1.42923 0
M  V30 4308 C 409.572 0.716933 -1.88314 0
M  V30 4309 O 408.628 1.48712 -2.04062 0
M  V30 4310 C 409.941 -1.72072 -2.466 0
M  V30 4311 C 411.489 -1.73681 -2.60392 0
M  V30 4312 C 411.964 -2.73601 -3.67296 0
M  V30 4313 N 413.455 -2.7223 -3.7476 0
M  V30 4314 C 414.19 -3.46206 -4.57087 0
M  V30 4315 N 413.686 -4.29802 -5.43362 0
M  V30 4316 N 415.479 -3.34886 -4.51451 0
M  V30 4317 H 407.63 -1.92028 -0.9077 0
M  V30 4318 H 409.893 -0.828487 -0.460775 0
M  V30 4319 H 409.599 -2.74231 -2.20206 0
M  V30 4320 H 409.473 -1.51818 -3.45299 0
M  V30 4321 H 411.86 -0.722173 -2.86127 0
M  V30 4322 H 411.941 -1.98005 -1.61949 0
M  V30 4323 H 411.585 -3.75217 -3.42307 0
M  V30 4324 H 411.515 -2.46545 -4.65321 0
M  V30 4325 H 414.006 -2.11576 -3.1312 0
M  V30 4326 H 414.319 -4.83061 -6.03218 0
M  V30 4327 H 412.664 -4.33887 -5.42925 0
M  V30 4328 H 415.855 -2.69015 -3.83078 0
M  V30 4329 H 416.028 -3.92796 -5.15379 0
M  V30 4330 N 409.434 1.37368 -0.772513 0
M  V30 4331 C 410.364 2.32856 -0.173304 0
M  V30 4332 C 411.345 1.55818 0.682262 0
M  V30 4333 O 412.53 1.84052 0.619566 0
M  V30 4334 C 409.66 3.40048 0.706007 0
M  V30 4335 C 408.614 4.27973 -0.0483144 0
M  V30 4336 C 407.94 5.26184 0.950491 0
M  V30 4337 C 409.24 5.07665 -1.22776 0
M  V30 4338 H 410.934 2.83217 -0.971002 0
M  V30 4339 H 408.48 1.3617 -0.468377 0
M  V30 4340 H 410.433 4.05827 1.13501 0
M  V30 4341 H 409.157 2.88214 1.53623 0
M  V30 4342 H 407.816 3.63726 -0.458107 0
M  V30 4343 H 407.464 4.7063 1.77529 0
M  V30 4344 H 407.164 5.85872 0.450314 0
M  V30 4345 H 408.688 5.94838 1.37842 0
M  V30 4346 H 410.102 5.66578 -0.875366 0
M  V30 4347 H 408.499 5.76681 -1.66007 0
M  V30 4348 H 409.569 4.40294 -2.03149 0
M  V30 4349 N 410.912 0.523116 1.48665 0
M  V30 4350 C 412.158 -0.0134963 2.02796 0
M  V30 4351 C 412.491 -1.34582 1.40004 0
M  V30 4352 O 411.766 -1.86756 0.543381 0
M  V30 4353 C 412.049 -0.14276 3.59817 0
M  V30 4354 C 411.902 1.21425 4.331 0
M  V30 4355 C 413.221 -0.872856 4.31357 0
M  V30 4356 H 410.34 -0.00343074 0.736992 0
M  V30 4357 H 412.982 0.678816 1.7746 0
M  V30 4358 H 411.132 -0.732401 3.81534 0
M  V30 4359 H 412.804 1.84447 4.2282 0
M  V30 4360 H 411.047 1.79791 3.94788 0
M  V30 4361 H 411.718 1.07687 5.41394 0
M  V30 4362 H 414.194 -0.372555 4.14429 0
M  V30 4363 H 413.07 -0.932185 5.40927 0
M  V30 4364 H 413.331 -1.92161 3.98154 0
M  V30 4365 N 412.39 -1.55475 0.257931 0
M  V30 4366 C 413.639 -1.98383 -0.364275 0
M  V30 4367 C 413.952 -1.14952 -1.58258 0
M  V30 4368 O 415.158 -1.47924 -2.27664 0
M  V30 4369 C 413.614 -3.53037 -0.699479 0
M  V30 4370 C 413.222 -4.45223 0.498046 0
M  V30 4371 C 414.966 -4.04575 -1.28526 0
M  V30 4372 C 412.873 -5.91238 0.138383 0
M  V30 4373 H 411.803 -0.740911 -0.13988 0
M  V30 4374 H 414.454 -1.79936 0.359883 0
M  V30 4375 H 412.836 -3.6722 -1.48207 0
M  V30 4376 H 414.01 -4.42803 1.27522 0
M  V30 4377 H 412.325 -4.04226 0.999503 0
M  V30 4378 H 414.922 -5.11196 -1.56788 0
M  V30 4379 H 415.265 -3.5258 -2.21344 0
M  V30 4380 H 415.798 -3.93762 -0.565337 0
M  V30 4381 H 412.537 -6.47294 1.03398 0
M  V30 4382 H 412.057 -5.96768 -0.602374 0
M  V30 4383 H 413.736 -6.46413 -0.27553 0
M  V30 4384 N 413.868 0.0150385 -1.57593 0
M  V30 4385 C 415.145 0.7392 -1.81094 0
M  V30 4386 C 415.525 1.92817 -0.859344 0
M  V30 4387 O 414.873 2.28301 0.095362 0
M  V30 4388 C 415.083 1.15907 -3.29191 0
M  V30 4389 C 416.431 1.56918 -3.9454 0
M  V30 4390 O 417.455 1.25328 -3.33424 0
M  V30 4391 O 416.314 2.15604 -5.02173 0
M  V30 4392 H 413.408 0.358631 -0.745193 0
M  V30 4393 H 415.954 -0.00926156 -1.69697 0
M  V30 4394 H 414.726 0.310921 -3.90063 0
M  V30 4395 H 414.349 1.96711 -3.45529 0
M  V30 4396 N 415.346 1.54954 0.287554 0
M  V30 4397 C 416.593 1.74873 1.02106 0
M  V30 4398 C 416.921 0.541829 1.86801 0
M  V30 4399 O 416.176 -0.475992 1.89823 0
M  V30 4400 C 416.475 2.99833 1.94512 0
M  V30 4401 C 416.141 4.33029 1.25686 0
M  V30 4402 C 414.803 4.69233 1.06649 0
M  V30 4403 C 417.155 5.15542 0.765913 0
M  V30 4404 C 414.483 5.85518 0.372222 0
M  V30 4405 C 416.835 6.32542 0.0853101 0
M  V30 4406 C 415.499 6.67398 -0.1169 0
M  V30 4407 H 414.769 0.639906 0.373632 0
M  V30 4408 H 417.416 1.89219 0.294665 0
M  V30 4409 H 415.721 2.80325 2.73725 0
M  V30 4410 H 417.418 3.1244 2.51361 0
M  V30 4411 H 414.008 4.04564 1.41512 0
M  V30 4412 H 418.192 4.88059 0.90066 0
M  V30 4413 H 413.448 6.11057 0.204695 0
M  V30 4414 H 417.622 6.95741 -0.302936 0
M  V30 4415 H 415.249 7.57357 -0.656859 0
M  V30 4416 N 416.824 -0.551391 1.4764 0
M  V30 4417 C 417.754 -1.66757 1.63445 0
M  V30 4418 C 418.735 -1.63077 0.483742 0
M  V30 4419 O 419.92 -1.80607 0.71377 0
M  V30 4420 C 417.05 -3.05387 1.65396 0
M  V30 4421 C 416.004 -3.23918 2.79752 0
M  V30 4422 C 415.33 -4.63393 2.66779 0
M  V30 4423 C 416.63 -3.08735 4.21284 0
M  V30 4424 H 418.324 -1.53786 2.56886 0
M  V30 4425 H 415.87 -0.738415 1.23626 0
M  V30 4426 H 417.823 -3.83325 1.75043 0
M  V30 4427 H 416.547 -3.19332 0.685195 0
M  V30 4428 H 415.206 -2.48391 2.69625 0
M  V30 4429 H 414.854 -4.74144 1.67918 0
M  V30 4430 H 414.554 -4.7674 3.43501 0
M  V30 4431 H 416.078 -5.43458 2.78364 0
M  V30 4432 H 417.492 -3.76484 4.32357 0
M  V30 4433 H 415.889 -3.33588 4.98838 0
M  V30 4434 H 416.959 -2.0541 4.39243 0
M  V30 4435 N 418.302 -1.35869 -0.798587 0
M  V30 4436 C 419.718 -1.16082 -1.09532 0
M  V30 4437 C 419.918 0.0213124 -2.01489 0
M  V30 4438 O 418.974 0.689488 -2.42904 0
M  V30 4439 C 420.287 -2.46748 -1.7186 0
M  V30 4440 C 421.835 -2.53028 -1.84244 0
M  V30 4441 C 422.31 -3.83758 -2.49988 0
M  V30 4442 N 423.801 -3.85053 -2.57465 0
M  V30 4443 C 424.536 -4.8294 -3.09122 0
M  V30 4444 N 424.032 -5.91217 -3.61157 0
M  V30 4445 N 425.825 -4.70369 -3.0775 0
M  V30 4446 H 417.976 -2.11571 -0.187461 0
M  V30 4447 H 420.239 -0.936726 -0.145765 0
M  V30 4448 H 419.945 -3.33471 -1.11759 0
M  V30 4449 H 419.819 -2.61883 -2.71472 0
M  V30 4450 H 422.206 -1.66729 -2.43486 0
M  V30 4451 H 422.287 -2.418 -0.834643 0
M  V30 4452 H 421.931 -4.70459 -1.91393 0
M  V30 4453 H 421.861 -3.92278 -3.5132 0
M  V30 4454 H 424.352 -3.06822 -2.20609 0
M  V30 4455 H 424.665 -6.61892 -3.98896 0
M  V30 4456 H 423.01 -5.94899 -3.59333 0
M  V30 4457 H 426.201 -3.84914 -2.66381 0
M  V30 4458 H 426.374 -5.46816 -3.47701 0
M  V30 4459 N 419.78 1.02168 -1.19998 0
M  V30 4460 C 420.73 2.08969 -0.911921 0
M  V30 4461 C 421.714 1.60404 0.12621 0
M  V30 4462 O 422.906 1.76817 -0.0804706 0
M  V30 4463 C 420.035 3.402 -0.460277 0
M  V30 4464 C 419.121 3.9548 -1.53155 0
M  V30 4465 N 419.512 4.24332 -2.75275 0
M  V30 4466 C 417.81 4.23572 -1.39653 0
M  V30 4467 C 418.511 4.68834 -3.44339 0
M  V30 4468 N 417.487 4.70804 -2.71744 0
M  V30 4469 H 421.289 2.29178 -1.83997 0
M  V30 4470 H 418.803 1.20094 -1.09322 0
M  V30 4471 H 420.8 4.16235 -0.235337 0
M  V30 4472 H 419.46 3.21408 0.4612 0
M  V30 4473 H 420.471 4.13393 -3.11973 0
M  V30 4474 H 417.148 4.14005 -0.539067 0
M  V30 4475 H 418.538 5.00019 -4.4881 0
M  V30 4476 N 421.258 1.00505 1.21394 0
M  V30 4477 C 422.221 0.570459 2.21987 0
M  V30 4478 C 423.221 -0.353211 1.56873 0
M  V30 4479 O 424.411 -0.14349 1.73608 0
M  V30 4480 C 421.543 -0.168555 3.40483 0
M  V30 4481 H 422.736 1.46021 2.6195 0
M  V30 4482 H 420.289 0.793565 1.34656 0
M  V30 4483 H 421.024 -1.07374 3.06009 0
M  V30 4484 H 420.809 0.494823 3.88965 0
M  V30 4485 H 422.299 -0.460362 4.15055 0
M  V30 4486 O 422.775 -1.32987 0.916334 0
M  V30 4487 H 423.466 -1.86192 0.534057 0
M  V30 END ATOM
M  V30 BEGIN BOND
M  V30 END BOND
M  V30 END CTAB
M  END
$$$$
