drugbank_target|Q55793 Probable cysteine desulfurase (DB02346)
 OpenBabel12092119553D

  0  0  0     0  0            999 V3000
M  V30 BEGIN CTAB
M  V30 COUNTS 6461 6539 0 0 0
M  V30 BEGIN ATOM
M  V30 1 H -0.908 1.98254 -0.117106 0
M  V30 2 N 0 1.576 0 0
M  V30 3 C 0.933 2.03868 1.02534 0
M  V30 4 C 1.911 0.928543 1.3348 0
M  V30 5 O 3.095 1.19667 1.45644 0
M  V30 6 C 0.222 2.43627 2.35294 0
M  V30 7 C -0.732 3.65373 2.2001 0
M  V30 8 S 0.101 5.13292 1.52614 0
M  V30 9 C 1.257 5.56322 2.86805 0
M  V30 10 H 1.49 2.90518 0.631377 0
M  V30 11 H -0.977 1.52953 0.210867 0
M  V30 12 H 0.981 2.67203 3.11629 0
M  V30 13 H -0.358 1.57376 2.7183 0
M  V30 14 H -1.165 3.90944 3.18086 0
M  V30 15 H -1.563 3.418 1.51819 0
M  V30 16 H 0.729 5.58782 3.83104 0
M  V30 17 H 1.672 6.56266 2.65933 0
M  V30 18 H 2.08 4.83886 2.90714 0
M  V30 19 N 1.4781 -0.272755 1.55222 0
M  V30 20 C 2.7241 -1.00581 1.761 0
M  V30 21 C 3.0571 -1.85932 0.560625 0
M  V30 22 O 2.3321 -1.89416 -0.441801 0
M  V30 23 C 2.6151 -1.88816 3.06628 0
M  V30 24 C 2.4681 -1.06457 4.37021 0
M  V30 25 C 3.7871 -2.8752 3.33197 0
M  V30 26 H 0.9061 -0.364244 0.640699 0
M  V30 27 H 3.5481 -0.278189 1.87952 0
M  V30 28 H 1.6981 -2.50856 2.96654 0
M  V30 29 H 3.3701 -0.464863 4.58952 0
M  V30 30 H 1.6131 -0.368043 4.32236 0
M  V30 31 H 2.2841 -1.71514 5.24678 0
M  V30 32 H 4.7601 -2.35615 3.42965 0
M  V30 33 H 3.6361 -3.46399 4.25792 0
M  V30 34 H 3.8971 -3.62657 2.52849 0
M  V30 35 N 2.9562 -1.48159 -0.537278 0
M  V30 36 C 3.9192 -1.61665 -1.62472 0
M  V30 37 C 4.9192 -0.490395 -1.5314 0
M  V30 38 O 6.1092 -0.755998 -1.5694 0
M  V30 39 C 3.2412 -1.57997 -3.02076 0
M  V30 40 H 4.4342 -2.58621 -1.51839 0
M  V30 41 H 1.9872 -1.36647 -0.758771 0
M  V30 42 H 2.7222 -0.624913 -3.18222 0
M  V30 43 H 2.5072 -2.39755 -3.10258 0
M  V30 44 H 3.9972 -1.70627 -3.81151 0
M  V30 45 N 4.4343 0.785586 -1.36625 0
M  V30 46 C 5.3643 1.91259 -1.33949 0
M  V30 47 C 6.3453 1.68795 -0.210325 0
M  V30 48 O 7.5303 1.89854 -0.408561 0
M  V30 49 C 4.6603 3.28339 -1.13186 0
M  V30 50 C 3.6143 3.65335 -2.22967 0
M  V30 51 C 2.9403 5.00806 -1.87342 0
M  V30 52 C 4.2403 3.7352 -3.65075 0
M  V30 53 H 5.9343 1.93755 -2.28253 0
M  V30 54 H 3.4803 0.930788 -1.09874 0
M  V30 55 H 5.4333 4.06804 -1.09948 0
M  V30 56 H 4.1573 3.2624 -0.153332 0
M  V30 57 H 2.8163 2.89169 -2.25337 0
M  V30 58 H 2.4643 4.95233 -0.880545 0
M  V30 59 H 2.1643 5.26529 -2.60846 0
M  V30 60 H 3.6883 5.81687 -1.85667 0
M  V30 61 H 5.1023 4.42168 -3.64911 0
M  V30 62 H 3.4993 4.10731 -4.37516 0
M  V30 63 H 4.5693 2.74527 -3.99703 0
M  V30 64 N 5.9124 1.20967 1.01018 0
M  V30 65 C 6.8444 0.922059 2.09835 0
M  V30 66 C 7.8574 -0.0927106 1.62536 0
M  V30 67 O 9.0464 0.139127 1.77957 0
M  V30 68 C 6.1464 0.362004 3.36961 0
M  V30 69 C 5.3194 1.42986 4.13369 0
M  V30 70 C 4.3784 0.879976 5.1879 0
M  V30 71 O 3.4044 1.56219 5.47343 0
M  V30 72 N 4.6064 -0.307396 5.79686 0
M  V30 73 H 7.3714 1.8588 2.35093 0
M  V30 74 H 4.9324 1.11422 1.1746 0
M  V30 75 H 6.9244 -0.0201474 4.04695 0
M  V30 76 H 5.4944 -0.479437 3.08902 0
M  V30 77 H 4.7144 1.98608 3.40512 0
M  V30 78 H 6.0024 2.14885 4.61196 0
M  V30 79 H 5.4004 -0.878796 5.58832 0
M  V30 80 H 3.9574 -0.631115 6.48737 0
M  V30 81 N 7.3905 -1.2043 1.01659 0
M  V30 82 C 8.6395 -1.89118 0.701237 0
M  V30 83 C 8.9525 -1.79705 -0.772358 0
M  V30 84 O 10.1585 -2.43528 -1.20026 0
M  V30 85 C 8.6145 -3.39168 1.20388 0
M  V30 86 C 8.2225 -3.57166 2.70438 0
M  V30 87 C 9.9665 -4.1341 0.963953 0
M  V30 88 C 7.8735 -5.01042 3.14183 0
M  V30 89 H 6.8035 -0.708267 0.2586 0
M  V30 90 H 9.4545 -1.36239 1.22927 0
M  V30 91 H 7.8365 -3.91369 0.603824 0
M  V30 92 H 9.0105 -3.15351 3.35992 0
M  V30 93 H 7.3255 -2.96294 2.92572 0
M  V30 94 H 9.9225 -5.19491 1.26621 0
M  V30 95 H 10.2655 -4.16181 -0.099578 0
M  V30 96 H 10.7985 -3.67309 1.52738 0
M  V30 97 H 7.5375 -5.03426 4.19812 0
M  V30 98 H 7.0575 -5.43668 2.53348 0
M  V30 99 H 8.7365 -5.69623 3.0682 0
M  V30 100 N 8.8686 -0.792821 -1.36206 0
M  V30 101 C 10.2796 -0.429513 -1.81692 0
M  V30 102 C 10.6306 1.04695 -1.65932 0
M  V30 103 O 9.7556 1.81256 -1.18218 0
M  V30 104 C 10.3506 -0.772831 -3.29868 0
M  V30 105 C 8.9096 -0.462307 -3.7355 0
M  V30 106 C 8.0566 -1.00569 -2.5842 0
M  V30 107 H 11.0076 -0.985672 -1.24379 0
M  V30 108 H 11.0286 -0.0651928 -3.80444 0
M  V30 109 H 10.5406 -1.84747 -3.41307 0
M  V30 110 H 8.6416 0.604158 -3.67669 0
M  V30 111 H 8.7546 -0.985299 -4.68859 0
M  V30 112 H 7.1186 -0.428734 -2.51066 0
M  V30 113 H 7.9016 -2.08616 -2.72643 0
M  V30 114 N 10.3467 1.47872 -0.545128 0
M  V30 115 C 11.5717 2.07391 -0.0190611 0
M  V30 116 C 11.9967 1.39688 1.25971 0
M  V30 117 O 11.3547 0.467816 1.7516 0
M  V30 118 C 11.4027 3.60188 0.172335 0
M  V30 119 O 10.5067 3.9339 1.23766 0
M  V30 120 H 9.8477 0.662411 -0.0459059 0
M  V30 121 H 12.3777 1.90066 -0.757365 0
M  V30 122 H 12.3877 4.06129 0.390305 0
M  V30 123 H 11.0627 4.08865 -0.761725 0
M  V30 124 H 9.6397 3.5921 1.00114 0
M  V30 125 N 11.8248 0.280983 1.55075 0
M  V30 126 C 12.7548 -0.597469 2.25727 0
M  V30 127 C 13.7358 -1.15417 1.24952 0
M  V30 128 O 14.9208 -1.18722 1.53684 0
M  V30 129 C 12.0508 -1.7789 2.98283 0
M  V30 130 C 11.0048 -1.35347 4.06036 0
M  V30 131 C 10.3308 -2.61846 4.66198 0
M  V30 132 C 11.6308 -0.499354 5.19907 0
M  V30 133 H 13.3248 -0.00824265 2.99399 0
M  V30 134 H 10.8708 -0.0025244 1.44 0
M  V30 135 H 12.8238 -2.39937 3.46422 0
M  V30 136 H 11.5478 -2.39405 2.22155 0
M  V30 137 H 10.2068 -0.756156 3.58717 0
M  V30 138 H 9.8548 -3.21632 3.86732 0
M  V30 139 H 9.5548 -2.3409 5.38958 0
M  V30 140 H 11.0788 -3.24732 5.1709 0
M  V30 141 H 12.4928 -1.02498 5.64063 0
M  V30 142 H 10.8898 -0.316424 5.99265 0
M  V30 143 H 11.9598 0.480459 4.82514 0
M  V30 144 N 13.3029 -1.57598 0.00835791 0
M  V30 145 C 14.2659 -2.07884 -0.965242 0
M  V30 146 C 15.2659 -0.989825 -1.26725 0
M  V30 147 O 16.4559 -1.25218 -1.21104 0
M  V30 148 C 13.5879 -2.52731 -2.28779 0
M  V30 149 H 14.7809 -2.95178 -0.530112 0
M  V30 150 H 12.3339 -1.54458 -0.239283 0
M  V30 151 H 13.0689 -1.68705 -2.76964 0
M  V30 152 H 12.8539 -3.32272 -2.08177 0
M  V30 153 H 14.3439 -2.91933 -2.98605 0
M  V30 154 N 14.781 0.264519 -1.55364 0
M  V30 155 C 15.744 1.31046 -1.88042 0
M  V30 156 C 16.744 1.41943 -0.755569 0
M  V30 157 O 17.934 1.40947 -1.02369 0
M  V30 158 C 15.066 2.69067 -2.09323 0
M  V30 159 H 16.259 1.03297 -2.81549 0
M  V30 160 H 13.812 0.502989 -1.47986 0
M  V30 161 H 14.547 3.01982 -1.18226 0
M  V30 162 H 14.332 2.62542 -2.91229 0
M  V30 163 H 15.822 3.44623 -2.35848 0
M  V30 164 N 16.2591 1.48442 0.529413 0
M  V30 165 C 17.4871 1.60151 1.30994 0
M  V30 166 C 17.9021 0.261985 1.86973 0
M  V30 167 O 17.2591 -0.748805 1.66431 0
M  V30 168 C 17.3101 2.64854 2.46038 0
M  V30 169 O 17.0311 3.93608 1.92365 0
M  V30 170 C 18.5321 2.87007 3.37849 0
M  V30 171 H 15.7521 0.539971 0.398338 0
M  V30 172 H 18.2961 1.94273 0.638597 0
M  V30 173 H 16.4511 2.33589 3.09055 0
M  V30 174 H 16.8651 4.51055 2.67675 0
M  V30 175 H 18.3391 3.64068 4.14919 0
M  V30 176 H 18.8161 1.95852 3.93114 0
M  V30 177 H 19.4221 3.19579 2.80623 0
M  V30 178 N 17.7372 -0.778329 1.37039 0
M  V30 179 C 18.9832 -1.53892 1.32079 0
M  V30 180 C 19.3162 -1.9396 -0.0965386 0
M  V30 181 O 18.5912 -1.63568 -1.05242 0
M  V30 182 C 18.8742 -2.80847 2.25382 0
M  V30 183 C 18.7272 -2.47076 3.75864 0
M  V30 184 C 20.0462 -3.82741 2.1725 0
M  V30 185 H 17.1652 -0.558303 0.48111 0
M  V30 186 H 19.8072 -0.893397 1.67685 0
M  V30 187 H 17.9572 -3.35931 1.95148 0
M  V30 188 H 19.6292 -1.97957 4.16666 0
M  V30 189 H 17.8722 -1.79863 3.94755 0
M  V30 190 H 18.5432 -3.37798 4.36574 0
M  V30 191 H 21.0192 -3.37133 2.43887 0
M  V30 192 H 19.8952 -4.69303 2.84686 0
M  V30 193 H 20.1562 -4.2652 1.16331 0
M  V30 194 N 19.2153 -1.21501 -1.00376 0
M  V30 195 C 20.6313 -0.972629 -1.26539 0
M  V30 196 C 20.8313 0.340257 -1.98606 0
M  V30 197 O 19.8873 1.06561 -2.28913 0
M  V30 198 C 21.2003 -2.16404 -2.08781 0
M  V30 199 C 22.7483 -2.20643 -2.22004 0
M  V30 200 C 23.2233 -3.39306 -3.07629 0
M  V30 201 N 24.7143 -3.39401 -3.15217 0
M  V30 202 C 25.4493 -4.27867 -3.81729 0
M  V30 203 N 24.9453 -5.26533 -4.5026 0
M  V30 204 N 26.7383 -4.15672 -3.78382 0
M  V30 205 H 18.8893 -2.05929 -0.520281 0
M  V30 206 H 21.1523 -0.901803 -0.292328 0
M  V30 207 H 20.8583 -3.11554 -1.63178 0
M  V30 208 H 20.7323 -2.15567 -3.09533 0
M  V30 209 H 23.1193 -1.26048 -2.66825 0
M  V30 210 H 23.2003 -2.25523 -1.20718 0
M  V30 211 H 22.8443 -4.34195 -2.63509 0
M  V30 212 H 22.7743 -3.31665 -4.09031 0
M  V30 213 H 25.2653 -2.67997 -2.66432 0
M  V30 214 H 25.5783 -5.90337 -4.98721 0
M  V30 215 H 23.9233 -5.30457 -4.49044 0
M  V30 216 H 27.1143 -3.3785 -3.23998 0
M  V30 217 H 27.2873 -4.84825 -4.2994 0
M  V30 218 N 20.6934 1.19889 -1.02296 0
M  V30 219 C 21.6254 2.22334 -0.556787 0
M  V30 220 C 22.6384 1.58674 0.364199 0
M  V30 221 O 23.8274 1.77768 0.161533 0
M  V30 222 C 20.9274 3.38257 0.208694 0
M  V30 223 C 20.1004 4.31504 -0.71577 0
M  V30 224 C 19.1594 5.262 0.00325597 0
M  V30 225 O 18.1854 5.65798 -0.621357 0
M  V30 226 N 19.3874 5.66303 1.27599 0
M  V30 227 H 22.1524 2.62957 -1.43784 0
M  V30 228 H 19.7134 1.34495 -0.901261 0
M  V30 229 H 21.7054 3.98616 0.699111 0
M  V30 230 H 20.2754 2.96472 0.991102 0
M  V30 231 H 19.4954 3.69016 -1.38638 0
M  V30 232 H 20.7834 4.9072 -1.34428 0
M  V30 233 H 20.1814 5.36155 1.80429 0
M  V30 234 H 18.7384 6.28942 1.71102 0
M  V30 235 N 22.1715 0.800033 1.35784 0
M  V30 236 C 23.4485 0.30088 1.93272 0
M  V30 237 C 23.8285 -1.20857 1.73081 0
M  V30 238 O 23.1765 -2.00502 1.09596 0
M  V30 239 C 23.3865 0.70511 3.41803 0
M  V30 240 C 24.7345 0.690871 4.18942 0
M  V30 241 O 25.7585 0.646244 3.50289 0
M  V30 242 O 24.6175 0.74332 5.41421 0
M  V30 243 H 21.7115 0.0771605 0.823393 0
M  V30 244 H 24.2575 0.88329 1.449 0
M  V30 245 H 23.0295 1.74571 3.50201 0
M  V30 246 H 22.6525 0.0971541 3.97481 0
M  V30 247 N 23.6496 -1.47581 0.552962 0
M  V30 248 C 24.8966 -2.02482 0.0273243 0
M  V30 249 C 25.2246 -1.42776 -1.32081 0
M  V30 250 O 24.4796 -0.571393 -1.87173 0
M  V30 251 C 24.7786 -3.57199 -0.119728 0
M  V30 252 C 24.4446 -4.35804 1.15697 0
M  V30 253 C 23.1066 -4.57 1.50681 0
M  V30 254 C 25.4586 -4.81167 2.00319 0
M  V30 255 C 22.7866 -5.20807 2.70142 0
M  V30 256 C 25.1386 -5.46293 3.18978 0
M  V30 257 C 23.8026 -5.65722 3.54281 0
M  V30 258 H 23.0726 -0.740933 0.00999866 0
M  V30 259 H 25.7196 -1.77302 0.72362 0
M  V30 260 H 24.0246 -3.81348 -0.89896 0
M  V30 261 H 25.7216 -3.97324 -0.541718 0
M  V30 262 H 22.3116 -4.19582 0.874561 0
M  V30 263 H 26.4956 -4.64574 1.74599 0
M  V30 264 H 21.7516 -5.34045 2.97668 0
M  V30 265 H 25.9256 -5.80407 3.84838 0
M  V30 266 H 23.5526 -6.14936 4.46942 0
M  V30 267 N 25.1277 -0.289203 -1.54924 0
M  V30 268 C 26.5387 0.205791 -1.85562 0
M  V30 269 C 26.8897 1.54351 -1.2112 0
M  V30 270 O 26.0147 2.10435 -0.504601 0
M  V30 271 C 26.6097 0.380177 -3.3666 0
M  V30 272 C 25.1687 0.819395 -3.67373 0
M  V30 273 C 24.3157 -0.079159 -2.77187 0
M  V30 274 H 27.2667 -0.510577 -1.50262 0
M  V30 275 H 27.2877 1.21659 -3.60526 0
M  V30 276 H 26.7997 -0.593589 -3.83534 0
M  V30 277 H 24.9007 1.80413 -3.26009 0
M  V30 278 H 25.0137 0.646957 -4.74712 0
M  V30 279 H 23.3777 0.439565 -2.50878 0
M  V30 280 H 24.1607 -1.04906 -3.26878 0
M  V30 281 N 26.6058 1.57591 -0.0167156 0
M  V30 282 C 27.8548 1.90461 0.663877 0
M  V30 283 C 28.1678 0.893515 1.73999 0
M  V30 284 O 29.3738 1.11302 2.47637 0
M  V30 285 C 27.8298 3.38155 1.23204 0
M  V30 286 C 27.4378 4.47597 0.189866 0
M  V30 287 C 29.1818 3.80111 1.88986 0
M  V30 288 C 27.0888 5.86379 0.768964 0
M  V30 289 H 26.0188 0.710738 0.251729 0
M  V30 290 H 28.6698 1.83326 -0.0799926 0
M  V30 291 H 27.0518 3.40182 2.02712 0
M  V30 292 H 28.2258 4.57112 -0.581846 0
M  V30 293 H 26.5408 4.14766 -0.368475 0
M  V30 294 H 29.1378 4.81145 2.33247 0
M  V30 295 H 29.4808 3.14511 2.72743 0
M  V30 296 H 30.0138 3.80454 1.16187 0
M  V30 297 H 26.7528 6.55493 -0.0301957 0
M  V30 298 H 26.2728 5.80496 1.50945 0
M  V30 299 H 27.9518 6.34563 1.26251 0
M  V30 300 N 28.0839 -0.256276 1.55502 0
M  V30 301 C 29.0139 -1.32102 1.92539 0
M  V30 302 C 29.9949 -1.50684 0.789194 0
M  V30 303 O 31.1799 -1.63449 1.04872 0
M  V30 304 C 28.3099 -2.67752 2.21192 0
M  V30 305 C 27.2639 -2.63878 3.36975 0
M  V30 306 C 26.5899 -4.03236 3.51147 0
M  V30 307 C 27.8899 -2.21682 4.72921 0
M  V30 308 H 29.5839 -1.01351 2.81724 0
M  V30 309 H 27.1299 -0.486105 1.35547 0
M  V30 310 H 29.0829 -3.42365 2.45691 0
M  V30 311 H 27.8069 -3.0012 1.28824 0
M  V30 312 H 26.4659 -1.91722 3.12471 0
M  V30 313 H 26.1139 -4.32854 2.56216 0
M  V30 314 H 25.8139 -4.01535 4.29003 0
M  V30 315 H 27.3379 -4.79563 3.77957 0
M  V30 316 H 28.7519 -2.86023 4.96854 0
M  V30 317 H 27.1489 -2.3111 5.53812 0
M  V30 318 H 28.2189 -1.16833 4.70615 0
M  V30 319 N 29.562 -1.4872 -0.521534 0
M  V30 320 C 30.51 -1.64328 -1.64618 0
M  V30 321 C 31.504 -0.50953 -1.61555 0
M  V30 322 O 32.71 -0.688525 -1.66311 0
M  V30 323 H 29.085 -0.517805 -0.545328 0
M  V30 324 H 31.056 -2.58767 -1.48601 0
M  V30 325 C 29.805 -1.70805 -3.02855 0
M  V30 326 H 29.128 -2.5741 -3.05909 0
M  V30 327 H 30.568 -1.85766 -3.81139 0
M  V30 328 C 29.027 -0.448479 -3.33902 0
M  V30 329 O 29.557 0.434928 -3.99339 0
M  V30 330 N 27.763 -0.317616 -2.88859 0
M  V30 331 H 27.31 -1.03748 -2.35784 0
M  V30 332 H 27.268 0.524113 -3.10001 0
M  V30 333 N 31.0401 0.771051 -1.3745 0
M  V30 334 C 31.9721 1.89352 -1.29146 0
M  V30 335 C 32.9851 1.61477 -0.207124 0
M  V30 336 O 34.1741 1.72382 -0.463324 0
M  V30 337 C 31.2741 3.24596 -0.974195 0
M  V30 338 C 30.4471 3.80111 -2.16413 0
M  V30 339 C 29.5061 4.93832 -1.81703 0
M  V30 340 O 28.5321 5.09382 -2.54006 0
M  V30 341 N 29.7341 5.75483 -0.761573 0
M  V30 342 H 32.4991 1.96991 -2.25864 0
M  V30 343 H 30.0601 0.950191 -1.31084 0
M  V30 344 H 32.0521 3.98193 -0.722828 0
M  V30 345 H 30.6221 3.12454 -0.0955527 0
M  V30 346 H 29.8421 2.98284 -2.57721 0
M  V30 347 H 31.1301 4.13932 -2.95867 0
M  V30 348 H 30.5281 5.65469 -0.161609 0
M  V30 349 H 29.0851 6.49302 -0.570064 0
M  V30 350 N 32.5182 1.22032 0.997298 0
M  V30 351 C 33.4282 1.00271 2.12092 0
M  V30 352 C 34.4442 -0.047621 1.73935 0
M  V30 353 O 35.6202 0.144136 2.00884 0
M  V30 354 C 32.6852 0.578449 3.4184 0
M  V30 355 C 31.7462 1.70189 3.94125 0
M  V30 356 C 30.9792 1.29778 5.17681 0
M  V30 357 O 31.2022 0.174676 5.70132 0
M  V30 358 O 30.1362 2.11261 5.63607 0
M  V30 359 H 33.9622 1.94398 2.3333 0
M  V30 360 H 31.5472 1.00587 1.10465 0
M  V30 361 H 33.4292 0.351998 4.19927 0
M  V30 362 H 32.1042 -0.334019 3.21972 0
M  V30 363 H 31.0112 1.98282 3.1723 0
M  V30 364 H 32.3442 2.59206 4.18417 0
M  V30 365 N 33.9963 -1.19345 1.0293 0
M  V30 366 C 35.2453 -1.88363 0.721256 0
M  V30 367 C 35.5583 -1.80514 -0.753254 0
M  V30 368 O 36.7643 -2.44788 -1.17436 0
M  V30 369 C 35.2203 -3.37872 1.23978 0
M  V30 370 C 34.8283 -3.54278 2.74211 0
M  V30 371 C 36.5723 -4.12365 1.00775 0
M  V30 372 C 34.4793 -4.97682 3.19479 0
M  V30 373 H 33.4093 -0.705484 0.266098 0
M  V30 374 H 36.0603 -1.34928 1.24365 0
M  V30 375 H 34.4423 -3.90707 0.6453 0
M  V30 376 H 35.6163 -3.11769 3.39318 0
M  V30 377 H 33.9313 -2.93174 2.95699 0
M  V30 378 H 36.5283 -5.18119 1.32123 0
M  V30 379 H 36.8713 -4.16263 -0.0554308 0
M  V30 380 H 37.4043 -3.65668 1.56625 0
M  V30 381 H 34.1433 -4.98945 4.25128 0
M  V30 382 H 33.6633 -5.4095 2.591 0
M  V30 383 H 35.3423 -5.66337 3.12845 0
M  V30 384 N 35.4744 -0.807222 -1.35358 0
M  V30 385 C 36.4224 -0.20614 -2.31685 0
M  V30 386 C 37.4164 0.644445 -1.56663 0
M  V30 387 O 38.6224 0.537538 -1.71786 0
M  V30 388 H 34.9974 -0.0479006 -0.750473 0
M  V30 389 H 36.9684 -1.03369 -2.79924 0
M  V30 390 C 35.7174 0.630212 -3.41941 0
M  V30 391 H 35.0404 -0.0149558 -3.99797 0
M  V30 392 H 36.4804 1.01716 -4.11619 0
M  V30 393 C 34.9394 1.79601 -2.85035 0
M  V30 394 O 35.4694 2.89351 -2.78637 0
M  V30 395 N 33.6754 1.60774 -2.42074 0
M  V30 396 H 33.2224 0.715009 -2.47478 0
M  V30 397 H 33.1804 2.38933 -2.04349 0
M  V30 398 N 36.9525 1.47285 -0.560781 0
M  V30 399 C 38.2005 2.02064 -0.0379868 0
M  V30 400 C 38.5215 1.43711 1.31803 0
M  V30 401 O 37.7915 0.61362 1.86042 0
M  V30 402 H 36.3715 0.746918 -0.0110531 0
M  V30 403 H 39.0335 1.80648 -0.731598 0
M  V30 404 H 38.1295 3.12064 0.0474463 0
M  V30 405 N 38.4306 0.297415 1.54768 0
M  V30 406 C 39.3806 -0.595275 2.20092 0
M  V30 407 C 40.3646 -1.10163 1.17273 0
M  V30 408 O 41.5566 -1.043 1.43006 0
M  V30 409 C 38.6856 -1.7684 2.94249 0
M  V30 410 C 37.7716 -1.27818 4.0438 0
M  V30 411 N 38.1626 -0.505695 5.03266 0
M  V30 412 C 36.4606 -1.55923 4.17857 0
M  V30 413 C 37.1616 -0.245094 5.81183 0
M  V30 414 N 36.1376 -0.823881 5.3732 0
M  V30 415 H 39.9396 0.00250837 2.939 0
M  V30 416 H 37.4536 0.102007 1.62079 0
M  V30 417 H 39.4506 -2.41944 3.39513 0
M  V30 418 H 38.1106 -2.36992 2.21957 0
M  V30 419 H 39.1216 -0.150928 5.1768 0
M  V30 420 H 35.7986 -2.16849 3.56767 0
M  V30 421 H 37.1886 0.375084 6.70852 0
M  V30 422 N 39.9087 -1.5758 0.0250728 0
M  V30 423 C 41.3197 -1.79476 -0.514323 0
M  V30 424 C 41.6707 -0.934956 -1.72491 0
M  V30 425 O 40.7957 -0.144245 -2.15919 0
M  V30 426 C 41.3907 -3.25503 -0.939842 0
M  V30 427 C 39.9497 -3.48408 -1.42438 0
M  V30 428 C 39.0967 -2.74583 -0.387201 0
M  V30 429 H 42.0477 -1.567 0.25113 0
M  V30 430 H 42.0687 -3.34992 -1.80445 0
M  V30 431 H 41.5807 -3.88056 -0.0585628 0
M  V30 432 H 39.6817 -2.91103 -2.32572 0
M  V30 433 H 39.7947 -4.57119 -1.43455 0
M  V30 434 H 38.1587 -2.39942 -0.854409 0
M  V30 435 H 38.9417 -3.39849 0.485543 0
M  V30 436 N 41.3868 0.248026 -1.55636 0
M  V30 437 C 42.3168 1.31079 -1.93237 0
M  V30 438 C 43.2978 1.50264 -0.797174 0
M  V30 439 O 44.4828 1.62891 -1.05737 0
M  V30 440 C 41.6128 2.66575 -2.22609 0
M  V30 441 C 40.5668 2.62087 -3.3837 0
M  V30 442 C 39.8928 4.01369 -3.53281 0
M  V30 443 C 41.1928 2.19171 -4.7409 0
M  V30 444 H 42.8868 0.998556 -2.82257 0
M  V30 445 H 40.4328 0.47891 -1.35803 0
M  V30 446 H 42.3858 3.41057 -2.47503 0
M  V30 447 H 41.1098 2.99432 -1.30414 0
M  V30 448 H 39.7688 1.90063 -3.13483 0
M  V30 449 H 39.4168 4.31489 -2.58508 0
M  V30 450 H 39.1168 3.99254 -4.31127 0
M  V30 451 H 40.6408 4.77552 -3.80495 0
M  V30 452 H 42.0548 2.83384 -4.98363 0
M  V30 453 H 40.4518 2.2817 -5.5503 0
M  V30 454 H 41.5218 1.14336 -4.71227 0
M  V30 455 N 42.8649 1.48995 0.513639 0
M  V30 456 C 44.1109 1.58076 1.27042 0
M  V30 457 C 44.4439 0.261026 1.92438 0
M  V30 458 O 43.7189 -0.734393 1.80103 0
M  V30 459 C 44.0019 2.73091 2.34719 0
M  V30 460 C 43.8549 4.14821 1.73907 0
M  V30 461 C 45.1739 2.83796 3.36375 0
M  V30 462 H 42.2929 0.575391 0.460536 0
M  V30 463 H 44.9349 1.81232 0.570516 0
M  V30 464 H 43.0849 2.53479 2.94416 0
M  V30 465 H 44.7569 4.45917 1.18135 0
M  V30 466 H 42.9999 4.21058 1.0437 0
M  V30 467 H 43.6709 4.91147 2.51949 0
M  V30 468 H 46.1469 3.01611 2.86653 0
M  V30 469 H 45.0229 3.65971 4.09093 0
M  V30 470 H 45.2839 1.92624 3.9793 0
M  V30 471 N 44.343 -0.763751 1.37857 0
M  V30 472 C 45.573 -1.55067 1.3652 0
M  V30 473 C 45.981 -1.89135 -0.0494227 0
M  V30 474 O 45.324 -1.52529 -1.02375 0
M  V30 475 C 45.386 -2.8838 2.14656 0
M  V30 476 C 45.05 -2.76905 3.63555 0
M  V30 477 C 46.047 -2.4739 4.57268 0
M  V30 478 C 43.732 -2.94676 4.06781 0
M  V30 479 C 45.726 -2.35786 5.92186 0
M  V30 480 C 43.413 -2.82692 5.41782 0
M  V30 481 C 44.411 -2.53289 6.34298 0
M  V30 482 O 44.099 -2.41345 7.66817 0
M  V30 483 H 43.831 -0.486776 0.469069 0
M  V30 484 H 46.385 -0.953812 1.81911 0
M  V30 485 H 44.615 -3.50217 1.63967 0
M  V30 486 H 46.304 -3.49828 2.05852 0
M  V30 487 H 47.07 -2.33339 4.2518 0
M  V30 488 H 42.949 -3.16563 3.35126 0
M  V30 489 H 46.493 -2.12757 6.64365 0
M  V30 490 H 42.39 -2.96314 5.7347 0
M  V30 491 H 43.158 -2.56634 7.77226 0
M  V30 492 N 45.8211 -1.22559 -0.990812 0
M  V30 493 C 46.7511 -1.0218 -2.09956 0
M  V30 494 C 47.7321 0.0579394 -1.70001 0
M  V30 495 O 48.9171 -0.104684 -1.93918 0
M  V30 496 C 46.0471 -0.601023 -3.4206 0
M  V30 497 C 45.0011 -1.62694 -3.95872 0
M  V30 498 C 44.3271 -1.06193 -5.24049 0
M  V30 499 C 45.6271 -3.01743 -4.2632 0
M  V30 500 H 47.3211 -1.94916 -2.27262 0
M  V30 501 H 44.8671 -0.938566 -1.09211 0
M  V30 502 H 46.8201 -0.445561 -4.19038 0
M  V30 503 H 45.5441 0.362005 -3.24588 0
M  V30 504 H 44.2031 -1.77021 -3.21028 0
M  V30 505 H 43.8511 -0.0901903 -5.02919 0
M  V30 506 H 43.5511 -1.74732 -5.61019 0
M  V30 507 H 45.0751 -0.918092 -6.03658 0
M  V30 508 H 46.4891 -2.90777 -4.94087 0
M  V30 509 H 44.8861 -3.67425 -4.74467 0
M  V30 510 H 45.9561 -3.51518 -3.34011 0
M  V30 511 N 47.2992 1.18797 -1.03562 0
M  V30 512 C 48.5762 1.84469 -0.650434 0
M  V30 513 C 48.9562 1.92319 0.870433 0
M  V30 514 O 48.3042 1.44528 1.76986 0
M  V30 515 C 48.5142 3.2306 -1.32036 0
M  V30 516 C 49.8622 3.9915 -1.44792 0
M  V30 517 O 50.8862 3.32481 -1.27806 0
M  V30 518 O 49.7452 5.18587 -1.72423 0
M  V30 519 H 46.8392 0.795251 -0.226946 0
M  V30 520 H 49.3852 1.26231 -1.13419 0
M  V30 521 H 48.1572 3.1222 -2.3587 0
M  V30 522 H 47.7802 3.88949 -0.8249 0
M  V30 523 N 48.7773 0.814389 1.34928 0
M  V30 524 C 49.7253 0.218424 2.31572 0
M  V30 525 C 50.7193 -0.636128 1.57002 0
M  V30 526 O 51.9253 -0.52842 1.72069 0
M  V30 527 H 48.3003 0.0518799 0.750208 0
M  V30 528 H 50.2713 1.04852 2.79372 0
M  V30 529 C 49.0203 -0.61207 3.4227 0
M  V30 530 H 48.3433 0.0361578 3.99784 0
M  V30 531 H 49.7833 -0.995317 4.12152 0
M  V30 532 C 48.2423 -1.78087 2.85984 0
M  V30 533 O 48.7723 -2.8787 2.80168 0
M  V30 534 N 46.9783 -1.59488 2.42924 0
M  V30 535 H 46.5253 -0.701874 2.47854 0
M  V30 536 H 46.4833 -2.37846 2.05613 0
M  V30 537 N 50.2554 -1.46986 0.568584 0
M  V30 538 C 51.2184 -2.28624 -0.162366 0
M  V30 539 C 52.2184 -1.37596 -0.832103 0
M  V30 540 O 53.4084 -1.60115 -0.68622 0
M  V30 541 C 50.5404 -3.17596 -1.23878 0
M  V30 542 H 51.7334 -2.94722 0.554899 0
M  V30 543 H 49.2864 -1.52863 0.325976 0
M  V30 544 H 50.0214 -2.56214 -1.98808 0
M  V30 545 H 49.8064 -3.846 -0.763219 0
M  V30 546 H 51.2964 -3.79078 -1.75185 0
M  V30 547 N 51.7335 -0.305618 -1.54608 0
M  V30 548 C 52.6965 0.555591 -2.22364 0
M  V30 549 C 53.6965 1.05768 -1.21119 0
M  V30 550 O 54.8865 0.952972 -1.45822 0
M  V30 551 C 52.0185 1.76974 -2.91364 0
M  V30 552 H 53.2115 -0.0364572 -2.99878 0
M  V30 553 H 50.7645 -0.0565007 -1.56198 0
M  V30 554 H 51.4995 2.40151 -2.17941 0
M  V30 555 H 51.2845 1.41732 -3.65588 0
M  V30 556 H 52.7745 2.38148 -3.43038 0
M  V30 557 N 53.2116 1.57565 -0.0334293 0
M  V30 558 C 54.4396 1.9628 0.654347 0
M  V30 559 C 54.8546 0.910138 1.65414 0
M  V30 560 O 54.2116 -0.107595 1.82183 0
M  V30 561 C 54.2626 3.35067 1.35693 0
M  V30 562 O 53.9836 4.36296 0.397191 0
M  V30 563 C 55.4846 3.88439 2.13613 0
M  V30 564 H 52.7046 0.646369 0.180132 0
M  V30 565 H 55.2486 2.04282 -0.0944721 0
M  V30 566 H 53.4036 3.2827 2.05712 0
M  V30 567 H 53.8176 5.1678 0.896597 0
M  V30 568 H 55.2916 4.8788 2.58219 0
M  V30 569 H 55.7686 3.22914 2.97696 0
M  V30 570 H 56.3746 3.98516 1.48543 0
M  V30 571 N 54.6897 -0.239769 1.55765 0
M  V30 572 C 55.9147 -0.988373 1.82335 0
M  V30 573 C 56.3397 -1.77886 0.611421 0
M  V30 574 O 55.6977 -1.75889 -0.439639 0
M  V30 575 C 55.7457 -1.89627 3.06715 0
M  V30 576 O 54.8497 -2.98904 2.84131 0
M  V30 577 H 54.1907 -0.280858 0.601677 0
M  V30 578 H 56.7207 -0.258597 2.02959 0
M  V30 579 H 56.7307 -2.30957 3.36338 0
M  V30 580 H 55.4057 -1.31511 3.9456 0
M  V30 581 H 53.9827 -2.61651 2.65694 0
M  V30 582 N 56.1678 -1.49265 -0.50573 0
M  V30 583 C 57.0998 -1.617 -1.62437 0
M  V30 584 C 58.1128 -0.499924 -1.54934 0
M  V30 585 O 59.3018 -0.771785 -1.60953 0
M  V30 586 C 56.4018 -1.5533 -3.01207 0
M  V30 587 C 55.5748 -2.8249 -3.33943 0
M  V30 588 C 54.6338 -2.69238 -4.52103 0
M  V30 589 O 53.6598 -3.43167 -4.5412 0
M  V30 590 N 54.8618 -1.80468 -5.51735 0
M  V30 591 H 57.6268 -2.58177 -1.52199 0
M  V30 592 H 55.1878 -1.46294 -0.693511 0
M  V30 593 H 57.1798 -1.44125 -3.78167 0
M  V30 594 H 55.7498 -0.667297 -3.05395 0
M  V30 595 H 54.9698 -3.08081 -2.45926 0
M  V30 596 H 56.2578 -3.66802 -3.5261 0
M  V30 597 H 55.6558 -1.19653 -5.52901 0
M  V30 598 H 54.2128 -1.75188 -6.27816 0
M  V30 599 N 57.6459 0.756429 -1.3826 0
M  V30 600 C 58.5929 1.87011 -1.35261 0
M  V30 601 C 59.5629 1.64695 -0.215616 0
M  V30 602 O 60.7479 1.864 -0.407399 0
M  V30 603 C 57.8879 3.24275 -1.18068 0
M  V30 604 C 57.0009 3.58442 -2.41129 0
M  V30 605 C 56.1359 4.84994 -2.16689 0
M  V30 606 C 55.1749 5.11939 -3.35537 0
M  V30 607 N 54.3119 6.29685 -3.10549 0
M  V30 608 H 59.1519 1.8891 -2.30472 0
M  V30 609 H 56.6889 0.923373 -1.14509 0
M  V30 610 H 58.6469 4.03479 -1.06116 0
M  V30 611 H 57.2769 3.21711 -0.264973 0
M  V30 612 H 56.3289 2.74103 -2.63764 0
M  V30 613 H 57.6409 3.74283 -3.29717 0
M  V30 614 H 56.7949 5.72135 -2.01857 0
M  V30 615 H 55.5339 4.71286 -1.25462 0
M  V30 616 H 54.5389 4.23268 -3.50891 0
M  V30 617 H 55.7639 5.27546 -4.27635 0
M  V30 618 H 53.7099 6.17306 -2.21967 0
M  V30 619 H 53.6269 6.46014 -3.92686 0
M  V30 620 H 54.8949 7.19722 -2.99367 0
M  V30 621 N 59.124 1.23083 0.984299 0
M  V30 622 C 60.535 1.05609 1.5396 0
M  V30 623 C 60.886 -0.377793 1.92528 0
M  V30 624 O 60.011 -1.26398 1.75649 0
M  V30 625 C 60.606 1.91087 2.7977 0
M  V30 626 C 59.165 1.77885 3.31713 0
M  V30 627 C 58.312 1.87028 2.04733 0
M  V30 628 H 61.263 1.36802 0.804419 0
M  V30 629 H 61.284 1.43336 3.5247 0
M  V30 630 H 60.796 2.9544 2.51668 0
M  V30 631 H 58.897 0.762995 3.64704 0
M  V30 632 H 59.01 2.61047 4.01735 0
M  V30 633 H 57.374 1.30565 2.18689 0
M  V30 634 H 58.157 2.92929 1.79017 0
M  V30 635 N 60.6021 -1.18246 1.0419 0
M  V30 636 C 62.0181 -1.40269 0.761366 0
M  V30 637 C 62.2181 -1.90777 -0.648578 0
M  V30 638 O 61.2741 -2.0929 -1.41258 0
M  V30 639 C 62.5871 -2.40237 1.8085 0
M  V30 640 C 64.1351 -2.53961 1.82955 0
M  V30 641 C 64.6101 -3.57194 2.86664 0
M  V30 642 N 66.1011 -3.64702 2.85563 0
M  V30 643 C 66.8361 -4.44309 3.6246 0
M  V30 644 N 66.3321 -5.27514 4.49111 0
M  V30 645 N 68.1251 -4.39084 3.50944 0
M  V30 646 H 60.2761 -0.837882 1.95175 0
M  V30 647 H 62.5391 -0.430608 0.84456 0
M  V30 648 H 62.2451 -2.10176 2.81991 0
M  V30 649 H 62.1191 -3.39601 1.64168 0
M  V30 650 H 64.5061 -2.83338 0.824855 0
M  V30 651 H 64.5871 -1.54706 2.03715 0
M  V30 652 H 64.2311 -3.28558 3.87314 0
M  V30 653 H 64.1611 -4.5613 2.6316 0
M  V30 654 H 66.6521 -3.05289 2.22727 0
M  V30 655 H 66.9651 -5.85411 5.04493 0
M  V30 656 H 65.3101 -5.2693 4.53178 0
M  V30 657 H 68.5011 -3.7313 2.82651 0
M  V30 658 H 68.6741 -5.00883 4.11121 0
M  V30 659 N 62.0802 -0.821533 -1.34494 0
M  V30 660 C 63.0432 -0.247847 -2.27856 0
M  V30 661 C 64.0432 0.573453 -1.50227 0
M  V30 662 O 65.2332 0.389759 -1.69784 0
M  V30 663 C 62.3652 0.652698 -3.34593 0
M  V30 664 H 63.5582 -1.07146 -2.80107 0
M  V30 665 H 61.1112 -0.593291 -1.44602 0
M  V30 666 H 61.8462 1.49943 -2.87555 0
M  V30 667 H 61.6312 0.065292 -3.92046 0
M  V30 668 H 63.1212 1.04793 -4.04238 0
M  V30 669 N 63.5583 1.46682 -0.576371 0
M  V30 670 C 64.8043 2.02712 -0.0596221 0
M  V30 671 C 65.1373 1.44765 1.29448 0
M  V30 672 O 64.4123 0.610355 1.84675 0
M  V30 673 C 64.6953 3.60098 0.0129503 0
M  V30 674 C 64.5483 4.28441 -1.3696 0
M  V30 675 C 65.8673 4.34224 0.71678 0
M  V30 676 H 62.9863 0.736637 -0.0231407 0
M  V30 677 H 65.6283 1.74898 -0.742351 0
M  V30 678 H 63.7783 3.83926 0.594378 0
M  V30 679 H 65.4503 4.15896 -1.9957 0
M  V30 680 H 63.6933 3.8805 -1.93907 0
M  V30 681 H 64.3643 5.3716 -1.27135 0
M  V30 682 H 66.8403 4.15503 0.222908 0
M  V30 683 H 65.7163 5.43936 0.73657 0
M  V30 684 H 65.9773 4.04823 1.77682 0
M  V30 685 N 65.0364 0.313813 1.54444 0
M  V30 686 C 65.9664 -0.549454 2.26943 0
M  V30 687 C 66.9474 -1.12741 1.27372 0
M  V30 688 O 68.1324 -1.15436 1.56167 0
M  V30 689 C 65.2624 -1.71523 3.01989 0
M  V30 690 C 64.2164 -1.26703 4.08816 0
M  V30 691 C 63.5424 -2.51898 4.71647 0
M  V30 692 C 64.8424 -0.388962 5.2085 0
M  V30 693 H 66.5364 0.0552661 2.99349 0
M  V30 694 H 64.0824 0.0280207 1.43973 0
M  V30 695 H 66.0354 -2.32535 3.51433 0
M  V30 696 H 64.7594 -2.34639 2.27183 0
M  V30 697 H 63.4184 -0.679896 3.6024 0
M  V30 698 H 63.0664 -3.13356 3.93468 0
M  V30 699 H 62.7664 -2.22605 5.43802 0
M  V30 700 H 64.2904 -3.1369 5.23861 0
M  V30 701 H 65.7044 -0.905107 5.6611 0
M  V30 702 H 64.1014 -0.18924 5.99802 0
M  V30 703 H 65.1714 0.582699 4.81386 0
M  V30 704 N 66.5145 -1.57545 0.0417849 0
M  V30 705 C 67.4245 -2.14451 -0.951213 0
M  V30 706 C 68.4405 -1.09992 -1.34825 0
M  V30 707 O 69.6165 -1.42114 -1.42708 0
M  V30 708 C 66.6815 -2.67063 -2.21084 0
M  V30 709 C 65.7425 -3.86284 -1.87304 0
M  V30 710 C 64.9755 -4.36378 -3.07261 0
M  V30 711 O 65.1985 -3.85587 -4.20332 0
M  V30 712 O 64.1325 -5.28077 -2.88822 0
M  V30 713 H 67.9585 -2.99601 -0.497287 0
M  V30 714 H 65.5435 -1.48317 -0.179567 0
M  V30 715 H 67.4255 -3.00914 -2.95006 0
M  V30 716 H 66.1005 -1.84989 -2.65633 0
M  V30 717 H 65.0075 -3.57338 -1.10727 0
M  V30 718 H 66.3405 -4.6956 -1.47562 0
M  V30 719 N 67.9926 0.231505 -1.5589 0
M  V30 720 C 68.9396 1.28682 -1.91598 0
M  V30 721 C 69.9096 1.47071 -0.771974 0
M  V30 722 O 71.0946 1.60802 -1.027 0
M  V30 723 C 68.2346 2.6342 -2.22944 0
M  V30 724 C 67.3476 2.52912 -3.50228 0
M  V30 725 C 66.4826 3.80106 -3.7107 0
M  V30 726 C 65.5216 3.64279 -4.91902 0
M  V30 727 N 64.6586 4.834 -5.09184 0
M  V30 728 H 69.4986 0.975305 -2.81588 0
M  V30 729 H 67.0356 0.470299 -1.39379 0
M  V30 730 H 68.9936 3.41869 -2.39126 0
M  V30 731 H 67.6236 2.92687 -1.36139 0
M  V30 732 H 66.6756 1.6595 -3.42294 0
M  V30 733 H 67.9876 2.37133 -4.38827 0
M  V30 734 H 67.1416 4.66999 -3.87295 0
M  V30 735 H 65.8806 3.98799 -2.80733 0
M  V30 736 H 64.8856 2.7577 -4.75637 0
M  V30 737 H 66.1106 3.47067 -5.83714 0
M  V30 738 H 64.0566 5.02425 -4.21788 0
M  V30 739 H 63.9736 4.70311 -5.91898 0
M  V30 740 H 65.2416 5.71747 -5.29835 0
M  V30 741 N 69.4707 1.49531 0.497807 0
M  V30 742 C 70.4007 1.6935 1.60757 0
M  V30 743 C 71.3817 0.542218 1.61227 0
M  V30 744 O 72.5667 0.778417 1.77917 0
M  V30 745 C 69.6967 1.76298 2.99226 0
M  V30 746 C 68.6507 2.91248 3.13622 0
M  V30 747 C 67.9767 2.83312 4.53474 0
M  V30 748 C 69.2767 4.3214 2.93346 0
M  V30 749 H 70.9707 2.62263 1.44425 0
M  V30 750 H 68.5167 1.26208 0.693367 0
M  V30 751 H 70.4697 1.88749 3.76765 0
M  V30 752 H 69.1937 0.799871 3.16654 0
M  V30 753 H 67.8527 2.78404 2.38509 0
M  V30 754 H 67.5007 1.84902 4.67782 0
M  V30 755 H 67.2007 3.60465 4.64046 0
M  V30 756 H 68.7247 2.97775 5.33069 0
M  V30 757 H 70.1387 4.45649 3.60652 0
M  V30 758 H 68.5357 5.1054 3.15387 0
M  V30 759 H 69.6057 4.46363 1.89441 0
M  V30 760 N 70.9488 -0.749086 1.3866 0
M  V30 761 C 71.8818 -1.87111 1.30631 0
M  V30 762 C 72.8598 -1.61572 0.18251 0
M  V30 763 O 74.0438 -1.85019 0.360592 0
M  V30 764 C 71.1708 -3.22815 1.02511 0
M  V30 765 C 70.2168 -3.67234 2.1689 0
M  V30 766 S 71.0498 -3.78245 3.79066 0
M  V30 767 C 72.2058 -5.16761 3.53142 0
M  V30 768 H 72.4388 -1.93636 2.25594 0
M  V30 769 H 69.9718 -0.912525 1.24549 0
M  V30 770 H 71.9298 -4.01181 0.869701 0
M  V30 771 H 70.5908 -3.13964 0.0925884 0
M  V30 772 H 69.7838 -4.65677 1.92771 0
M  V30 773 H 69.3858 -2.96034 2.28561 0
M  V30 774 H 71.6778 -6.02656 3.09534 0
M  V30 775 H 72.6208 -5.45902 4.50995 0
M  V30 776 H 73.0288 -4.85771 2.87554 0
M  V30 777 N 72.4269 -1.23603 -0.977757 0
M  V30 778 C 73.3769 -0.986664 -2.05545 0
M  V30 779 C 74.3609 0.0683009 -1.60755 0
M  V30 780 O 75.5529 -0.144162 -1.76412 0
M  V30 781 C 72.6819 -0.582623 -3.3832 0
M  V30 782 C 71.7679 -1.67313 -3.89701 0
M  V30 783 N 72.1589 -2.90394 -4.14132 0
M  V30 784 C 70.4569 -1.54832 -4.18262 0
M  V30 785 C 71.1579 -3.61017 -4.56116 0
M  V30 786 N 70.1339 -2.8854 -4.60701 0
M  V30 787 H 73.9359 -1.92139 -2.22396 0
M  V30 788 H 71.4499 -1.1358 -1.16074 0
M  V30 789 H 73.4469 -0.38524 -4.15116 0
M  V30 790 H 72.1069 0.34503 -3.22862 0
M  V30 791 H 73.1179 -3.26673 -4.01877 0
M  V30 792 H 69.7949 -0.687969 -4.11793 0
M  V30 793 H 71.1849 -4.66544 -4.83514 0
M  V30 794 N 73.905 1.17692 -1.04816 0
M  V30 795 C 75.135 1.91508 -0.775128 0
M  V30 796 C 75.543 1.76844 0.67253 0
M  V30 797 O 74.886 1.10057 1.47082 0
M  V30 798 C 74.948 3.43167 -1.0713 0
M  V30 799 C 74.612 3.81612 -2.51438 0
M  V30 800 C 75.609 3.84772 -3.49638 0
M  V30 801 C 73.294 4.12687 -2.86348 0
M  V30 802 C 75.288 4.18469 -4.80794 0
M  V30 803 C 72.975 4.46053 -4.17708 0
M  V30 804 C 73.973 4.48921 -5.14741 0
M  V30 805 O 73.661 4.81504 -6.43746 0
M  V30 806 H 73.393 0.614575 -0.281555 0
M  V30 807 H 75.947 1.50206 -1.40098 0
M  V30 808 H 74.177 3.84745 -0.388342 0
M  V30 809 H 75.866 3.98239 -0.784883 0
M  V30 810 H 76.632 3.60893 -3.24008 0
M  V30 811 H 72.511 4.09627 -2.11486 0
M  V30 812 H 76.055 4.20623 -5.56527 0
M  V30 813 H 71.952 4.69393 -4.43103 0
M  V30 814 H 72.72 4.99377 -6.4851 0
M  V30 815 N 75.3831 0.828654 1.34056 0
M  V30 816 C 76.6131 0.431993 2.02033 0
M  V30 817 C 77.0211 -0.96844 1.62536 0
M  V30 818 O 76.3641 -1.6391 0.829408 0
M  V30 819 C 76.4261 0.461224 3.56529 0
M  V30 820 C 76.0901 1.81599 4.1937 0
M  V30 821 C 77.0871 2.7777 4.39477 0
M  V30 822 C 74.7721 2.10604 4.56017 0
M  V30 823 C 76.7661 4.01115 4.95364 0
M  V30 824 C 74.4531 3.34207 5.11614 0
M  V30 825 C 75.4511 4.2928 5.31232 0
M  V30 826 O 75.1391 5.50699 5.8565 0
M  V30 827 H 74.8711 0.170943 0.654029 0
M  V30 828 H 77.4251 1.11988 1.72185 0
M  V30 829 H 75.6551 -0.283388 3.8566 0
M  V30 830 H 77.3441 0.0838149 4.05813 0
M  V30 831 H 78.1101 2.56659 4.11523 0
M  V30 832 H 73.9891 1.37402 4.40047 0
M  V30 833 H 77.5331 4.75333 5.10592 0
M  V30 834 H 73.4301 3.55179 5.38997 0
M  V30 835 H 74.1981 5.52298 6.04077 0
M  V30 836 N 76.8612 -1.46375 0.584142 0
M  V30 837 C 77.7712 -2.34115 -0.150728 0
M  V30 838 C 78.7872 -1.49838 -0.884567 0
M  V30 839 O 79.9632 -1.82704 -0.847429 0
M  V30 840 C 77.0282 -3.2705 -1.15062 0
M  V30 841 C 76.0892 -4.27228 -0.421293 0
M  V30 842 C 75.3222 -5.15722 -1.37355 0
M  V30 843 O 75.5452 -5.07176 -2.61014 0
M  V30 844 O 74.4792 -5.95383 -0.883355 0
M  V30 845 H 78.3052 -2.98309 0.569708 0
M  V30 846 H 75.8902 -1.45373 0.344535 0
M  V30 847 H 77.7722 -3.84381 -1.72712 0
M  V30 848 H 76.4472 -2.65451 -1.8525 0
M  V30 849 H 75.3542 -3.7358 0.197085 0
M  V30 850 H 76.6872 -4.91616 0.239641 0
M  V30 851 N 78.3393 -0.321999 -1.54275 0
M  V30 852 C 79.2873 0.560206 -2.25753 0
M  V30 853 C 80.2813 1.11984 -1.27106 0
M  V30 854 O 81.4873 1.06806 -1.44888 0
M  V30 855 H 77.8623 0.199304 -0.725108 0
M  V30 856 H 79.8333 -0.0649365 -2.98329 0
M  V30 857 C 78.5823 1.71023 -3.02731 0
M  V30 858 H 77.9053 1.28885 -3.78456 0
M  V30 859 H 79.3453 2.30314 -3.55993 0
M  V30 860 C 77.8043 2.62692 -2.10938 0
M  V30 861 O 78.3343 3.64364 -1.6912 0
M  V30 862 N 76.5403 2.30891 -1.76459 0
M  V30 863 H 76.0873 1.48253 -2.10663 0
M  V30 864 H 76.0453 2.92487 -1.1532 0
M  V30 865 N 79.8174 1.5752 -0.0501392 0
M  V30 866 C 81.0944 1.83996 0.663685 0
M  V30 867 C 81.4744 0.938339 1.89099 0
M  V30 868 O 80.8224 -0.00087759 2.285 0
M  V30 869 C 81.0324 3.33702 1.02196 0
M  V30 870 C 82.3804 4.00691 1.40469 0
M  V30 871 O 83.4044 3.38321 1.11433 0
M  V30 872 O 82.2634 5.10658 1.94654 0
M  V30 873 H 79.3574 0.759385 0.32751 0
M  V30 874 H 81.9034 1.69514 -0.0794238 0
M  V30 875 H 80.6754 3.91015 0.149364 0
M  V30 876 H 80.2984 3.53368 1.82255 0
M  V30 877 N 81.2955 -0.223234 1.56011 0
M  V30 878 C 82.2435 -1.29627 1.93131 0
M  V30 879 C 83.2375 -1.48608 0.813146 0
M  V30 880 O 84.4435 -1.49802 0.997966 0
M  V30 881 H 80.8185 -0.434563 0.613726 0
M  V30 882 H 82.7895 -0.955995 2.82672 0
M  V30 883 C 81.5385 -2.63983 2.26292 0
M  V30 884 H 80.8615 -2.50185 3.11846 0
M  V30 885 H 82.3015 -3.3788 2.56151 0
M  V30 886 C 80.7605 -3.18866 1.08747 0
M  V30 887 O 81.2905 -4.00192 0.347727 0
M  V30 888 N 79.4965 -2.77217 0.871743 0
M  V30 889 H 79.0435 -2.1119 1.47501 0
M  V30 890 H 79.0015 -3.1428 0.0869905 0
M  V30 891 N 82.7736 -1.49793 -0.48987 0
M  V30 892 C 83.7366 -1.66752 -1.57246 0
M  V30 893 C 84.7366 -0.538867 -1.51502 0
M  V30 894 O 85.9266 -0.805545 -1.54456 0
M  V30 895 C 83.0586 -1.67528 -2.96896 0
M  V30 896 H 84.2516 -2.63321 -1.43534 0
M  V30 897 H 81.8046 -1.38992 -0.714914 0
M  V30 898 H 82.5396 -0.725837 -3.16073 0
M  V30 899 H 82.3246 -2.49504 -3.02473 0
M  V30 900 H 83.8146 -1.82667 -3.7553 0
M  V30 901 N 84.2517 0.741722 -1.39055 0
M  V30 902 C 85.1997 1.87702 -1.3737 0
M  V30 903 C 86.1937 1.67427 -0.257812 0
M  V30 904 O 87.3997 1.7485 -0.427489 0
M  V30 905 H 83.7747 0.617757 -0.428812 0
M  V30 906 H 85.7457 1.86239 -2.33147 0
M  V30 907 C 84.4947 3.25315 -1.22741 0
M  V30 908 H 83.8177 3.41509 -2.07873 0
M  V30 909 H 85.2577 4.04964 -1.25618 0
M  V30 910 C 83.7167 3.36838 0.0647316 0
M  V30 911 O 84.2467 3.88073 1.03741 0
M  V30 912 N 82.4527 2.90329 0.125544 0
M  V30 913 H 81.9997 2.48823 -0.666682 0
M  V30 914 H 81.9577 2.98418 0.989639 0
M  V30 915 N 85.7298 1.2412 0.971189 0
M  V30 916 C 86.9758 1.08041 1.71625 0
M  V30 917 C 87.3088 -0.380407 1.90438 0
M  V30 918 O 86.5838 -1.28127 1.46334 0
M  V30 919 C 86.8668 1.81682 3.10908 0
M  V30 920 C 86.7198 3.35493 2.99608 0
M  V30 921 C 88.0388 1.58671 4.10501 0
M  V30 922 H 85.1578 0.39388 0.622919 0
M  V30 923 H 87.7998 1.52743 1.13003 0
M  V30 924 H 85.9498 1.43684 3.60953 0
M  V30 925 H 87.6218 3.83068 2.57015 0
M  V30 926 H 85.8648 3.64052 2.35899 0
M  V30 927 H 86.5358 3.82217 3.98264 0
M  V30 928 H 89.0118 1.91719 3.69301 0
M  V30 929 H 87.8878 2.1266 5.06031 0
M  V30 930 H 88.1488 0.524161 4.38982 0
M  V30 931 N 87.2079 -1.17134 1.05439 0
M  V30 932 C 88.1579 -2.1919 0.627675 0
M  V30 933 C 89.1419 -1.57328 -0.337147 0
M  V30 934 O 90.3339 -1.76329 -0.153976 0
M  V30 935 C 87.4629 -3.43299 0.00651435 0
M  V30 936 C 86.5489 -4.12255 0.995312 0
M  V30 937 N 86.9399 -4.56997 2.16765 0
M  V30 938 C 85.2379 -4.38316 0.824336 0
M  V30 939 C 85.9389 -5.10239 2.7934 0
M  V30 940 N 84.9149 -5.02595 2.07122 0
M  V30 941 H 88.7169 -2.5149 1.52086 0
M  V30 942 H 86.2309 -1.33491 0.924868 0
M  V30 943 H 88.2279 -4.15693 -0.316965 0
M  V30 944 H 86.8879 -3.1249 -0.882033 0
M  V30 945 H 87.8989 -4.51006 2.54587 0
M  V30 946 H 84.5759 -4.17498 -0.0129526 0
M  V30 947 H 85.9659 -5.54961 3.78772 0
M  V30 948 N 88.686 -0.835752 -1.33615 0
M  V30 949 C 90.102 -0.523139 -1.50783 0
M  V30 950 C 90.302 0.950171 -1.77691 0
M  V30 951 O 89.358 1.73411 -1.83534 0
M  V30 952 C 90.671 -1.39378 -2.66448 0
M  V30 953 C 92.219 -1.39223 -2.80332 0
M  V30 954 C 92.694 -2.24765 -3.99055 0
M  V30 955 N 94.185 -2.22458 -4.06284 0
M  V30 956 C 94.92 -2.85386 -4.97336 0
M  V30 957 N 94.416 -3.57354 -5.93523 0
M  V30 958 N 96.209 -2.74872 -4.90308 0
M  V30 959 H 88.36 -1.78952 -1.14411 0
M  V30 960 H 90.623 -0.763297 -0.562212 0
M  V30 961 H 90.329 -2.44061 -2.53234 0
M  V30 962 H 90.203 -1.0676 -3.61776 0
M  V30 963 H 92.59 -0.353136 -2.92979 0
M  V30 964 H 92.671 -1.75846 -1.85773 0
M  V30 965 H 92.315 -3.28732 -3.87167 0
M  V30 966 H 92.245 -1.85485 -4.92852 0
M  V30 967 H 94.736 -1.70119 -3.37443 0
M  V30 968 H 95.049 -4.02584 -6.59656 0
M  V30 969 H 93.394 -3.61461 -5.93608 0
M  V30 970 H 96.585 -2.18213 -4.14126 0
M  V30 971 H 96.758 -3.24199 -5.61069 0
M  V30 972 N 90.1641 1.46063 -0.591896 0
M  V30 973 C 91.4121 2.01938 -0.0808391 0
M  V30 974 C 91.7331 1.46475 1.28725 0
M  V30 975 O 91.0031 0.652944 1.84698 0
M  V30 976 H 89.5831 0.746516 -0.0268938 0
M  V30 977 H 92.2451 1.79055 -0.769752 0
M  V30 978 H 91.3411 3.12094 -0.0187578 0
M  V30 979 N 91.6422 0.330177 1.54103 0
M  V30 980 C 92.6052 -0.520144 2.2322 0
M  V30 981 C 93.6052 -1.03828 1.22786 0
M  V30 982 O 94.7952 -0.929652 1.4732 0
M  V30 983 C 91.9272 -1.72317 2.94142 0
M  V30 984 H 93.1202 0.0841605 2.99782 0
M  V30 985 H 90.6732 0.0813433 1.56088 0
M  V30 986 H 91.4082 -2.36653 2.21734 0
M  V30 987 H 91.1932 -1.35898 3.67796 0
M  V30 988 H 92.6832 -2.3266 3.46784 0
M  V30 989 N 93.1203 -1.57491 0.0584922 0
M  V30 990 C 94.0703 -2.08474 -0.923188 0
M  V30 991 C 95.0543 -0.991479 -1.26722 0
M  V30 992 O 96.2463 -1.25473 -1.24842 0
M  V30 993 C 93.3753 -2.6392 -2.19548 0
M  V30 994 C 92.4613 -3.80227 -1.87852 0
M  V30 995 N 92.8523 -4.89714 -1.26546 0
M  V30 996 C 91.1503 -3.89271 -2.17679 0
M  V30 997 C 91.8513 -5.70689 -1.12644 0
M  V30 998 N 90.8273 -5.18531 -1.63176 0
M  V30 999 H 94.6293 -2.90517 -0.444653 0
M  V30 1000 H 92.1433 -1.61745 -0.145764 0
M  V30 1001 H 94.1403 -2.98752 -2.9078 0
M  V30 1002 H 92.8003 -1.83318 -2.68001 0
M  V30 1003 H 93.8113 -5.09358 -0.936757 0
M  V30 1004 H 90.4883 -3.19623 -2.68602 0
M  V30 1005 H 91.8783 -6.6875 -0.6499 0
M  V30 1006 N 94.5984 0.214957 -1.56127 0
M  V30 1007 C 95.5304 1.29004 -1.89448 0
M  V30 1008 C 96.5434 1.42716 -0.783326 0
M  V30 1009 O 97.7324 1.43496 -1.06166 0
M  V30 1010 C 94.8324 2.66482 -2.09381 0
M  V30 1011 C 94.0054 2.74633 -3.40434 0
M  V30 1012 C 93.0644 3.9317 -3.49719 0
M  V30 1013 O 92.0904 3.812 -4.227 0
M  V30 1014 N 93.2924 5.07765 -2.81346 0
M  V30 1015 H 96.0574 1.00743 -2.82261 0
M  V30 1016 H 93.6184 0.40497 -1.56753 0
M  V30 1017 H 95.6104 3.44173 -2.12901 0
M  V30 1018 H 94.1804 2.87314 -1.23163 0
M  V30 1019 H 93.4004 1.83368 -3.48955 0
M  V30 1020 H 94.6884 2.77054 -4.26754 0
M  V30 1021 H 94.0864 5.20386 -2.21843 0
M  V30 1022 H 92.6434 5.83474 -2.90519 0
M  V30 1023 N 96.0765 1.50051 0.48192 0
M  V30 1024 C 97.0065 1.71046 1.58951 0
M  V30 1025 C 97.9875 0.559288 1.60642 0
M  V30 1026 O 99.1725 0.797243 1.77081 0
M  V30 1027 C 96.3025 1.79462 2.97339 0
M  V30 1028 C 95.2565 2.94558 3.10515 0
M  V30 1029 C 94.5825 2.88105 4.50444 0
M  V30 1030 C 95.8825 4.35227 2.88747 0
M  V30 1031 H 97.5765 2.6378 1.41635 0
M  V30 1032 H 95.1225 1.26936 0.679942 0
M  V30 1033 H 97.0755 1.92734 3.74742 0
M  V30 1034 H 95.7995 0.833412 3.15788 0
M  V30 1035 H 94.4585 2.80918 2.35543 0
M  V30 1036 H 94.1065 1.89853 4.65795 0
M  V30 1037 H 93.8065 3.65366 4.60197 0
M  V30 1038 H 95.3305 3.03412 5.29881 0
M  V30 1039 H 96.7445 4.49449 3.55905 0
M  V30 1040 H 95.1415 5.13856 3.09955 0
M  V30 1041 H 96.2115 4.48347 1.84696 0
M  V30 1042 N 97.5546 -0.734337 1.39446 0
M  V30 1043 C 98.7796 -1.52866 1.40167 0
M  V30 1044 C 99.2046 -1.881 -0.00171513 0
M  V30 1045 O 98.5626 -1.51957 -0.988879 0
M  V30 1046 C 98.6106 -2.79235 2.28167 0
M  V30 1047 O 97.7146 -3.75185 1.71201 0
M  V30 1048 H 97.0556 -0.461618 0.477289 0
M  V30 1049 H 99.5856 -0.905949 1.8345 0
M  V30 1050 H 99.5956 -3.27963 2.42702 0
M  V30 1051 H 98.2706 -2.52923 3.30156 0
M  V30 1052 H 96.8476 -3.33958 1.65912 0
M  V30 1053 N 99.0327 -1.24633 -0.964593 0
M  V30 1054 C 100.279 -1.08949 -1.71049 0
M  V30 1055 C 100.612 0.370302 -1.90637 0
M  V30 1056 O 99.8867 1.27349 -1.47011 0
M  V30 1057 C 100.17 -1.83329 -3.0994 0
M  V30 1058 C 100.023 -3.37077 -2.97824 0
M  V30 1059 C 101.342 -1.60846 -4.09654 0
M  V30 1060 H 98.4607 -0.397178 -0.620821 0
M  V30 1061 H 101.103 -1.5334 -1.12191 0
M  V30 1062 H 99.2527 -1.45597 -3.60186 0
M  V30 1063 H 100.925 -3.84425 -2.5498 0
M  V30 1064 H 99.1677 -3.65298 -2.33965 0
M  V30 1065 H 99.8387 -3.84324 -3.96231 0
M  V30 1066 H 102.315 -1.93674 -3.68279 0
M  V30 1067 H 101.191 -2.1534 -5.04896 0
M  V30 1068 H 101.452 -0.547434 -4.38698 0
M  V30 1069 N 100.511 1.16574 -1.06058 0
M  V30 1070 C 101.927 1.3904 -0.783585 0
M  V30 1071 C 102.127 1.91784 0.618145 0
M  V30 1072 O 101.183 2.11511 1.37911 0
M  V30 1073 C 102.496 2.37329 -1.84649 0
M  V30 1074 C 104.044 2.51018 -1.86973 0
M  V30 1075 C 104.519 3.52588 -2.92311 0
M  V30 1076 N 106.01 3.60113 -2.91329 0
M  V30 1077 C 106.745 4.38486 -3.69482 0
M  V30 1078 N 106.241 5.20302 -4.57447 0
M  V30 1079 N 108.034 4.33446 -3.57885 0
M  V30 1080 H 100.185 0.806725 -1.96483 0
M  V30 1081 H 102.448 0.417117 -0.851303 0
M  V30 1082 H 102.154 2.05663 -2.85299 0
M  V30 1083 H 102.028 3.36946 -1.6955 0
M  V30 1084 H 104.415 2.81989 -0.869827 0
M  V30 1085 H 104.496 1.51445 -2.0615 0
M  V30 1086 H 104.14 3.22354 -3.92492 0
M  V30 1087 H 104.07 4.51886 -2.70383 0
M  V30 1088 H 106.561 3.01707 -2.27555 0
M  V30 1089 H 106.874 5.77311 -5.13743 0
M  V30 1090 H 105.219 5.19653 -4.61503 0
M  V30 1091 H 108.41 3.68586 -2.88551 0
M  V30 1092 H 108.583 4.94279 -4.19037 0
M  V30 1093 N 101.989 0.842826 1.3317 0
M  V30 1094 C 102.952 0.284065 2.27433 0
M  V30 1095 C 103.952 -0.54948 1.5112 0
M  V30 1096 O 105.142 -0.362699 1.70382 0
M  V30 1097 C 102.274 -0.599384 3.35589 0
M  V30 1098 H 103.467 1.11589 2.78366 0
M  V30 1099 H 101.02 0.616221 1.4364 0
M  V30 1100 H 101.755 -1.45349 2.89904 0
M  V30 1101 H 101.54 -0.00291266 3.921 0
M  V30 1102 H 103.03 -0.983488 4.05854 0
M  V30 1103 N 103.467 -1.45747 0.599634 0
M  V30 1104 C 104.695 -2.06668 0.0978551 0
M  V30 1105 C 105.11 -1.44562 -1.21439 0
M  V30 1106 O 104.467 -0.556923 -1.73795 0
M  V30 1107 C 104.518 -3.61456 -0.0567044 0
M  V30 1108 O 104.239 -4.21242 1.20361 0
M  V30 1109 C 105.74 -4.39345 -0.590869 0
M  V30 1110 H 102.96 -0.667825 0.0651943 0
M  V30 1111 H 105.504 -1.87115 0.82511 0
M  V30 1112 H 103.659 -3.80378 -0.734251 0
M  V30 1113 H 104.073 -5.14323 1.02821 0
M  V30 1114 H 105.547 -5.48182 -0.648131 0
M  V30 1115 H 106.024 -4.08568 -1.61147 0
M  V30 1116 H 106.63 -4.25268 0.0523679 0
M  V30 1117 N 104.945 -0.338344 -1.53925 0
M  V30 1118 C 106.222 0.314774 -1.93051 0
M  V30 1119 C 106.602 1.68669 -1.26941 0
M  V30 1120 O 105.95 2.24636 -0.418445 0
M  V30 1121 C 106.16 0.392249 -3.46789 0
M  V30 1122 C 107.508 0.645554 -4.19664 0
M  V30 1123 O 108.532 0.474575 -3.53024 0
M  V30 1124 O 107.391 0.976408 -5.37707 0
M  V30 1125 H 104.485 0.182598 -0.80659 0
M  V30 1126 H 107.031 -0.389141 -1.65178 0
M  V30 1127 H 105.803 -0.570702 -3.87116 0
M  V30 1128 H 105.426 1.14316 -3.80812 0
M  V30 1129 N 106.423 1.57458 -0.0668435 0
M  V30 1130 C 107.386 2.11323 0.887422 0
M  V30 1131 C 108.386 1.03618 1.22964 0
M  V30 1132 O 109.576 1.29626 1.16373 0
M  V30 1133 C 106.708 2.61048 2.19242 0
M  V30 1134 H 107.901 2.96942 0.420194 0
M  V30 1135 H 105.454 1.55239 0.181793 0
M  V30 1136 H 106.189 1.78868 2.70512 0
M  V30 1137 H 105.974 3.39769 1.95702 0
M  V30 1138 H 107.464 3.02814 2.87565 0
M  V30 1139 N 107.901 -0.206675 1.56239 0
M  V30 1140 C 109.131 -0.943975 1.83773 0
M  V30 1141 C 109.539 -1.77841 0.645703 0
M  V30 1142 O 108.882 -1.79403 -0.395008 0
M  V30 1143 C 108.944 -1.899 3.05251 0
M  V30 1144 C 108.608 -1.24764 4.39639 0
M  V30 1145 C 109.605 -0.630216 5.16066 0
M  V30 1146 C 107.29 -1.25496 4.8637 0
M  V30 1147 C 109.284 -0.0287946 6.37393 0
M  V30 1148 C 106.971 -0.649698 6.07637 0
M  V30 1149 C 107.969 -0.0376845 6.8299 0
M  V30 1150 O 107.657 0.55812 8.0196 0
M  V30 1151 H 107.389 -0.281508 0.614597 0
M  V30 1152 H 109.943 -0.222458 2.04192 0
M  V30 1153 H 108.173 -2.6599 2.80689 0
M  V30 1154 H 109.862 -2.5031 3.1953 0
M  V30 1155 H 110.628 -0.616785 4.81062 0
M  V30 1156 H 106.507 -1.72072 4.27683 0
M  V30 1157 H 110.051 0.449518 6.9615 0
M  V30 1158 H 105.948 -0.660592 6.42111 0
M  V30 1159 H 106.716 0.453891 8.17241 0
M  V30 1160 N 109.379 -1.50304 -0.473955 0
M  V30 1161 C 110.289 -1.7174 -1.5982 0
M  V30 1162 C 111.305 -0.600457 -1.63311 0
M  V30 1163 O 112.481 -0.878441 -1.81233 0
M  V30 1164 C 109.546 -1.80427 -2.96052 0
M  V30 1165 C 108.607 -3.04148 -3.02972 0
M  V30 1166 C 107.84 -3.12411 -4.32706 0
M  V30 1167 O 108.063 -2.27542 -5.23049 0
M  V30 1168 O 106.997 -4.05113 -4.45159 0
M  V30 1169 H 110.823 -2.67035 -1.44657 0
M  V30 1170 H 108.408 -1.34366 -0.653148 0
M  V30 1171 H 110.29 -1.88338 -3.7697 0
M  V30 1172 H 108.965 -0.883156 -3.11419 0
M  V30 1173 H 107.872 -3.0174 -2.21142 0
M  V30 1174 H 109.205 -3.95829 -2.92541 0
M  V30 1175 N 110.857 0.726932 -1.39834 0
M  V30 1176 C 111.82 1.82269 -1.38962 0
M  V30 1177 C 112.82 1.58248 -0.285334 0
M  V30 1178 O 114.01 1.65499 -0.54366 0
M  V30 1179 C 111.142 3.20186 -1.17019 0
M  V30 1180 H 112.335 1.84443 -2.36476 0
M  V30 1181 H 109.888 0.931416 -1.25516 0
M  V30 1182 H 110.623 3.23669 -0.202204 0
M  V30 1183 H 110.408 3.3902 -1.96998 0
M  V30 1184 H 111.898 4.00235 -1.1917 0
M  V30 1185 N 112.336 1.25143 0.95797 0
M  V30 1186 C 113.582 1.09855 1.70469 0
M  V30 1187 C 113.915 -0.360187 1.90831 0
M  V30 1188 O 113.19 -1.26568 1.47685 0
M  V30 1189 C 113.473 1.8497 3.08963 0
M  V30 1190 C 113.326 3.38652 2.96032 0
M  V30 1191 C 114.645 1.63016 4.08795 0
M  V30 1192 H 111.764 0.400465 0.618706 0
M  V30 1193 H 114.406 1.53933 1.11376 0
M  V30 1194 H 112.556 1.47505 3.59409 0
M  V30 1195 H 114.228 3.85772 2.52938 0
M  V30 1196 H 112.471 3.66534 2.32025 0
M  V30 1197 H 113.142 3.8642 3.94187 0
M  V30 1198 H 115.618 1.95625 3.67247 0
M  V30 1199 H 114.494 2.18015 5.03747 0
M  V30 1200 H 114.755 0.570692 4.38401 0
M  V30 1201 N 113.814 -1.1601 1.06675 0
M  V30 1202 C 115.23 -1.38622 0.790948 0
M  V30 1203 C 115.43 -1.92109 -0.607965 0
M  V30 1204 O 114.486 -2.12239 -1.36787 0
M  V30 1205 C 115.799 -2.36347 1.85905 0
M  V30 1206 C 117.347 -2.50023 1.88301 0
M  V30 1207 C 117.822 -3.51033 2.94176 0
M  V30 1208 N 119.313 -3.58563 2.93235 0
M  V30 1209 C 120.048 -4.36521 3.71803 0
M  V30 1210 N 119.544 -5.17869 4.602 0
M  V30 1211 N 121.337 -4.31541 3.60178 0
M  V30 1212 H 113.488 -0.796294 1.96908 0
M  V30 1213 H 115.751 -0.412597 0.853503 0
M  V30 1214 H 115.457 -2.04147 2.86386 0
M  V30 1215 H 115.331 -3.36042 1.71334 0
M  V30 1216 H 117.718 -2.81524 0.884769 0
M  V30 1217 H 117.799 -1.5035 2.06951 0
M  V30 1218 H 117.443 -3.20268 3.94196 0
M  V30 1219 H 117.373 -4.50445 2.72776 0
M  V30 1220 H 119.864 -3.00496 2.29152 0
M  V30 1221 H 120.177 -5.74578 5.16797 0
M  V30 1222 H 118.522 -5.17199 4.64253 0
M  V30 1223 H 121.713 -3.67051 2.90502 0
M  V30 1224 H 121.886 -4.9205 4.21653 0
M  V30 1225 N 115.292 -0.849877 -1.32721 0
M  V30 1226 C 116.24 -0.279745 -2.30912 0
M  V30 1227 C 117.234 0.594278 -1.58634 0
M  V30 1228 O 118.44 0.482613 -1.73409 0
M  V30 1229 H 114.815 -0.0717521 -0.748569 0
M  V30 1230 H 116.786 -1.12222 -2.76494 0
M  V30 1231 C 115.535 0.521108 -3.43773 0
M  V30 1232 H 114.858 -0.142141 -3.99547 0
M  V30 1233 H 116.298 0.885693 -4.14646 0
M  V30 1234 C 114.757 1.70442 -2.90605 0
M  V30 1235 O 115.287 2.8034 -2.87702 0
M  V30 1236 N 113.493 1.52991 -2.47067 0
M  V30 1237 H 113.04 0.635914 -2.49628 0
M  V30 1238 H 112.998 2.32311 -2.11847 0
M  V30 1239 N 116.77 1.45427 -0.607355 0
M  V30 1240 C 117.717 2.3053 0.111625 0
M  V30 1241 C 118.687 1.4209 0.860216 0
M  V30 1242 O 119.872 1.71019 0.845998 0
M  V30 1243 C 117.012 3.26992 1.10319 0
M  V30 1244 C 116.125 4.30535 0.355493 0
M  V30 1245 C 115.26 5.14105 1.33676 0
M  V30 1246 C 114.299 6.09376 0.576862 0
M  V30 1247 N 113.436 6.85727 1.5074 0
M  V30 1248 H 118.276 2.91477 -0.620093 0
M  V30 1249 H 115.813 1.43631 -0.317594 0
M  V30 1250 H 117.771 3.81385 1.6912 0
M  V30 1251 H 116.401 2.67799 1.80232 0
M  V30 1252 H 115.453 3.78805 -0.348023 0
M  V30 1253 H 116.765 4.98235 -0.237423 0
M  V30 1254 H 115.919 5.72897 1.99684 0
M  V30 1255 H 114.658 4.46423 1.9636 0
M  V30 1256 H 113.663 5.49715 -0.0968519 0
M  V30 1257 H 114.888 6.79085 -0.0449341 0
M  V30 1258 H 112.834 6.20735 2.12189 0
M  V30 1259 H 112.751 7.49778 0.967913 0
M  V30 1260 H 114.019 7.4906 2.15706 0
M  V30 1261 N 118.248 0.346503 1.53744 0
M  V30 1262 C 119.494 -0.249473 2.0126 0
M  V30 1263 C 119.827 -1.49965 1.23386 0
M  V30 1264 O 119.102 -1.91811 0.32229 0
M  V30 1265 C 119.385 -0.560643 3.55709 0
M  V30 1266 C 119.238 0.701836 4.44291 0
M  V30 1267 C 120.557 -1.36905 4.18264 0
M  V30 1268 H 117.676 -0.0891987 0.731582 0
M  V30 1269 H 120.318 0.467624 1.84156 0
M  V30 1270 H 118.468 -1.17156 3.70414 0
M  V30 1271 H 120.14 1.33974 4.41417 0
M  V30 1272 H 118.383 1.32612 4.13033 0
M  V30 1273 H 119.054 0.43933 5.50249 0
M  V30 1274 H 121.53 -0.852448 4.07275 0
M  V30 1275 H 120.406 -1.55553 5.26398 0
M  V30 1276 H 120.667 -2.37203 3.73078 0
M  V30 1277 N 119.726 -1.57421 0.075193 0
M  V30 1278 C 120.689 -2.11791 -0.876203 0
M  V30 1279 C 121.689 -1.04268 -1.22412 0
M  V30 1280 O 122.879 -1.30242 -1.15684 0
M  V30 1281 C 120.011 -2.62207 -2.17854 0
M  V30 1282 H 121.204 -2.9716 -0.40444 0
M  V30 1283 H 118.757 -1.55333 -0.173557 0
M  V30 1284 H 119.492 -1.803 -2.6956 0
M  V30 1285 H 119.277 -3.40802 -1.93897 0
M  V30 1286 H 120.767 -3.04335 -2.85955 0
M  V30 1287 N 121.204 0.198386 -1.56346 0
M  V30 1288 C 122.151 1.24589 -1.94284 0
M  V30 1289 C 123.121 1.454 -0.802997 0
M  V30 1290 O 124.306 1.58588 -1.06087 0
M  V30 1291 C 121.446 2.58631 -2.28482 0
M  V30 1292 C 120.559 2.45426 -3.55514 0
M  V30 1293 C 119.694 3.7215 -3.79049 0
M  V30 1294 C 118.733 3.53763 -4.99518 0
M  V30 1295 N 117.87 4.72491 -5.19323 0
M  V30 1296 H 122.71 0.915356 -2.83593 0
M  V30 1297 H 120.247 0.440629 -1.40346 0
M  V30 1298 H 122.205 3.3672 -2.46324 0
M  V30 1299 H 120.835 2.89734 -1.42317 0
M  V30 1300 H 119.887 1.58652 -3.45737 0
M  V30 1301 H 121.199 2.27772 -4.43758 0
M  V30 1302 H 120.353 4.58679 -3.97113 0
M  V30 1303 H 119.092 3.92754 -2.89129 0
M  V30 1304 H 118.097 2.65619 -4.8138 0
M  V30 1305 H 119.322 3.34607 -5.90944 0
M  V30 1306 H 117.268 4.93365 -4.3235 0
M  V30 1307 H 117.185 4.5765 -6.01741 0
M  V30 1308 H 118.453 5.6038 -5.41843 0
M  V30 1309 N 122.682 1.50554 0.465978 0
M  V30 1310 C 123.929 1.61798 1.21768 0
M  V30 1311 C 124.257 0.320696 1.91838 0
M  V30 1312 O 123.512 -0.693724 1.82992 0
M  V30 1313 C 123.811 2.75152 2.28093 0
M  V30 1314 C 123.477 4.15454 1.75239 0
M  V30 1315 C 122.139 4.53628 1.60546 0
M  V30 1316 C 124.491 5.03121 1.36083 0
M  V30 1317 C 121.819 5.77204 1.05128 0
M  V30 1318 C 124.171 6.27249 0.821056 0
M  V30 1319 C 122.835 6.64221 0.660795 0
M  V30 1320 H 122.105 0.592063 0.445582 0
M  V30 1321 H 124.752 1.84503 0.512927 0
M  V30 1322 H 123.057 2.46556 3.04496 0
M  V30 1323 H 124.754 2.81055 2.86023 0
M  V30 1324 H 121.344 3.85341 1.87644 0
M  V30 1325 H 125.528 4.74257 1.46267 0
M  V30 1326 H 120.784 6.0452 0.91462 0
M  V30 1327 H 124.958 6.94537 0.509018 0
M  V30 1328 H 122.585 7.59854 0.229226 0
M  V30 1329 N 124.16 -0.719506 1.40217 0
M  V30 1330 C 125.409 -1.47486 1.37589 0
M  V30 1331 C 125.722 -1.9559 -0.0201568 0
M  V30 1332 O 126.928 -2.70973 -0.169049 0
M  V30 1333 C 125.384 -2.66575 2.41796 0
M  V30 1334 C 124.992 -2.25358 3.87192 0
M  V30 1335 C 126.736 -3.4433 2.48269 0
M  V30 1336 C 124.643 -3.41262 4.83005 0
M  V30 1337 H 123.573 -0.553901 0.511576 0
M  V30 1338 H 126.224 -0.783427 1.65936 0
M  V30 1339 H 124.606 -3.3787 2.06543 0
M  V30 1340 H 125.78 -1.61509 4.31569 0
M  V30 1341 H 124.095 -1.60657 3.84159 0
M  V30 1342 H 126.692 -4.30569 3.17041 0
M  V30 1343 H 127.035 -3.87872 1.51198 0
M  V30 1344 H 127.568 -2.80076 2.82493 0
M  V30 1345 H 124.307 -3.02755 5.81394 0
M  V30 1346 H 123.827 -4.0404 4.43297 0
M  V30 1347 H 125.506 -4.07383 5.02641 0
M  V30 1348 N 125.638 -1.25649 -0.95132 0
M  V30 1349 C 126.586 -1.06118 -2.06982 0
M  V30 1350 C 127.58 0.00889169 -1.69398 0
M  V30 1351 O 128.786 -0.146988 -1.79399 0
M  V30 1352 H 125.161 -0.326248 -0.677544 0
M  V30 1353 H 127.132 -2.00932 -2.2061 0
M  V30 1354 C 125.881 -0.700145 -3.40578 0
M  V30 1355 H 125.204 -1.51537 -3.69968 0
M  V30 1356 H 126.644 -0.603211 -4.19687 0
M  V30 1357 C 125.103 0.59403 -3.31622 0
M  V30 1358 O 125.633 1.63522 -3.66911 0
M  V30 1359 N 123.839 0.58089 -2.84735 0
M  V30 1360 H 123.386 -0.266783 -2.56215 0
M  V30 1361 H 123.344 1.44695 -2.79125 0
M  V30 1362 N 127.117 1.15442 -1.07289 0
M  V30 1363 C 128.08 2.18358 -0.696591 0
M  V30 1364 C 129.08 1.58637 0.262837 0
M  V30 1365 O 130.27 1.74145 0.0438809 0
M  V30 1366 C 127.402 3.4089 -0.0266151 0
M  V30 1367 H 128.595 2.53162 -1.60776 0
M  V30 1368 H 126.148 1.29893 -0.869342 0
M  V30 1369 H 126.883 3.11653 0.896822 0
M  V30 1370 H 126.668 3.85495 -0.716657 0
M  V30 1371 H 128.158 4.17009 0.222028 0
M  V30 1372 N 128.595 0.856903 1.32268 0
M  V30 1373 C 130.011 0.547061 1.49931 0
M  V30 1374 C 130.211 -0.921781 1.7918 0
M  V30 1375 O 129.267 -1.70469 1.8627 0
M  V30 1376 C 130.58 1.43599 2.64196 0
M  V30 1377 C 132.128 1.43665 2.78081 0
M  V30 1378 C 132.603 2.31085 3.95428 0
M  V30 1379 N 134.094 2.28893 4.02694 0
M  V30 1380 C 134.829 2.93262 4.92732 0
M  V30 1381 N 134.325 3.66751 5.87763 0
M  V30 1382 N 136.118 2.82638 4.85873 0
M  V30 1383 H 128.269 1.8075 1.11549 0
M  V30 1384 H 130.532 0.772144 0.549997 0
M  V30 1385 H 130.238 2.48058 2.49319 0
M  V30 1386 H 130.112 1.12502 3.60032 0
M  V30 1387 H 132.499 0.399701 2.92381 0
M  V30 1388 H 132.58 1.7878 1.82952 0
M  V30 1389 H 132.224 3.34849 3.81888 0
M  V30 1390 H 132.154 1.93302 4.89839 0
M  V30 1391 H 134.645 1.75466 3.34694 0
M  V30 1392 H 134.958 4.13027 6.53168 0
M  V30 1393 H 133.303 3.70859 5.87783 0
M  V30 1394 H 136.494 2.24774 4.10602 0
M  V30 1395 H 136.667 3.33084 5.55841 0
M  V30 1396 N 130.073 -1.45103 0.615059 0
M  V30 1397 C 131.298 -2.07064 0.117988 0
M  V30 1398 C 131.723 -1.4554 -1.19163 0
M  V30 1399 O 131.081 -0.550855 -1.72729 0
M  V30 1400 C 131.129 -3.606 -0.000288387 0
M  V30 1401 O 130.233 -3.98847 -1.04856 0
M  V30 1402 H 129.574 -0.659467 0.0774581 0
M  V30 1403 H 132.104 -1.86236 0.847186 0
M  V30 1404 H 132.114 -4.07529 -0.196091 0
M  V30 1405 H 130.789 -4.04765 0.955932 0
M  V30 1406 H 129.366 -3.63577 -0.828619 0
M  V30 1407 N 131.551 -0.354651 -1.53558 0
M  V30 1408 C 132.962 0.126902 -1.86268 0
M  V30 1409 C 133.313 1.49075 -1.27558 0
M  V30 1410 O 132.438 2.08105 -0.5934 0
M  V30 1411 C 133.033 0.237046 -3.3797 0
M  V30 1412 C 131.592 0.662842 -3.70518 0
M  V30 1413 C 130.739 -0.196652 -2.76602 0
M  V30 1414 H 133.69 -0.573849 -1.47962 0
M  V30 1415 H 133.711 1.06259 -3.65362 0
M  V30 1416 H 133.223 -0.755725 -3.80671 0
M  V30 1417 H 131.324 1.66424 -3.33367 0
M  V30 1418 H 131.437 0.445034 -4.77029 0
M  V30 1419 H 129.801 0.332763 -2.52517 0
M  V30 1420 H 130.584 -1.18676 -3.22135 0
M  V30 1421 N 133.029 1.57378 -0.0835403 0
M  V30 1422 C 134.445 1.57246 0.273109 0
M  V30 1423 C 134.645 1.09385 1.69225 0
M  V30 1424 O 133.701 0.765051 2.40631 0
M  V30 1425 C 135.014 3.00614 0.0720628 0
M  V30 1426 C 136.562 3.12684 0.1407 0
M  V30 1427 C 137.037 4.57989 -0.0322094 0
M  V30 1428 N 138.528 4.63194 0.0230085 0
M  V30 1429 C 139.263 5.73335 -0.0861941 0
M  V30 1430 N 138.759 6.9235 -0.24958 0
M  V30 1431 N 140.552 5.62093 -0.0282886 0
M  V30 1432 H 132.703 1.86801 -1.0109 0
M  V30 1433 H 134.966 0.861687 -0.395222 0
M  V30 1434 H 134.672 3.39786 -0.907662 0
M  V30 1435 H 134.546 3.68193 0.81936 0
M  V30 1436 H 136.933 2.73391 1.11092 0
M  V30 1437 H 137.014 2.47719 -0.637896 0
M  V30 1438 H 136.658 4.97973 -0.999247 0
M  V30 1439 H 136.588 5.21 0.765937 0
M  V30 1440 H 139.079 3.77613 0.14722 0
M  V30 1441 H 139.392 7.72117 -0.324733 0
M  V30 1442 H 137.737 6.94415 -0.285097 0
M  V30 1443 H 140.928 4.67997 0.0981408 0
M  V30 1444 H 141.101 6.47895 -0.116845 0
M  V30 1445 N 134.507 -0.190092 1.56449 0
M  V30 1446 C 135.417 -1.25591 1.98152 0
M  V30 1447 C 136.433 -1.49519 0.889944 0
M  V30 1448 O 137.609 -1.62036 1.19609 0
M  V30 1449 C 134.674 -2.57916 2.3169 0
M  V30 1450 C 133.735 -2.42015 3.5458 0
M  V30 1451 C 132.968 -3.6803 3.8651 0
M  V30 1452 O 133.191 -4.72413 3.1966 0
M  V30 1453 O 132.125 -3.6326 4.79923 0
M  V30 1454 H 135.951 -0.931988 2.89046 0
M  V30 1455 H 133.536 -0.395488 1.4407 0
M  V30 1456 H 135.418 -3.36008 2.54316 0
M  V30 1457 H 134.093 -2.89925 1.43963 0
M  V30 1458 H 133 -1.62017 3.37196 0
M  V30 1459 H 134.333 -2.14937 4.4279 0
M  V30 1460 N 135.985 -1.50799 -0.457987 0
M  V30 1461 C 137.234 -1.6168 -1.20593 0
M  V30 1462 C 137.547 -0.32888 -1.92815 0
M  V30 1463 O 138.753 -0.316773 -2.69646 0
M  V30 1464 C 137.209 -2.8545 -2.19195 0
M  V30 1465 C 136.817 -4.21168 -1.52715 0
M  V30 1466 C 138.561 -3.05681 -2.94549 0
M  V30 1467 C 136.468 -5.3611 -2.4968 0
M  V30 1468 H 135.398 -0.602134 -0.453818 0
M  V30 1469 H 138.049 -1.77245 -0.475031 0
M  V30 1470 H 136.431 -2.63472 -2.95632 0
M  V30 1471 H 137.605 -4.53449 -0.819775 0
M  V30 1472 H 135.92 -4.06648 -0.895922 0
M  V30 1473 H 138.517 -3.88727 -3.67145 0
M  V30 1474 H 138.86 -2.17929 -3.54701 0
M  V30 1475 H 139.393 -3.27901 -2.25223 0
M  V30 1476 H 136.132 -6.26057 -1.94249 0
M  V30 1477 H 135.652 -5.0823 -3.18532 0
M  V30 1478 H 137.331 -5.6722 -3.11241 0
M  V30 1479 N 137.463 0.71206 -1.40597 0
M  V30 1480 C 138.709 1.47416 -1.39271 0
M  V30 1481 C 139.042 1.942 0.00388791 0
M  V30 1482 O 138.317 1.68403 0.973179 0
M  V30 1483 C 138.6 2.69774 -2.38525 0
M  V30 1484 C 138.453 2.28861 -3.87224 0
M  V30 1485 C 139.772 3.71939 -2.35264 0
M  V30 1486 H 136.891 0.534713 -0.5072 0
M  V30 1487 H 139.533 0.812375 -1.71757 0
M  V30 1488 H 137.683 3.26238 -2.10953 0
M  V30 1489 H 139.355 1.77852 -4.25636 0
M  V30 1490 H 137.598 1.60824 -4.02887 0
M  V30 1491 H 138.269 3.16584 -4.52193 0
M  V30 1492 H 140.745 3.25113 -2.59694 0
M  V30 1493 H 139.621 4.55186 -3.06753 0
M  V30 1494 H 139.882 4.20484 -1.36549 0
M  V30 1495 N 138.941 1.26152 0.944643 0
M  V30 1496 C 140.171 1.14094 1.72239 0
M  V30 1497 C 140.579 -0.306931 1.86694 0
M  V30 1498 O 139.922 -1.22222 1.3714 0
M  V30 1499 C 139.984 1.73316 3.14963 0
M  V30 1500 C 139.648 3.2239 3.23904 0
M  V30 1501 C 140.645 4.19252 3.07447 0
M  V30 1502 C 138.33 3.62788 3.47405 0
M  V30 1503 C 140.324 5.54491 3.14353 0
M  V30 1504 C 138.011 4.98162 3.53947 0
M  V30 1505 C 139.009 5.93823 3.37436 0
M  V30 1506 O 138.697 7.26732 3.43679 0
M  V30 1507 H 138.429 0.398292 0.546205 0
M  V30 1508 H 140.983 1.67201 1.19301 0
M  V30 1509 H 139.213 1.14667 3.69308 0
M  V30 1510 H 140.902 1.56214 3.74636 0
M  V30 1511 H 141.668 3.8938 2.8915 0
M  V30 1512 H 137.547 2.88816 3.59313 0
M  V30 1513 H 141.091 6.29137 3.01384 0
M  V30 1514 H 136.988 5.27695 3.71763 0
M  V30 1515 H 137.756 7.3496 3.60245 0
M  V30 1516 N 140.419 -1.14872 1.07899 0
M  V30 1517 C 141.647 -1.89661 0.82683 0
M  V30 1518 C 142.062 -1.78312 -0.620519 0
M  V30 1519 O 141.419 -1.13888 -1.42604 0
M  V30 1520 C 141.47 -3.39817 1.23316 0
M  V30 1521 O 141.191 -3.50845 2.62372 0
M  V30 1522 C 142.692 -4.31615 1.0111 0
M  V30 1523 H 139.912 -0.60092 0.298557 0
M  V30 1524 H 142.456 -1.4551 1.43691 0
M  V30 1525 H 140.611 -3.8161 0.667286 0
M  V30 1526 H 141.025 -4.44076 2.79101 0
M  V30 1527 H 142.499 -5.35367 1.34486 0
M  V30 1528 H 142.976 -4.39169 -0.0522168 0
M  V30 1529 H 143.582 -3.95572 1.56215 0
M  V30 1530 N 141.898 -0.863906 -1.31812 0
M  V30 1531 C 143.314 -0.555004 -1.49639 0
M  V30 1532 C 143.514 0.912266 -1.79666 0
M  V30 1533 O 142.57 1.69479 -1.87171 0
M  V30 1534 C 143.883 -1.44998 -2.63431 0
M  V30 1535 C 145.431 -1.45138 -2.77316 0
M  V30 1536 C 145.906 -2.33179 -3.94197 0
M  V30 1537 N 147.397 -2.31025 -4.01474 0
M  V30 1538 C 148.132 -2.95871 -4.9117 0
M  V30 1539 N 147.628 -3.69863 -5.8581 0
M  V30 1540 N 149.421 -2.85211 -4.84367 0
M  V30 1541 H 141.572 -1.81339 -1.10589 0
M  V30 1542 H 143.835 -0.77505 -0.545895 0
M  V30 1543 H 143.541 -2.49377 -2.48 0
M  V30 1544 H 143.415 -1.14409 -3.59431 0
M  V30 1545 H 145.802 -0.415201 -2.92164 0
M  V30 1546 H 145.883 -1.79747 -1.82001 0
M  V30 1547 H 145.527 -3.3687 -3.80107 0
M  V30 1548 H 145.457 -1.95897 -4.88807 0
M  V30 1549 H 147.948 -1.77238 -3.33759 0
M  V30 1550 H 148.261 -4.16486 -6.50968 0
M  V30 1551 H 146.606 -3.73971 -5.85808 0
M  V30 1552 H 149.797 -2.26948 -4.09405 0
M  V30 1553 H 149.97 -3.36027 -5.54066 0
M  V30 1554 N 143.376 1.44774 -0.622745 0
M  V30 1555 C 144.324 2.32387 0.0994683 0
M  V30 1556 C 145.318 1.46859 0.844326 0
M  V30 1557 O 146.524 1.63254 0.758174 0
M  V30 1558 H 142.899 0.750273 0.0509291 0
M  V30 1559 H 144.87 2.91062 -0.65767 0
M  V30 1560 C 143.619 3.30723 1.07319 0
M  V30 1561 H 142.942 3.96541 0.509462 0
M  V30 1562 H 144.382 3.94725 1.54817 0
M  V30 1563 C 142.841 2.59021 2.15429 0
M  V30 1564 O 143.371 2.38286 3.23393 0
M  V30 1565 N 141.577 2.189 1.91131 0
M  V30 1566 H 141.124 2.35964 1.03337 0
M  V30 1567 H 141.082 1.71251 2.63668 0
M  V30 1568 N 144.854 0.36279 1.53368 0
M  V30 1569 C 145.817 -0.472679 2.24273 0
M  V30 1570 C 146.817 -1.012 1.24961 0
M  V30 1571 O 148.007 -0.898194 1.49259 0
M  V30 1572 C 145.139 -1.66039 2.97731 0
M  V30 1573 H 146.332 0.14773 2.99536 0
M  V30 1574 H 143.885 0.114434 1.55881 0
M  V30 1575 H 144.62 -2.31896 2.26704 0
M  V30 1576 H 144.405 -1.28066 3.70596 0
M  V30 1577 H 145.895 -2.25252 3.51641 0
M  V30 1578 N 146.332 -1.57332 0.0918853 0
M  V30 1579 C 147.56 -1.98574 -0.581048 0
M  V30 1580 C 147.975 -0.970903 -1.61923 0
M  V30 1581 O 147.332 0.0399054 -1.82456 0
M  V30 1582 C 147.383 -3.39872 -1.23164 0
M  V30 1583 O 147.104 -4.37469 -0.234989 0
M  V30 1584 C 148.605 -3.96099 -1.99049 0
M  V30 1585 H 145.825 -0.65261 -0.156018 0
M  V30 1586 H 148.369 -2.0379 0.170225 0
M  V30 1587 H 146.524 -3.35679 -1.93386 0
M  V30 1588 H 146.938 -5.19751 -0.70418 0
M  V30 1589 H 148.412 -4.97127 -2.39934 0
M  V30 1590 H 148.889 -3.3374 -2.85507 0
M  V30 1591 H 149.495 -4.03755 -1.3365 0
M  V30 1592 N 147.81 0.181792 -1.56548 0
M  V30 1593 C 148.72 1.24538 -1.98815 0
M  V30 1594 C 149.736 1.49045 -0.897861 0
M  V30 1595 O 150.912 1.61399 -1.20467 0
M  V30 1596 C 147.977 2.56683 -2.33055 0
M  V30 1597 C 147.038 2.40131 -3.55859 0
M  V30 1598 C 146.271 3.65975 -3.88456 0
M  V30 1599 O 146.494 4.70711 -3.22161 0
M  V30 1600 O 145.428 3.6071 -4.81842 0
M  V30 1601 H 149.254 0.916647 -2.89536 0
M  V30 1602 H 146.839 0.387842 -1.44278 0
M  V30 1603 H 148.721 3.34655 -2.56094 0
M  V30 1604 H 147.396 2.89157 -1.45498 0
M  V30 1605 H 146.303 1.60226 -3.38051 0
M  V30 1606 H 147.636 2.12585 -4.43924 0
M  V30 1607 N 149.288 1.51039 0.449983 0
M  V30 1608 C 150.251 1.70863 1.5277 0
M  V30 1609 C 151.251 0.578846 1.5002 0
M  V30 1610 O 152.441 0.846213 1.52266 0
M  V30 1611 C 149.573 1.75341 2.9235 0
M  V30 1612 H 150.766 2.67034 1.36502 0
M  V30 1613 H 148.319 1.40838 0.677812 0
M  V30 1614 H 149.054 0.809383 3.14037 0
M  V30 1615 H 148.839 2.57436 2.95752 0
M  V30 1616 H 150.329 1.92559 3.70555 0
M  V30 1617 N 150.766 -0.704594 1.40972 0
M  V30 1618 C 152.015 -1.46018 1.39146 0
M  V30 1619 C 152.328 -1.956 0.000589254 0
M  V30 1620 O 153.534 -2.71137 -0.1403 0
M  V30 1621 C 151.99 -2.63996 2.4461 0
M  V30 1622 C 151.598 -2.21238 3.89561 0
M  V30 1623 C 153.342 -3.41677 2.51907 0
M  V30 1624 C 151.249 -3.3612 4.86598 0
M  V30 1625 H 150.179 -0.548444 0.517422 0
M  V30 1626 H 152.83 -0.765784 1.66757 0
M  V30 1627 H 151.212 -3.3566 2.10115 0
M  V30 1628 H 152.386 -1.56923 4.33257 0
M  V30 1629 H 150.701 -1.56574 3.85841 0
M  V30 1630 H 153.298 -4.27182 3.2159 0
M  V30 1631 H 153.641 -3.86247 1.55303 0
M  V30 1632 H 154.174 -2.77064 2.85448 0
M  V30 1633 H 150.913 -2.96572 5.84573 0
M  V30 1634 H 150.433 -3.99315 4.47557 0
M  V30 1635 H 152.112 -4.02029 5.06934 0
M  V30 1636 N 152.244 -1.26651 -0.937939 0
M  V30 1637 C 153.192 -1.08308 -2.05845 0
M  V30 1638 C 154.186 -0.0090757 -1.69398 0
M  V30 1639 O 155.392 -0.166007 -1.79233 0
M  V30 1640 H 151.767 -0.333416 -0.674046 0
M  V30 1641 H 153.738 -2.03261 -2.18467 0
M  V30 1642 C 152.487 -0.736229 -3.39816 0
M  V30 1643 H 151.81 -1.55453 -3.6834 0
M  V30 1644 H 153.25 -0.64769 -4.19024 0
M  V30 1645 C 151.709 0.558824 -3.32233 0
M  V30 1646 O 152.239 1.59621 -3.68624 0
M  V30 1647 N 150.445 0.550657 -2.85335 0
M  V30 1648 H 149.992 -0.293943 -2.55917 0
M  V30 1649 H 149.95 1.41726 -2.80644 0
M  V30 1650 N 153.722 1.14298 -1.08507 0
M  V30 1651 C 154.652 2.21542 -0.737646 0
M  V30 1652 C 155.633 1.67773 0.280377 0
M  V30 1653 O 156.818 1.93616 0.150521 0
M  V30 1654 C 153.948 3.46988 -0.147259 0
M  V30 1655 C 152.902 4.13789 -1.09374 0
M  V30 1656 C 152.228 5.33449 -0.365524 0
M  V30 1657 C 153.528 4.62208 -2.4323 0
M  V30 1658 H 155.222 2.5086 -1.6343 0
M  V30 1659 H 152.768 1.20576 -0.787243 0
M  V30 1660 H 154.721 4.21262 0.107808 0
M  V30 1661 H 153.445 3.17037 0.784538 0
M  V30 1662 H 152.104 3.4147 -1.33393 0
M  V30 1663 H 151.752 4.99759 0.57011 0
M  V30 1664 H 151.452 5.79088 -0.996512 0
M  V30 1665 H 152.976 6.10485 -0.118534 0
M  V30 1666 H 154.39 5.27952 -2.23472 0
M  V30 1667 H 152.787 5.18553 -3.02031 0
M  V30 1668 H 153.857 3.77224 -3.04681 0
M  V30 1669 N 155.201 0.870884 1.31352 0
M  V30 1670 C 156.447 0.482987 1.96965 0
M  V30 1671 C 156.78 -0.962462 1.68672 0
M  V30 1672 O 156.055 -1.6779 0.98371 0
M  V30 1673 C 156.338 0.741752 3.52378 0
M  V30 1674 C 156.191 2.2368 3.9024 0
M  V30 1675 C 157.51 0.208838 4.39604 0
M  V30 1676 H 154.629 0.176955 0.715441 0
M  V30 1677 H 157.271 1.09229 1.55464 0
M  V30 1678 H 155.421 0.223149 3.87859 0
M  V30 1679 H 157.093 2.82273 3.64856 0
M  V30 1680 H 155.336 2.70901 3.38814 0
M  V30 1681 H 156.007 2.3685 4.98604 0
M  V30 1682 H 158.483 0.652529 4.10952 0
M  V30 1683 H 157.359 0.419336 5.47296 0
M  V30 1684 H 157.62 -0.889275 4.33064 0
M  V30 1685 N 156.679 -1.44442 0.630414 0
M  V30 1686 C 157.642 -2.29107 -0.0652523 0
M  V30 1687 C 158.642 -1.41002 -0.772995 0
M  V30 1688 O 159.832 -1.62881 -0.617692 0
M  V30 1689 C 156.964 -3.22564 -1.10296 0
M  V30 1690 H 158.157 -2.92103 0.679401 0
M  V30 1691 H 155.71 -1.51343 0.390517 0
M  V30 1692 H 156.445 -2.64416 -1.87762 0
M  V30 1693 H 156.23 -3.87491 -0.59941 0
M  V30 1694 H 157.72 -3.86167 -1.5895 0
M  V30 1695 N 158.157 -0.370918 -1.53173 0
M  V30 1696 C 159.387 0.217389 -2.05453 0
M  V30 1697 C 159.795 1.42568 -1.24382 0
M  V30 1698 O 159.138 1.81571 -0.278839 0
M  V30 1699 C 159.2 0.669827 -3.53205 0
M  V30 1700 C 158.864 -0.4225 -4.55043 0
M  V30 1701 C 159.861 -1.27407 -5.04047 0
M  V30 1702 C 157.546 -0.58427 -4.9889 0
M  V30 1703 C 159.54 -2.27271 -5.95505 0
M  V30 1704 C 157.227 -1.58627 -5.90153 0
M  V30 1705 C 158.225 -2.42892 -6.38351 0
M  V30 1706 O 157.913 -3.41382 -7.27814 0
M  V30 1707 H 157.645 0.0408171 -0.674767 0
M  V30 1708 H 160.199 -0.5292 -1.98466 0
M  V30 1709 H 158.429 1.4681 -3.57748 0
M  V30 1710 H 160.118 1.18173 -3.88317 0
M  V30 1711 H 160.884 -1.16031 -4.70916 0
M  V30 1712 H 156.763 0.061851 -4.60959 0
M  V30 1713 H 160.307 -2.93079 -6.33049 0
M  V30 1714 H 156.204 -1.70048 -6.22699 0
M  V30 1715 H 156.972 -3.37173 -7.45826 0
M  V30 1716 N 159.635 1.57281 -0.100228 0
M  V30 1717 C 160.86 1.99302 0.573881 0
M  V30 1718 C 161.285 0.979059 1.60611 0
M  V30 1719 O 160.643 -0.0517803 1.81226 0
M  V30 1720 C 160.691 3.40274 1.19358 0
M  V30 1721 O 159.795 3.41676 2.30935 0
M  V30 1722 H 159.136 0.647944 0.145138 0
M  V30 1723 H 161.666 2.03779 -0.183156 0
M  V30 1724 H 161.676 3.78078 1.53365 0
M  V30 1725 H 160.351 4.13594 0.437385 0
M  V30 1726 H 158.928 3.15672 1.98509 0
M  V30 1727 N 161.113 -0.173488 1.56642 0
M  V30 1728 C 162.359 -0.887108 1.83035 0
M  V30 1729 C 162.714 -1.79965 0.680461 0
M  V30 1730 O 162.007 -1.88854 -0.323225 0
M  V30 1731 C 162.201 -1.72069 3.13252 0
M  V30 1732 C 162.03 -0.89035 4.40798 0
M  V30 1733 C 160.8 -0.566282 5.02117 0
M  V30 1734 C 162.998 -0.232921 5.13772 0
M  V30 1735 N 160.98 0.280427 6.13259 0
M  V30 1736 C 162.351 0.475046 6.18177 0
M  V30 1737 C 164.406 -0.150863 4.97671 0
M  V30 1738 C 163.109 1.25729 7.08227 0
M  V30 1739 C 165.135 0.618039 5.88162 0
M  V30 1740 C 164.497 1.31438 6.92029 0
M  V30 1741 H 160.596 -0.303303 0.720785 0
M  V30 1742 H 163.18 -0.154244 1.94088 0
M  V30 1743 H 161.351 -2.42499 3.03395 0
M  V30 1744 H 163.083 -2.37545 3.2765 0
M  V30 1745 H 159.838 -0.895852 4.6505 0
M  V30 1746 H 160.262 0.694027 6.73433 0
M  V30 1747 H 164.904 -0.674868 4.17379 0
M  V30 1748 H 162.622 1.79265 7.87966 0
M  V30 1749 H 166.208 0.683173 5.77775 0
M  V30 1750 H 165.088 1.89981 7.6084 0
M  V30 1751 N 162.591 -1.51276 -0.441967 0
M  V30 1752 C 163.839 -1.63392 -1.18943 0
M  V30 1753 C 164.16 -0.350159 -1.9183 0
M  V30 1754 O 163.43 0.633784 -1.85364 0
M  V30 1755 H 162.01 -0.602164 -0.442049 0
M  V30 1756 H 164.672 -1.88186 -0.507165 0
M  V30 1757 H 163.768 -2.45934 -1.92154 0
M  V30 1758 N 164.069 0.697108 -1.41344 0
M  V30 1759 C 165.002 1.82134 -1.37486 0
M  V30 1760 C 165.98 1.60784 -0.242351 0
M  V30 1761 O 167.164 1.83553 -0.429012 0
M  V30 1762 C 164.291 3.18788 -1.14421 0
M  V30 1763 C 163.337 3.58932 -2.3037 0
M  V30 1764 S 164.17 3.63916 -3.92843 0
M  V30 1765 C 165.326 5.03298 -3.72078 0
M  V30 1766 H 165.559 1.85129 -2.32625 0
M  V30 1767 H 163.092 0.865671 -1.2785 0
M  V30 1768 H 165.05 3.97677 -1.018 0
M  V30 1769 H 163.711 3.13404 -0.20905 0
M  V30 1770 H 162.904 4.58202 -2.09922 0
M  V30 1771 H 162.506 2.87347 -2.39391 0
M  V30 1772 H 164.798 5.90753 -3.31688 0
M  V30 1773 H 165.741 5.28788 -4.70945 0
M  V30 1774 H 166.149 4.74764 -3.05384 0
M  V30 1775 N 165.547 1.27147 0.931209 0
M  V30 1776 C 166.495 1.09398 2.05268 0
M  V30 1777 C 167.489 0.0180591 1.6939 0
M  V30 1778 O 168.695 0.17551 1.79142 0
M  V30 1779 H 165.07 0.336986 0.672268 0
M  V30 1780 H 167.041 2.04416 2.17386 0
M  V30 1781 C 165.79 0.75424 3.39421 0
M  V30 1782 H 165.113 1.57404 3.67511 0
M  V30 1783 H 166.553 0.669903 4.18674 0
M  V30 1784 C 165.012 -0.541197 3.32525 0
M  V30 1785 O 165.542 -1.57664 3.69466 0
M  V30 1786 N 163.748 -0.535517 2.85623 0
M  V30 1787 H 163.295 0.307511 2.55758 0
M  V30 1788 H 163.253 -1.40236 2.81392 0
M  V30 1789 N 167.025 -1.13721 1.09112 0
M  V30 1790 C 167.973 -2.21103 0.722219 0
M  V30 1791 C 168.967 -1.67147 -0.275374 0
M  V30 1792 O 170.173 -1.79477 -0.137176 0
M  V30 1793 H 166.548 -0.720445 0.215553 0
M  V30 1794 H 168.519 -2.49483 1.63709 0
M  V30 1795 C 167.268 -3.47352 0.15543 0
M  V30 1796 H 166.591 -3.89206 0.914246 0
M  V30 1797 H 168.031 -4.2395 -0.0647967 0
M  V30 1798 C 166.49 -3.1814 -1.10852 0
M  V30 1799 O 167.02 -3.36604 -2.19227 0
M  V30 1800 N 165.226 -2.72045 -1.02176 0
M  V30 1801 H 164.773 -2.57221 -0.139764 0
M  V30 1802 H 164.731 -2.52875 -1.8682 0
M  V30 1803 N 168.503 -0.877838 -1.30888 0
M  V30 1804 C 169.433 -0.35534 -2.3078 0
M  V30 1805 C 170.414 0.557994 -1.60687 0
M  V30 1806 O 171.599 0.473355 -1.88343 0
M  V30 1807 C 168.729 0.437221 -3.44537 0
M  V30 1808 C 167.683 -0.383715 -4.26276 0
M  V30 1809 C 167.009 0.535014 -5.32017 0
M  V30 1810 C 168.309 -1.62201 -4.96476 0
M  V30 1811 H 170.003 -1.19007 -2.74732 0
M  V30 1812 H 167.549 -0.573698 -1.32078 0
M  V30 1813 H 169.502 0.813334 -4.13477 0
M  V30 1814 H 168.226 1.30553 -2.99372 0
M  V30 1815 H 166.885 -0.741874 -3.59015 0
M  V30 1816 H 166.533 1.40083 -4.831 0
M  V30 1817 H 166.233 -0.0104211 -5.87599 0
M  V30 1818 H 167.757 0.907799 -6.03814 0
M  V30 1819 H 169.171 -1.31689 -5.5797 0
M  V30 1820 H 167.568 -2.10711 -5.61891 0
M  V30 1821 H 168.638 -2.37044 -4.23011 0
M  V30 1822 N 169.982 1.44106 -0.638065 0
M  V30 1823 C 170.929 2.30715 0.062701 0
M  V30 1824 C 171.899 1.43882 0.829883 0
M  V30 1825 O 173.084 1.72775 0.809532 0
M  V30 1826 C 170.224 3.29258 1.03358 0
M  V30 1827 C 169.337 4.31192 0.26409 0
M  V30 1828 C 168.472 5.16825 1.22741 0
M  V30 1829 C 167.511 6.10462 0.447475 0
M  V30 1830 N 166.648 6.8877 1.36161 0
M  V30 1831 H 171.488 2.90096 -0.681781 0
M  V30 1832 H 169.025 1.42925 -0.347988 0
M  V30 1833 H 170.983 3.84886 1.60992 0
M  V30 1834 H 169.613 2.71562 1.74511 0
M  V30 1835 H 168.665 3.77981 -0.428295 0
M  V30 1836 H 169.977 4.97619 -0.343052 0
M  V30 1837 H 169.131 5.77004 1.87487 0
M  V30 1838 H 167.87 4.50488 1.86847 0
M  V30 1839 H 166.875 5.49386 -0.213433 0
M  V30 1840 H 168.1 6.78837 -0.188968 0
M  V30 1841 H 166.046 6.25096 1.98975 0
M  V30 1842 H 165.963 7.51663 0.808656 0
M  V30 1843 H 167.231 7.53467 1.99769 0
M  V30 1844 N 171.46 0.379036 1.52974 0
M  V30 1845 C 172.423 -0.448865 2.24762 0
M  V30 1846 C 173.423 -0.998689 1.26027 0
M  V30 1847 O 174.613 -0.882313 1.50203 0
M  V30 1848 C 171.745 -1.62872 2.99476 0
M  V30 1849 H 172.938 0.179491 2.99362 0
M  V30 1850 H 170.491 0.13096 1.5575 0
M  V30 1851 H 171.226 -2.29479 2.29151 0
M  V30 1852 H 171.011 -1.24128 3.71934 0
M  V30 1853 H 172.501 -2.2151 3.5401 0
M  V30 1854 N 172.938 -1.57226 0.108567 0
M  V30 1855 C 174.186 -1.94448 -0.550853 0
M  V30 1856 C 174.507 -0.992074 -1.67878 0
M  V30 1857 O 173.777 -0.0465 -1.95845 0
M  V30 1858 H 172.357 -0.717897 -0.206479 0
M  V30 1859 H 175.019 -1.94112 0.175062 0
M  V30 1860 H 174.115 -2.97218 -0.952259 0
M  V30 1861 N 174.416 0.165178 -1.56732 0
M  V30 1862 C 175.693 0.908443 -1.73224 0
M  V30 1863 C 176.073 2.0013 -0.67165 0
M  V30 1864 O 175.421 2.26353 0.31253 0
M  V30 1865 C 175.631 1.46756 -3.16644 0
M  V30 1866 C 176.979 1.93809 -3.77787 0
M  V30 1867 O 178.003 1.56537 -3.1996 0
M  V30 1868 O 176.862 2.62486 -4.79336 0
M  V30 1869 H 173.956 0.428025 -0.707618 0
M  V30 1870 H 176.502 0.152526 -1.69013 0
M  V30 1871 H 175.274 0.68129 -3.85323 0
M  V30 1872 H 174.897 2.28749 -3.25207 0
M  V30 1873 N 175.894 1.51508 0.433938 0
M  V30 1874 C 176.804 1.75917 1.5521 0
M  V30 1875 C 177.82 0.643545 1.61662 0
M  V30 1876 O 178.996 0.926183 1.7884 0
M  V30 1877 C 176.061 1.88213 2.91164 0
M  V30 1878 C 175.122 3.12074 2.94802 0
M  V30 1879 C 174.355 3.23774 4.24271 0
M  V30 1880 O 174.578 2.4133 5.16833 0
M  V30 1881 O 173.512 4.16774 4.34262 0
M  V30 1882 H 177.338 2.70777 1.37527 0
M  V30 1883 H 174.923 1.36051 0.617293 0
M  V30 1884 H 176.805 1.98267 3.71845 0
M  V30 1885 H 175.48 0.965413 3.08968 0
M  V30 1886 H 174.387 3.07497 2.13065 0
M  V30 1887 H 175.72 4.03446 2.81943 0
M  V30 1888 N 177.372 -0.689602 1.41712 0
M  V30 1889 C 178.621 -1.44534 1.40686 0
M  V30 1890 C 178.934 -1.95588 0.0213352 0
M  V30 1891 O 180.14 -2.71271 -0.111534 0
M  V30 1892 C 178.596 -2.61387 2.47396 0
M  V30 1893 C 178.204 -2.17094 3.91885 0
M  V30 1894 C 179.948 -3.38986 2.55517 0
M  V30 1895 C 177.855 -3.3094 4.90135 0
M  V30 1896 H 176.785 -0.542925 0.52321 0
M  V30 1897 H 179.436 -0.748054 1.6756 0
M  V30 1898 H 177.818 -3.33412 2.13664 0
M  V30 1899 H 178.992 -1.52318 4.34897 0
M  V30 1900 H 177.307 -1.52473 3.8748 0
M  V30 1901 H 179.904 -4.23747 3.26102 0
M  V30 1902 H 180.247 -3.84578 1.59391 0
M  V30 1903 H 180.78 -2.74021 2.8837 0
M  V30 1904 H 177.519 -2.90355 5.87685 0
M  V30 1905 H 177.039 -3.94546 4.51767 0
M  V30 1906 H 178.718 -3.9663 5.11169 0
M  V30 1907 N 178.85 -1.27639 -0.924453 0
M  V30 1908 C 180.099 -1.13549 -1.66702 0
M  V30 1909 C 180.412 0.317487 -1.93006 0
M  V30 1910 O 181.618 0.579333 -2.65247 0
M  V30 1911 C 180.074 -1.98426 -3.00259 0
M  V30 1912 C 179.682 -3.484 -2.81641 0
M  V30 1913 C 181.426 -1.92993 -3.78092 0
M  V30 1914 C 179.333 -4.25464 -4.10773 0
M  V30 1915 H 178.263 -0.421351 -0.625283 0
M  V30 1916 H 180.914 -1.52085 -1.02676 0
M  V30 1917 H 179.296 -1.52736 -3.6536 0
M  V30 1918 H 180.47 -4.01973 -2.25287 0
M  V30 1919 H 178.785 -3.55245 -2.17232 0
M  V30 1920 H 181.382 -2.47844 -4.7379 0
M  V30 1921 H 181.725 -0.904281 -4.0636 0
M  V30 1922 H 182.258 -2.36595 -3.19793 0
M  V30 1923 H 178.997 -5.28566 -3.87683 0
M  V30 1924 H 178.517 -3.76667 -4.66779 0
M  V30 1925 H 180.196 -4.34812 -4.79111 0
M  V30 1926 N 180.328 1.1314 -1.09713 0
M  V30 1927 C 181.556 1.88321 -0.856898 0
M  V30 1928 C 181.971 1.79276 0.592073 0
M  V30 1929 O 181.328 1.16142 1.40774 0
M  V30 1930 C 181.379 3.37812 -1.28706 0
M  V30 1931 O 181.1 3.46627 -2.67921 0
M  V30 1932 C 182.601 4.29952 -1.07964 0
M  V30 1933 H 179.821 0.596094 -0.308079 0
M  V30 1934 H 182.365 1.43205 -1.45988 0
M  V30 1935 H 180.52 3.805 -0.727912 0
M  V30 1936 H 180.934 4.39579 -2.8613 0
M  V30 1937 H 182.408 5.33159 -1.42986 0
M  V30 1938 H 182.885 4.39196 -0.0176577 0
M  V30 1939 H 183.491 3.93036 -1.62489 0
M  V30 1940 N 181.806 0.884767 1.30421 0
M  V30 1941 C 183.034 0.518044 2.0031 0
M  V30 1942 C 183.449 -0.893408 1.66324 0
M  V30 1943 O 182.806 -1.5875 0.900262 0
M  V30 1944 C 182.857 0.682997 3.54989 0
M  V30 1945 O 182.578 2.03888 3.87764 0
M  V30 1946 C 184.079 0.31924 4.42149 0
M  V30 1947 H 181.299 0.200265 0.640418 0
M  V30 1948 H 183.843 1.19001 1.6631 0
M  V30 1949 H 181.998 0.0584052 3.87356 0
M  V30 1950 H 182.412 2.05735 4.82466 0
M  V30 1951 H 183.886 0.485555 5.4986 0
M  V30 1952 H 184.363 -0.742717 4.32875 0
M  V30 1953 H 184.969 0.920147 4.15227 0
M  V30 1954 N 183.284 -1.43765 0.645699 0
M  V30 1955 C 184.53 -2.02197 0.156271 0
M  V30 1956 C 184.863 -1.50776 -1.22393 0
M  V30 1957 O 184.138 -0.697771 -1.81553 0
M  V30 1958 C 184.421 -3.59749 0.158872 0
M  V30 1959 C 184.274 -4.21419 1.57245 0
M  V30 1960 C 185.593 -4.37149 -0.50879 0
M  V30 1961 H 182.712 -0.734694 0.0582602 0
M  V30 1962 H 185.354 -1.71157 0.824951 0
M  V30 1963 H 183.504 -3.86325 -0.410525 0
M  V30 1964 H 185.176 -4.059 2.19186 0
M  V30 1965 H 183.419 -3.78356 2.122 0
M  V30 1966 H 184.09 -5.30482 1.52619 0
M  V30 1967 H 186.566 -4.16093 -0.024412 0
M  V30 1968 H 185.442 -5.4683 -0.476213 0
M  V30 1969 H 185.703 -4.12839 -1.58165 0
M  V30 1970 N 184.763 -0.387143 -1.52771 0
M  V30 1971 C 185.696 0.493123 -2.22808 0
M  V30 1972 C 186.674 1.0658 -1.22798 0
M  V30 1973 O 187.858 1.11785 -1.51777 0
M  V30 1974 C 184.985 1.68238 -2.93962 0
M  V30 1975 C 184.031 1.23515 -4.08223 0
M  V30 1976 S 184.864 0.21848 -5.35054 0
M  V30 1977 C 186.02 1.41357 -6.09729 0
M  V30 1978 H 186.253 -0.101625 -2.97126 0
M  V30 1979 H 183.786 -0.171323 -1.53447 0
M  V30 1980 H 185.744 2.36443 -3.35567 0
M  V30 1981 H 184.405 2.24842 -2.19328 0
M  V30 1982 H 183.598 2.12304 -4.57103 0
M  V30 1983 H 183.2 0.632044 -3.68621 0
M  V30 1984 H 185.492 2.34101 -6.3577 0
M  V30 1985 H 186.435 0.965736 -7.01484 0
M  V30 1986 H 186.843 1.6294 -5.40473 0
M  V30 1987 N 186.241 1.57166 -0.116904 0
M  V30 1988 C 187.151 2.18745 0.847812 0
M  V30 1989 C 188.167 1.163 1.29423 0
M  V30 1990 O 189.343 1.48761 1.35765 0
M  V30 1991 C 186.408 2.77307 2.0809 0
M  V30 1992 C 185.469 3.94781 1.68661 0
M  V30 1993 C 184.702 4.50541 2.86091 0
M  V30 1994 O 184.925 4.05202 4.01456 0
M  V30 1995 O 183.859 5.41256 2.63298 0
M  V30 1996 H 187.685 3.01632 0.353778 0
M  V30 1997 H 185.27 1.49005 0.108599 0
M  V30 1998 H 187.152 3.14647 2.80313 0
M  V30 1999 H 185.827 1.97452 2.56504 0
M  V30 2000 H 184.734 3.62214 0.935518 0
M  V30 2001 H 186.067 4.76065 1.24991 0
M  V30 2002 N 187.719 -0.156864 1.56817 0
M  V30 2003 C 188.669 -1.19891 1.93934 0
M  V30 2004 C 189.653 -1.39061 0.809372 0
M  V30 2005 O 190.845 -1.40789 1.07273 0
M  V30 2006 C 187.974 -2.53493 2.31508 0
M  V30 2007 C 187.06 -2.37957 3.51052 0
M  V30 2008 N 187.451 -1.92158 4.67877 0
M  V30 2009 C 185.749 -2.68739 3.55943 0
M  V30 2010 C 186.45 -1.8943 5.49992 0
M  V30 2011 N 185.426 -2.32375 4.91429 0
M  V30 2012 H 189.228 -0.836746 2.81737 0
M  V30 2013 H 186.742 -0.365012 1.58245 0
M  V30 2014 H 188.739 -3.28811 2.56299 0
M  V30 2015 H 187.399 -2.905 1.45051 0
M  V30 2016 H 188.41 -1.62274 4.91821 0
M  V30 2017 H 185.087 -3.09687 2.80001 0
M  V30 2018 H 186.477 -1.55596 6.53636 0
M  V30 2019 N 189.197 -1.51736 -0.425897 0
M  V30 2020 C 190.147 -1.70258 -1.51645 0
M  V30 2021 C 191.131 -0.556488 -1.5097 0
M  V30 2022 O 192.323 -0.812879 -1.5723 0
M  V30 2023 C 189.452 -1.84143 -2.89735 0
M  V30 2024 C 188.538 -3.04572 -2.95122 0
M  V30 2025 N 188.929 -4.2756 -2.70233 0
M  V30 2026 C 187.227 -3.04061 -3.26286 0
M  V30 2027 C 187.928 -5.08908 -2.81757 0
M  V30 2028 N 186.904 -4.43797 -3.13919 0
M  V30 2029 H 190.706 -2.63004 -1.31172 0
M  V30 2030 H 188.22 -1.4954 -0.633375 0
M  V30 2031 H 190.217 -1.95525 -3.68206 0
M  V30 2032 H 188.877 -0.925857 -3.1122 0
M  V30 2033 H 189.888 -4.56315 -2.44943 0
M  V30 2034 H 186.565 -2.22179 -3.53473 0
M  V30 2035 H 187.955 -6.16843 -2.66372 0
M  V30 2036 N 190.675 0.682077 -1.42076 0
M  V30 2037 C 191.9 1.47558 -1.45744 0
M  V30 2038 C 192.325 1.87977 -0.0680981 0
M  V30 2039 O 191.683 1.55522 0.9318 0
M  V30 2040 C 191.731 2.70575 -2.38373 0
M  V30 2041 O 190.835 3.68573 -1.85007 0
M  V30 2042 H 190.176 0.443585 -0.494093 0
M  V30 2043 H 192.706 0.837238 -1.86686 0
M  V30 2044 H 192.716 3.18729 -2.54707 0
M  V30 2045 H 191.391 2.40495 -3.39315 0
M  V30 2046 H 189.968 3.2757 -1.78192 0
M  V30 2047 N 192.153 1.28127 0.917671 0
M  V30 2048 C 193.101 1.11569 2.04096 0
M  V30 2049 C 194.095 0.0360242 1.69362 0
M  V30 2050 O 195.301 0.194501 1.78946 0
M  V30 2051 H 191.676 0.344097 0.668656 0
M  V30 2052 H 193.647 2.06711 2.15205 0
M  V30 2053 C 192.396 0.790197 3.38602 0
M  V30 2054 H 191.719 1.61293 3.6582 0
M  V30 2055 H 193.159 0.714271 4.1794 0
M  V30 2056 C 191.618 -0.505897 3.3308 0
M  V30 2057 O 192.148 -1.53736 3.71117 0
M  V30 2058 N 190.354 -0.505193 2.86175 0
M  V30 2059 H 189.901 0.334621 2.55417 0
M  V30 2060 H 189.859 -1.37243 2.82863 0
M  V30 2061 N 193.631 -1.12557 1.10312 0
M  V30 2062 C 194.561 -2.20341 0.772798 0
M  V30 2063 C 195.542 -1.68198 -0.25365 0
M  V30 2064 O 196.727 -1.93831 -0.119699 0
M  V30 2065 C 193.857 -3.46709 0.202443 0
M  V30 2066 C 192.811 -4.11996 1.15943 0
M  V30 2067 C 192.137 -5.328 0.450345 0
M  V30 2068 C 193.437 -4.5828 2.50552 0
M  V30 2069 H 195.131 -2.48229 1.674 0
M  V30 2070 H 192.677 -1.19308 0.806326 0
M  V30 2071 H 194.63 -4.2138 -0.0407752 0
M  V30 2072 H 193.354 -3.18245 -0.734001 0
M  V30 2073 H 192.013 -3.39305 1.38808 0
M  V30 2074 H 191.661 -5.00602 -0.490531 0
M  V30 2075 H 191.361 -5.7743 1.08851 0
M  V30 2076 H 192.885 -6.10219 0.215642 0
M  V30 2077 H 194.299 -5.2433 2.31843 0
M  V30 2078 H 192.696 -5.13683 3.10242 0
M  V30 2079 H 193.766 -3.72329 3.10643 0
M  V30 2080 N 195.109 -0.891671 -1.2995 0
M  V30 2081 C 196.355 -0.514261 -1.96171 0
M  V30 2082 C 196.688 0.935506 -1.70182 0
M  V30 2083 O 195.963 1.66204 -1.01028 0
M  V30 2084 C 196.246 -0.797719 -3.51153 0
M  V30 2085 C 196.099 -2.2986 -3.86632 0
M  V30 2086 C 197.418 -0.278749 -4.39216 0
M  V30 2087 H 194.537 -0.188314 -0.712535 0
M  V30 2088 H 197.179 -1.11689 -1.53706 0
M  V30 2089 H 195.329 -0.284826 -3.87455 0
M  V30 2090 H 197.001 -2.88042 -3.60319 0
M  V30 2091 H 195.244 -2.76257 -3.34462 0
M  V30 2092 H 195.915 -2.44753 -4.94773 0
M  V30 2093 H 198.391 -0.717825 -4.09862 0
M  V30 2094 H 197.267 -0.506353 -5.46559 0
M  V30 2095 H 197.528 0.820266 -4.34424 0
M  V30 2096 N 196.587 1.43421 -0.653314 0
M  V30 2097 C 197.998 1.85065 -0.246537 0
M  V30 2098 C 198.349 1.54688 1.2069 0
M  V30 2099 O 197.474 0.995896 1.92122 0
M  V30 2100 C 198.069 3.35922 -0.440666 0
M  V30 2101 C 196.628 3.76297 -0.0882064 0
M  V30 2102 C 195.775 2.67147 -0.743484 0
M  V30 2103 H 198.726 1.33572 -0.856979 0
M  V30 2104 H 198.747 3.79204 0.313798 0
M  V30 2105 H 198.259 3.58 -1.49858 0
M  V30 2106 H 196.36 3.5983 0.96711 0
M  V30 2107 H 196.473 4.76338 -0.513738 0
M  V30 2108 H 194.837 2.54086 -0.176712 0
M  V30 2109 H 195.62 2.92053 -1.80443 0
M  V30 2110 N 198.065 0.39524 1.52563 0
M  V30 2111 C 199.311 -0.177763 2.02622 0
M  V30 2112 C 199.666 -1.43974 1.27629 0
M  V30 2113 O 198.959 -1.87995 0.36992 0
M  V30 2114 C 199.153 -0.493444 3.53977 0
M  V30 2115 C 198.982 0.736392 4.4363 0
M  V30 2116 C 197.752 1.25744 4.89404 0
M  V30 2117 C 199.95 1.61046 4.88435 0
M  V30 2118 N 197.932 2.44421 5.63145 0
M  V30 2119 C 199.303 2.64359 5.60816 0
M  V30 2120 C 201.358 1.62985 4.70468 0
M  V30 2121 C 200.061 3.69505 6.17137 0
M  V30 2122 C 202.087 2.67042 5.27677 0
M  V30 2123 C 201.449 3.69077 5.99968 0
M  V30 2124 H 197.548 -0.0269794 0.781534 0
M  V30 2125 H 200.132 0.546466 1.86874 0
M  V30 2126 H 198.303 -1.18672 3.69826 0
M  V30 2127 H 200.035 -1.05412 3.90731 0
M  V30 2128 H 196.79 0.817546 4.6649 0
M  V30 2129 H 197.214 3.04485 6.04663 0
M  V30 2130 H 201.856 0.854442 4.14076 0
M  V30 2131 H 199.574 4.4791 6.72608 0
M  V30 2132 H 203.16 2.69433 5.15652 0
M  V30 2133 H 202.04 4.48273 6.43444 0
M  V30 2134 N 199.544 -1.57102 0.125237 0
M  V30 2135 C 200.476 -2.12726 -0.853237 0
M  V30 2136 C 201.489 -1.07145 -1.22571 0
M  V30 2137 O 202.678 -1.34497 -1.17358 0
M  V30 2138 C 199.778 -2.61709 -2.15317 0
M  V30 2139 C 198.951 -3.91456 -1.95143 0
M  V30 2140 C 198.01 -4.25973 -3.08923 0
M  V30 2141 O 197.036 -4.94682 -2.81564 0
M  V30 2142 N 198.238 -3.83795 -4.35524 0
M  V30 2143 H 201.003 -2.97307 -0.377964 0
M  V30 2144 H 198.564 -1.61792 -0.0590011 0
M  V30 2145 H 200.556 -2.81826 -2.90441 0
M  V30 2146 H 199.126 -1.81974 -2.54174 0
M  V30 2147 H 198.346 -3.80185 -1.04177 0
M  V30 2148 H 199.634 -4.76283 -1.78976 0
M  V30 2149 H 199.032 -3.2839 -4.60626 0
M  V30 2150 H 197.589 -4.09008 -5.07499 0
M  V30 2151 N 201.022 0.148545 -1.56898 0
M  V30 2152 C 201.955 1.21293 -1.93296 0
M  V30 2153 C 202.933 1.41637 -0.798599 0
M  V30 2154 O 204.117 1.56275 -1.05406 0
M  V30 2155 C 201.244 2.5721 -2.20365 0
M  V30 2156 C 200.29 2.53469 -3.4301 0
M  V30 2157 S 201.123 2.00315 -4.96623 0
M  V30 2158 C 202.279 3.37964 -5.26812 0
M  V30 2159 H 202.512 0.902393 -2.83274 0
M  V30 2160 H 200.045 0.354094 -1.50285 0
M  V30 2161 H 202.003 3.35427 -2.36641 0
M  V30 2162 H 200.664 2.85454 -1.31054 0
M  V30 2163 H 199.857 3.53518 -3.59223 0
M  V30 2164 H 199.459 1.83359 -3.25968 0
M  V30 2165 H 201.751 4.34066 -5.20185 0
M  V30 2166 H 202.694 3.26606 -6.28279 0
M  V30 2167 H 203.102 3.35028 -4.54331 0
M  V30 2168 N 202.5 1.5196 0.417844 0
M  V30 2169 C 203.746 1.65836 1.16732 0
M  V30 2170 C 204.079 0.382881 1.90388 0
M  V30 2171 O 203.354 -0.618368 1.84408 0
M  V30 2172 C 203.637 2.87466 2.16876 0
M  V30 2173 C 203.49 4.25041 1.47174 0
M  V30 2174 C 204.809 3.04613 3.17646 0
M  V30 2175 H 201.928 0.603515 0.423011 0
M  V30 2176 H 204.57 1.84494 0.454105 0
M  V30 2177 H 202.72 2.71689 2.777 0
M  V30 2178 H 204.392 4.52527 0.895376 0
M  V30 2179 H 202.635 4.26843 0.773806 0
M  V30 2180 H 203.306 5.06176 2.20204 0
M  V30 2181 H 205.782 3.1923 2.66892 0
M  V30 2182 H 204.658 3.91247 3.8499 0
M  V30 2183 H 204.919 2.17541 3.84874 0
M  V30 2184 N 203.978 -0.674533 1.42435 0
M  V30 2185 C 204.941 -1.76986 1.45632 0
M  V30 2186 C 205.941 -1.5708 0.343871 0
M  V30 2187 O 207.131 -1.63367 0.604709 0
M  V30 2188 C 204.263 -3.15623 1.28822 0
M  V30 2189 H 205.456 -1.75539 2.43158 0
M  V30 2190 H 203.009 -0.884189 1.28887 0
M  V30 2191 H 203.744 -3.22696 0.322193 0
M  V30 2192 H 203.529 -3.31475 2.09444 0
M  V30 2193 H 205.019 -3.95537 1.33942 0
M  V30 2194 N 205.456 -1.28612 -0.910864 0
M  V30 2195 C 206.419 -1.12803 -1.9952 0
M  V30 2196 C 207.419 -0.0668264 -1.60661 0
M  V30 2197 O 208.609 -0.312847 -1.71368 0
M  V30 2198 C 205.741 -0.72254 -3.33155 0
M  V30 2199 H 206.934 -2.09109 -2.14973 0
M  V30 2200 H 204.487 -1.11639 -1.09391 0
M  V30 2201 H 205.222 0.241152 -3.23402 0
M  V30 2202 H 205.007 -1.48916 -3.62721 0
M  V30 2203 H 206.497 -0.634666 -4.12749 0
M  V30 2204 N 206.934 1.1197 -1.10907 0
M  V30 2205 C 207.881 2.17846 -0.762345 0
M  V30 2206 C 208.851 1.63995 0.263599 0
M  V30 2207 O 210.036 1.90273 0.141773 0
M  V30 2208 C 207.176 3.44487 -0.205651 0
M  V30 2209 C 206.289 4.12369 -1.28748 0
M  V30 2210 C 205.424 5.26674 -0.691919 0
M  V30 2211 C 204.463 5.86431 -1.75399 0
M  V30 2212 N 203.6 6.92142 -1.17833 0
M  V30 2213 H 208.44 2.46851 -1.6694 0
M  V30 2214 H 205.977 1.21188 -0.833776 0
M  V30 2215 H 207.935 4.16981 0.135037 0
M  V30 2216 H 206.565 3.15884 0.664613 0
M  V30 2217 H 205.617 3.38003 -1.74522 0
M  V30 2218 H 206.929 4.52844 -2.09125 0
M  V30 2219 H 206.083 6.05953 -0.300963 0
M  V30 2220 H 204.822 4.8749 0.143232 0
M  V30 2221 H 203.827 5.05835 -2.15432 0
M  V30 2222 H 205.052 6.27685 -2.59208 0
M  V30 2223 H 202.998 6.54985 -0.364725 0
M  V30 2224 H 202.915 7.31242 -1.91887 0
M  V30 2225 H 204.183 7.75237 -0.81408 0
M  V30 2226 N 208.412 0.89855 1.29475 0
M  V30 2227 C 209.64 0.539261 1.99749 0
M  V30 2228 C 210.055 -0.875716 1.67262 0
M  V30 2229 O 209.412 -1.57786 0.917049 0
M  V30 2230 C 209.463 0.72061 3.54245 0
M  V30 2231 O 209.184 2.07989 3.8558 0
M  V30 2232 C 210.685 0.366118 4.41786 0
M  V30 2233 H 207.905 0.207047 0.638258 0
M  V30 2234 H 210.449 1.20758 1.65039 0
M  V30 2235 H 208.604 0.0994862 3.87272 0
M  V30 2236 H 209.018 2.10841 4.80257 0
M  V30 2237 H 210.492 0.543848 5.49314 0
M  V30 2238 H 210.969 -0.696763 4.33638 0
M  V30 2239 H 211.575 0.964135 4.14228 0
M  V30 2240 N 209.89 -1.43072 0.660911 0
M  V30 2241 C 211.138 -2.01323 0.177094 0
M  V30 2242 C 211.459 -1.5245 -1.2159 0
M  V30 2243 O 210.729 -0.740322 -1.81373 0
M  V30 2244 H 209.309 -0.744382 0.0624804 0
M  V30 2245 H 211.971 -1.75179 0.854305 0
M  V30 2246 H 211.067 -3.11649 0.167641 0
M  V30 2247 N 211.368 -0.403325 -1.52352 0
M  V30 2248 C 212.331 0.413051 -2.25447 0
M  V30 2249 C 213.331 0.978513 -1.276 0
M  V30 2250 O 214.521 0.858305 -1.51587 0
M  V30 2251 C 211.653 1.58087 -3.02029 0
M  V30 2252 H 212.846 -0.227094 -2.99039 0
M  V30 2253 H 210.399 -0.155722 -1.55522 0
M  V30 2254 H 211.134 2.25804 -2.32772 0
M  V30 2255 H 210.919 1.18195 -3.73861 0
M  V30 2256 H 212.409 2.1585 -3.57489 0
M  V30 2257 N 212.846 1.57033 -0.133567 0
M  V30 2258 C 214.092 1.95976 0.521649 0
M  V30 2259 C 214.425 1.01779 1.65393 0
M  V30 2260 O 213.7 0.0576581 1.94415 0
M  V30 2261 C 213.983 3.44738 1.04057 0
M  V30 2262 C 213.836 4.49711 -0.0892897 0
M  V30 2263 C 215.155 3.95682 1.92675 0
M  V30 2264 H 212.274 0.712579 0.188149 0
M  V30 2265 H 214.916 1.88813 -0.212076 0
M  V30 2266 H 213.066 3.50973 1.66583 0
M  V30 2267 H 214.738 4.55565 -0.725152 0
M  V30 2268 H 212.981 4.27261 -0.750378 0
M  V30 2269 H 213.652 5.51099 0.315284 0
M  V30 2270 H 216.128 3.91841 1.39998 0
M  V30 2271 H 215.004 5.00262 2.25897 0
M  V30 2272 H 215.265 3.37239 2.85872 0
M  V30 2273 N 214.325 -0.140222 1.56975 0
M  V30 2274 C 215.255 -1.17456 2.01808 0
M  V30 2275 C 216.236 -1.44415 0.898794 0
M  V30 2276 O 217.421 -1.5522 1.16707 0
M  V30 2277 C 214.551 -2.50607 2.40444 0
M  V30 2278 C 213.505 -2.38155 3.55621 0
M  V30 2279 C 212.831 -3.76078 3.80091 0
M  V30 2280 C 214.131 -1.85991 4.88062 0
M  V30 2281 H 215.825 -0.801743 2.88466 0
M  V30 2282 H 213.371 -0.38422 1.38779 0
M  V30 2283 H 215.324 -3.23197 2.7041 0
M  V30 2284 H 214.048 -2.89737 1.50732 0
M  V30 2285 H 212.707 -1.68016 3.25832 0
M  V30 2286 H 212.355 -4.12656 2.87618 0
M  V30 2287 H 212.055 -3.68606 4.57606 0
M  V30 2288 H 213.579 -4.50206 4.12488 0
M  V30 2289 H 214.993 -2.4838 5.16701 0
M  V30 2290 H 213.39 -1.89393 5.6943 0
M  V30 2291 H 214.46 -0.816023 4.77984 0
M  V30 2292 N 215.803 -1.52179 -0.40978 0
M  V30 2293 C 216.75 -1.75475 -1.49924 0
M  V30 2294 C 217.72 -0.597175 -1.54994 0
M  V30 2295 O 218.905 -0.834655 -1.71575 0
M  V30 2296 C 216.045 -1.9107 -2.87378 0
M  V30 2297 C 215.158 -3.18717 -2.91622 0
M  V30 2298 C 214.293 -3.24747 -4.20372 0
M  V30 2299 C 213.332 -4.46598 -4.18588 0
M  V30 2300 N 212.469 -4.50025 -5.38908 0
M  V30 2301 H 217.309 -2.68458 -1.29361 0
M  V30 2302 H 214.846 -1.33024 -0.627934 0
M  V30 2303 H 216.804 -1.98096 -3.6717 0
M  V30 2304 H 215.434 -1.01469 -3.06437 0
M  V30 2305 H 214.486 -3.20866 -2.04326 0
M  V30 2306 H 215.798 -4.08544 -2.86169 0
M  V30 2307 H 214.952 -3.30841 -5.08556 0
M  V30 2308 H 213.691 -2.32857 -4.28519 0
M  V30 2309 H 212.696 -4.40652 -3.28794 0
M  V30 2310 H 213.921 -5.39783 -4.12081 0
M  V30 2311 H 211.867 -3.61017 -5.47725 0
M  V30 2312 H 211.784 -5.33697 -5.35447 0
M  V30 2313 H 213.052 -4.60347 -6.29048 0
M  V30 2314 N 217.281 0.66697 -1.42791 0
M  V30 2315 C 218.528 1.42699 -1.43678 0
M  V30 2316 C 218.856 1.94419 -0.0560425 0
M  V30 2317 O 218.111 1.7182 0.936831 0
M  V30 2318 C 218.41 2.6349 -2.4147 0
M  V30 2319 C 218.076 2.30267 -3.8767 0
M  V30 2320 C 216.738 2.20918 -4.27491 0
M  V30 2321 C 219.09 2.03435 -4.79858 0
M  V30 2322 C 216.418 1.82873 -5.57471 0
M  V30 2323 C 218.77 1.66892 -6.10188 0
M  V30 2324 C 217.434 1.56058 -6.49001 0
M  V30 2325 H 216.704 0.522171 -0.525755 0
M  V30 2326 H 219.351 0.759785 -1.75783 0
M  V30 2327 H 217.656 3.35279 -2.0272 0
M  V30 2328 H 219.353 3.21684 -2.39417 0
M  V30 2329 H 215.943 2.38449 -3.56146 0
M  V30 2330 H 220.127 2.09586 -4.49875 0
M  V30 2331 H 215.383 1.7306 -5.86396 0
M  V30 2332 H 219.557 1.45157 -6.81104 0
M  V30 2333 H 217.184 1.26348 -7.49627 0
M  V30 2334 N 218.759 1.29093 0.90403 0
M  V30 2335 C 220.005 1.16986 1.65656 0
M  V30 2336 C 220.338 -0.278925 1.92186 0
M  V30 2337 O 219.613 -1.2019 1.5292 0
M  V30 2338 C 219.896 1.97908 3.0084 0
M  V30 2339 C 219.749 3.50903 2.81403 0
M  V30 2340 C 221.068 1.80208 4.01513 0
M  V30 2341 H 218.187 0.426346 0.601164 0
M  V30 2342 H 220.829 1.58518 1.04747 0
M  V30 2343 H 218.979 1.62616 3.52829 0
M  V30 2344 H 220.651 3.96153 2.36348 0
M  V30 2345 H 218.894 3.76045 2.1627 0
M  V30 2346 H 219.565 4.02791 3.77443 0
M  V30 2347 H 222.041 2.11025 3.58619 0
M  V30 2348 H 220.917 2.39184 4.94047 0
M  V30 2349 H 221.178 0.756119 4.35586 0
M  V30 2350 N 220.237 -1.11381 1.11499 0
M  V30 2351 C 221.169 -2.17207 0.731704 0
M  V30 2352 C 222.182 -1.61066 -0.236957 0
M  V30 2353 O 223.371 -1.78489 -0.0197591 0
M  V30 2354 C 220.471 -3.38846 0.0607624 0
M  V30 2355 C 219.644 -4.24451 1.0564 0
M  V30 2356 C 218.703 -5.24562 0.4149 0
M  V30 2357 O 217.729 -5.59071 1.069 0
M  V30 2358 N 218.931 -5.74651 -0.821943 0
M  V30 2359 H 221.696 -2.50699 1.64225 0
M  V30 2360 H 219.257 -1.26908 1.00529 0
M  V30 2361 H 221.249 -4.02911 -0.380139 0
M  V30 2362 H 219.819 -3.03411 -0.752376 0
M  V30 2363 H 219.039 -3.56833 1.67524 0
M  V30 2364 H 220.327 -4.78486 1.72998 0
M  V30 2365 H 219.725 -5.48797 -1.37252 0
M  V30 2366 H 218.282 -6.40549 -1.20582 0
M  V30 2367 N 221.715 -0.905404 -1.28997 0
M  V30 2368 C 222.645 -0.404212 -2.29975 0
M  V30 2369 C 223.626 0.523784 -1.61835 0
M  V30 2370 O 224.811 0.433298 -1.89304 0
M  V30 2371 C 221.941 0.364042 -3.45387 0
M  V30 2372 C 220.895 -0.474048 -4.25367 0
M  V30 2373 C 220.221 0.422045 -5.33032 0
M  V30 2374 C 221.521 -1.72696 -4.92923 0
M  V30 2375 H 223.215 -1.24807 -2.72146 0
M  V30 2376 H 220.761 -0.601585 -1.30832 0
M  V30 2377 H 222.714 0.725447 -4.15109 0
M  V30 2378 H 221.438 1.24174 -3.02074 0
M  V30 2379 H 220.097 -0.81786 -3.57361 0
M  V30 2380 H 219.745 1.29804 -4.85963 0
M  V30 2381 H 219.445 -0.135057 -5.87445 0
M  V30 2382 H 220.969 0.779517 -6.05604 0
M  V30 2383 H 222.383 -1.43495 -5.55051 0
M  V30 2384 H 220.78 -2.22582 -5.57295 0
M  V30 2385 H 221.85 -2.45964 -4.17887 0
M  V30 2386 N 223.193 1.4272 -0.668489 0
M  V30 2387 C 224.47 1.95248 -0.117373 0
M  V30 2388 C 224.85 1.60919 1.36632 0
M  V30 2389 O 224.198 0.902095 2.09939 0
M  V30 2390 C 224.408 3.46927 -0.379806 0
M  V30 2391 C 225.756 4.23588 -0.292923 0
M  V30 2392 O 226.78 3.5482 -0.313204 0
M  V30 2393 O 225.639 5.46017 -0.229697 0
M  V30 2394 H 222.733 0.827 0.00079152 0
M  V30 2395 H 225.279 1.52581 -0.742783 0
M  V30 2396 H 224.051 3.65096 -1.40786 0
M  V30 2397 H 223.674 3.96627 0.277923 0
M  V30 2398 N 224.671 0.411399 1.52136 0
M  V30 2399 C 225.581 -0.419774 2.30814 0
M  V30 2400 C 226.597 -1.0515 1.38634 0
M  V30 2401 O 227.773 -1.05252 1.71709 0
M  V30 2402 C 224.838 -1.52019 3.11594 0
M  V30 2403 C 223.899 -0.91129 4.19516 0
M  V30 2404 C 223.132 -1.95927 4.96436 0
M  V30 2405 O 223.355 -3.17775 4.73683 0
M  V30 2406 O 222.289 -1.56423 5.81219 0
M  V30 2407 H 226.115 0.221805 3.02889 0
M  V30 2408 H 223.7 0.174547 1.48377 0
M  V30 2409 H 225.582 -2.15898 3.61892 0
M  V30 2410 H 224.257 -2.14633 2.42311 0
M  V30 2411 H 223.164 -0.235157 3.7336 0
M  V30 2412 H 224.497 -0.32904 4.91099 0
M  V30 2413 N 226.149 -1.5696 0.141893 0
M  V30 2414 C 227.081 -2.13619 -0.830627 0
M  V30 2415 C 228.094 -1.08439 -1.21428 0
M  V30 2416 O 229.283 -1.35734 -1.15925 0
M  V30 2417 C 226.383 -2.63978 -2.12529 0
M  V30 2418 C 225.556 -3.93504 -1.9098 0
M  V30 2419 C 224.615 -4.29225 -3.04388 0
M  V30 2420 O 223.641 -4.97641 -2.76302 0
M  V30 2421 N 224.843 -3.88393 -4.31429 0
M  V30 2422 H 227.608 -2.97691 -0.34641 0
M  V30 2423 H 225.169 -1.61846 -0.0418375 0
M  V30 2424 H 227.161 -2.84891 -2.87436 0
M  V30 2425 H 225.731 -1.84659 -2.52229 0
M  V30 2426 H 224.951 -3.81269 -1.00139 0
M  V30 2427 H 226.239 -4.78154 -1.73914 0
M  V30 2428 H 225.637 -3.33257 -4.57117 0
M  V30 2429 H 224.194 -4.14368 -5.03133 0
M  V30 2430 N 227.627 0.131896 -1.57047 0
M  V30 2431 C 228.537 1.1815 -2.02676 0
M  V30 2432 C 229.553 1.46113 -0.944824 0
M  V30 2433 O 230.729 1.57485 -1.25541 0
M  V30 2434 C 227.794 2.49139 -2.41103 0
M  V30 2435 C 226.855 2.28688 -3.63318 0
M  V30 2436 C 226.088 3.53431 -3.99903 0
M  V30 2437 O 226.311 4.60223 -3.36973 0
M  V30 2438 O 225.245 3.45198 -4.93074 0
M  V30 2439 H 229.071 0.824069 -2.92306 0
M  V30 2440 H 226.656 0.341745 -1.45439 0
M  V30 2441 H 228.538 3.26338 -2.66611 0
M  V30 2442 H 227.213 2.84382 -1.54624 0
M  V30 2443 H 226.12 1.4939 -3.42977 0
M  V30 2444 H 227.453 1.98355 -4.50462 0
M  V30 2445 N 229.106 1.52395 0.401703 0
M  V30 2446 C 230.331 1.70972 1.17403 0
M  V30 2447 C 230.756 0.421615 1.83314 0
M  V30 2448 O 230.114 -0.621564 1.70312 0
M  V30 2449 C 230.162 2.85151 2.20728 0
M  V30 2450 O 229.266 2.51238 3.27037 0
M  V30 2451 H 228.607 0.568927 0.342372 0
M  V30 2452 H 231.137 1.99131 0.469891 0
M  V30 2453 H 231.147 3.10279 2.64936 0
M  V30 2454 H 229.822 3.78603 1.7214 0
M  V30 2455 H 228.399 2.36808 2.88057 0
M  V30 2456 N 230.584 -0.659388 1.43143 0
M  V30 2457 C 231.831 -1.41935 1.44433 0
M  V30 2458 C 232.159 -1.94387 0.0663522 0
M  V30 2459 O 231.414 -1.72314 -0.927706 0
M  V30 2460 C 231.713 -2.62206 2.42864 0
M  V30 2461 C 231.379 -2.28208 3.88886 0
M  V30 2462 C 230.041 -2.18647 4.28657 0
M  V30 2463 C 232.393 -2.00887 4.8093 0
M  V30 2464 C 229.721 -1.79914 5.58433 0
M  V30 2465 C 232.073 -1.63653 6.11065 0
M  V30 2466 C 230.737 -1.52614 6.49819 0
M  V30 2467 H 230.007 -0.519376 0.528517 0
M  V30 2468 H 232.654 -0.750453 1.76183 0
M  V30 2469 H 230.959 -3.34199 2.04495 0
M  V30 2470 H 232.656 -3.2041 2.41119 0
M  V30 2471 H 229.246 -2.36557 3.57406 0
M  V30 2472 H 233.43 -2.07198 4.5098 0
M  V30 2473 H 228.686 -1.69948 5.87305 0
M  V30 2474 H 232.86 -1.41543 6.81864 0
M  V30 2475 H 230.487 -1.22371 7.50286 0
M  V30 2476 N 232.062 -1.29571 -0.897171 0
M  V30 2477 C 233.339 -1.08365 -1.62839 0
M  V30 2478 C 233.719 0.371331 -2.07808 0
M  V30 2479 O 233.067 1.3606 -1.83576 0
M  V30 2480 C 233.277 -2.0735 -2.80726 0
M  V30 2481 C 234.625 -2.38406 -3.51351 0
M  V30 2482 O 235.649 -2.05564 -2.90898 0
M  V30 2483 O 234.508 -2.9453 -4.60341 0
M  V30 2484 H 231.602 -0.415345 -0.715134 0
M  V30 2485 H 234.148 -1.40952 -0.945018 0
M  V30 2486 H 232.92 -3.05339 -2.44711 0
M  V30 2487 H 232.543 -1.75507 -3.56767 0
M  V30 2488 N 233.54 1.10788 -1.12088 0
M  V30 2489 C 234.47 2.19083 -0.807755 0
M  V30 2490 C 235.451 1.6858 0.226859 0
M  V30 2491 O 236.636 1.93997 0.0888475 0
M  V30 2492 C 233.766 3.46344 -0.257576 0
M  V30 2493 C 232.72 4.101 -1.22483 0
M  V30 2494 C 232.046 5.32016 -0.535052 0
M  V30 2495 C 233.346 4.54236 -2.57811 0
M  V30 2496 H 235.04 2.45534 -1.71328 0
M  V30 2497 H 232.586 1.1801 -0.825205 0
M  V30 2498 H 234.539 4.21392 -0.0262679 0
M  V30 2499 H 233.263 3.19373 0.683278 0
M  V30 2500 H 231.922 3.37054 -1.44189 0
M  V30 2501 H 231.57 5.01319 0.410827 0
M  V30 2502 H 231.27 5.75625 -1.18024 0
M  V30 2503 H 232.794 6.09799 -0.312695 0
M  V30 2504 H 234.208 5.20575 -2.40155 0
M  V30 2505 H 232.605 5.08682 -3.18375 0
M  V30 2506 H 233.675 3.6734 -3.16528 0
M  V30 2507 N 235.018 0.912232 1.28515 0
M  V30 2508 C 235.928 0.404506 2.31086 0
M  V30 2509 C 236.944 -0.50707 1.66448 0
M  V30 2510 O 238.12 -0.393624 1.97516 0
M  V30 2511 C 235.185 -0.348572 3.44943 0
M  V30 2512 C 234.246 0.59604 4.25142 0
M  V30 2513 C 233.479 -0.121194 5.33562 0
M  V30 2514 O 233.702 -1.34317 5.5436 0
M  V30 2515 O 232.636 0.542716 5.99448 0
M  V30 2516 H 236.462 1.25579 2.76521 0
M  V30 2517 H 234.047 0.676998 1.33181 0
M  V30 2518 H 235.929 -0.77395 4.14232 0
M  V30 2519 H 234.604 -1.17571 3.01594 0
M  V30 2520 H 233.511 1.07079 3.58448 0
M  V30 2521 H 234.844 1.38995 4.72167 0
M  V30 2522 N 236.496 -1.42363 0.676048 0
M  V30 2523 C 237.446 -2.27987 -0.0242903 0
M  V30 2524 C 238.43 -1.41153 -0.772319 0
M  V30 2525 O 239.622 -1.64592 -0.651025 0
M  V30 2526 C 236.751 -3.29195 -0.973953 0
M  V30 2527 C 235.837 -4.23512 -0.223202 0
M  V30 2528 N 236.228 -4.99865 0.772589 0
M  V30 2529 C 234.526 -4.43606 -0.461469 0
M  V30 2530 C 235.227 -5.68757 1.22027 0
M  V30 2531 N 234.203 -5.40811 0.549975 0
M  V30 2532 H 238.005 -2.84445 0.73949 0
M  V30 2533 H 235.519 -1.54341 0.50522 0
M  V30 2534 H 237.516 -3.89339 -1.49067 0
M  V30 2535 H 236.176 -2.74298 -1.73755 0
M  V30 2536 H 237.187 -5.04921 1.15217 0
M  V30 2537 H 233.864 -3.99749 -1.20446 0
M  V30 2538 H 235.254 -6.40007 2.0455 0
M  V30 2539 N 237.974 -0.419461 -1.51915 0
M  V30 2540 C 239.221 0.152939 -2.01922 0
M  V30 2541 C 239.549 1.4426 -1.30458 0
M  V30 2542 O 238.804 1.91514 -0.402593 0
M  V30 2543 C 239.103 0.437067 -3.54717 0
M  V30 2544 C 238.769 -0.764632 -4.44369 0
M  V30 2545 C 237.431 -1.09423 -4.68594 0
M  V30 2546 C 239.783 -1.56713 -4.97082 0
M  V30 2547 C 237.111 -2.22732 -5.42777 0
M  V30 2548 C 239.463 -2.69107 -5.72507 0
M  V30 2549 C 238.127 -3.02541 -5.95 0
M  V30 2550 H 237.397 0.0559644 -0.738884 0
M  V30 2551 H 240.044 -0.562998 -1.83037 0
M  V30 2552 H 238.349 1.23469 -3.71837 0
M  V30 2553 H 240.046 0.893083 -3.90928 0
M  V30 2554 H 236.636 -0.497775 -4.257 0
M  V30 2555 H 240.82 -1.32571 -4.78266 0
M  V30 2556 H 236.076 -2.48971 -5.58411 0
M  V30 2557 H 240.25 -3.31671 -6.12346 0
M  V30 2558 H 237.877 -3.90457 -6.52264 0
M  V30 2559 N 239.452 1.56882 -0.150215 0
M  V30 2560 C 240.399 2.16922 0.788244 0
M  V30 2561 C 241.369 1.10303 1.24187 0
M  V30 2562 O 242.554 1.38359 1.31383 0
M  V30 2563 C 239.694 2.79754 2.02068 0
M  V30 2564 C 238.807 4.00775 1.61257 0
M  V30 2565 C 237.942 4.51595 2.79705 0
M  V30 2566 C 236.981 5.65074 2.35282 0
M  V30 2567 N 236.118 6.10499 3.4675 0
M  V30 2568 H 240.958 2.96779 0.269444 0
M  V30 2569 H 238.495 1.46599 0.12128 0
M  V30 2570 H 240.453 3.14329 2.74323 0
M  V30 2571 H 239.083 2.02536 2.51354 0
M  V30 2572 H 238.135 3.72158 0.787553 0
M  V30 2573 H 239.447 4.82978 1.24633 0
M  V30 2574 H 238.601 4.88242 3.60145 0
M  V30 2575 H 237.34 3.68406 3.19576 0
M  V30 2576 H 236.345 5.28 1.53283 0
M  V30 2577 H 237.57 6.50052 1.96493 0
M  V30 2578 H 235.516 5.30243 3.86236 0
M  V30 2579 H 235.433 6.87637 3.14152 0
M  V30 2580 H 236.701 6.51791 4.27537 0
M  V30 2581 N 240.93 -0.123565 1.57115 0
M  V30 2582 C 242.158 -0.846461 1.88793 0
M  V30 2583 C 242.573 -1.73652 0.740976 0
M  V30 2584 O 241.93 -1.80207 -0.288393 0
M  V30 2585 C 241.981 -1.6837 3.19897 0
M  V30 2586 O 241.702 -0.829477 4.30176 0
M  V30 2587 C 243.203 -2.51214 3.65248 0
M  V30 2588 H 240.423 -0.243573 0.625231 0
M  V30 2589 H 242.967 -0.109324 2.04208 0
M  V30 2590 H 241.122 -2.37364 3.06165 0
M  V30 2591 H 241.536 -1.40651 5.0529 0
M  V30 2592 H 243.01 -3.05497 4.59756 0
M  V30 2593 H 243.487 -3.28359 2.9168 0
M  V30 2594 H 244.093 -1.8747 3.81752 0
M  V30 2595 N 242.408 -1.52605 -0.393616 0
M  V30 2596 C 243.338 -1.80022 -1.48709 0
M  V30 2597 C 244.319 -0.651995 -1.57108 0
M  V30 2598 O 245.504 -0.89913 -1.72132 0
M  V30 2599 C 242.634 -1.96492 -2.86371 0
M  V30 2600 C 241.588 -3.12161 -2.92813 0
M  V30 2601 C 240.914 -3.13877 -4.3288 0
M  V30 2602 C 242.214 -4.51322 -2.6288 0
M  V30 2603 H 243.908 -2.71589 -1.26015 0
M  V30 2604 H 241.454 -1.30684 -0.604778 0
M  V30 2605 H 243.407 -2.14255 -3.62867 0
M  V30 2606 H 242.131 -1.01611 -3.10391 0
M  V30 2607 H 240.79 -2.94173 -2.18764 0
M  V30 2608 H 240.438 -2.16687 -4.53933 0
M  V30 2609 H 240.138 -3.91576 -4.38112 0
M  V30 2610 H 241.662 -3.33789 -5.1129 0
M  V30 2611 H 243.076 -4.69435 -3.29096 0
M  V30 2612 H 241.473 -5.31053 -2.79468 0
M  V30 2613 H 242.543 -4.58353 -1.58242 0
M  V30 2614 N 243.887 0.651787 -1.4349 0
M  V30 2615 C 244.817 1.77621 -1.51569 0
M  V30 2616 C 245.798 1.66022 -0.370253 0
M  V30 2617 O 246.983 1.85095 -0.587658 0
M  V30 2618 C 244.113 3.16056 -1.43966 0
M  V30 2619 C 243.067 3.4242 -2.56774 0
M  V30 2620 C 242.393 4.8067 -2.34223 0
M  V30 2621 C 243.693 3.37023 -3.99015 0
M  V30 2622 H 245.387 1.71117 -2.45681 0
M  V30 2623 H 242.933 0.821825 -1.18246 0
M  V30 2624 H 244.886 3.94472 -1.48221 0
M  V30 2625 H 243.61 3.23293 -0.463586 0
M  V30 2626 H 242.269 2.66375 -2.51873 0
M  V30 2627 H 241.917 4.84585 -1.34856 0
M  V30 2628 H 241.617 4.9927 -3.09844 0
M  V30 2629 H 243.141 5.61342 -2.40265 0
M  V30 2630 H 244.555 4.05374 -4.05395 0
M  V30 2631 H 242.952 3.67159 -4.74673 0
M  V30 2632 H 244.022 2.3518 -4.2405 0
M  V30 2633 N 245.365 1.30045 0.890287 0
M  V30 2634 C 246.59 1.21598 1.68014 0
M  V30 2635 C 247.015 -0.218678 1.86825 0
M  V30 2636 O 246.373 -1.15756 1.39536 0
M  V30 2637 C 246.421 1.94434 3.03691 0
M  V30 2638 O 245.525 1.2678 3.92429 0
M  V30 2639 H 244.866 0.420856 0.513592 0
M  V30 2640 H 247.396 1.71775 1.11151 0
M  V30 2641 H 247.406 2.03251 3.5377 0
M  V30 2642 H 246.081 2.98777 2.89318 0
M  V30 2643 H 244.658 1.26282 3.50866 0
M  V30 2644 N 246.843 -1.10192 1.12674 0
M  V30 2645 C 247.753 -2.20172 0.810026 0
M  V30 2646 C 248.769 -1.72821 -0.202188 0
M  V30 2647 O 249.945 -2.01369 -0.0351691 0
M  V30 2648 C 247.01 -3.45631 0.272007 0
M  V30 2649 C 246.071 -4.07704 1.34447 0
M  V30 2650 C 245.304 -5.27175 0.832029 0
M  V30 2651 O 245.527 -5.69425 -0.333284 0
M  V30 2652 O 244.461 -5.80168 1.60277 0
M  V30 2653 H 248.287 -2.49701 1.72867 0
M  V30 2654 H 245.872 -1.18977 0.903597 0
M  V30 2655 H 247.754 -4.21394 -0.0230219 0
M  V30 2656 H 246.429 -3.17723 -0.619164 0
M  V30 2657 H 245.336 -3.33614 1.6927 0
M  V30 2658 H 246.669 -4.3982 2.2095 0
M  V30 2659 N 248.321 -0.919034 -1.28029 0
M  V30 2660 C 249.268 -0.410005 -2.27129 0
M  V30 2661 C 250.238 0.518405 -1.57803 0
M  V30 2662 O 251.423 0.439451 -1.8567 0
M  V30 2663 C 248.563 0.339054 -3.4343 0
M  V30 2664 C 247.676 -0.622468 -4.27492 0
M  V30 2665 C 246.811 0.145567 -5.31001 0
M  V30 2666 C 245.85 -0.809226 -6.06727 0
M  V30 2667 N 244.987 -0.0743728 -7.02061 0
M  V30 2668 H 249.827 -1.26011 -2.70047 0
M  V30 2669 H 247.364 -0.632663 -1.328 0
M  V30 2670 H 249.322 0.789586 -4.0966 0
M  V30 2671 H 247.952 1.15346 -3.01488 0
M  V30 2672 H 247.004 -1.19153 -3.61257 0
M  V30 2673 H 248.316 -1.35252 -4.80113 0
M  V30 2674 H 247.47 0.656417 -6.03139 0
M  V30 2675 H 246.209 0.908643 -4.79161 0
M  V30 2676 H 245.214 -1.3314 -5.33436 0
M  V30 2677 H 246.439 -1.57194 -6.60656 0
M  V30 2678 H 244.385 0.670616 -6.52563 0
M  V30 2679 H 244.302 -0.744157 -7.52329 0
M  V30 2680 H 245.57 0.416109 -7.78389 0
M  V30 2681 N 249.799 1.42003 -0.683588 0
M  V30 2682 C 251.027 2.05746 -0.218182 0
M  V30 2683 C 251.442 1.51396 1.12804 0
M  V30 2684 O 250.799 0.657303 1.70252 0
M  V30 2685 C 250.85 3.61171 -0.154131 0
M  V30 2686 O 250.571 4.13508 -1.44716 0
M  V30 2687 C 252.072 4.42042 0.333713 0
M  V30 2688 H 249.292 0.662888 -0.10402 0
M  V30 2689 H 251.836 1.81987 -0.9328 0
M  V30 2690 H 249.991 3.84012 0.511231 0
M  V30 2691 H 250.405 5.07453 -1.32632 0
M  V30 2692 H 251.879 5.51028 0.327423 0
M  V30 2693 H 252.356 4.17269 1.37053 0
M  V30 2694 H 252.962 4.24239 -0.300222 0
M  V30 2695 N 251.277 0.427512 1.51691 0
M  V30 2696 C 252.224 -0.388867 2.275 0
M  V30 2697 C 253.194 -1.02532 1.30677 0
M  V30 2698 O 254.379 -1.0461 1.59566 0
M  V30 2699 C 251.519 -1.48954 3.11298 0
M  V30 2700 C 250.632 -0.872194 4.23104 0
M  V30 2701 C 249.767 -1.94709 4.94228 0
M  V30 2702 C 248.806 -1.30766 5.97969 0
M  V30 2703 N 247.943 -2.32349 6.62539 0
M  V30 2704 H 252.783 0.263997 2.96828 0
M  V30 2705 H 250.32 0.142033 1.46413 0
M  V30 2706 H 252.278 -2.13887 3.58201 0
M  V30 2707 H 250.908 -2.11217 2.44105 0
M  V30 2708 H 249.96 -0.111419 3.80237 0
M  V30 2709 H 251.272 -0.365264 4.97461 0
M  V30 2710 H 250.426 -2.67327 5.44629 0
M  V30 2711 H 249.165 -2.48773 4.1948 0
M  V30 2712 H 248.17 -0.566902 5.4687 0
M  V30 2713 H 249.395 -0.774483 6.74669 0
M  V30 2714 H 247.341 -2.85511 5.90609 0
M  V30 2715 H 247.258 -1.8652 7.3263 0
M  V30 2716 H 248.526 -3.04481 7.17574 0
M  V30 2717 N 252.755 -1.56801 0.158532 0
M  V30 2718 C 253.685 -2.20347 -0.772609 0
M  V30 2719 C 254.666 -1.15518 -1.24859 0
M  V30 2720 O 255.851 -1.43902 -1.30406 0
M  V30 2721 C 252.981 -2.83417 -2.00729 0
M  V30 2722 C 251.935 -3.94174 -1.66765 0
M  V30 2723 C 251.261 -4.44233 -2.97592 0
M  V30 2724 C 252.561 -5.14392 -0.905447 0
M  V30 2725 H 254.255 -2.98413 -0.242959 0
M  V30 2726 H 251.801 -1.43537 -0.115419 0
M  V30 2727 H 253.754 -3.26543 -2.6636 0
M  V30 2728 H 252.478 -2.02701 -2.56086 0
M  V30 2729 H 251.137 -3.51684 -1.03508 0
M  V30 2730 H 250.785 -3.60325 -3.50963 0
M  V30 2731 H 250.485 -5.18945 -2.75626 0
M  V30 2732 H 252.009 -4.90037 -3.64274 0
M  V30 2733 H 253.423 -5.5429 -1.46408 0
M  V30 2734 H 251.82 -5.9494 -0.7853 0
M  V30 2735 H 252.89 -4.84795 0.100668 0
M  V30 2736 N 254.233 0.115231 -1.57178 0
M  V30 2737 C 255.479 0.82357 -1.85325 0
M  V30 2738 C 255.812 1.79349 -0.744814 0
M  V30 2739 O 255.087 1.92899 0.249024 0
M  V30 2740 C 255.37 1.57014 -3.24066 0
M  V30 2741 C 255.223 0.619565 -4.45513 0
M  V30 2742 C 256.542 2.52545 -3.60429 0
M  V30 2743 H 253.661 0.297948 -0.674089 0
M  V30 2744 H 256.303 0.0877138 -1.89797 0
M  V30 2745 H 254.453 2.19742 -3.20383 0
M  V30 2746 H 256.125 0.000837639 -4.613 0
M  V30 2747 H 254.368 -0.0686174 -4.33746 0
M  V30 2748 H 255.039 1.17866 -5.3927 0
M  V30 2749 H 257.515 1.9992 -3.64926 0
M  V30 2750 H 256.391 3.01811 -4.58477 0
M  V30 2751 H 256.652 3.35383 -2.88047 0
M  V30 2752 N 255.711 1.52812 0.385517 0
M  V30 2753 C 256.939 1.71907 1.15133 0
M  V30 2754 C 257.354 0.439004 1.83625 0
M  V30 2755 O 256.711 -0.586765 1.7281 0
M  V30 2756 C 256.762 2.87099 2.19673 0
M  V30 2757 O 256.483 4.10151 1.53973 0
M  V30 2758 C 257.984 3.17902 3.08955 0
M  V30 2759 H 255.204 0.575479 0.345057 0
M  V30 2760 H 257.748 1.99476 0.45052 0
M  V30 2761 H 255.903 2.61982 2.85384 0
M  V30 2762 H 256.317 4.74514 2.23465 0
M  V30 2763 H 257.791 4.01959 3.7833 0
M  V30 2764 H 258.268 2.3243 3.72657 0
M  V30 2765 H 258.874 3.44871 2.48885 0
M  V30 2766 N 257.189 -0.644168 1.43834 0
M  V30 2767 C 258.435 -1.40603 1.46146 0
M  V30 2768 C 258.768 -1.93997 0.0887717 0
M  V30 2769 O 258.043 -1.72854 -0.891724 0
M  V30 2770 C 258.326 -2.58086 2.51124 0
M  V30 2771 C 258.179 -2.10126 3.97702 0
M  V30 2772 C 259.498 -3.60291 2.52742 0
M  V30 2773 H 256.617 -0.509905 0.532134 0
M  V30 2774 H 259.259 -0.729502 1.75437 0
M  V30 2775 H 257.409 -3.15801 2.26278 0
M  V30 2776 H 259.081 -1.57342 4.33637 0
M  V30 2777 H 257.324 -1.41419 4.10101 0
M  V30 2778 H 257.995 -2.94649 4.66783 0
M  V30 2779 H 260.471 -3.12352 2.7491 0
M  V30 2780 H 259.347 -4.40032 3.28121 0
M  V30 2781 H 259.608 -4.1349 1.56455 0
M  V30 2782 N 258.668 -1.30515 -0.883378 0
M  V30 2783 C 259.914 -1.19607 -1.63774 0
M  V30 2784 C 260.247 0.248314 -1.92606 0
M  V30 2785 O 259.522 1.17742 -1.54813 0
M  V30 2786 C 259.805 -2.02669 -2.97653 0
M  V30 2787 C 259.658 -3.55335 -2.75784 0
M  V30 2788 C 260.977 -1.86573 -3.98596 0
M  V30 2789 H 258.096 -0.435856 -0.594305 0
M  V30 2790 H 260.738 -1.60165 -1.02212 0
M  V30 2791 H 258.888 -1.68208 -3.50197 0
M  V30 2792 H 260.56 -3.99863 -2.30016 0
M  V30 2793 H 258.803 -3.79438 -2.1026 0
M  V30 2794 H 259.474 -4.08745 -3.70988 0
M  V30 2795 H 261.95 -2.16703 -3.55217 0
M  V30 2796 H 260.826 -2.47014 -4.90179 0
M  V30 2797 H 261.087 -0.825321 -4.34328 0
M  V30 2798 N 260.146 1.09593 -1.13257 0
M  V30 2799 C 261.096 2.14345 -0.777179 0
M  V30 2800 C 262.08 1.59277 0.227966 0
M  V30 2801 O 263.272 1.76971 0.0321413 0
M  V30 2802 C 260.401 3.42439 -0.242991 0
M  V30 2803 C 259.487 4.04419 -1.27694 0
M  V30 2804 N 259.878 4.40979 -2.47732 0
M  V30 2805 C 258.176 4.31596 -1.12432 0
M  V30 2806 C 258.877 4.89784 -3.13826 0
M  V30 2807 N 257.853 4.87133 -2.41252 0
M  V30 2808 H 261.655 2.40415 -1.69049 0
M  V30 2809 H 259.169 1.26803 -1.01463 0
M  V30 2810 H 261.166 4.16889 0.0298496 0
M  V30 2811 H 259.826 3.17824 0.66467 0
M  V30 2812 H 260.837 4.32396 -2.85051 0
M  V30 2813 H 257.514 4.16595 -0.274684 0
M  V30 2814 H 258.904 5.2755 -4.16102 0
M  V30 2815 N 261.624 0.925811 1.2754 0
M  V30 2816 C 262.873 0.561084 1.93739 0
M  V30 2817 C 263.186 -0.901685 1.73577 0
M  V30 2818 O 264.392 -1.37511 2.34101 0
M  V30 2819 C 262.848 0.952668 3.47062 0
M  V30 2820 C 262.456 2.43599 3.75983 0
M  V30 2821 C 264.2 0.659103 4.19352 0
M  V30 2822 C 262.107 2.76707 5.22673 0
M  V30 2823 H 261.037 0.206122 0.725279 0
M  V30 2824 H 263.688 1.12637 1.44863 0
M  V30 2825 H 262.07 0.316053 3.94737 0
M  V30 2826 H 263.244 3.12035 3.39073 0
M  V30 2827 H 261.559 2.70125 3.16893 0
M  V30 2828 H 264.156 0.882985 5.27359 0
M  V30 2829 H 264.499 -0.403607 4.14339 0
M  V30 2830 H 265.032 1.25473 3.77494 0
M  V30 2831 H 261.771 3.8188 5.32774 0
M  V30 2832 H 261.291 2.12919 5.60737 0
M  V30 2833 H 262.97 2.6435 5.90532 0
M  V30 2834 N 263.102 -1.41638 0.69111 0
M  V30 2835 C 264.327 -2.06148 0.227583 0
M  V30 2836 C 264.752 -1.51652 -1.11281 0
M  V30 2837 O 264.11 -0.64164 -1.69566 0
M  V30 2838 C 264.158 -3.60095 0.190858 0
M  V30 2839 O 263.262 -4.03845 -0.835664 0
M  V30 2840 H 262.603 -0.654434 0.112306 0
M  V30 2841 H 265.133 -1.81484 0.944714 0
M  V30 2842 H 265.143 -4.07995 0.020207 0
M  V30 2843 H 263.818 -3.99129 1.16915 0
M  V30 2844 H 262.395 -3.67458 -0.63473 0
M  V30 2845 N 264.58 -0.43555 -1.51462 0
M  V30 2846 C 265.528 0.391205 -2.29287 0
M  V30 2847 C 266.522 1.02247 -1.35062 0
M  V30 2848 O 267.728 0.957646 -1.52411 0
M  V30 2849 H 264.103 0.144968 -0.737895 0
M  V30 2850 H 266.074 -0.286051 -2.97026 0
M  V30 2851 C 264.823 1.48096 -3.14583 0
M  V30 2852 H 264.146 1.00457 -3.86973 0
M  V30 2853 H 265.586 2.03273 -3.72097 0
M  V30 2854 C 264.045 2.46321 -2.29843 0
M  V30 2855 O 264.575 3.50815 -1.95682 0
M  V30 2856 N 262.781 2.17166 -1.931 0
M  V30 2857 H 262.328 1.32218 -2.21079 0
M  V30 2858 H 262.286 2.83127 -1.36698 0
M  V30 2859 N 266.058 1.56714 -0.166846 0
M  V30 2860 C 267.286 2.0112 0.485644 0
M  V30 2861 C 267.701 1.04705 1.57106 0
M  V30 2862 O 267.058 0.0471923 1.82439 0
M  V30 2863 C 267.109 3.45361 1.06808 0
M  V30 2864 O 266.83 4.38092 0.0259995 0
M  V30 2865 C 268.331 4.05145 1.79924 0
M  V30 2866 H 265.551 0.65931 0.124704 0
M  V30 2867 H 268.095 2.02746 -0.267262 0
M  V30 2868 H 266.25 3.44524 1.7715 0
M  V30 2869 H 266.664 5.22519 0.455398 0
M  V30 2870 H 268.138 5.08009 2.15942 0
M  V30 2871 H 268.615 3.46982 2.69258 0
M  V30 2872 H 269.221 4.09672 1.14234 0
M  V30 2873 N 267.536 -0.106894 1.57237 0
M  V30 2874 C 268.466 -1.13148 2.04254 0
M  V30 2875 C 269.447 -1.42476 0.929224 0
M  V30 2876 O 270.632 -1.52709 1.19973 0
M  V30 2877 C 267.762 -2.4545 2.45706 0
M  V30 2878 C 266.716 -2.30558 3.60592 0
M  V30 2879 C 266.042 -3.67931 3.87983 0
M  V30 2880 C 267.342 -1.75597 4.91897 0
M  V30 2881 H 269.036 -0.740374 2.90101 0
M  V30 2882 H 266.582 -0.354696 1.39563 0
M  V30 2883 H 268.535 -3.17389 2.77205 0
M  V30 2884 H 267.259 -2.86475 1.56843 0
M  V30 2885 H 265.918 -1.61067 3.29322 0
M  V30 2886 H 265.566 -4.06462 2.96306 0
M  V30 2887 H 265.266 -3.58817 4.65322 0
M  V30 2888 H 266.79 -4.41356 4.21945 0
M  V30 2889 H 268.204 -2.37364 5.21854 0
M  V30 2890 H 266.601 -1.77272 5.73319 0
M  V30 2891 H 267.671 -0.714451 4.79608 0
M  V30 2892 N 269.014 -1.53014 -0.377408 0
M  V30 2893 C 270.262 -1.6829 -1.11906 0
M  V30 2894 C 270.583 -0.431206 -1.90173 0
M  V30 2895 O 269.853 0.554595 -1.87886 0
M  V30 2896 H 268.433 -0.620371 -0.416112 0
M  V30 2897 H 271.095 -1.90167 -0.426893 0
M  V30 2898 H 270.191 -2.53862 -1.8155 0
M  V30 2899 N 270.492 0.636531 -1.44174 0
M  V30 2900 C 271.732 1.40781 -1.48189 0
M  V30 2901 C 272.096 1.91688 -0.10944 0
M  V30 2902 O 273.297 2.68789 -0.0242741 0
M  V30 2903 C 271.568 2.54575 -2.50851 0
M  V30 2904 S 273.127 3.4284 -2.73873 0
M  V30 2905 H 269.945 0.480345 -0.524204 0
M  V30 2906 H 272.547 0.737416 -1.81059 0
M  V30 2907 H 271.251 2.15478 -3.49281 0
M  V30 2908 H 270.782 3.26447 -2.19536 0
M  V30 2909 H 272.797 4.51846 -2.05059 0
M  V30 2910 N 271.97 1.30982 0.876444 0
M  V30 2911 C 273.216 1.20474 1.63138 0
M  V30 2912 C 273.549 -0.238096 1.92735 0
M  V30 2913 O 272.824 -1.1692 1.55435 0
M  V30 2914 C 273.107 2.04244 2.96574 0
M  V30 2915 C 272.96 3.56793 2.73896 0
M  V30 2916 C 274.279 1.88684 3.97601 0
M  V30 2917 H 271.398 0.439001 0.591985 0
M  V30 2918 H 274.04 1.60704 1.01361 0
M  V30 2919 H 272.19 1.70063 3.493 0
M  V30 2920 H 273.862 4.01077 2.27892 0
M  V30 2921 H 272.105 3.80548 2.08245 0
M  V30 2922 H 272.776 4.10706 3.68815 0
M  V30 2923 H 275.252 2.18584 3.54062 0
M  V30 2924 H 274.128 2.4961 4.88862 0
M  V30 2925 H 274.389 0.848343 4.33884 0
M  V30 2926 N 273.449 -1.08991 1.13837 0
M  V30 2927 C 274.397 -2.17841 0.815347 0
M  V30 2928 C 275.391 -1.68164 -0.204233 0
M  V30 2929 O 276.597 -1.79897 -0.0609304 0
M  V30 2930 H 272.972 -0.710654 0.245915 0
M  V30 2931 H 274.943 -2.42315 1.74143 0
M  V30 2932 C 273.692 -3.46381 0.302614 0
M  V30 2933 H 273.015 -3.84979 1.0785 0
M  V30 2934 H 274.455 -4.23844 0.115074 0
M  V30 2935 C 272.914 -3.22556 -0.972591 0
M  V30 2936 O 273.444 -3.45599 -2.04754 0
M  V30 2937 N 271.65 -2.76134 -0.905455 0
M  V30 2938 H 271.197 -2.57582 -0.0305421 0
M  V30 2939 H 271.155 -2.60571 -1.75926 0
M  V30 2940 N 274.927 -0.932562 -1.27047 0
M  V30 2941 C 276.338 -0.619451 -1.76124 0
M  V30 2942 C 276.689 0.865397 -1.76083 0
M  V30 2943 O 275.814 1.67722 -1.36742 0
M  V30 2944 C 276.409 -1.11771 -3.19832 0
M  V30 2945 C 274.968 -0.855174 -3.66557 0
M  V30 2946 C 274.115 -1.27362 -2.46321 0
M  V30 2947 H 277.066 -1.11181 -1.13245 0
M  V30 2948 H 277.087 -0.46759 -3.77616 0
M  V30 2949 H 276.599 -2.19842 -3.1983 0
M  V30 2950 H 274.7 0.211524 -3.71999 0
M  V30 2951 H 274.813 -1.47613 -4.55793 0
M  V30 2952 H 273.177 -0.692119 -2.45116 0
M  V30 2953 H 273.96 -2.36307 -2.49025 0
M  V30 2954 N 276.405 1.4127 -0.698611 0
M  V30 2955 C 277.368 2.29158 -0.044132 0
M  V30 2956 C 278.368 1.44529 0.704841 0
M  V30 2957 O 279.558 1.65643 0.539276 0
M  V30 2958 C 276.69 3.27459 0.947809 0
M  V30 2959 H 277.883 2.88529 -0.817994 0
M  V30 2960 H 275.436 1.49307 -0.46228 0
M  V30 2961 H 276.171 2.73073 1.74933 0
M  V30 2962 H 275.956 3.8991 0.41385 0
M  V30 2963 H 277.446 3.93311 1.40344 0
M  V30 2964 N 277.883 0.443576 1.51229 0
M  V30 2965 C 278.793 -0.370721 2.31652 0
M  V30 2966 C 279.809 -1.02186 1.40833 0
M  V30 2967 O 280.985 -1.01586 1.73903 0
M  V30 2968 C 278.05 -1.45376 3.14749 0
M  V30 2969 C 277.111 -0.822099 4.21355 0
M  V30 2970 C 276.344 -1.85353 5.0048 0
M  V30 2971 O 276.567 -3.07656 4.80316 0
M  V30 2972 O 275.501 -1.4406 5.84406 0
M  V30 2973 H 279.327 0.286002 3.0235 0
M  V30 2974 H 276.912 0.20598 1.47973 0
M  V30 2975 H 278.794 -2.08173 3.66391 0
M  V30 2976 H 277.469 -2.09445 2.46809 0
M  V30 2977 H 276.376 -0.155909 3.73775 0
M  V30 2978 H 277.709 -0.224797 4.91686 0
M  V30 2979 N 279.361 -1.56624 0.175154 0
M  V30 2980 C 280.271 -2.21741 -0.766042 0
M  V30 2981 C 281.287 -1.21023 -1.25018 0
M  V30 2982 O 282.463 -1.53697 -1.3015 0
M  V30 2983 C 279.528 -2.84839 -1.97655 0
M  V30 2984 C 278.589 -4.00769 -1.53892 0
M  V30 2985 C 277.822 -4.60849 -2.69173 0
M  V30 2986 O 278.045 -4.19823 -3.86141 0
M  V30 2987 O 276.979 -5.50655 -2.43028 0
M  V30 2988 H 280.805 -3.02738 -0.241585 0
M  V30 2989 H 278.39 -1.49305 -0.053222 0
M  V30 2990 H 280.272 -3.24834 -2.68442 0
M  V30 2991 H 278.947 -2.06836 -2.48999 0
M  V30 2992 H 277.854 -3.65436 -0.80044 0
M  V30 2993 H 279.187 -4.80376 -1.07236 0
M  V30 2994 N 280.839 0.0985539 -1.57292 0
M  V30 2995 C 282.088 0.801358 -1.85098 0
M  V30 2996 C 282.401 1.80066 -0.763902 0
M  V30 2997 O 283.607 2.55112 -0.928981 0
M  V30 2998 C 282.063 1.47599 -3.28242 0
M  V30 2999 C 281.671 0.516624 -4.45011 0
M  V30 3000 C 283.415 2.16272 -3.65276 0
M  V30 3001 C 281.322 1.19564 -5.79188 0
M  V30 3002 H 280.252 0.303022 -0.69043 0
M  V30 3003 H 282.903 0.0542623 -1.8342 0
M  V30 3004 H 281.285 2.27042 -3.2445 0
M  V30 3005 H 282.459 -0.246065 -4.60143 0
M  V30 3006 H 280.774 -0.064227 -4.1635 0
M  V30 3007 H 283.371 2.67802 -4.62803 0
M  V30 3008 H 283.714 2.95009 -2.93727 0
M  V30 3009 H 284.247 1.43693 -3.70941 0
M  V30 3010 H 280.986 0.449157 -6.53959 0
M  V30 3011 H 280.506 1.92984 -5.67906 0
M  V30 3012 H 282.185 1.7231 -6.23633 0
M  V30 3013 N 282.317 1.53212 0.369288 0
M  V30 3014 C 283.28 1.7872 1.43498 0
M  V30 3015 C 284.28 0.657554 1.46741 0
M  V30 3016 O 285.47 0.925736 1.47566 0
M  V30 3017 C 282.602 1.90591 2.82645 0
M  V30 3018 H 283.795 2.73894 1.22156 0
M  V30 3019 H 281.348 1.44233 0.602203 0
M  V30 3020 H 282.083 0.974709 3.09306 0
M  V30 3021 H 281.868 2.72751 2.8169 0
M  V30 3022 H 283.358 2.11931 3.59826 0
M  V30 3023 N 283.795 -0.628877 1.44509 0
M  V30 3024 C 284.727 -1.754 1.47538 0
M  V30 3025 C 285.74 -1.58575 0.368506 0
M  V30 3026 O 286.929 -1.66847 0.634376 0
M  V30 3027 C 284.029 -3.1315 1.29577 0
M  V30 3028 C 283.202 -3.56413 2.53551 0
M  V30 3029 C 282.261 -4.7305 2.30457 0
M  V30 3030 O 281.287 -4.81247 3.03957 0
M  V30 3031 N 282.489 -5.64903 1.3366 0
M  V30 3032 H 285.254 -1.73272 2.44534 0
M  V30 3033 H 282.815 -0.813512 1.39977 0
M  V30 3034 H 284.807 -3.88902 1.11971 0
M  V30 3035 H 283.377 -3.09908 0.409371 0
M  V30 3036 H 282.597 -2.70847 2.86419 0
M  V30 3037 H 283.885 -3.82071 3.36005 0
M  V30 3038 H 283.283 -5.60975 0.729604 0
M  V30 3039 H 281.84 -6.40275 1.22032 0
M  V30 3040 N 285.273 -1.31445 -0.869486 0
M  V30 3041 C 286.203 -1.21727 -1.99261 0
M  V30 3042 C 287.184 -0.104359 -1.6978 0
M  V30 3043 O 288.369 -0.289038 -1.92037 0
M  V30 3044 C 285.499 -0.924317 -3.34774 0
M  V30 3045 C 284.453 -1.99685 -3.78563 0
M  V30 3046 C 283.779 -1.55658 -5.11541 0
M  V30 3047 C 285.079 -3.41003 -3.95619 0
M  V30 3048 H 286.773 -2.1569 -2.07649 0
M  V30 3049 H 284.319 -1.03839 -0.997675 0
M  V30 3050 H 286.272 -0.842934 -4.12883 0
M  V30 3051 H 284.996 0.0509793 -3.2656 0
M  V30 3052 H 283.655 -2.06813 -3.02694 0
M  V30 3053 H 283.303 -0.569132 -4.9977 0
M  V30 3054 H 283.003 -2.27409 -5.41811 0
M  V30 3055 H 284.527 -1.48928 -5.92159 0
M  V30 3056 H 285.941 -3.36547 -4.64122 0
M  V30 3057 H 284.338 -4.10975 -4.37286 0
M  V30 3058 H 285.408 -3.81754 -2.98985 0
M  V30 3059 N 286.751 1.08385 -1.14413 0
M  V30 3060 C 287.714 2.13486 -0.834048 0
M  V30 3061 C 288.714 1.59988 0.161418 0
M  V30 3062 O 289.904 1.74071 -0.0669575 0
M  V30 3063 C 287.036 3.4003 -0.243354 0
M  V30 3064 H 288.229 2.42425 -1.7655 0
M  V30 3065 H 285.782 1.24101 -0.950189 0
M  V30 3066 H 286.517 3.16726 0.696807 0
M  V30 3067 H 286.302 3.80157 -0.960367 0
M  V30 3068 H 287.792 4.17577 -0.0436242 0
M  V30 3069 N 288.23 0.939286 1.26551 0
M  V30 3070 C 289.18 0.418284 2.2413 0
M  V30 3071 C 290.164 -0.483935 1.5345 0
M  V30 3072 O 291.356 -0.319489 1.74093 0
M  V30 3073 C 288.485 -0.31709 3.41832 0
M  V30 3074 C 287.571 0.602311 4.19801 0
M  V30 3075 N 287.962 1.72726 4.75394 0
M  V30 3076 C 286.26 0.407534 4.44134 0
M  V30 3077 C 286.961 2.30004 5.34297 0
M  V30 3078 N 285.937 1.58828 5.1988 0
M  V30 3079 H 289.739 1.27705 2.64705 0
M  V30 3080 H 287.253 0.794929 1.41614 0
M  V30 3081 H 289.25 -0.707364 4.10855 0
M  V30 3082 H 287.91 -1.17264 3.02786 0
M  V30 3083 H 288.921 2.10944 4.72994 0
M  V30 3084 H 285.598 -0.406406 4.15517 0
M  V30 3085 H 286.988 3.24778 5.88191 0
M  V30 3086 N 289.708 -1.40897 0.706093 0
M  V30 3087 C 290.64 -2.29199 0.00815776 0
M  V30 3088 C 291.653 -1.45336 -0.733582 0
M  V30 3089 O 292.842 -1.68727 -0.582537 0
M  V30 3090 C 289.942 -3.23417 -1.01265 0
M  V30 3091 C 289.115 -4.36089 -0.338387 0
M  V30 3092 C 288.174 -5.10811 -1.26326 0
M  V30 3093 O 287.2 -5.64215 -0.751651 0
M  V30 3094 N 288.402 -5.19269 -2.595 0
M  V30 3095 H 291.167 -2.89738 0.766297 0
M  V30 3096 H 288.728 -1.52164 0.55296 0
M  V30 3097 H 290.72 -3.70276 -1.63334 0
M  V30 3098 H 289.29 -2.64112 -1.67223 0
M  V30 3099 H 288.51 -3.91479 0.462352 0
M  V30 3100 H 289.798 -5.08634 0.130031 0
M  V30 3101 H 289.196 -4.77347 -3.03573 0
M  V30 3102 H 287.753 -5.69667 -3.16737 0
M  V30 3103 N 291.186 -0.45159 -1.50991 0
M  V30 3104 C 292.149 0.341117 -2.26647 0
M  V30 3105 C 293.149 0.937422 -1.30649 0
M  V30 3106 O 294.339 0.809644 -1.54241 0
M  V30 3107 C 291.471 1.48398 -3.06905 0
M  V30 3108 H 292.664 -0.322117 -2.98165 0
M  V30 3109 H 290.217 -0.205122 -1.54948 0
M  V30 3110 H 290.952 2.18284 -2.39838 0
M  V30 3111 H 290.737 1.06241 -3.77432 0
M  V30 3112 H 292.227 2.04367 -3.64176 0
M  V30 3113 N 292.664 1.56529 -0.183458 0
M  V30 3114 C 293.912 1.96855 0.457452 0
M  V30 3115 C 294.233 1.07104 1.62953 0
M  V30 3116 O 293.503 0.139887 1.954 0
M  V30 3117 H 292.083 0.72693 0.171992 0
M  V30 3118 H 294.745 1.93056 -0.267476 0
M  V30 3119 H 293.841 3.01423 0.809368 0
M  V30 3120 N 294.142 -0.090211 1.57342 0
M  V30 3121 C 295.105 -1.09335 2.01441 0
M  V30 3122 C 296.105 -1.32666 0.908641 0
M  V30 3123 O 297.295 -1.28697 1.174 0
M  V30 3124 C 294.427 -2.44136 2.3793 0
M  V30 3125 H 295.62 -0.713662 2.91285 0
M  V30 3126 H 293.173 -0.335404 1.52659 0
M  V30 3127 H 293.908 -2.86972 1.51055 0
M  V30 3128 H 293.693 -2.28548 3.18603 0
M  V30 3129 H 295.183 -3.16277 2.72688 0
M  V30 3130 N 295.62 -1.53406 -0.361157 0
M  V30 3131 C 296.567 -1.80156 -1.44265 0
M  V30 3132 C 297.537 -0.646183 -1.53015 0
M  V30 3133 O 298.722 -0.888818 -1.68833 0
M  V30 3134 C 295.862 -2.00116 -2.81154 0
M  V30 3135 C 294.975 -3.27833 -2.81335 0
M  V30 3136 C 294.11 -3.37957 -4.09828 0
M  V30 3137 C 293.149 -4.59689 -4.04168 0
M  V30 3138 N 292.286 -4.66942 -5.24318 0
M  V30 3139 H 297.126 -2.72438 -1.20754 0
M  V30 3140 H 294.663 -1.34954 -0.585296 0
M  V30 3141 H 296.621 -2.09677 -3.60682 0
M  V30 3142 H 295.251 -1.11167 -3.03054 0
M  V30 3143 H 294.303 -3.27204 -1.94014 0
M  V30 3144 H 295.615 -4.17442 -2.73027 0
M  V30 3145 H 294.769 -3.46853 -4.97773 0
M  V30 3146 H 293.508 -2.46372 -4.20894 0
M  V30 3147 H 292.513 -4.50889 -3.14609 0
M  V30 3148 H 293.738 -5.5262 -3.947 0
M  V30 3149 H 291.684 -3.7826 -5.35962 0
M  V30 3150 H 291.601 -5.50462 -5.18197 0
M  V30 3151 H 292.869 -4.80127 -6.14084 0
M  V30 3152 N 297.098 0.621204 -1.44841 0
M  V30 3153 C 298.344 1.3826 -1.48365 0
M  V30 3154 C 298.677 1.93831 -0.119624 0
M  V30 3155 O 297.952 1.74251 0.864111 0
M  V30 3156 C 298.235 2.54058 -2.55199 0
M  V30 3157 C 298.088 2.03772 -4.00995 0
M  V30 3158 C 299.407 3.56225 -2.58442 0
M  V30 3159 H 296.526 0.501374 -0.540179 0
M  V30 3160 H 299.168 0.7015 -1.76576 0
M  V30 3161 H 297.318 3.12162 -2.31274 0
M  V30 3162 H 298.99 1.50423 -4.36086 0
M  V30 3163 H 297.233 1.34876 -4.12299 0
M  V30 3164 H 297.904 2.87185 -4.71411 0
M  V30 3165 H 300.38 3.07939 -2.79844 0
M  V30 3166 H 299.256 4.34756 -3.3508 0
M  V30 3167 H 299.517 4.10949 -1.63013 0
M  V30 3168 N 298.576 1.31904 0.862503 0
M  V30 3169 C 299.506 1.22782 1.98612 0
M  V30 3170 C 300.487 0.113362 1.69722 0
M  V30 3171 O 301.672 0.299218 1.91881 0
M  V30 3172 C 298.802 0.942058 3.34279 0
M  V30 3173 C 297.756 2.0169 3.77499 0
M  V30 3174 C 297.082 1.58369 5.10709 0
M  V30 3175 C 298.382 3.43096 3.93805 0
M  V30 3176 H 300.076 2.16788 2.06502 0
M  V30 3177 H 297.622 1.04366 0.992154 0
M  V30 3178 H 299.575 0.864818 4.1243 0
M  V30 3179 H 298.299 -0.0336603 3.26583 0
M  V30 3180 H 296.958 2.08416 3.01593 0
M  V30 3181 H 296.606 0.595628 4.99461 0
M  V30 3182 H 296.306 2.30279 5.40597 0
M  V30 3183 H 297.83 1.52067 5.91361 0
M  V30 3184 H 299.244 3.39003 4.62331 0
M  V30 3185 H 297.641 4.13288 4.35101 0
M  V30 3186 H 298.711 3.83334 2.96957 0
M  V30 3187 N 300.054 -1.07777 1.14986 0
M  V30 3188 C 301.3 -1.80557 0.923422 0
M  V30 3189 C 301.633 -1.86298 -0.548337 0
M  V30 3190 O 300.908 -1.34354 -1.40639 0
M  V30 3191 C 301.191 -3.25839 1.53299 0
M  V30 3192 C 301.044 -3.28269 3.07505 0
M  V30 3193 C 302.363 -4.22991 1.21518 0
M  V30 3194 H 299.482 -0.655493 0.336894 0
M  V30 3195 H 302.124 -1.26144 1.42083 0
M  V30 3196 H 300.274 -3.72306 1.10999 0
M  V30 3197 H 301.946 -2.90079 3.58681 0
M  V30 3198 H 300.189 -2.67355 3.4162 0
M  V30 3199 H 300.86 -4.30691 3.45266 0
M  V30 3200 H 303.336 -3.84894 1.581 0
M  V30 3201 H 302.212 -5.22945 1.66793 0
M  V30 3202 H 302.473 -4.41904 0.131505 0
M  V30 3203 N 301.532 -0.945985 -1.26051 0
M  V30 3204 C 302.809 -0.513816 -1.88731 0
M  V30 3205 C 303.189 1.00872 -1.8544 0
M  V30 3206 O 302.537 1.8708 -1.312 0
M  V30 3207 C 302.747 -1.08062 -3.31849 0
M  V30 3208 C 304.095 -1.1522 -4.08668 0
M  V30 3209 O 305.119 -1.03155 -3.40936 0
M  V30 3210 O 303.978 -1.34044 -5.29806 0
M  V30 3211 H 301.072 -0.168193 -0.809716 0
M  V30 3212 H 303.618 -1.03886 -1.34186 0
M  V30 3213 H 302.39 -2.1241 -3.2863 0
M  V30 3214 H 302.013 -0.538307 -3.93939 0
M  V30 3215 N 303.011 1.40521 -0.713556 0
M  V30 3216 C 303.974 2.29098 -0.0684347 0
M  V30 3217 C 304.974 1.45268 0.689472 0
M  V30 3218 O 306.164 1.66205 0.521677 0
M  V30 3219 C 303.296 3.28446 0.913024 0
M  V30 3220 H 304.489 2.87645 -0.84855 0
M  V30 3221 H 302.042 1.48809 -0.47809 0
M  V30 3222 H 302.777 2.74913 1.72027 0
M  V30 3223 H 302.562 3.90327 0.372472 0
M  V30 3224 H 304.052 3.94777 1.36165 0
M  V30 3225 N 304.489 0.459591 1.5075 0
M  V30 3226 C 305.729 -0.09824 2.04164 0
M  V30 3227 C 306.093 -1.3801 1.33481 0
M  V30 3228 O 307.294 -2.01959 1.77387 0
M  V30 3229 C 305.565 -0.289467 3.56226 0
M  V30 3230 S 307.124 -0.807507 4.31306 0
M  V30 3231 H 303.942 -0.0213845 0.710678 0
M  V30 3232 H 306.544 0.624098 1.85271 0
M  V30 3233 H 305.248 0.649461 4.05229 0
M  V30 3234 H 304.779 -1.03825 3.79452 0
M  V30 3235 H 306.794 -2.0824 4.50389 0
M  V30 3236 N 305.967 -1.56429 0.191757 0
M  V30 3237 C 306.899 -2.16154 -0.762245 0
M  V30 3238 C 307.912 -1.12247 -1.17917 0
M  V30 3239 O 309.101 -1.39353 -1.11548 0
M  V30 3240 C 306.201 -2.70606 -2.04024 0
M  V30 3241 C 305.374 -3.99381 -1.78364 0
M  V30 3242 C 304.433 -4.38692 -2.90578 0
M  V30 3243 O 303.459 -5.06179 -2.6033 0
M  V30 3244 N 304.661 -4.01922 -4.18854 0
M  V30 3245 H 307.426 -2.98643 -0.251526 0
M  V30 3246 H 304.987 -1.61897 0.00967373 0
M  V30 3247 H 306.979 -2.93891 -2.78227 0
M  V30 3248 H 305.549 -1.9259 -2.46227 0
M  V30 3249 H 304.769 -3.84262 -0.879581 0
M  V30 3250 H 306.057 -4.83445 -1.58614 0
M  V30 3251 H 305.455 -3.47631 -4.46283 0
M  V30 3252 H 304.012 -4.30165 -4.89695 0
M  V30 3253 N 307.445 0.0818655 -1.57387 0
M  V30 3254 C 308.67 0.799946 -1.91352 0
M  V30 3255 C 309.095 1.70833 -0.787258 0
M  V30 3256 O 308.453 1.79419 0.26048 0
M  V30 3257 C 308.501 1.57812 -3.24234 0
M  V30 3258 O 307.605 2.68806 -3.12757 0
M  V30 3259 H 306.946 0.21891 -0.626877 0
M  V30 3260 H 309.476 0.0531256 -2.04531 0
M  V30 3261 H 309.486 1.95952 -3.57864 0
M  V30 3262 H 308.161 0.911548 -4.05788 0
M  V30 3263 H 306.738 2.33597 -2.90666 0
M  V30 3264 N 308.923 1.53595 0.353017 0
M  V30 3265 C 309.886 1.80232 1.41594 0
M  V30 3266 C 310.886 0.673081 1.46035 0
M  V30 3267 O 312.076 0.941335 1.46576 0
M  V30 3268 C 309.208 1.93578 2.80607 0
M  V30 3269 H 310.401 2.75174 1.19244 0
M  V30 3270 H 307.954 1.44864 0.586872 0
M  V30 3271 H 308.689 1.00746 3.08254 0
M  V30 3272 H 308.474 2.75724 2.78781 0
M  V30 3273 H 309.964 2.15735 3.57558 0
M  V30 3274 N 310.401 -0.613514 1.45168 0
M  V30 3275 C 311.812 -1.19539 1.43413 0
M  V30 3276 C 312.163 -1.95558 0.158632 0
M  V30 3277 O 311.288 -2.0335 -0.740119 0
M  V30 3278 C 311.883 -2.17445 2.59813 0
M  V30 3279 C 310.442 -2.71022 2.61197 0
M  V30 3280 C 309.589 -1.46323 2.35552 0
M  V30 3281 H 312.54 -0.403163 1.53494 0
M  V30 3282 H 312.561 -3.00373 2.33574 0
M  V30 3283 H 312.073 -1.62089 3.52631 0
M  V30 3284 H 310.174 -3.30332 1.7237 0
M  V30 3285 H 310.287 -3.15859 3.60236 0
M  V30 3286 H 308.651 -1.75072 1.84992 0
M  V30 3287 H 309.434 -0.92844 3.30507 0
M  V30 3288 N 311.879 -1.3236 -0.855495 0
M  V30 3289 C 312.829 -1.17809 -1.95205 0
M  V30 3290 C 313.813 -0.0852319 -1.60674 0
M  V30 3291 O 315.005 -0.311651 -1.74235 0
M  V30 3292 C 312.134 -0.902437 -3.31226 0
M  V30 3293 C 311.22 -2.03695 -3.7198 0
M  V30 3294 N 311.611 -3.28544 -3.84568 0
M  V30 3295 C 309.909 -1.93993 -4.016 0
M  V30 3296 C 310.61 -4.02847 -4.19629 0
M  V30 3297 N 309.586 -3.31138 -4.31102 0
M  V30 3298 H 313.388 -2.12462 -2.0307 0
M  V30 3299 H 310.902 -1.24127 -1.0472 0
M  V30 3300 H 312.899 -0.77915 -4.09554 0
M  V30 3301 H 311.559 0.0357267 -3.2468 0
M  V30 3302 H 312.57 -3.6349 -3.68911 0
M  V30 3303 H 309.247 -1.07733 -4.03361 0
M  V30 3304 H 310.637 -5.10506 -4.36845 0
M  V30 3305 N 313.357 1.07166 -1.15556 0
M  V30 3306 C 314.587 1.83248 -0.954133 0
M  V30 3307 C 314.995 1.82449 0.500911 0
M  V30 3308 O 314.338 1.23575 1.35923 0
M  V30 3309 C 314.4 3.31393 -1.39351 0
M  V30 3310 C 314.064 3.5591 -2.86666 0
M  V30 3311 C 315.061 3.49695 -3.8472 0
M  V30 3312 C 312.746 3.83515 -3.24379 0
M  V30 3313 C 314.74 3.70737 -5.18491 0
M  V30 3314 C 312.427 4.04209 -4.58321 0
M  V30 3315 C 313.425 3.97815 -5.55186 0
M  V30 3316 O 313.113 4.17954 -6.86709 0
M  V30 3317 H 312.845 0.584941 -0.338851 0
M  V30 3318 H 315.399 1.36169 -1.53777 0
M  V30 3319 H 313.629 3.79292 -0.75329 0
M  V30 3320 H 315.318 3.88945 -1.16089 0
M  V30 3321 H 316.084 3.28368 -3.56931 0
M  V30 3322 H 311.963 3.87605 -2.49567 0
M  V30 3323 H 315.507 3.65663 -5.94085 0
M  V30 3324 H 311.404 4.25023 -4.85825 0
M  V30 3325 H 312.172 4.35291 -6.93155 0
M  V30 3326 N 314.835 0.952656 1.25548 0
M  V30 3327 C 316.246 0.647392 1.75116 0
M  V30 3328 C 316.597 -0.837274 1.77438 0
M  V30 3329 O 315.722 -1.65525 1.39393 0
M  V30 3330 C 316.317 1.16845 3.18014 0
M  V30 3331 C 314.876 0.913382 3.6515 0
M  V30 3332 C 314.023 1.31265 2.44264 0
M  V30 3333 H 316.974 1.12968 1.11462 0
M  V30 3334 H 316.995 0.527606 3.76824 0
M  V30 3335 H 316.507 2.24902 3.16292 0
M  V30 3336 H 314.608 -0.152316 3.72289 0
M  V30 3337 H 314.721 1.54845 4.53387 0
M  V30 3338 H 313.085 0.731028 2.43984 0
M  V30 3339 H 313.868 2.40239 2.45234 0
M  V30 3340 N 316.313 -1.40141 0.720998 0
M  V30 3341 C 317.243 -2.33339 0.0867621 0
M  V30 3342 C 318.224 -1.53178 -0.739622 0
M  V30 3343 O 319.409 -1.81625 -0.687449 0
M  V30 3344 C 316.539 -3.37194 -0.831728 0
M  V30 3345 C 315.493 -4.27857 -0.110558 0
M  V30 3346 C 314.819 -5.22294 -1.14513 0
M  V30 3347 C 316.119 -5.11872 1.0385 0
M  V30 3348 H 317.813 -2.86626 0.865219 0
M  V30 3349 H 315.359 -1.37814 0.417516 0
M  V30 3350 H 317.312 -4.01335 -1.28485 0
M  V30 3351 H 316.036 -2.82314 -1.64214 0
M  V30 3352 H 314.695 -3.65176 0.322797 0
M  V30 3353 H 314.343 -4.63717 -1.94874 0
M  V30 3354 H 314.043 -5.83797 -0.667446 0
M  V30 3355 H 315.567 -5.89312 -1.59824 0
M  V30 3356 H 316.981 -5.69436 0.664482 0
M  V30 3357 H 315.378 -5.82445 1.4449 0
M  V30 3358 H 316.448 -4.4753 1.86668 0
M  V30 3359 N 317.792 -0.46758 -1.50504 0
M  V30 3360 C 319.069 0.15003 -1.95024 0
M  V30 3361 C 319.449 1.57304 -1.40779 0
M  V30 3362 O 318.797 2.20281 -0.607319 0
M  V30 3363 C 319.007 0.0969324 -3.48865 0
M  V30 3364 C 320.355 0.287565 -4.23625 0
M  V30 3365 O 321.379 0.173678 -3.55776 0
M  V30 3366 O 320.238 0.517186 -5.44047 0
M  V30 3367 H 317.332 0.113582 -0.819163 0
M  V30 3368 H 319.878 -0.52773 -1.61286 0
M  V30 3369 H 318.65 -0.896732 -3.80886 0
M  V30 3370 H 318.273 0.816303 -3.8913 0
M  V30 3371 N 319.27 1.56325 -0.20005 0
M  V30 3372 C 320.516 1.98012 0.438059 0
M  V30 3373 C 320.849 1.08702 1.60927 0
M  V30 3374 O 320.124 0.140064 1.93995 0
M  V30 3375 C 320.407 3.48841 0.893419 0
M  V30 3376 C 320.26 4.48928 -0.279947 0
M  V30 3377 C 321.579 4.03498 1.75719 0
M  V30 3378 H 318.698 0.719918 0.157757 0
M  V30 3379 H 321.34 1.87743 -0.291968 0
M  V30 3380 H 319.49 3.57723 1.51547 0
M  V30 3381 H 321.162 4.52079 -0.91772 0
M  V30 3382 H 319.405 4.23694 -0.930919 0
M  V30 3383 H 320.076 5.5194 0.0812601 0
M  V30 3384 H 322.552 3.97427 1.23253 0
M  V30 3385 H 321.428 5.09393 2.04476 0
M  V30 3386 H 321.689 3.4906 2.71311 0
M  V30 3387 N 320.748 -0.0735177 1.57428 0
M  V30 3388 C 321.68 -1.11423 2.00294 0
M  V30 3389 C 322.693 -1.35084 0.908637 0
M  V30 3390 O 323.882 -1.33355 1.18654 0
M  V30 3391 C 320.982 -2.46548 2.32523 0
M  V30 3392 C 320.155 -2.42867 3.63778 0
M  V30 3393 C 319.214 -3.60087 3.83697 0
M  V30 3394 O 318.24 -3.41595 4.55304 0
M  V30 3395 N 319.442 -4.80372 3.25919 0
M  V30 3396 H 322.207 -0.749206 2.90184 0
M  V30 3397 H 319.768 -0.262195 1.59763 0
M  V30 3398 H 321.76 -3.23607 2.43024 0
M  V30 3399 H 320.33 -2.75059 1.48531 0
M  V30 3400 H 319.55 -1.51206 3.64047 0
M  V30 3401 H 320.838 -2.37506 4.49965 0
M  V30 3402 H 320.236 -4.983 2.67795 0
M  V30 3403 H 318.793 -5.54948 3.41871 0
M  V30 3404 N 322.226 -1.5378 -0.344866 0
M  V30 3405 C 323.156 -1.84662 -1.42906 0
M  V30 3406 C 324.137 -0.701648 -1.54955 0
M  V30 3407 O 325.322 -0.953438 -1.69184 0
M  V30 3408 C 322.452 -2.05503 -2.79974 0
M  V30 3409 C 321.406 -3.21318 -2.82734 0
M  V30 3410 C 320.732 -3.2749 -4.22675 0
M  V30 3411 C 322.032 -4.59456 -2.48389 0
M  V30 3412 H 323.726 -2.75461 -1.17311 0
M  V30 3413 H 321.272 -1.32542 -0.562896 0
M  V30 3414 H 323.225 -2.25691 -3.55867 0
M  V30 3415 H 321.949 -1.11434 -3.07002 0
M  V30 3416 H 320.608 -3.00984 -2.09294 0
M  V30 3417 H 320.256 -2.31019 -4.4681 0
M  V30 3418 H 319.956 -4.05316 -4.25433 0
M  V30 3419 H 321.48 -3.49887 -5.00412 0
M  V30 3420 H 322.894 -4.79667 -3.13995 0
M  V30 3421 H 321.291 -5.39675 -2.62432 0
M  V30 3422 H 322.361 -4.63155 -1.4358 0
M  V30 3423 N 323.704 0.605807 -1.45491 0
M  V30 3424 C 324.953 1.36086 -1.48874 0
M  V30 3425 C 325.266 1.95131 -0.135333 0
M  V30 3426 O 326.472 2.7146 -0.0468144 0
M  V30 3427 C 324.928 2.46518 -2.62215 0
M  V30 3428 C 324.536 1.93877 -4.03876 0
M  V30 3429 C 326.28 3.23512 -2.74846 0
M  V30 3430 C 324.187 3.01801 -5.08596 0
M  V30 3431 H 323.117 0.511497 -0.553974 0
M  V30 3432 H 325.768 0.649089 -1.71636 0
M  V30 3433 H 324.15 3.20388 -2.32739 0
M  V30 3434 H 325.324 1.26704 -4.43038 0
M  V30 3435 H 323.639 1.29622 -3.95711 0
M  V30 3436 H 326.236 4.04013 -3.50253 0
M  V30 3437 H 326.579 3.74631 -1.81542 0
M  V30 3438 H 327.112 2.56742 -3.03856 0
M  V30 3439 H 323.851 2.55597 -6.03614 0
M  V30 3440 H 323.371 3.67535 -4.74002 0
M  V30 3441 H 325.05 3.66152 -5.33424 0
M  V30 3442 N 325.182 1.32811 0.848464 0
M  V30 3443 C 326.459 1.14334 1.58704 0
M  V30 3444 C 326.839 -0.293948 2.09043 0
M  V30 3445 O 326.187 -1.29153 1.88499 0
M  V30 3446 C 326.397 2.17626 2.72837 0
M  V30 3447 C 327.745 2.51282 3.42261 0
M  V30 3448 O 328.769 2.16219 2.83068 0
M  V30 3449 O 327.628 3.11413 4.49093 0
M  V30 3450 H 324.722 0.441601 0.699226 0
M  V30 3451 H 327.268 1.44362 0.892053 0
M  V30 3452 H 326.04 3.14211 2.3321 0
M  V30 3453 H 325.663 1.88628 3.50008 0
M  V30 3454 N 326.66 -1.06551 1.16123 0
M  V30 3455 C 327.9 -1.80889 0.951766 0
M  V30 3456 C 328.264 -1.85062 -0.511465 0
M  V30 3457 O 329.465 -2.55353 -0.83954 0
M  V30 3458 C 327.736 -3.21609 1.55893 0
M  V30 3459 S 329.295 -4.12593 1.49373 0
M  V30 3460 H 326.113 -0.623156 0.342341 0
M  V30 3461 H 328.715 -1.27943 1.47821 0
M  V30 3462 H 327.419 -3.16165 2.61664 0
M  V30 3463 H 326.95 -3.79631 1.0317 0
M  V30 3464 H 328.965 -4.93753 0.492196 0
M  V30 3465 N 328.138 -0.959301 -1.25041 0
M  V30 3466 C 329.415 -0.533805 -1.88175 0
M  V30 3467 C 329.795 0.988994 -1.865 0
M  V30 3468 O 329.143 1.85677 -1.33177 0
M  V30 3469 C 329.353 -1.11575 -3.30684 0
M  V30 3470 C 330.701 -1.19548 -4.07423 0
M  V30 3471 O 331.725 -1.06765 -3.39823 0
M  V30 3472 O 330.584 -1.39656 -5.28354 0
M  V30 3473 H 327.678 -0.176772 -0.807887 0
M  V30 3474 H 330.224 -1.05303 -1.33076 0
M  V30 3475 H 328.996 -2.15884 -3.26358 0
M  V30 3476 H 328.619 -0.580059 -3.93346 0
M  V30 3477 N 329.616 1.39756 -0.72842 0
M  V30 3478 C 330.862 2.01425 -0.282761 0
M  V30 3479 C 331.217 1.56754 1.11561 0
M  V30 3480 O 330.51 0.783482 1.74849 0
M  V30 3481 C 330.704 3.56002 -0.315776 0
M  V30 3482 C 330.533 4.1568 -1.71582 0
M  V30 3483 C 329.303 4.48555 -2.32651 0
M  V30 3484 C 331.501 4.39667 -2.66829 0
M  V30 3485 N 329.483 4.93698 -3.64877 0
M  V30 3486 C 330.854 4.86942 -3.8378 0
M  V30 3487 C 332.909 4.21724 -2.64675 0
M  V30 3488 C 331.612 5.18158 -4.98904 0
M  V30 3489 C 333.638 4.54049 -3.78937 0
M  V30 3490 C 333 5.01525 -4.94623 0
M  V30 3491 H 329.099 0.76756 -0.149583 0
M  V30 3492 H 331.683 1.69784 -0.952976 0
M  V30 3493 H 329.854 3.87046 0.324057 0
M  V30 3494 H 331.586 4.0443 0.147808 0
M  V30 3495 H 328.341 4.36128 -1.84633 0
M  V30 3496 H 328.765 5.20635 -4.32744 0
M  V30 3497 H 333.407 3.84228 -1.76433 0
M  V30 3498 H 331.125 5.54562 -5.87781 0
M  V30 3499 H 334.711 4.41795 -3.78561 0
M  V30 3500 H 333.591 5.26065 -5.81572 0
M  V30 3501 N 331.094 0.475555 1.50254 0
M  V30 3502 C 332.024 -0.30611 2.31485 0
M  V30 3503 C 333.005 -0.986228 1.38591 0
M  V30 3504 O 334.19 -0.982541 1.67511 0
M  V30 3505 C 331.32 -1.38588 3.1845 0
M  V30 3506 C 330.274 -0.827115 4.19932 0
M  V30 3507 C 329.6 -2.00551 4.95665 0
M  V30 3508 C 330.9 0.16463 5.2204 0
M  V30 3509 H 332.594 0.371866 2.97082 0
M  V30 3510 H 330.14 0.180282 1.42867 0
M  V30 3511 H 332.093 -1.94023 3.74076 0
M  V30 3512 H 330.817 -2.09269 2.50747 0
M  V30 3513 H 329.476 -0.294702 3.65414 0
M  V30 3514 H 329.124 -2.6994 4.2443 0
M  V30 3515 H 328.824 -1.63784 5.64313 0
M  V30 3516 H 330.348 -2.56468 5.54127 0
M  V30 3517 H 331.762 -0.300699 5.72511 0
M  V30 3518 H 330.159 0.446813 5.98434 0
M  V30 3519 H 331.229 1.08905 4.72512 0
M  V30 3520 N 332.573 -1.56217 0.208337 0
M  V30 3521 C 333.819 -1.98242 -0.427552 0
M  V30 3522 C 334.152 -1.09554 -1.60348 0
M  V30 3523 O 333.427 -0.15035 -1.93918 0
M  V30 3524 C 333.71 -3.4931 -0.874907 0
M  V30 3525 C 333.563 -4.48773 0.303751 0
M  V30 3526 C 334.882 -4.04424 -1.73577 0
M  V30 3527 H 332.001 -0.720744 -0.153936 0
M  V30 3528 H 334.643 -1.87586 0.30192 0
M  V30 3529 H 332.793 -3.58522 -1.49648 0
M  V30 3530 H 334.465 -4.51586 0.941682 0
M  V30 3531 H 332.708 -4.23194 0.953375 0
M  V30 3532 H 333.379 -5.51976 -0.0519883 0
M  V30 3533 H 335.855 -3.98075 -1.21143 0
M  V30 3534 H 334.731 -5.1047 -2.01771 0
M  V30 3535 H 334.992 -3.50494 -2.69456 0
M  V30 3536 N 334.051 0.0651679 -1.57465 0
M  V30 3537 C 335.014 1.06117 -2.03155 0
M  V30 3538 C 336.014 1.31204 -0.929632 0
M  V30 3539 O 337.204 1.26813 -1.19432 0
M  V30 3540 C 334.336 2.4032 -2.41783 0
M  V30 3541 H 335.529 0.667231 -2.92383 0
M  V30 3542 H 333.082 0.311075 -1.53173 0
M  V30 3543 H 333.817 2.84532 -1.55601 0
M  V30 3544 H 333.602 2.23451 -3.22199 0
M  V30 3545 H 335.092 3.11898 -2.77685 0
M  V30 3546 N 335.529 1.53961 0.336706 0
M  V30 3547 C 336.754 1.75797 1.10046 0
M  V30 3548 C 337.179 0.498985 1.81361 0
M  V30 3549 O 336.537 -0.548769 1.72795 0
M  V30 3550 C 336.585 2.94257 2.08436 0
M  V30 3551 O 335.689 2.64883 3.16087 0
M  V30 3552 H 335.03 0.582936 0.317934 0
M  V30 3553 H 337.56 2.00945 0.38501 0
M  V30 3554 H 337.57 3.21237 2.51537 0
M  V30 3555 H 336.245 3.85564 1.55927 0
M  V30 3556 H 334.822 2.48812 2.77753 0
M  V30 3557 N 337.007 -0.598083 1.45811 0
M  V30 3558 C 338.255 -1.35413 1.50026 0
M  V30 3559 C 338.576 -1.94444 0.147177 0
M  V30 3560 O 337.846 -1.77701 -0.824571 0
M  V30 3561 H 336.426 -0.502727 0.552517 0
M  V30 3562 H 339.088 -0.701606 1.81834 0
M  V30 3563 H 338.184 -2.16871 2.2444 0
M  V30 3564 N 338.485 -1.33259 -0.841409 0
M  V30 3565 C 339.435 -1.19872 -1.93945 0
M  V30 3566 C 340.419 -0.102269 -1.60575 0
M  V30 3567 O 341.611 -0.330114 -1.73894 0
M  V30 3568 C 338.74 -0.937517 -3.30251 0
M  V30 3569 C 337.826 -2.07629 -3.69799 0
M  V30 3570 N 338.217 -3.32604 -3.81062 0
M  V30 3571 C 336.515 -1.98242 -3.9952 0
M  V30 3572 C 337.216 -4.07275 -4.15333 0
M  V30 3573 N 336.192 -3.35691 -4.27566 0
M  V30 3574 H 339.994 -2.14604 -2.00805 0
M  V30 3575 H 337.508 -1.2523 -1.03398 0
M  V30 3576 H 339.505 -0.822545 -4.08705 0
M  V30 3577 H 338.165 0.00128798 -3.247 0
M  V30 3578 H 339.176 -3.67382 -3.65035 0
M  V30 3579 H 335.853 -1.12005 -4.02195 0
M  V30 3580 H 337.243 -5.1511 -4.31406 0
M  V30 3581 N 339.963 1.05934 -1.16686 0
M  V30 3582 C 340.91 2.13499 -0.876748 0
M  V30 3583 C 341.88 1.65162 0.176299 0
M  V30 3584 O 343.065 1.90757 0.0407143 0
M  V30 3585 C 340.205 3.42912 -0.387967 0
M  V30 3586 C 339.318 4.04964 -1.50426 0
M  V30 3587 C 338.453 5.22266 -0.970125 0
M  V30 3588 C 337.492 5.76309 -2.06238 0
M  V30 3589 N 336.629 6.84922 -1.54356 0
M  V30 3590 H 341.469 2.37654 -1.7979 0
M  V30 3591 H 339.006 1.16598 -0.896843 0
M  V30 3592 H 340.964 4.17111 -0.086186 0
M  V30 3593 H 339.594 3.18963 0.496235 0
M  V30 3594 H 338.646 3.28277 -1.92193 0
M  V30 3595 H 339.958 4.41122 -2.32836 0
M  V30 3596 H 339.112 6.03506 -0.621743 0
M  V30 3597 H 337.851 4.87564 -0.115377 0
M  V30 3598 H 336.856 4.93704 -2.41942 0
M  V30 3599 H 338.081 6.13062 -2.92115 0
M  V30 3600 H 336.027 6.52131 -0.711406 0
M  V30 3601 H 335.944 7.20043 -2.30379 0
M  V30 3602 H 337.212 7.69832 -1.22387 0
M  V30 3603 N 341.441 0.965919 1.2453 0
M  V30 3604 C 342.374 0.4393 2.23932 0
M  V30 3605 C 343.352 -0.485615 1.55179 0
M  V30 3606 O 344.536 -0.417402 1.83821 0
M  V30 3607 C 341.663 -0.366042 3.36716 0
M  V30 3608 C 340.709 0.5009 4.23548 0
M  V30 3609 S 341.542 1.94002 4.99123 0
M  V30 3610 C 342.698 1.14342 6.15367 0
M  V30 3611 H 342.931 1.28167 2.68254 0
M  V30 3612 H 340.464 0.770819 1.33782 0
M  V30 3613 H 342.422 -0.824724 4.0213 0
M  V30 3614 H 341.083 -1.18337 2.90956 0
M  V30 3615 H 340.276 -0.117341 5.03863 0
M  V30 3616 H 339.878 0.89524 3.63127 0
M  V30 3617 H 342.17 0.397572 6.76332 0
M  V30 3618 H 343.113 1.92089 6.81548 0
M  V30 3619 H 343.521 0.668579 5.60527 0
M  V30 3620 N 342.919 -1.39368 0.735821 0
M  V30 3621 C 344.159 -2.02349 0.288813 0
M  V30 3622 C 344.523 -1.57127 -1.10341 0
M  V30 3623 O 345.724 -2.12312 -1.64854 0
M  V30 3624 C 343.995 -3.55288 0.387986 0
M  V30 3625 S 345.554 -4.38795 0.0209408 0
M  V30 3626 H 342.372 -0.701944 0.113115 0
M  V30 3627 H 344.974 -1.70164 0.962518 0
M  V30 3628 H 343.678 -3.85691 1.40252 0
M  V30 3629 H 343.209 -3.92227 -0.303512 0
M  V30 3630 H 345.224 -4.81595 -1.19503 0
M  V30 3631 N 344.397 -0.483516 -1.5 0
M  V30 3632 C 345.36 0.292965 -2.2732 0
M  V30 3633 C 346.36 0.909499 -1.32608 0
M  V30 3634 O 347.55 0.776745 -1.55924 0
M  V30 3635 C 344.682 1.41854 -3.09984 0
M  V30 3636 H 345.875 -0.385289 -2.97415 0
M  V30 3637 H 343.428 -0.237942 -1.54478 0
M  V30 3638 H 344.163 2.13148 -2.44414 0
M  V30 3639 H 343.948 0.982114 -3.79601 0
M  V30 3640 H 345.438 1.96597 -3.68429 0
M  V30 3641 N 345.875 1.56104 -0.216619 0
M  V30 3642 C 347.286 1.844 0.292128 0
M  V30 3643 C 347.637 1.13788 1.59833 0
M  V30 3644 O 346.762 0.405888 2.12559 0
M  V30 3645 C 347.357 3.3452 0.53681 0
M  V30 3646 C 345.916 3.63151 0.989876 0
M  V30 3647 C 345.063 2.77255 0.0502302 0
M  V30 3648 H 348.014 1.52481 -0.439926 0
M  V30 3649 H 348.035 3.54459 1.38345 0
M  V30 3650 H 347.547 3.85885 -0.414031 0
M  V30 3651 H 345.648 3.17238 1.95425 0
M  V30 3652 H 345.761 4.71177 0.867698 0
M  V30 3653 H 344.125 2.48555 0.556117 0
M  V30 3654 H 344.908 3.31416 -0.89544 0
M  V30 3655 N 347.353 -0.0568162 1.57498 0
M  V30 3656 C 348.581 -0.765626 1.92213 0
M  V30 3657 C 348.996 -1.70353 0.813961 0
M  V30 3658 O 348.353 -1.81268 -0.211701 0
M  V30 3659 C 348.404 -1.5465 3.2675 0
M  V30 3660 O 348.125 -0.646278 4.33307 0
M  V30 3661 C 349.626 -2.35497 3.75574 0
M  V30 3662 H 346.846 -0.216835 0.634999 0
M  V30 3663 H 349.39 -0.0226146 2.04487 0
M  V30 3664 H 347.545 -2.24165 3.15957 0
M  V30 3665 H 347.959 -1.19093 5.108 0
M  V30 3666 H 349.433 -2.85722 4.72299 0
M  V30 3667 H 349.91 -3.15692 3.05344 0
M  V30 3668 H 350.516 -1.7111 3.8936 0
M  V30 3669 N 348.832 -1.54138 -0.328536 0
M  V30 3670 C 350.08 -1.71765 -1.06496 0
M  V30 3671 C 350.401 -0.49149 -1.88704 0
M  V30 3672 O 349.671 0.494539 -1.89555 0
M  V30 3673 H 348.251 -0.633295 -0.396164 0
M  V30 3674 H 350.913 -1.91429 -0.366176 0
M  V30 3675 H 350.009 -2.5951 -1.73381 0
M  V30 3676 N 350.31 0.590341 -1.46126 0
M  V30 3677 C 351.559 1.34499 -1.50309 0
M  V30 3678 C 351.872 1.94977 -0.156021 0
M  V30 3679 O 353.078 2.71395 -0.0756037 0
M  V30 3680 C 351.534 2.43723 -2.64815 0
M  V30 3681 C 351.142 1.89582 -4.0591 0
M  V30 3682 C 352.886 3.20579 -2.78262 0
M  V30 3683 C 350.793 2.9639 -5.11769 0
M  V30 3684 H 349.723 0.505593 -0.559368 0
M  V30 3685 H 352.374 0.630848 -1.72315 0
M  V30 3686 H 350.756 3.17902 -2.36124 0
M  V30 3687 H 351.93 1.21997 -4.44357 0
M  V30 3688 H 350.245 1.25418 -3.97063 0
M  V30 3689 H 352.842 4.00276 -3.54519 0
M  V30 3690 H 353.185 3.72684 -1.85505 0
M  V30 3691 H 353.718 2.53505 -3.06562 0
M  V30 3692 H 350.457 2.49181 -6.06291 0
M  V30 3693 H 349.977 3.62487 -4.77873 0
M  V30 3694 H 351.656 3.60474 -5.37278 0
M  V30 3695 N 351.788 1.33704 0.83433 0
M  V30 3696 C 353.036 1.25169 1.58673 0
M  V30 3697 C 353.357 -0.18127 1.94156 0
M  V30 3698 O 352.627 -1.11113 1.6134 0
M  V30 3699 H 351.207 0.4603 0.58833 0
M  V30 3700 H 353.869 1.67478 0.996847 0
M  V30 3701 H 352.965 1.84856 2.51465 0
M  V30 3702 N 353.266 -1.05314 1.17247 0
M  V30 3703 C 354.513 -1.78293 0.960091 0
M  V30 3704 C 354.841 -1.87658 -0.51136 0
M  V30 3705 O 354.096 -1.3718 -1.39571 0
M  V30 3706 C 354.395 -3.2229 1.54479 0
M  V30 3707 C 354.061 -3.32987 3.04024 0
M  V30 3708 C 352.723 -3.35613 3.44844 0
M  V30 3709 C 355.075 -3.34102 4.00031 0
M  V30 3710 C 352.403 -3.36982 4.8027 0
M  V30 3711 C 354.755 -3.3701 5.35357 0
M  V30 3712 C 353.419 -3.37923 5.75642 0
M  V30 3713 H 352.689 -0.652422 0.351322 0
M  V30 3714 H 355.336 -1.23782 1.46117 0
M  V30 3715 H 353.641 -3.7972 0.965391 0
M  V30 3716 H 355.338 -3.77376 1.35603 0
M  V30 3717 H 351.928 -3.31655 2.71483 0
M  V30 3718 H 356.112 -3.31276 3.69554 0
M  V30 3719 H 351.368 -3.35999 5.10798 0
M  V30 3720 H 355.542 -3.36822 6.09528 0
M  V30 3721 H 353.169 -3.38738 6.80559 0
M  V30 3722 N 354.744 -0.972509 -1.24016 0
M  V30 3723 C 355.674 -0.525548 -2.27509 0
M  V30 3724 C 356.655 0.437262 -1.64384 0
M  V30 3725 O 357.84 0.332343 -1.91335 0
M  V30 3726 C 354.97 0.180448 -3.46831 0
M  V30 3727 C 353.924 -0.698859 -4.22256 0
M  V30 3728 C 353.25 0.138903 -5.3452 0
M  V30 3729 C 354.55 -1.98582 -4.83076 0
M  V30 3730 H 356.244 -1.39058 -2.65148 0
M  V30 3731 H 353.79 -0.67009 -1.27459 0
M  V30 3732 H 355.743 0.504387 -4.18371 0
M  V30 3733 H 354.467 1.07987 -3.08231 0
M  V30 3734 H 353.126 -1.00614 -3.52523 0
M  V30 3735 H 352.774 1.03862 -4.9216 0
M  V30 3736 H 352.474 -0.446259 -5.85903 0
M  V30 3737 H 353.998 0.457404 -6.08884 0
M  V30 3738 H 355.412 -1.72715 -5.46665 0
M  V30 3739 H 353.809 -2.5181 -5.44713 0
M  V30 3740 H 354.879 -2.67769 -4.04262 0
M  V30 3741 N 356.222 1.38976 -0.743202 0
M  V30 3742 C 357.452 2.04339 -0.304807 0
M  V30 3743 C 357.86 1.56162 1.06819 0
M  V30 3744 O 357.203 0.725284 1.68776 0
M  V30 3745 C 357.265 3.58716 -0.237369 0
M  V30 3746 C 356.929 4.29905 -1.55018 0
M  V30 3747 C 357.926 4.55987 -2.49744 0
M  V30 3748 C 355.611 4.68294 -1.81675 0
M  V30 3749 C 357.605 5.19478 -3.69353 0
M  V30 3750 C 355.292 5.31512 -3.0156 0
M  V30 3751 C 356.29 5.57037 -3.9522 0
M  V30 3752 O 355.978 6.18941 -5.12998 0
M  V30 3753 H 355.71 0.663439 -0.12971 0
M  V30 3754 H 358.264 1.78852 -1.01001 0
M  V30 3755 H 356.494 3.83133 0.524003 0
M  V30 3756 H 358.183 4.05543 0.170121 0
M  V30 3757 H 358.949 4.26767 -2.30423 0
M  V30 3758 H 354.828 4.47779 -1.09615 0
M  V30 3759 H 358.372 5.39318 -4.42473 0
M  V30 3760 H 354.269 5.60153 -3.20778 0
M  V30 3761 H 355.037 6.37433 -5.13441 0
M  V30 3762 N 357.7 0.491464 1.49741 0
M  V30 3763 C 358.948 -0.0563141 2.02022 0
M  V30 3764 C 359.269 -1.38363 1.37407 0
M  V30 3765 O 358.539 -1.88702 0.526166 0
M  V30 3766 H 357.119 -0.0238014 0.746621 0
M  V30 3767 H 359.781 0.646533 1.83864 0
M  V30 3768 H 358.877 -0.192967 3.11503 0
M  V30 3769 N 359.178 -1.55987 0.224894 0
M  V30 3770 C 360.125 -2.20436 -0.68385 0
M  V30 3771 C 361.095 -1.16102 -1.18783 0
M  V30 3772 O 362.28 -1.4447 -1.24632 0
M  V30 3773 C 359.42 -2.89076 -1.88491 0
M  V30 3774 C 358.533 -4.08012 -1.41951 0
M  V30 3775 C 357.668 -4.64426 -2.5784 0
M  V30 3776 C 356.707 -5.75656 -2.08053 0
M  V30 3777 N 355.844 -6.26347 -3.17227 0
M  V30 3778 H 360.684 -2.97727 -0.12754 0
M  V30 3779 H 358.221 -1.47011 -0.0511978 0
M  V30 3780 H 360.179 -3.27059 -2.59014 0
M  V30 3781 H 358.809 -2.14298 -2.41405 0
M  V30 3782 H 357.861 -3.75492 -0.609095 0
M  V30 3783 H 359.173 -4.88375 -1.01447 0
M  V30 3784 H 358.327 -5.04869 -3.3644 0
M  V30 3785 H 357.066 -3.83233 -3.01635 0
M  V30 3786 H 356.071 -5.34712 -1.27916 0
M  V30 3787 H 357.296 -6.58686 -1.65255 0
M  V30 3788 H 355.242 -5.48067 -3.60497 0
M  V30 3789 H 355.159 -7.01843 -2.80986 0
M  V30 3790 H 356.427 -6.71447 -3.95953 0
M  V30 3791 N 360.656 0.0484629 -1.57525 0
M  V30 3792 C 361.566 1.07241 -2.08654 0
M  V30 3793 C 362.582 1.409 -1.02095 0
M  V30 3794 O 363.758 1.50609 -1.33712 0
M  V30 3795 C 360.823 2.36008 -2.5397 0
M  V30 3796 C 359.884 2.09108 -3.7493 0
M  V30 3797 C 359.117 3.31736 -4.18075 0
M  V30 3798 O 359.34 4.41714 -3.60895 0
M  V30 3799 O 358.274 3.18576 -5.10679 0
M  V30 3800 H 362.1 0.667965 -2.96263 0
M  V30 3801 H 359.685 0.26417 -1.47046 0
M  V30 3802 H 361.567 3.11747 -2.83535 0
M  V30 3803 H 360.242 2.75786 -1.69481 0
M  V30 3804 H 359.149 1.31 -3.50414 0
M  V30 3805 H 360.482 1.74198 -4.60343 0
M  V30 3806 N 362.134 1.5431 0.320358 0
M  V30 3807 C 363.044 1.86946 1.41734 0
M  V30 3808 C 364.06 0.761689 1.56443 0
M  V30 3809 O 365.236 1.05629 1.71477 0
M  V30 3810 C 362.301 2.09293 2.76401 0
M  V30 3811 C 361.362 3.33082 2.70841 0
M  V30 3812 C 360.595 3.54353 3.99086 0
M  V30 3813 O 360.818 2.79002 4.97508 0
M  V30 3814 O 359.752 4.47838 4.0215 0
M  V30 3815 H 363.578 2.80232 1.17062 0
M  V30 3816 H 361.163 1.40255 0.514673 0
M  V30 3817 H 363.045 2.25303 3.56113 0
M  V30 3818 H 361.72 1.19194 3.00956 0
M  V30 3819 H 360.627 3.22454 1.89668 0
M  V30 3820 H 361.96 4.23249 2.5124 0
M  V30 3821 N 363.613 -0.582584 1.46437 0
M  V30 3822 C 364.862 -1.337 1.5102 0
M  V30 3823 C 365.175 -1.94891 0.166359 0
M  V30 3824 O 366.381 -2.71351 0.0899954 0
M  V30 3825 C 364.837 -2.42315 2.66104 0
M  V30 3826 C 364.445 -1.87427 4.06909 0
M  V30 3827 C 366.189 -3.19099 2.79958 0
M  V30 3828 C 364.096 -2.93672 5.13333 0
M  V30 3829 H 363.026 -0.502619 0.562041 0
M  V30 3830 H 365.677 -0.621701 1.72647 0
M  V30 3831 H 364.059 -3.16645 2.37807 0
M  V30 3832 H 365.233 -1.19639 4.44998 0
M  V30 3833 H 363.548 -1.2331 3.97723 0
M  V30 3834 H 366.145 -3.9839 3.56636 0
M  V30 3835 H 366.488 -3.71695 1.87479 0
M  V30 3836 H 367.021 -2.51875 3.07902 0
M  V30 3837 H 363.76 -2.45962 6.07604 0
M  V30 3838 H 363.28 -3.59948 4.79789 0
M  V30 3839 H 364.959 -3.5762 5.39182 0
M  V30 3840 N 365.091 -1.34144 -0.827227 0
M  V30 3841 C 366.021 -1.28005 -1.95287 0
M  V30 3842 C 367.002 -0.158321 -1.69362 0
M  V30 3843 O 368.187 -0.349987 -1.9102 0
M  V30 3844 C 365.317 -1.03036 -3.31664 0
M  V30 3845 C 364.271 -2.11628 -3.72019 0
M  V30 3846 C 363.597 -1.71854 -5.0633 0
M  V30 3847 C 364.897 -3.53417 -3.8457 0
M  V30 3848 H 366.591 -2.22187 -2.00682 0
M  V30 3849 H 364.137 -1.0696 -0.964135 0
M  V30 3850 H 366.09 -0.973863 -4.09993 0
M  V30 3851 H 364.814 -0.0529391 -3.26557 0
M  V30 3852 H 363.473 -2.16339 -2.95961 0
M  V30 3853 H 363.121 -0.727841 -4.97706 0
M  V30 3854 H 362.821 -2.44531 -5.34302 0
M  V30 3855 H 364.345 -1.67692 -5.87122 0
M  V30 3856 H 365.759 -3.51142 -4.5318 0
M  V30 3857 H 364.156 -4.24679 -4.2399 0
M  V30 3858 H 365.226 -3.91072 -2.86689 0
M  V30 3859 N 366.569 1.04691 -1.17803 0
M  V30 3860 C 367.479 2.16057 -0.914151 0
M  V30 3861 C 368.495 1.73589 0.119503 0
M  V30 3862 O 369.671 2.01308 -0.0609468 0
M  V30 3863 C 366.736 3.4394 -0.436603 0
M  V30 3864 C 365.797 4.00825 -1.53746 0
M  V30 3865 C 365.03 5.22604 -1.0826 0
M  V30 3866 O 365.253 5.70367 0.0612244 0
M  V30 3867 O 364.187 5.7186 -1.87775 0
M  V30 3868 H 368.013 2.41169 -1.84584 0
M  V30 3869 H 365.598 1.1453 -0.959334 0
M  V30 3870 H 367.48 4.21024 -0.178057 0
M  V30 3871 H 366.155 3.20316 0.466869 0
M  V30 3872 H 365.062 3.25158 -1.84995 0
M  V30 3873 H 366.395 4.28778 -2.41683 0
M  V30 3874 N 368.047 0.979072 1.23499 0
M  V30 3875 C 369.01 0.523244 2.23147 0
M  V30 3876 C 370.01 -0.386406 1.56088 0
M  V30 3877 O 371.2 -0.180283 1.73265 0
M  V30 3878 C 368.332 -0.240739 3.40049 0
M  V30 3879 H 369.525 1.40432 2.64989 0
M  V30 3880 H 367.078 0.764824 1.36309 0
M  V30 3881 H 367.813 -1.13841 3.03662 0
M  V30 3882 H 367.598 0.412207 3.89927 0
M  V30 3883 H 369.088 -0.548297 4.13985 0
M  V30 3884 N 369.525 -1.3858 0.750561 0
M  V30 3885 C 370.458 -2.28095 0.0693139 0
M  V30 3886 C 371.436 -1.45217 -0.731491 0
M  V30 3887 O 372.62 -1.74587 -0.71076 0
M  V30 3888 C 369.747 -3.26282 -0.90871 0
M  V30 3889 C 368.793 -4.26056 -0.194507 0
M  V30 3890 S 369.626 -5.24026 1.10257 0
M  V30 3891 C 370.782 -6.2577 0.127542 0
M  V30 3892 H 371.015 -2.85526 0.8284 0
M  V30 3893 H 368.548 -1.44536 0.543014 0
M  V30 3894 H 370.506 -3.83367 -1.46766 0
M  V30 3895 H 369.167 -2.6784 -1.64075 0
M  V30 3896 H 368.36 -4.95249 -0.93512 0
M  V30 3897 H 367.962 -3.72852 0.292837 0
M  V30 3898 H 370.254 -6.73796 -0.707516 0
M  V30 3899 H 371.197 -7.03712 0.787044 0
M  V30 3900 H 371.605 -5.63938 -0.251803 0
M  V30 3901 N 371.003 -0.499398 -1.49478 0
M  V30 3902 C 372.414 -0.051215 -1.8663 0
M  V30 3903 C 372.765 1.36238 -1.41186 0
M  V30 3904 O 371.89 2.01502 -0.789051 0
M  V30 3905 C 372.485 -0.0861651 -3.3869 0
M  V30 3906 C 371.044 0.30667 -3.75149 0
M  V30 3907 C 370.191 -0.459397 -2.73468 0
M  V30 3908 H 373.142 -0.712264 -1.41818 0
M  V30 3909 H 373.163 0.709507 -3.73826 0
M  V30 3910 H 372.675 -1.11512 -3.71735 0
M  V30 3911 H 370.776 1.33892 -3.47712 0
M  V30 3912 H 370.889 -0.0116669 -4.79099 0
M  V30 3913 H 369.253 0.0905645 -2.54539 0
M  V30 3914 H 370.036 -1.4884 -3.09357 0
M  V30 3915 N 372.481 1.55866 -0.233164 0
M  V30 3916 C 373.892 1.847 0.272554 0
M  V30 3917 C 374.243 1.15477 1.58617 0
M  V30 3918 O 373.368 0.42841 2.12117 0
M  V30 3919 C 373.963 3.35071 0.501299 0
M  V30 3920 C 372.522 3.6418 0.951304 0
M  V30 3921 C 371.669 2.77292 0.0208209 0
M  V30 3922 H 374.62 1.52005 -0.456074 0
M  V30 3923 H 374.641 3.55906 1.34577 0
M  V30 3924 H 374.153 3.85424 -0.454936 0
M  V30 3925 H 372.254 3.19293 1.92049 0
M  V30 3926 H 372.367 4.72071 0.817675 0
M  V30 3927 H 370.731 2.49131 0.529723 0
M  V30 3928 H 371.514 3.30448 -0.93054 0
M  V30 3929 N 373.959 -0.0401083 1.57549 0
M  V30 3930 C 375.206 -0.733125 1.88763 0
M  V30 3931 C 375.534 -1.75946 0.829058 0
M  V30 3932 O 374.789 -1.94949 -0.171323 0
M  V30 3933 C 375.088 -1.44902 3.26708 0
M  V30 3934 C 374.754 -0.559707 4.47413 0
M  V30 3935 C 373.416 -0.314731 4.8017 0
M  V30 3936 C 375.768 0.0549743 5.21171 0
M  V30 3937 C 373.096 0.553886 5.8408 0
M  V30 3938 C 375.448 0.911229 6.26003 0
M  V30 3939 C 374.112 1.16577 6.57241 0
M  V30 3940 H 373.382 -0.268269 0.690733 0
M  V30 3941 H 376.029 0.00679408 1.91499 0
M  V30 3942 H 374.334 -2.26197 3.1991 0
M  V30 3943 H 376.031 -1.99058 3.48105 0
M  V30 3944 H 372.621 -0.760793 4.21794 0
M  V30 3945 H 376.805 -0.121344 4.96152 0
M  V30 3946 H 372.061 0.759518 6.06664 0
M  V30 3947 H 376.235 1.3941 6.82303 0
M  V30 3948 H 373.862 1.84058 7.37582 0
M  V30 3949 N 375.437 -1.54477 -0.31217 0
M  V30 3950 C 376.684 -1.73227 -1.04875 0
M  V30 3951 C 377.012 -0.512042 -1.87639 0
M  V30 3952 O 376.267 0.506131 -1.89042 0
M  V30 3953 C 376.566 -2.967 -1.99258 0
M  V30 3954 C 376.232 -4.30974 -1.32559 0
M  V30 3955 C 374.894 -4.67477 -1.141 0
M  V30 3956 C 377.246 -5.14258 -0.847835 0
M  V30 3957 C 374.574 -5.84852 -0.465326 0
M  V30 3958 C 376.926 -6.32327 -0.185931 0
M  V30 3959 C 375.59 -6.67499 0.0107077 0
M  V30 3960 H 374.86 -0.633881 -0.383765 0
M  V30 3961 H 377.507 -1.88727 -0.324731 0
M  V30 3962 H 375.812 -2.75935 -2.7815 0
M  V30 3963 H 377.509 -3.08401 -2.563 0
M  V30 3964 H 374.099 -4.02262 -1.4793 0
M  V30 3965 H 378.283 -4.86565 -0.978192 0
M  V30 3966 H 373.539 -6.10654 -0.301883 0
M  V30 3967 H 377.713 -6.96135 0.192211 0
M  V30 3968 H 375.34 -7.58306 0.536287 0
M  V30 3969 N 376.915 0.57481 -1.46744 0
M  V30 3970 C 378.163 1.33009 -1.52161 0
M  V30 3971 C 378.484 1.94185 -0.178092 0
M  V30 3972 O 377.754 1.7899 0.796196 0
M  V30 3973 H 376.334 0.493873 -0.560445 0
M  V30 3974 H 378.996 0.672589 -1.82927 0
M  V30 3975 H 378.092 2.13273 -2.27862 0
M  V30 3976 N 378.394 1.34581 0.820102 0
M  V30 3977 C 379.642 1.26845 1.57336 0
M  V30 3978 C 379.963 -0.160667 1.94337 0
M  V30 3979 O 379.233 -1.09396 1.6251 0
M  V30 3980 H 377.813 0.466514 0.583415 0
M  V30 3981 H 380.475 1.68526 0.979027 0
M  V30 3982 H 379.571 1.87513 2.4949 0
M  V30 3983 N 379.872 -1.04064 1.18357 0
M  V30 3984 C 381.12 -1.76915 0.977013 0
M  V30 3985 C 381.441 -1.88624 -0.494577 0
M  V30 3986 O 380.711 -1.41125 -1.3587 0
M  V30 3987 H 379.291 -0.65535 0.358504 0
M  V30 3988 H 381.953 -1.25592 1.49039 0
M  V30 3989 H 381.049 -2.78178 1.41504 0
M  V30 3990 N 381.35 -0.985608 -1.22978 0
M  V30 3991 C 382.26 -0.538548 -2.28335 0
M  V30 3992 C 383.276 0.409163 -1.69121 0
M  V30 3993 O 384.452 0.277797 -1.99475 0
M  V30 3994 C 381.517 0.146867 -3.46389 0
M  V30 3995 C 380.578 -0.842896 -4.20944 0
M  V30 3996 C 379.811 -0.190095 -5.33361 0
M  V30 3997 O 380.034 1.01767 -5.61248 0
M  V30 3998 O 378.968 -0.891289 -5.95264 0
M  V30 3999 H 382.794 -1.41487 -2.68729 0
M  V30 4000 H 380.379 -0.753495 -1.29007 0
M  V30 4001 H 382.261 0.531125 -4.1804 0
M  V30 4002 H 380.936 0.997871 -3.07935 0
M  V30 4003 H 379.843 -1.27795 -3.51595 0
M  V30 4004 H 381.176 -1.66287 -4.6326 0
M  V30 4005 N 382.828 1.3818 -0.7579 0
M  V30 4006 C 383.761 2.28055 -0.0814093 0
M  V30 4007 C 384.739 1.45603 0.723779 0
M  V30 4008 O 385.923 1.74961 0.701491 0
M  V30 4009 C 383.05 3.2676 0.891394 0
M  V30 4010 C 382.096 4.26153 0.171909 0
M  V30 4011 S 382.929 5.23434 -1.13035 0
M  V30 4012 C 384.085 6.25694 -0.160727 0
M  V30 4013 H 384.318 2.85082 -0.84353 0
M  V30 4014 H 381.851 1.44246 -0.550671 0
M  V30 4015 H 383.809 3.8414 1.44731 0
M  V30 4016 H 382.47 2.68706 1.62652 0
M  V30 4017 H 381.663 4.95738 0.908843 0
M  V30 4018 H 381.265 3.72691 -0.312606 0
M  V30 4019 H 383.557 6.74161 0.671773 0
M  V30 4020 H 384.5 7.03285 -0.824353 0
M  V30 4021 H 384.908 5.64064 0.221892 0
M  V30 4022 N 384.306 0.507319 1.49211 0
M  V30 4023 C 385.555 -0.0368315 2.01666 0
M  V30 4024 C 385.868 -1.37459 1.39156 0
M  V30 4025 O 387.074 -2.00579 1.82976 0
M  V30 4026 C 385.53 -0.116089 3.59713 0
M  V30 4027 C 385.138 1.2154 4.31198 0
M  V30 4028 C 386.882 -0.610268 4.2009 0
M  V30 4029 C 384.789 1.09796 5.81119 0
M  V30 4030 H 383.719 -0.0175376 0.753796 0
M  V30 4031 H 386.37 0.647691 1.71689 0
M  V30 4032 H 384.752 -0.8652 3.86433 0
M  V30 4033 H 385.926 1.9783 4.16173 0
M  V30 4034 H 384.241 1.64352 3.82593 0
M  V30 4035 H 386.838 -0.715742 5.29888 0
M  V30 4036 H 387.181 -1.61064 3.8388 0
M  V30 4037 H 387.714 0.0824916 3.97714 0
M  V30 4038 H 384.453 2.0728 6.21864 0
M  V30 4039 H 383.973 0.376058 5.9862 0
M  V30 4040 H 385.652 0.779281 6.4229 0
M  V30 4041 N 385.784 -1.5574 0.241426 0
M  V30 4042 C 386.747 -2.19877 -0.647063 0
M  V30 4043 C 387.747 -1.16642 -1.10686 0
M  V30 4044 O 388.937 -1.41757 -1.01245 0
M  V30 4045 C 386.069 -2.83797 -1.88871 0
M  V30 4046 H 387.262 -2.99772 -0.087574 0
M  V30 4047 H 384.815 -1.56298 -0.00813574 0
M  V30 4048 H 385.55 -2.07824 -2.48957 0
M  V30 4049 H 385.335 -3.59414 -1.56728 0
M  V30 4050 H 386.825 -3.32898 -2.52129 0
M  V30 4051 N 387.262 0.0317525 -1.57568 0
M  V30 4052 C 388.172 1.05021 -2.0978 0
M  V30 4053 C 389.188 1.39809 -1.03583 0
M  V30 4054 O 390.364 1.49182 -1.35302 0
M  V30 4055 C 387.429 2.33301 -2.56459 0
M  V30 4056 C 386.49 2.0512 -3.77127 0
M  V30 4057 C 385.723 3.27283 -4.2157 0
M  V30 4058 O 385.946 4.37861 -3.65559 0
M  V30 4059 O 384.88 3.13141 -5.14029 0
M  V30 4060 H 388.706 0.636505 -2.96955 0
M  V30 4061 H 386.291 0.248559 -1.47318 0
M  V30 4062 H 388.173 3.08722 -2.86825 0
M  V30 4063 H 386.848 2.73973 -1.72397 0
M  V30 4064 H 385.755 1.27276 -3.51784 0
M  V30 4065 H 387.088 1.69305 -4.62165 0
M  V30 4066 N 388.74 1.54641 0.303973 0
M  V30 4067 C 389.986 1.74038 1.04109 0
M  V30 4068 C 390.319 0.523051 1.87024 0
M  V30 4069 O 389.594 -0.479874 1.88487 0
M  V30 4070 C 389.877 3.02761 1.94955 0
M  V30 4071 C 389.73 4.34787 1.1524 0
M  V30 4072 C 391.049 3.27336 2.94175 0
M  V30 4073 H 388.168 0.63323 0.377079 0
M  V30 4074 H 390.81 1.87354 0.316001 0
M  V30 4075 H 388.96 2.9154 2.56782 0
M  V30 4076 H 390.632 4.57922 0.557236 0
M  V30 4077 H 388.875 4.31407 0.455053 0
M  V30 4078 H 389.546 5.21116 1.8205 0
M  V30 4079 H 392.022 3.38148 2.42477 0
M  V30 4080 H 390.898 4.18726 3.54908 0
M  V30 4081 H 391.159 2.45491 3.67677 0
M  V30 4082 N 390.218 -0.567019 1.47046 0
M  V30 4083 C 391.465 -1.32462 1.53167 0
M  V30 4084 C 391.793 -1.93571 0.189841 0
M  V30 4085 O 391.048 -1.77865 -0.816243 0
M  V30 4086 C 391.347 -2.4623 2.59047 0
M  V30 4087 C 391.013 -2.03014 4.02612 0
M  V30 4088 C 389.675 -1.90944 4.41694 0
M  V30 4089 C 392.027 -1.69895 4.92732 0
M  V30 4090 C 389.355 -1.44035 5.68745 0
M  V30 4091 C 391.707 -1.2446 6.20236 0
M  V30 4092 C 390.371 -1.10979 6.5821 0
M  V30 4093 H 389.641 -0.484713 0.560477 0
M  V30 4094 H 392.288 -0.636888 1.80599 0
M  V30 4095 H 390.593 -3.20517 2.25335 0
M  V30 4096 H 392.29 -3.04427 2.61008 0
M  V30 4097 H 388.88 -2.13348 3.71726 0
M  V30 4098 H 393.064 -1.78098 4.63244 0
M  V30 4099 H 388.32 -1.32254 5.96925 0
M  V30 4100 H 392.494 -0.978924 6.89485 0
M  V30 4101 H 390.121 -0.744078 7.5655 0
M  V30 4102 N 391.696 -1.35014 -0.812953 0
M  V30 4103 C 392.943 -1.27931 -1.56971 0
M  V30 4104 C 393.271 0.148034 -1.93936 0
M  V30 4105 O 392.526 1.11175 -1.61054 0
M  V30 4106 C 392.825 -2.12524 -2.87347 0
M  V30 4107 C 392.491 -3.61401 -2.6963 0
M  V30 4108 C 391.153 -4.01983 -2.64506 0
M  V30 4109 C 393.505 -4.55894 -2.52607 0
M  V30 4110 C 390.833 -5.35235 -2.40293 0
M  V30 4111 C 393.185 -5.89336 -2.29925 0
M  V30 4112 C 391.849 -6.2907 -2.23219 0
M  V30 4113 H 391.119 -0.468131 -0.574399 0
M  V30 4114 H 393.766 -1.66851 -0.939836 0
M  V30 4115 H 392.071 -1.66463 -3.54679 0
M  V30 4116 H 393.768 -2.04383 -3.45005 0
M  V30 4117 H 390.358 -3.29193 -2.74463 0
M  V30 4118 H 394.542 -4.25431 -2.55583 0
M  V30 4119 H 389.798 -5.65028 -2.33566 0
M  V30 4120 H 393.972 -6.62139 -2.15743 0
M  V30 4121 H 391.599 -7.32256 -2.04219 0
M  V30 4122 N 393.175 1.03435 -1.18907 0
M  V30 4123 C 394.452 1.73778 -0.89781 0
M  V30 4124 C 394.832 2.02458 0.597832 0
M  V30 4125 O 394.18 1.67482 1.55441 0
M  V30 4126 C 394.39 3.01845 -1.75187 0
M  V30 4127 C 395.738 3.7546 -1.9828 0
M  V30 4128 O 396.762 3.11759 -1.72293 0
M  V30 4129 O 395.621 4.89966 -2.42065 0
M  V30 4130 H 392.715 0.75651 -0.334098 0
M  V30 4131 H 395.261 1.09444 -1.29693 0
M  V30 4132 H 394.033 2.76836 -2.76545 0
M  V30 4133 H 393.656 3.73919 -1.35167 0
M  V30 4134 N 394.653 0.992116 1.22453 0
M  V30 4135 C 395.603 0.512969 2.22155 0
M  V30 4136 C 396.587 -0.418416 1.55364 0
M  V30 4137 O 397.779 -0.245363 1.75291 0
M  V30 4138 C 394.908 -0.171822 3.4287 0
M  V30 4139 C 393.994 0.779822 4.16869 0
M  V30 4140 N 394.385 1.92734 4.6764 0
M  V30 4141 C 392.683 0.59554 4.42006 0
M  V30 4142 C 393.384 2.52458 5.24061 0
M  V30 4143 N 392.36 1.80735 5.12675 0
M  V30 4144 H 396.162 1.38817 2.5905 0
M  V30 4145 H 393.676 0.854277 1.38115 0
M  V30 4146 H 395.673 -0.532469 4.13486 0
M  V30 4147 H 394.333 -1.04317 3.07487 0
M  V30 4148 H 395.344 2.30816 4.63621 0
M  V30 4149 H 392.021 -0.229805 4.16867 0
M  V30 4150 H 393.411 3.49433 5.73887 0
M  V30 4151 N 396.131 -1.37776 0.765217 0
M  V30 4152 C 397.378 -1.99849 0.326588 0
M  V30 4153 C 397.706 -1.60746 -1.09504 0
M  V30 4154 O 396.961 -0.84202 -1.76659 0
M  V30 4155 C 397.26 -3.5504 0.410053 0
M  V30 4156 C 396.926 -4.13891 1.78899 0
M  V30 4157 C 395.588 -4.29678 2.16635 0
M  V30 4158 C 397.94 -4.46236 2.69301 0
M  V30 4159 C 395.268 -4.7511 3.44221 0
M  V30 4160 C 397.62 -4.93089 3.9629 0
M  V30 4161 C 396.284 -5.07082 4.34078 0
M  V30 4162 H 395.554 -0.7313 0.119507 0
M  V30 4163 H 398.201 -1.64645 0.977968 0
M  V30 4164 H 396.506 -3.90451 -0.324878 0
M  V30 4165 H 398.203 -4.00966 0.0520699 0
M  V30 4166 H 394.793 -4.02026 1.48569 0
M  V30 4167 H 398.977 -4.3363 2.41409 0
M  V30 4168 H 394.233 -4.84129 3.73402 0
M  V30 4169 H 398.407 -5.17084 4.66472 0
M  V30 4170 H 396.034 -5.42046 5.33001 0
M  V30 4171 N 397.609 -0.515225 -1.4894 0
M  V30 4172 C 398.837 0.0206034 -2.0689 0
M  V30 4173 C 399.252 1.29514 -1.37374 0
M  V30 4174 O 398.609 1.76698 -0.456529 0
M  V30 4175 C 398.66 0.26351 -3.60538 0
M  V30 4176 O 398.381 -0.960517 -4.27441 0
M  V30 4177 C 399.882 0.841383 -4.35242 0
M  V30 4178 H 397.102 -0.0268608 -0.670462 0
M  V30 4179 H 399.646 -0.716651 -1.91532 0
M  V30 4180 H 397.801 0.950777 -3.75552 0
M  V30 4181 H 398.215 -0.73212 -5.19365 0
M  V30 4182 H 399.689 0.96085 -5.43573 0
M  V30 4183 H 400.166 1.8427 -3.98674 0
M  V30 4184 H 400.772 0.191143 -4.2487 0
M  V30 4185 N 399.087 1.5561 -0.249682 0
M  V30 4186 C 400.315 2.03411 0.378352 0
M  V30 4187 C 400.73 1.12886 1.51335 0
M  V30 4188 O 400.087 0.143833 1.81932 0
M  V30 4189 C 400.138 3.50537 0.88351 0
M  V30 4190 O 399.859 4.37614 -0.20626 0
M  V30 4191 C 401.36 4.14113 1.58195 0
M  V30 4192 H 398.58 0.664994 0.08958 0
M  V30 4193 H 401.124 2.01044 -0.374357 0
M  V30 4194 H 399.279 3.5343 1.58639 0
M  V30 4195 H 399.693 5.24199 0.177782 0
M  V30 4196 H 401.167 5.18741 1.8871 0
M  V30 4197 H 401.644 3.60767 2.50487 0
M  V30 4198 H 402.25 4.15151 0.923573 0
M  V30 4199 N 400.565 -0.0233959 1.57583 0
M  V30 4200 C 401.813 -0.711654 1.89156 0
M  V30 4201 C 402.134 -1.75591 0.848096 0
M  V30 4202 O 401.404 -1.95547 -0.117566 0
M  V30 4203 H 399.984 -0.265835 0.698098 0
M  V30 4204 H 402.646 0.0119948 1.94896 0
M  V30 4205 H 401.742 -1.19766 2.88206 0
M  V30 4206 N 402.043 -1.548 -0.295768 0
M  V30 4207 C 402.953 -1.89177 -1.38742 0
M  V30 4208 C 403.969 -0.786481 -1.55211 0
M  V30 4209 O 405.145 -1.08344 -1.69775 0
M  V30 4210 C 402.21 -2.13663 -2.73036 0
M  V30 4211 C 401.271 -3.37349 -2.65508 0
M  V30 4212 C 400.504 -3.60658 -3.93398 0
M  V30 4213 O 400.727 -2.86882 -4.93006 0
M  V30 4214 O 399.661 -4.54179 -3.94975 0
M  V30 4215 H 403.487 -2.82059 -1.12589 0
M  V30 4216 H 401.072 -1.41056 -0.492295 0
M  V30 4217 H 402.954 -2.3094 -3.52484 0
M  V30 4218 H 401.629 -1.23967 -2.99022 0
M  V30 4219 H 400.536 -3.25431 -1.84514 0
M  V30 4220 H 401.869 -4.27192 -2.44474 0
M  V30 4221 N 403.521 0.559213 -1.47345 0
M  V30 4222 C 404.451 1.67622 -1.62558 0
M  V30 4223 C 405.432 1.63331 -0.475087 0
M  V30 4224 O 406.617 1.80983 -0.704182 0
M  V30 4225 C 403.747 3.0626 -1.63774 0
M  V30 4226 C 402.701 3.25397 -2.7803 0
M  V30 4227 C 402.027 4.64801 -2.64318 0
M  V30 4228 C 403.327 3.10965 -4.19641 0
M  V30 4229 H 405.021 1.55146 -2.56067 0
M  V30 4230 H 402.567 0.744961 -1.23233 0
M  V30 4231 H 404.52 3.84247 -1.73008 0
M  V30 4232 H 403.244 3.1969 -0.66825 0
M  V30 4233 H 401.903 2.49817 -2.68304 0
M  V30 4234 H 401.551 4.75028 -1.65401 0
M  V30 4235 H 401.251 4.78555 -3.40968 0
M  V30 4236 H 402.775 5.44926 -2.75478 0
M  V30 4237 H 404.189 3.78772 -4.30354 0
M  V30 4238 H 402.586 3.36229 -4.97062 0
M  V30 4239 H 403.656 2.07736 -4.38148 0
M  V30 4240 N 404.999 1.35443 0.805782 0
M  V30 4241 C 406.41 1.25768 1.37983 0
M  V30 4242 C 406.761 -0.10958 1.95894 0
M  V30 4243 O 405.886 -1.01056 1.91355 0
M  V30 4244 C 406.481 2.27727 2.5085 0
M  V30 4245 C 405.04 2.2179 3.04115 0
M  V30 4246 C 404.187 2.13393 1.77084 0
M  V30 4247 H 407.138 1.4656 0.608752 0
M  V30 4248 H 407.159 1.90422 3.29424 0
M  V30 4249 H 406.671 3.27227 2.08671 0
M  V30 4250 H 404.772 1.25703 3.50756 0
M  V30 4251 H 404.885 3.13788 3.62042 0
M  V30 4252 H 403.249 1.59384 1.98668 0
M  V30 4253 H 404.032 3.14755 1.37056 0
M  V30 4254 N 406.477 -1.02803 1.19454 0
M  V30 4255 C 407.427 -2.0945 0.900827 0
M  V30 4256 C 408.411 -1.60335 -0.134715 0
M  V30 4257 O 409.603 -1.76857 0.0710924 0
M  V30 4258 C 406.732 -3.4044 0.442229 0
M  V30 4259 C 405.818 -3.96286 1.51056 0
M  V30 4260 N 406.209 -4.25785 2.73021 0
M  V30 4261 C 404.507 -4.24307 1.37404 0
M  V30 4262 C 405.208 -4.70654 3.41848 0
M  V30 4263 N 404.184 -4.72238 2.69243 0
M  V30 4264 H 407.986 -2.3015 1.82779 0
M  V30 4265 H 405.5 -1.20672 1.08683 0
M  V30 4266 H 407.497 -4.16354 0.21326 0
M  V30 4267 H 406.157 -3.21159 -0.478238 0
M  V30 4268 H 407.168 -4.15041 3.09776 0
M  V30 4269 H 403.845 -4.14285 0.517103 0
M  V30 4270 H 405.235 -5.02392 4.46152 0
M  V30 4271 N 407.956 -0.998596 -1.21925 0
M  V30 4272 C 408.903 -0.553621 -2.24062 0
M  V30 4273 C 409.873 0.416999 -1.6078 0
M  V30 4274 O 411.058 0.320482 -1.88089 0
M  V30 4275 C 408.198 0.119959 -3.44891 0
M  V30 4276 C 407.311 -0.893077 -4.22668 0
M  V30 4277 C 406.446 -0.192424 -5.30851 0
M  V30 4278 C 405.485 -1.19344 -6.00353 0
M  V30 4279 N 404.622 -0.520707 -7.00166 0
M  V30 4280 H 409.462 -1.4293 -2.61486 0
M  V30 4281 H 406.999 -0.715838 -1.28507 0
M  V30 4282 H 408.957 0.527459 -4.13852 0
M  V30 4283 H 407.587 0.959389 -3.08214 0
M  V30 4284 H 406.639 -1.41886 -3.52948 0
M  V30 4285 H 407.951 -1.65512 -4.70539 0
M  V30 4286 H 407.105 0.271515 -6.06092 0
M  V30 4287 H 405.844 0.602075 -4.83969 0
M  V30 4288 H 404.849 -1.66795 -5.23889 0
M  V30 4289 H 406.074 -1.98891 -6.49322 0
M  V30 4290 H 404.02 0.254252 -6.55507 0
M  V30 4291 H 403.937 -1.2211 -7.46073 0
M  V30 4292 H 405.205 -0.0797596 -7.79459 0
M  V30 4293 N 409.434 1.37368 -0.772513 0
M  V30 4294 C 410.681 1.99673 -0.337182 0
M  V30 4295 C 411.009 1.61324 1.0865 0
M  V30 4296 O 410.264 0.851377 1.7621 0
M  V30 4297 C 410.563 3.54817 -0.428876 0
M  V30 4298 C 410.229 4.12936 -1.81092 0
M  V30 4299 C 408.891 4.28523 -2.1891 0
M  V30 4300 C 411.243 4.44801 -2.71664 0
M  V30 4301 C 408.571 4.73277 -3.46735 0
M  V30 4302 C 410.923 4.90981 -3.98899 0
M  V30 4303 C 409.587 5.04773 -4.36761 0
M  V30 4304 H 408.857 0.730656 -0.123384 0
M  V30 4305 H 411.504 1.64124 -0.986686 0
M  V30 4306 H 409.809 3.90618 0.304167 0
M  V30 4307 H 411.506 4.00933 -0.0733334 0
M  V30 4308 H 408.096 4.01233 -1.50699 0
M  V30 4309 H 412.28 4.32344 -2.43706 0
M  V30 4310 H 407.536 4.82142 -3.75964 0
M  V30 4311 H 411.71 5.14603 -4.69208 0
M  V30 4312 H 409.337 5.39211 -5.35868 0
M  V30 4313 N 410.912 0.523116 1.48665 0
M  V30 4314 C 411.822 -0.247406 2.33292 0
M  V30 4315 C 412.838 -0.945769 1.46052 0
M  V30 4316 O 414.014 -0.922253 1.79043 0
M  V30 4317 C 411.079 -1.28487 3.22012 0
M  V30 4318 C 410.14 -0.597592 4.2512 0
M  V30 4319 C 409.373 -1.58563 5.09601 0
M  V30 4320 O 409.596 -2.81763 4.95949 0
M  V30 4321 O 408.53 -1.12879 5.91221 0
M  V30 4322 H 412.356 0.445869 3.00409 0
M  V30 4323 H 409.941 0.284128 1.46673 0
M  V30 4324 H 411.823 -1.88459 3.7691 0
M  V30 4325 H 410.498 -1.96068 2.57564 0
M  V30 4326 H 409.405 0.0424407 3.74076 0
M  V30 4327 H 410.738 0.0361517 4.92187 0
M  V30 4328 N 412.39 -1.55475 0.257931 0
M  V30 4329 C 413.353 -2.20551 -0.623706 0
M  V30 4330 C 414.353 -1.17809 -1.09443 0
M  V30 4331 O 415.543 -1.42823 -0.997362 0
M  V30 4332 C 412.675 -2.85784 -1.8585 0
M  V30 4333 H 413.868 -2.99848 -0.0557743 0
M  V30 4334 H 411.421 -1.56298 0.0084422 0
M  V30 4335 H 412.156 -2.10453 -2.46739 0
M  V30 4336 H 411.941 -3.61057 -1.52907 0
M  V30 4337 H 413.431 -3.35553 -2.48584 0
M  V30 4338 N 413.868 0.0150385 -1.57593 0
M  V30 4339 C 415.116 0.701613 -1.8953 0
M  V30 4340 C 415.437 1.75139 -0.857396 0
M  V30 4341 O 414.707 1.95607 0.107194 0
M  V30 4342 H 413.287 0.26213 -0.699498 0
M  V30 4343 H 415.949 -0.0223304 -1.94887 0
M  V30 4344 H 415.045 1.18236 -2.88837 0
M  V30 4345 N 415.346 1.54954 0.287554 0
M  V30 4346 C 416.574 1.78881 1.03967 0
M  V30 4347 C 416.989 0.554894 1.80462 0
M  V30 4348 O 416.346 -0.475676 1.76192 0
M  V30 4349 C 416.397 3.00488 2.0097 0
M  V30 4350 O 416.118 4.19113 1.27577 0
M  V30 4351 C 417.619 3.36907 2.88112 0
M  V30 4352 H 414.839 0.596259 0.307761 0
M  V30 4353 H 417.383 2.01937 0.322749 0
M  V30 4354 H 415.538 2.79601 2.68145 0
M  V30 4355 H 415.952 4.87765 1.92835 0
M  V30 4356 H 417.426 4.25205 3.52001 0
M  V30 4357 H 417.903 2.55659 3.57121 0
M  V30 4358 H 418.509 3.60001 2.26449 0
M  V30 4359 N 416.824 -0.551391 1.4764 0
M  V30 4360 C 418.235 -1.13349 1.48354 0
M  V30 4361 C 418.586 -1.94709 0.241432 0
M  V30 4362 O 417.711 -2.06306 -0.653205 0
M  V30 4363 C 418.306 -2.0623 2.68802 0
M  V30 4364 C 416.865 -2.597 2.72457 0
M  V30 4365 C 416.012 -1.36201 2.41546 0
M  V30 4366 H 418.963 -0.337698 1.55065 0
M  V30 4367 H 418.984 -2.90196 2.46103 0
M  V30 4368 H 418.496 -1.46987 3.59188 0
M  V30 4369 H 416.597 -3.22724 1.86225 0
M  V30 4370 H 416.71 -3.00296 3.73308 0
M  V30 4371 H 415.074 -1.67068 1.9225 0
M  V30 4372 H 415.857 -0.787425 3.34147 0
M  V30 4373 N 418.302 -1.35869 -0.798587 0
M  V30 4374 C 419.265 -1.29307 -1.89242 0
M  V30 4375 C 420.265 -0.202747 -1.59517 0
M  V30 4376 O 421.455 -0.456957 -1.681 0
M  V30 4377 C 418.587 -1.00229 -3.25833 0
M  V30 4378 H 419.78 -2.26576 -1.96478 0
M  V30 4379 H 417.333 -1.20509 -0.995358 0
M  V30 4380 H 418.068 -0.033801 -3.24282 0
M  V30 4381 H 417.853 -1.79121 -3.48795 0
M  V30 4382 H 419.343 -0.98219 -4.05885 0
M  V30 4383 N 419.78 1.02168 -1.19998 0
M  V30 4384 C 421.029 1.75091 -1.0013 0
M  V30 4385 C 421.342 1.89923 0.467835 0
M  V30 4386 O 422.548 2.59888 0.785515 0
M  V30 4387 C 421.004 3.14892 -1.74273 0
M  V30 4388 C 420.612 3.0809 -3.25245 0
M  V30 4389 C 422.356 3.9206 -1.62755 0
M  V30 4390 C 420.263 4.42867 -3.91948 0
M  V30 4391 H 419.193 0.656394 -0.37103 0
M  V30 4392 H 421.844 1.14284 -1.43567 0
M  V30 4393 H 420.226 3.7621 -1.2362 0
M  V30 4394 H 421.4 2.5611 -3.83072 0
M  V30 4395 H 419.715 2.44416 -3.3712 0
M  V30 4396 H 422.312 4.91764 -2.09934 0
M  V30 4397 H 422.655 4.12199 -0.582894 0
M  V30 4398 H 423.188 3.37359 -2.10793 0
M  V30 4399 H 419.927 4.27931 -4.96543 0
M  V30 4400 H 419.447 4.94874 -3.3891 0
M  V30 4401 H 421.126 5.11728 -3.95909 0
M  V30 4402 N 421.258 1.00505 1.21394 0
M  V30 4403 C 422.221 0.570459 2.21987 0
M  V30 4404 C 423.221 -0.353211 1.56873 0
M  V30 4405 O 424.411 -0.14349 1.73608 0
M  V30 4406 C 421.543 -0.168555 3.40483 0
M  V30 4407 H 422.736 1.46021 2.6195 0
M  V30 4408 H 420.289 0.793565 1.34656 0
M  V30 4409 H 421.024 -1.07374 3.06009 0
M  V30 4410 H 420.809 0.494823 3.88965 0
M  V30 4411 H 422.299 -0.460362 4.15055 0
M  V30 4412 N 422.737 -1.36956 0.779787 0
M  V30 4413 C 423.647 -2.33965 0.172491 0
M  V30 4414 C 424.663 -1.60574 -0.670222 0
M  V30 4415 O 425.839 -1.92617 -0.588263 0
M  V30 4416 C 422.904 -3.39761 -0.690173 0
M  V30 4417 C 421.965 -4.28964 0.169924 0
M  V30 4418 C 421.198 -5.29707 -0.651662 0
M  V30 4419 O 421.421 -5.38238 -1.88827 0
M  V30 4420 O 420.355 -6.01873 -0.0566264 0
M  V30 4421 H 424.181 -2.87647 0.974321 0
M  V30 4422 H 421.766 -1.39258 0.541078 0
M  V30 4423 H 423.648 -4.04471 -1.1824 0
M  V30 4424 H 422.323 -2.88394 -1.47006 0
M  V30 4425 H 421.23 -3.67326 0.708696 0
M  V30 4426 H 422.563 -4.83656 0.913085 0
M  V30 4427 N 424.215 -0.530993 -1.48385 0
M  V30 4428 C 425.178 0.220497 -2.28137 0
M  V30 4429 C 426.178 0.866851 -1.35434 0
M  V30 4430 O 427.368 0.726746 -1.58316 0
M  V30 4431 C 424.5 1.31921 -3.1434 0
M  V30 4432 H 425.693 -0.479714 -2.96038 0
M  V30 4433 H 423.246 -0.286968 -1.53643 0
M  V30 4434 H 423.981 2.05264 -2.51072 0
M  V30 4435 H 423.766 0.86085 -3.82533 0
M  V30 4436 H 425.256 1.84776 -3.74497 0
M  V30 4437 N 425.693 1.55336 -0.266172 0
M  V30 4438 C 426.942 1.98574 0.353749 0
M  V30 4439 C 427.255 1.15789 1.57646 0
M  V30 4440 O 428.461 1.49129 2.26876 0
M  V30 4441 C 426.917 3.53403 0.680747 0
M  V30 4442 C 426.525 4.44953 -0.52165 0
M  V30 4443 C 428.269 4.05251 1.26379 0
M  V30 4444 C 426.176 5.91156 -0.169736 0
M  V30 4445 H 425.106 0.741643 0.135949 0
M  V30 4446 H 427.757 1.79743 -0.369421 0
M  V30 4447 H 426.139 3.68001 1.46257 0
M  V30 4448 H 427.313 4.42121 -1.29869 0
M  V30 4449 H 425.628 4.03691 -1.02093 0
M  V30 4450 H 428.225 5.12021 1.54074 0
M  V30 4451 H 428.568 3.53749 2.19471 0
M  V30 4452 H 429.101 3.94057 0.544447 0
M  V30 4453 H 425.84 6.46736 -1.0683 0
M  V30 4454 H 425.36 5.97079 0.570717 0
M  V30 4455 H 427.039 6.4655 0.241245 0
M  V30 4456 N 427.171 -0.0066808 1.57599 0
M  V30 4457 C 428.134 -0.985035 2.06953 0
M  V30 4458 C 429.134 -1.27663 0.977687 0
M  V30 4459 O 430.324 -1.22293 1.24057 0
M  V30 4460 C 427.456 -2.3118 2.50536 0
M  V30 4461 H 428.649 -0.558255 2.94658 0
M  V30 4462 H 426.202 -0.254011 1.54222 0
M  V30 4463 H 426.937 -2.78561 1.66054 0
M  V30 4464 H 426.722 -2.11338 3.3027 0
M  V30 4465 H 428.212 -3.01377 2.8907 0
M  V30 4466 N 428.649 -1.55105 -0.279332 0
M  V30 4467 C 429.579 -1.90557 -1.34945 0
M  V30 4468 C 430.56 -0.766738 -1.51839 0
M  V30 4469 O 431.745 -1.02434 -1.64988 0
M  V30 4470 C 428.875 -2.17193 -2.71006 0
M  V30 4471 C 427.829 -3.33021 -2.68851 0
M  V30 4472 C 427.155 -3.45123 -4.08405 0
M  V30 4473 C 428.455 -4.69578 -2.28678 0
M  V30 4474 H 430.149 -2.80188 -1.05522 0
M  V30 4475 H 427.695 -1.34811 -0.506173 0
M  V30 4476 H 429.648 -2.40581 -3.45975 0
M  V30 4477 H 428.372 -1.24355 -3.01999 0
M  V30 4478 H 427.031 -3.0959 -1.9634 0
M  V30 4479 H 426.679 -2.49762 -4.3661 0
M  V30 4480 H 426.379 -4.22995 -4.07859 0
M  V30 4481 H 427.903 -3.70796 -4.85121 0
M  V30 4482 H 429.317 -4.92553 -2.93368 0
M  V30 4483 H 427.714 -5.5032 -2.39306 0
M  V30 4484 H 428.784 -4.68828 -1.23807 0
M  V30 4485 N 430.127 0.543554 -1.4793 0
M  V30 4486 C 431.375 1.29752 -1.54948 0
M  V30 4487 C 431.696 1.93764 -0.219242 0
M  V30 4488 O 430.966 1.80639 0.75805 0
M  V30 4489 H 429.546 0.481874 -0.570795 0
M  V30 4490 H 432.208 0.633636 -1.84312 0
M  V30 4491 H 431.304 2.08392 -2.32334 0
M  V30 4492 N 431.605 1.3629 0.791371 0
M  V30 4493 C 432.568 1.30309 1.88553 0
M  V30 4494 C 433.568 0.211204 1.59407 0
M  V30 4495 O 434.758 0.465865 1.67855 0
M  V30 4496 C 431.89 1.01956 3.25297 0
M  V30 4497 H 433.083 2.27614 1.95273 0
M  V30 4498 H 430.636 1.21035 0.988953 0
M  V30 4499 H 431.371 0.050998 3.2426 0
M  V30 4500 H 431.156 1.80968 3.4784 0
M  V30 4501 H 432.646 1.0037 4.05359 0
M  V30 4502 N 433.083 -1.0153 1.20538 0
M  V30 4503 C 434.046 -2.0826 0.957098 0
M  V30 4504 C 435.046 -1.60657 -0.0678655 0
M  V30 4505 O 436.236 -1.73385 0.168332 0
M  V30 4506 C 433.368 -3.38033 0.441188 0
M  V30 4507 H 434.561 -2.31719 1.90384 0
M  V30 4508 H 432.114 -1.1835 1.02093 0
M  V30 4509 H 432.849 -3.20249 -0.510961 0
M  V30 4510 H 432.634 -3.73911 1.18038 0
M  V30 4511 H 434.124 -4.16613 0.287009 0
M  V30 4512 N 434.561 -1.01147 -1.20859 0
M  V30 4513 C 435.807 -0.698899 -1.90377 0
M  V30 4514 C 436.14 0.76904 -1.78324 0
M  V30 4515 O 435.415 1.55817 -1.16409 0
M  V30 4516 C 435.698 -1.12878 -3.41951 0
M  V30 4517 C 435.551 -2.65665 -3.62963 0
M  V30 4518 C 436.87 -0.696114 -4.3456 0
M  V30 4519 H 433.989 -0.255372 -0.691342 0
M  V30 4520 H 436.631 -1.25831 -1.42361 0
M  V30 4521 H 434.781 -0.652827 -3.82976 0
M  V30 4522 H 436.453 -3.21074 -3.31224 0
M  V30 4523 H 434.696 -3.06878 -3.06608 0
M  V30 4524 H 435.367 -2.90797 -4.69192 0
M  V30 4525 H 437.843 -1.10521 -4.01154 0
M  V30 4526 H 436.719 -1.025 -5.39245 0
M  V30 4527 H 436.98 0.402465 -4.40264 0
M  V30 4528 N 436.039 1.36541 -0.78704 0
M  V30 4529 C 437.316 1.9355 -0.282424 0
M  V30 4530 C 437.696 1.71919 1.22503 0
M  V30 4531 O 437.044 1.07677 2.01539 0
M  V30 4532 C 437.254 3.4246 -0.672462 0
M  V30 4533 C 438.602 4.19582 -0.650863 0
M  V30 4534 O 439.626 3.50889 -0.612789 0
M  V30 4535 O 438.485 5.42106 -0.691623 0
M  V30 4536 H 435.579 0.824091 -0.0693 0
M  V30 4537 H 438.125 1.45736 -0.869423 0
M  V30 4538 H 436.897 3.51851 -1.71221 0
M  V30 4539 H 436.52 3.97556 -0.0592211 0
M  V30 4540 N 437.518 0.538854 1.48102 0
M  V30 4541 C 438.748 0.0122958 2.06596 0
M  V30 4542 C 439.156 -1.27861 1.39457 0
M  V30 4543 O 438.499 -1.77348 0.478907 0
M  V30 4544 C 438.561 -0.273131 3.58461 0
M  V30 4545 C 438.225 0.92561 4.47528 0
M  V30 4546 C 439.222 1.82637 4.86765 0
M  V30 4547 C 436.907 1.13511 4.89306 0
M  V30 4548 C 438.901 2.92047 5.66558 0
M  V30 4549 C 436.588 2.23233 5.68868 0
M  V30 4550 C 437.586 3.12333 6.07402 0
M  V30 4551 O 437.274 4.20155 6.85365 0
M  V30 4552 H 437.006 0.0344283 0.675123 0
M  V30 4553 H 439.56 0.746494 1.91355 0
M  V30 4554 H 437.79 -1.06141 3.71848 0
M  V30 4555 H 439.479 -0.742842 3.99045 0
M  V30 4556 H 440.245 1.67649 4.55103 0
M  V30 4557 H 436.124 0.450835 4.5879 0
M  V30 4558 H 439.668 3.6162 5.96554 0
M  V30 4559 H 435.565 2.38201 5.99942 0
M  V30 4560 H 436.333 4.17975 7.03732 0
M  V30 4561 N 438.996 -1.55193 0.274407 0
M  V30 4562 C 439.926 -2.25471 -0.607032 0
M  V30 4563 C 440.907 -1.24461 -1.15946 0
M  V30 4564 O 442.092 -1.53179 -1.19373 0
M  V30 4565 C 439.222 -2.97526 -1.79153 0
M  V30 4566 C 438.176 -4.05459 -1.37067 0
M  V30 4567 C 437.502 -4.65084 -2.6382 0
M  V30 4568 C 438.802 -5.19691 -0.521389 0
M  V30 4569 H 440.496 -2.99393 -0.0209343 0
M  V30 4570 H 438.042 -1.43997 -0.00862866 0
M  V30 4571 H 439.995 -3.45402 -2.41404 0
M  V30 4572 H 438.719 -2.21138 -2.40344 0
M  V30 4573 H 437.378 -3.58393 -0.771355 0
M  V30 4574 H 437.026 -3.85365 -3.23268 0
M  V30 4575 H 436.726 -5.37961 -2.36372 0
M  V30 4576 H 438.25 -5.15708 -3.26921 0
M  V30 4577 H 439.664 -5.63623 -1.04889 0
M  V30 4578 H 438.061 -5.99126 -0.341825 0
M  V30 4579 H 439.131 -4.82713 0.46 0
M  V30 4580 N 440.474 -0.00167713 -1.576 0
M  V30 4581 C 441.702 0.693759 -1.94922 0
M  V30 4582 C 442.117 1.67215 -0.876626 0
M  V30 4583 O 441.474 1.81929 0.144279 0
M  V30 4584 C 441.525 1.42416 -3.32265 0
M  V30 4585 O 441.246 0.485014 -4.35407 0
M  V30 4586 C 442.747 2.21395 -3.84056 0
M  V30 4587 H 439.967 0.193118 -0.642609 0
M  V30 4588 H 442.511 -0.0532952 -2.04431 0
M  V30 4589 H 440.666 2.12284 -3.24059 0
M  V30 4590 H 441.08 1.00053 -5.14868 0
M  V30 4591 H 442.554 2.67996 -4.82578 0
M  V30 4592 H 443.031 3.04142 -3.16851 0
M  V30 4593 H 443.637 1.56542 -3.95443 0
M  V30 4594 N 441.952 1.55251 0.271103 0
M  V30 4595 C 443.229 1.66664 1.02384 0
M  V30 4596 C 443.609 0.534363 2.04225 0
M  V30 4597 O 442.957 -0.465337 2.23712 0
M  V30 4598 C 443.167 3.05961 1.67895 0
M  V30 4599 C 444.515 3.63772 2.18986 0
M  V30 4600 O 445.539 3.08606 1.77878 0
M  V30 4601 O 444.398 4.60429 2.94393 0
M  V30 4602 H 441.492 0.676957 0.475035 0
M  V30 4603 H 444.038 1.67589 0.26681 0
M  V30 4604 H 442.81 3.79815 0.941071 0
M  V30 4605 H 442.433 3.08943 2.5028 0
M  V30 4606 N 443.43 -0.535701 1.48216 0
M  V30 4607 C 444.36 -1.65014 1.65204 0
M  V30 4608 C 445.341 -1.62554 0.501011 0
M  V30 4609 O 446.526 -1.7984 0.732886 0
M  V30 4610 C 443.656 -3.03616 1.68626 0
M  V30 4611 C 442.61 -3.20932 2.83172 0
M  V30 4612 C 441.936 -4.60537 2.71679 0
M  V30 4613 C 443.236 -3.04249 4.24535 0
M  V30 4614 H 444.93 -1.51053 2.58502 0
M  V30 4615 H 442.476 -0.725262 1.24402 0
M  V30 4616 H 444.429 -3.81446 1.79099 0
M  V30 4617 H 443.153 -3.18587 0.719026 0
M  V30 4618 H 441.812 -2.45517 2.72244 0
M  V30 4619 H 441.46 -4.72336 1.72937 0
M  V30 4620 H 441.16 -4.73069 3.48538 0
M  V30 4621 H 442.684 -5.40475 2.84112 0
M  V30 4622 H 444.098 -3.71877 4.36326 0
M  V30 4623 H 442.495 -3.28278 5.02348 0
M  V30 4624 H 443.565 -2.00739 4.41397 0
M  V30 4625 N 444.908 -1.36708 -0.784132 0
M  V30 4626 C 446.156 -1.30972 -1.53918 0
M  V30 4627 C 446.477 0.109086 -1.94695 0
M  V30 4628 O 445.747 1.05048 -1.65353 0
M  V30 4629 H 444.327 -0.481819 -0.570841 0
M  V30 4630 H 446.989 -1.71063 -0.934002 0
M  V30 4631 H 446.085 -1.94061 -2.44431 0
M  V30 4632 N 446.386 1.0089 -1.21074 0
M  V30 4633 C 447.319 2.09279 -0.909806 0
M  V30 4634 C 448.297 1.61986 0.141145 0
M  V30 4635 O 449.481 1.88495 0.0130332 0
M  V30 4636 C 446.608 3.36723 -0.365374 0
M  V30 4637 C 445.654 4.02919 -1.39852 0
M  V30 4638 S 446.487 4.45835 -2.96633 0
M  V30 4639 C 447.643 5.76471 -2.43786 0
M  V30 4640 H 447.876 2.34484 -1.82769 0
M  V30 4641 H 445.409 1.14115 -1.04006 0
M  V30 4642 H 447.367 4.10459 -0.0578203 0
M  V30 4643 H 446.028 3.09577 0.531136 0
M  V30 4644 H 445.221 4.94634 -0.967117 0
M  V30 4645 H 444.823 3.35441 -1.65395 0
M  V30 4646 H 447.115 6.52027 -1.84029 0
M  V30 4647 H 448.058 6.24418 -3.33928 0
M  V30 4648 H 448.466 5.33104 -1.85636 0
M  V30 4649 N 447.864 1.01787 1.20321 0
M  V30 4650 C 448.774 0.598898 2.26827 0
M  V30 4651 C 449.79 -0.36418 1.70146 0
M  V30 4652 O 450.966 -0.224812 2.00141 0
M  V30 4653 C 448.031 -0.0549769 3.46656 0
M  V30 4654 C 447.092 0.954205 4.18561 0
M  V30 4655 C 446.325 0.331439 5.3267 0
M  V30 4656 O 446.548 -0.86851 5.63749 0
M  V30 4657 O 445.482 1.0488 5.92692 0
M  V30 4658 H 449.308 1.48562 2.64883 0
M  V30 4659 H 446.893 0.787434 1.26964 0
M  V30 4660 H 448.775 -0.420102 4.19301 0
M  V30 4661 H 447.45 -0.915876 3.10473 0
M  V30 4662 H 446.357 1.37072 3.48083 0
M  V30 4663 H 447.69 1.78511 4.58688 0
M  V30 4664 N 449.342 -1.36122 0.79427 0
M  V30 4665 C 450.29 -2.31871 0.184023 0
M  V30 4666 C 451.284 -1.56041 -0.659365 0
M  V30 4667 O 452.49 -1.71266 -0.553906 0
M  V30 4668 H 448.865 -0.750896 0.0407373 0
M  V30 4669 H 450.836 -2.80898 1.00693 0
M  V30 4670 C 449.585 -3.41324 -0.662813 0
M  V30 4671 H 448.908 -3.99793 -0.0231944 0
M  V30 4672 H 450.348 -4.10629 -1.05639 0
M  V30 4673 C 448.807 -2.83308 -1.82313 0
M  V30 4674 O 449.337 -2.75863 -2.91997 0
M  V30 4675 N 447.543 -2.40529 -1.63077 0
M  V30 4676 H 447.09 -2.46785 -0.738591 0
M  V30 4677 H 447.048 -2.02059 -2.40872 0
M  V30 4678 N 450.82 -0.546701 -1.47814 0
M  V30 4679 C 452.069 -0.0166497 -2.01693 0
M  V30 4680 C 452.382 1.33721 -1.42752 0
M  V30 4681 O 453.588 1.95658 -1.8823 0
M  V30 4682 C 452.044 0.0206769 -3.59894 0
M  V30 4683 C 451.652 -1.3293 -4.27824 0
M  V30 4684 C 453.396 0.498674 -4.21561 0
M  V30 4685 C 451.303 -1.25165 -5.78003 0
M  V30 4686 H 450.233 -0.0024541 -0.753996 0
M  V30 4687 H 452.884 -0.692984 -1.69912 0
M  V30 4688 H 451.266 0.76244 -3.88591 0
M  V30 4689 H 452.44 -2.08795 -4.10781 0
M  V30 4690 H 450.755 -1.74438 -3.78101 0
M  V30 4691 H 453.352 0.575 -5.31599 0
M  V30 4692 H 453.695 1.5083 -3.88016 0
M  V30 4693 H 454.228 -0.18791 -3.97356 0
M  V30 4694 H 450.967 -2.23695 -6.1615 0
M  V30 4695 H 450.487 -0.53464 -5.97412 0
M  V30 4696 H 452.166 -0.949299 -6.39998 0
M  V30 4697 N 452.299 1.55045 -0.282633 0
M  V30 4698 C 453.249 2.19514 0.616249 0
M  V30 4699 C 454.233 1.16216 1.11277 0
M  V30 4700 O 455.425 1.42004 1.05659 0
M  V30 4701 C 452.554 2.92548 1.7964 0
M  V30 4702 C 451.64 4.03142 1.31671 0
M  V30 4703 N 452.031 5.0276 0.553695 0
M  V30 4704 C 450.329 4.1635 1.59903 0
M  V30 4705 C 451.03 5.80923 0.30054 0
M  V30 4706 N 450.006 5.3651 0.875116 0
M  V30 4707 H 453.808 2.93889 0.0255363 0
M  V30 4708 H 451.322 1.62169 -0.0865362 0
M  V30 4709 H 453.319 3.37188 2.45173 0
M  V30 4710 H 451.979 2.19685 2.39099 0
M  V30 4711 H 452.99 5.17512 0.20032 0
M  V30 4712 H 449.667 3.54682 2.20243 0
M  V30 4713 H 451.057 6.7118 -0.311053 0
M  V30 4714 N 453.777 0.010035 1.57597 0
M  V30 4715 C 454.725 -0.996272 2.10184 0
M  V30 4716 C 455.719 -1.34942 1.02406 0
M  V30 4717 O 456.925 -1.33389 1.20861 0
M  V30 4718 H 453.3 -0.338982 0.671264 0
M  V30 4719 H 455.271 -0.527272 2.93705 0
M  V30 4720 C 454.02 -2.27599 2.62857 0
M  V30 4721 H 453.343 -2.01295 3.45428 0
M  V30 4722 H 454.783 -2.96265 3.0332 0
M  V30 4723 C 453.242 -2.99269 1.54725 0
M  V30 4724 O 453.772 -3.90644 0.93597 0
M  V30 4725 N 451.978 -2.61269 1.27228 0
M  V30 4726 H 451.525 -1.87043 1.77123 0
M  V30 4727 H 451.483 -3.09534 0.550999 0
M  V30 4728 N 455.255 -1.55392 -0.262866 0
M  V30 4729 C 456.485 -1.80251 -1.00961 0
M  V30 4730 C 456.893 -0.58117 -1.80053 0
M  V30 4731 O 456.236 0.459427 -1.77862 0
M  V30 4732 C 456.298 -2.98207 -2.00781 0
M  V30 4733 C 455.962 -4.34856 -1.40533 0
M  V30 4734 C 456.959 -5.13459 -0.815853 0
M  V30 4735 C 454.644 -4.8153 -1.42948 0
M  V30 4736 C 456.638 -6.36875 -0.258562 0
M  V30 4737 C 454.325 -6.04899 -0.868334 0
M  V30 4738 C 455.323 -6.8241 -0.283884 0
M  V30 4739 O 455.011 -8.03451 0.268644 0
M  V30 4740 H 454.743 -0.604049 -0.303482 0
M  V30 4741 H 457.297 -2.03257 -0.295926 0
M  V30 4742 H 455.527 -2.70917 -2.75936 0
M  V30 4743 H 457.216 -3.10299 -2.61667 0
M  V30 4744 H 457.982 -4.78526 -0.789812 0
M  V30 4745 H 453.861 -4.21201 -1.87378 0
M  V30 4746 H 457.405 -6.97318 0.198257 0
M  V30 4747 H 453.302 -6.39312 -0.891649 0
M  V30 4748 H 454.07 -8.18346 0.158974 0
M  V30 4749 N 456.733 0.527833 -1.48498 0
M  V30 4750 C 457.643 1.65907 -1.65867 0
M  V30 4751 C 458.659 1.6537 -0.541192 0
M  V30 4752 O 459.835 1.84282 -0.812534 0
M  V30 4753 C 456.9 3.02364 -1.69637 0
M  V30 4754 C 455.961 3.1374 -2.93028 0
M  V30 4755 C 455.194 4.43688 -2.96609 0
M  V30 4756 O 455.417 5.30913 -2.08538 0
M  V30 4757 O 454.351 4.59475 -3.88802 0
M  V30 4758 H 458.177 1.5419 -2.61647 0
M  V30 4759 H 455.762 0.701163 -1.31924 0
M  V30 4760 H 457.644 3.83515 -1.74625 0
M  V30 4761 H 456.319 3.14401 -0.770312 0
M  V30 4762 H 455.226 2.31877 -2.93571 0
M  V30 4763 H 456.559 3.06621 -3.85026 0
M  V30 4764 N 458.211 1.37122 0.776871 0
M  V30 4765 C 459.457 1.32243 1.53752 0
M  V30 4766 C 459.79 -0.0944745 1.9397 0
M  V30 4767 O 459.065 -1.05068 1.6368 0
M  V30 4768 C 459.348 2.25681 2.80607 0
M  V30 4769 C 459.201 3.76127 2.46676 0
M  V30 4770 C 460.52 2.17657 3.82509 0
M  V30 4771 H 457.639 0.481704 0.557791 0
M  V30 4772 H 460.281 1.6778 0.891612 0
M  V30 4773 H 458.431 1.95505 3.35723 0
M  V30 4774 H 460.103 4.16877 1.97513 0
M  V30 4775 H 458.346 3.94946 1.79443 0
M  V30 4776 H 459.017 4.36933 3.37333 0
M  V30 4777 H 461.493 2.44245 3.36873 0
M  V30 4778 H 460.369 2.85185 4.69 0
M  V30 4779 H 460.63 1.16785 4.26396 0
M  V30 4780 N 459.689 -1.00246 1.21608 0
M  V30 4781 C 460.599 -2.12515 0.993709 0
M  V30 4782 C 461.615 -1.73913 -0.0549939 0
M  V30 4783 O 462.791 -2.00943 0.135619 0
M  V30 4784 C 459.856 -3.42083 0.563953 0
M  V30 4785 C 458.917 -3.94843 1.68516 0
M  V30 4786 C 458.15 -5.18226 1.27582 0
M  V30 4787 O 458.373 -5.70201 0.150506 0
M  V30 4788 O 457.307 -5.64497 2.0887 0
M  V30 4789 H 461.133 -2.34152 1.93407 0
M  V30 4790 H 458.718 -1.10891 1.00118 0
M  V30 4791 H 460.6 -4.20073 0.334194 0
M  V30 4792 H 459.275 -3.21828 -0.347665 0
M  V30 4793 H 458.182 -3.18068 1.96935 0
M  V30 4794 H 459.515 -4.19512 2.5743 0
M  V30 4795 N 461.167 -1.02423 -1.1978 0
M  V30 4796 C 462.097 -0.62157 -2.25075 0
M  V30 4797 C 463.078 0.367148 -1.6609 0
M  V30 4798 O 464.263 0.250892 -1.92573 0
M  V30 4799 C 461.393 0.0331826 -3.47284 0
M  V30 4800 C 460.347 -0.877323 -4.18912 0
M  V30 4801 C 459.673 -0.0879296 -5.34628 0
M  V30 4802 C 460.973 -2.18892 -4.74219 0
M  V30 4803 H 462.667 -1.50179 -2.59011 0
M  V30 4804 H 460.213 -0.723547 -1.24502 0
M  V30 4805 H 462.166 0.326488 -4.20133 0
M  V30 4806 H 460.89 0.948164 -3.12534 0
M  V30 4807 H 459.549 -1.15475 -3.47938 0
M  V30 4808 H 459.197 0.828941 -4.96123 0
M  V30 4809 H 458.897 -0.694359 -5.83483 0
M  V30 4810 H 460.421 0.198743 -6.10276 0
M  V30 4811 H 461.835 -1.95746 -5.38847 0
M  V30 4812 H 460.232 -2.74686 -5.33542 0
M  V30 4813 H 461.302 -2.84674 -3.92541 0
M  V30 4814 N 462.645 1.35699 -0.801477 0
M  V30 4815 C 463.873 2.03157 -0.391768 0
M  V30 4816 C 464.288 1.60412 0.995668 0
M  V30 4817 O 463.645 0.799228 1.64069 0
M  V30 4818 C 463.696 3.58566 -0.459671 0
M  V30 4819 O 463.417 3.99756 -1.7924 0
M  V30 4820 C 464.918 4.4328 -0.0421205 0
M  V30 4821 H 462.138 0.651688 -0.159825 0
M  V30 4822 H 464.682 1.73426 -1.08368 0
M  V30 4823 H 462.837 3.86963 0.183939 0
M  V30 4824 H 463.251 4.94387 -1.75162 0
M  V30 4825 H 464.725 5.51821 -0.140754 0
M  V30 4826 H 465.202 4.27383 1.01196 0
M  V30 4827 H 465.808 4.20168 -0.658687 0
M  V30 4828 N 464.123 0.554532 1.47522 0
M  V30 4829 C 465.073 -0.215008 2.26984 0
M  V30 4830 C 466.057 -0.88774 1.34194 0
M  V30 4831 O 467.249 -0.786489 1.58567 0
M  V30 4832 C 464.378 -1.24604 3.19889 0
M  V30 4833 C 463.464 -0.576857 4.20159 0
M  V30 4834 N 463.855 0.351541 5.04577 0
M  V30 4835 C 462.153 -0.831104 4.38188 0
M  V30 4836 C 462.854 0.739995 5.76974 0
M  V30 4837 N 461.83 0.0954407 5.43516 0
M  V30 4838 H 465.632 0.498843 2.89636 0
M  V30 4839 H 463.146 0.374279 1.58028 0
M  V30 4840 H 465.143 -1.81128 3.75498 0
M  V30 4841 H 463.803 -1.96101 2.58794 0
M  V30 4842 H 464.814 0.725556 5.12792 0
M  V30 4843 H 461.491 -1.53479 3.88266 0
M  V30 4844 H 462.881 1.50271 6.5488 0
M  V30 4845 N 465.601 -1.54893 0.290851 0
M  V30 4846 C 466.831 -2.04047 -0.323818 0
M  V30 4847 C 467.239 -1.16809 -1.48837 0
M  V30 4848 O 466.582 -0.184145 -1.82775 0
M  V30 4849 C 466.644 -3.49248 -0.852395 0
M  V30 4850 C 466.308 -4.56623 0.185557 0
M  V30 4851 C 467.305 -5.09985 1.01053 0
M  V30 4852 C 464.99 -5.01252 0.324332 0
M  V30 4853 C 466.984 -6.06507 1.96031 0
M  V30 4854 C 464.671 -5.97596 1.27757 0
M  V30 4855 C 465.669 -6.50107 2.09405 0
M  V30 4856 O 465.357 -7.44565 3.03114 0
M  V30 4857 H 465.089 -0.671735 -0.0758129 0
M  V30 4858 H 467.643 -2.00947 0.425393 0
M  V30 4859 H 465.873 -3.49639 -1.65195 0
M  V30 4860 H 467.562 -3.81654 -1.38185 0
M  V30 4861 H 468.328 -4.76307 0.914129 0
M  V30 4862 H 464.207 -4.60015 -0.301213 0
M  V30 4863 H 467.751 -6.47418 2.598 0
M  V30 4864 H 463.648 -6.30691 1.37473 0
M  V30 4865 H 464.416 -7.62334 2.97976 0
M  V30 4866 N 467.08 -0.0183926 -1.57589 0
M  V30 4867 C 468.01 0.965596 -2.12599 0
M  V30 4868 C 468.991 1.34641 -1.0395 0
M  V30 4869 O 470.176 1.42693 -1.31729 0
M  V30 4870 C 467.306 2.25149 -2.64434 0
M  V30 4871 C 466.26 2.01175 -3.77773 0
M  V30 4872 C 465.586 3.35937 -4.15994 0
M  V30 4873 C 466.886 1.35953 -5.04296 0
M  V30 4874 H 468.58 0.507504 -2.95067 0
M  V30 4875 H 466.126 0.242671 -1.41941 0
M  V30 4876 H 468.079 2.94357 -3.01549 0
M  V30 4877 H 466.803 2.73105 -1.79112 0
M  V30 4878 H 465.462 1.34388 -3.4108 0
M  V30 4879 H 465.11 3.81631 -3.27669 0
M  V30 4880 H 464.81 3.20705 -4.92364 0
M  V30 4881 H 466.334 4.0643 -4.55683 0
M  V30 4882 H 467.748 1.95144 -5.39065 0
M  V30 4883 H 466.145 1.31152 -5.85593 0
M  V30 4884 H 467.215 0.331071 -4.83768 0
M  V30 4885 N 468.558 1.5553 0.254621 0
M  V30 4886 C 469.804 1.7818 0.980989 0
M  V30 4887 C 470.159 0.586059 1.83257 0
M  V30 4888 O 469.452 -0.420889 1.8692 0
M  V30 4889 C 469.646 3.03891 1.88109 0
M  V30 4890 C 469.475 4.35578 1.11812 0
M  V30 4891 C 468.245 4.98497 0.826343 0
M  V30 4892 C 470.443 5.11869 0.499486 0
M  V30 4893 N 468.425 6.13888 0.0385095 0
M  V30 4894 C 469.796 6.1981 -0.153292 0
M  V30 4895 C 471.851 4.96216 0.409175 0
M  V30 4896 C 470.554 7.13801 -0.8877 0
M  V30 4897 C 472.58 5.90578 -0.311683 0
M  V30 4898 C 471.942 6.97922 -0.953129 0
M  V30 4899 H 468.041 0.704057 0.340335 0
M  V30 4900 H 470.625 1.93025 0.254855 0
M  V30 4901 H 468.796 2.90389 2.57932 0
M  V30 4902 H 470.528 3.14869 2.54244 0
M  V30 4903 H 467.283 4.59769 1.13621 0
M  V30 4904 H 467.707 6.76129 -0.343275 0
M  V30 4905 H 472.349 4.1331 0.890765 0
M  V30 4906 H 470.067 7.96214 -1.38092 0
M  V30 4907 H 473.653 5.80544 -0.382125 0
M  V30 4908 H 472.533 7.69681 -1.50203 0
M  V30 4909 N 470.036 -0.519951 1.48776 0
M  V30 4910 C 470.968 -1.63973 1.60142 0
M  V30 4911 C 471.981 -1.55404 0.485117 0
M  V30 4912 O 473.17 -1.61682 0.756391 0
M  V30 4913 C 470.27 -3.02676 1.52449 0
M  V30 4914 C 469.443 -3.36624 2.79291 0
M  V30 4915 C 468.502 -4.54652 2.64912 0
M  V30 4916 O 467.528 -4.57374 3.38818 0
M  V30 4917 N 468.73 -5.53432 1.75195 0
M  V30 4918 H 471.495 -1.54656 2.56713 0
M  V30 4919 H 469.056 -0.707439 1.45626 0
M  V30 4920 H 471.048 -3.79525 1.4051 0
M  V30 4921 H 469.618 -3.06018 0.638125 0
M  V30 4922 H 468.838 -2.48855 3.0572 0
M  V30 4923 H 470.126 -3.56094 3.6342 0
M  V30 4924 H 469.524 -5.54018 1.14371 0
M  V30 4925 H 468.081 -6.29459 1.69189 0
M  V30 4926 N 471.514 -1.37532 -0.769588 0
M  V30 4927 C 472.762 -1.32597 -1.5252 0
M  V30 4928 C 473.083 0.0884294 -1.94799 0
M  V30 4929 O 472.353 1.03289 -1.66458 0
M  V30 4930 H 470.933 -0.487846 -0.565699 0
M  V30 4931 H 473.595 -1.72044 -0.915806 0
M  V30 4932 H 472.691 -1.96643 -2.42359 0
M  V30 4933 N 472.992 0.995999 -1.22138 0
M  V30 4934 C 473.922 2.10387 -1.01289 0
M  V30 4935 C 474.903 1.69975 0.0651454 0
M  V30 4936 O 476.088 1.9396 -0.0964628 0
M  V30 4937 C 473.218 3.42312 -0.586517 0
M  V30 4938 C 472.172 3.96558 -1.61014 0
M  V30 4939 C 471.498 5.24494 -1.0397 0
M  V30 4940 C 472.798 4.27595 -2.99933 0
M  V30 4941 H 474.492 2.28086 -1.93951 0
M  V30 4942 H 472.038 1.09607 -0.933928 0
M  V30 4943 H 473.991 4.19223 -0.427793 0
M  V30 4944 H 472.715 3.24431 0.375761 0
M  V30 4945 H 471.374 3.21776 -1.75658 0
M  V30 4946 H 471.022 5.02953 -0.0688703 0
M  V30 4947 H 470.722 5.61755 -1.72352 0
M  V30 4948 H 472.246 6.04042 -0.892494 0
M  V30 4949 H 473.66 4.95315 -2.8868 0
M  V30 4950 H 472.057 4.76021 -3.6541 0
M  V30 4951 H 473.127 3.35498 -3.50099 0
M  V30 4952 N 474.47 1.03057 1.19235 0
M  V30 4953 C 475.718 0.726581 1.88587 0
M  V30 4954 C 476.039 -0.747227 1.80115 0
M  V30 4955 O 475.309 -1.53849 1.21274 0
M  V30 4956 H 473.889 0.265768 0.698124 0
M  V30 4957 H 476.551 1.30516 1.44746 0
M  V30 4958 H 475.647 1.0224 2.94879 0
M  V30 4959 N 475.948 -1.35272 0.808662 0
M  V30 4960 C 476.88 -2.28507 0.178149 0
M  V30 4961 C 477.893 -1.50377 -0.623754 0
M  V30 4962 O 479.082 -1.72583 -0.455774 0
M  V30 4963 C 476.182 -3.30038 -0.769959 0
M  V30 4964 C 475.355 -4.37398 -0.0139749 0
M  V30 4965 C 474.414 -5.18775 -0.880875 0
M  V30 4966 O 473.44 -5.68236 -0.331059 0
M  V30 4967 N 474.642 -5.37087 -2.20267 0
M  V30 4968 H 477.407 -2.83255 0.979106 0
M  V30 4969 H 474.968 -1.47643 0.664308 0
M  V30 4970 H 476.96 -3.81371 -1.35418 0
M  V30 4971 H 475.53 -2.75789 -1.47171 0
M  V30 4972 H 474.75 -3.86971 0.751468 0
M  V30 4973 H 476.038 -5.06268 0.506965 0
M  V30 4974 H 475.436 -4.9855 -2.67328 0
M  V30 4975 H 473.993 -5.91593 -2.73608 0
M  V30 4976 N 477.426 -0.562348 -1.47226 0
M  V30 4977 C 478.675 -0.038041 -2.01664 0
M  V30 4978 C 478.988 1.32199 -1.44162 0
M  V30 4979 O 480.194 1.9365 -1.90294 0
M  V30 4980 C 478.65 -0.0174958 -3.59896 0
M  V30 4981 C 478.258 -1.3746 -4.2639 0
M  V30 4982 C 480.002 0.453934 -4.22066 0
M  V30 4983 C 477.909 -1.31289 -5.76643 0
M  V30 4984 H 476.839 -0.0104511 -0.753928 0
M  V30 4985 H 479.49 -0.710966 -1.69167 0
M  V30 4986 H 477.872 0.721182 -3.89378 0
M  V30 4987 H 479.046 -2.1314 -4.08544 0
M  V30 4988 H 477.361 -1.78438 -3.7623 0
M  V30 4989 H 479.958 0.518584 -5.32179 0
M  V30 4990 H 480.301 1.46706 -3.89594 0
M  V30 4991 H 480.834 -0.230044 -3.97134 0
M  V30 4992 H 477.573 -2.30217 -6.13743 0
M  V30 4993 H 477.093 -0.597973 -5.96812 0
M  V30 4994 H 478.772 -1.01713 -6.38955 0
M  V30 4995 N 478.904 1.54736 -0.299062 0
M  V30 4996 C 480.315 1.8569 0.193971 0
M  V30 4997 C 480.666 1.22101 1.53577 0
M  V30 4998 O 479.791 0.51799 2.10109 0
M  V30 4999 C 480.386 3.36895 0.358733 0
M  V30 5000 C 478.945 3.67887 0.795986 0
M  V30 5001 C 478.092 2.77131 -0.096807 0
M  V30 5002 H 481.043 1.49934 -0.520134 0
M  V30 5003 H 481.064 3.61294 1.19361 0
M  V30 5004 H 480.576 3.83148 -0.617998 0
M  V30 5005 H 478.677 3.27151 1.78334 0
M  V30 5006 H 478.79 4.75114 0.616718 0
M  V30 5007 H 477.154 2.51153 0.423581 0
M  V30 5008 H 477.937 3.26204 -1.06986 0
M  V30 5009 N 480.382 0.0267497 1.57577 0
M  V30 5010 C 481.314 -0.984594 2.06974 0
M  V30 5011 C 482.327 -1.29032 0.992705 0
M  V30 5012 O 483.516 -1.25539 1.26895 0
M  V30 5013 C 480.616 -2.31262 2.47732 0
M  V30 5014 C 479.789 -2.1924 3.78487 0
M  V30 5015 C 478.848 -3.34956 4.05821 0
M  V30 5016 O 477.874 -3.11948 4.76106 0
M  V30 5017 N 479.076 -4.58672 3.55809 0
M  V30 5018 H 481.841 -0.563143 2.94362 0
M  V30 5019 H 479.402 -0.160061 1.61107 0
M  V30 5020 H 481.394 -3.07496 2.63112 0
M  V30 5021 H 479.964 -2.65056 1.65723 0
M  V30 5022 H 479.184 -1.27747 3.72927 0
M  V30 5023 H 480.472 -2.08409 4.64158 0
M  V30 5024 H 479.87 -4.8026 2.98942 0
M  V30 5025 H 478.427 -5.32083 3.76472 0
M  V30 5026 N 481.861 -1.55662 -0.24637 0
M  V30 5027 C 482.791 -1.93377 -1.30873 0
M  V30 5028 C 483.772 -0.798773 -1.50179 0
M  V30 5029 O 484.957 -1.0591 -1.62778 0
M  V30 5030 C 482.087 -2.22893 -2.66338 0
M  V30 5031 C 481.041 -3.38649 -2.61727 0
M  V30 5032 C 480.367 -3.53708 -4.00992 0
M  V30 5033 C 481.667 -4.74323 -2.18666 0
M  V30 5034 H 483.361 -2.82363 -0.995552 0
M  V30 5035 H 480.907 -1.35854 -0.477464 0
M  V30 5036 H 482.86 -2.47866 -3.40794 0
M  V30 5037 H 481.584 -1.30733 -2.99293 0
M  V30 5038 H 480.243 -3.13685 -1.89729 0
M  V30 5039 H 479.891 -2.58967 -4.31214 0
M  V30 5040 H 479.591 -4.31551 -3.98795 0
M  V30 5041 H 481.115 -3.81003 -4.77147 0
M  V30 5042 H 482.529 -4.98665 -2.82854 0
M  V30 5043 H 480.926 -5.55273 -2.27579 0
M  V30 5044 H 481.996 -4.71349 -1.13834 0
M  V30 5045 N 483.339 0.512053 -1.4905 0
M  V30 5046 C 484.755 0.84224 -1.35567 0
M  V30 5047 C 484.955 1.97878 -0.380319 0
M  V30 5048 O 484.011 2.51769 0.19201 0
M  V30 5049 C 485.324 1.19286 -2.76028 0
M  V30 5050 C 486.872 1.30171 -2.84648 0
M  V30 5051 C 487.347 1.68568 -4.25851 0
M  V30 5052 N 488.838 1.75638 -4.28609 0
M  V30 5053 C 489.573 2.06769 -5.34821 0
M  V30 5054 N 489.069 2.36201 -6.51292 0
M  V30 5055 N 490.862 2.07927 -5.22229 0
M  V30 5056 H 483.013 -0.237574 -2.11067 0
M  V30 5057 H 485.276 -0.0436747 -0.946993 0
M  V30 5058 H 484.982 0.431199 -3.49047 0
M  V30 5059 H 484.856 2.13889 -3.10695 0
M  V30 5060 H 487.243 2.05411 -2.11873 0
M  V30 5061 H 487.324 0.336457 -2.53578 0
M  V30 5062 H 486.968 0.938824 -4.99148 0
M  V30 5063 H 486.898 2.66174 -4.54377 0
M  V30 5064 H 489.389 1.55097 -3.44606 0
M  V30 5065 H 489.702 2.59112 -7.28066 0
M  V30 5066 H 488.047 2.33681 -6.54536 0
M  V30 5067 H 491.238 1.84403 -4.30248 0
M  V30 5068 H 491.411 2.31856 -6.05101 0
M  V30 5069 N 484.817 1.37938 0.762283 0
M  V30 5070 C 485.747 1.37176 1.88958 0
M  V30 5071 C 486.728 0.238945 1.68413 0
M  V30 5072 O 487.913 0.440726 1.89133 0
M  V30 5073 C 485.043 1.18742 3.2637 0
M  V30 5074 C 483.997 2.29136 3.61498 0
M  V30 5075 C 483.323 1.95816 4.97554 0
M  V30 5076 C 484.623 3.71363 3.6727 0
M  V30 5077 H 486.317 2.31509 1.89853 0
M  V30 5078 H 483.863 1.11438 0.912005 0
M  V30 5079 H 485.816 1.16837 4.04879 0
M  V30 5080 H 484.54 0.208683 3.25933 0
M  V30 5081 H 483.199 2.30213 2.85303 0
M  V30 5082 H 482.847 0.964475 4.93667 0
M  V30 5083 H 482.547 2.69745 5.22026 0
M  V30 5084 H 484.071 1.95513 5.78452 0
M  V30 5085 H 485.485 3.72364 4.35911 0
M  V30 5086 H 483.882 4.44425 4.03245 0
M  V30 5087 H 484.952 4.04305 2.67704 0
M  V30 5088 N 486.295 -0.989507 1.22664 0
M  V30 5089 C 487.525 -1.7624 1.0781 0
M  V30 5090 C 487.933 -1.85466 -0.374036 0
M  V30 5091 O 487.276 -1.32645 -1.27087 0
M  V30 5092 C 487.338 -3.21007 1.61849 0
M  V30 5093 C 487.002 -3.35316 3.10503 0
M  V30 5094 C 487.999 -3.22362 4.07896 0
M  V30 5095 C 485.684 -3.60258 3.50028 0
M  V30 5096 C 487.678 -3.34139 5.42798 0
M  V30 5097 C 485.365 -3.71676 4.85078 0
M  V30 5098 C 486.363 -3.58625 5.81272 0
M  V30 5099 O 486.051 -3.69655 7.1387 0
M  V30 5100 H 485.783 -0.560209 0.378341 0
M  V30 5101 H 488.337 -1.25252 1.62792 0
M  V30 5102 H 486.567 -3.73202 1.01279 0
M  V30 5103 H 488.256 -3.80024 1.42606 0
M  V30 5104 H 489.022 -3.03 3.78703 0
M  V30 5105 H 484.901 -3.69492 2.75675 0
M  V30 5106 H 488.445 -3.23869 6.17863 0
M  V30 5107 H 484.342 -3.90545 5.1395 0
M  V30 5108 H 485.11 -3.86507 7.21495 0
M  V30 5109 N 487.773 -1.03688 -1.18687 0
M  V30 5110 C 489.021 -0.736572 -1.88199 0
M  V30 5111 C 489.342 0.737665 -1.80509 0
M  V30 5112 O 488.612 1.53204 -1.22088 0
M  V30 5113 H 487.192 -0.269466 -0.696704 0
M  V30 5114 H 489.854 -1.31282 -1.44052 0
M  V30 5115 H 488.95 -1.03802 -2.94332 0
M  V30 5116 N 489.251 1.34841 -0.815825 0
M  V30 5117 C 490.662 1.80937 -0.46029 0
M  V30 5118 C 491.013 1.67685 1.01863 0
M  V30 5119 O 490.138 1.21277 1.79223 0
M  V30 5120 C 490.733 3.28509 -0.828708 0
M  V30 5121 C 489.292 3.72712 -0.525644 0
M  V30 5122 C 488.439 2.56676 -1.04941 0
M  V30 5123 H 491.39 1.22688 -1.00664 0
M  V30 5124 H 491.411 3.80279 -0.129757 0
M  V30 5125 H 490.923 3.38122 -1.90513 0
M  V30 5126 H 489.024 3.68642 0.541666 0
M  V30 5127 H 489.137 4.67119 -1.06474 0
M  V30 5128 H 487.501 2.50302 -0.471286 0
M  V30 5129 H 488.284 2.69063 -2.13214 0
M  V30 5130 N 490.729 0.570148 1.46925 0
M  V30 5131 C 491.677 -0.183181 2.31878 0
M  V30 5132 C 492.671 -0.896721 1.43719 0
M  V30 5133 O 493.877 -0.816536 1.60414 0
M  V30 5134 H 490.252 -0.077944 0.74795 0
M  V30 5135 H 492.223 0.552312 2.93244 0
M  V30 5136 C 490.972 -1.19172 3.2664 0
M  V30 5137 H 490.295 -0.652088 3.94446 0
M  V30 5138 H 491.735 -1.68946 3.88887 0
M  V30 5139 C 490.194 -2.24627 2.51086 0
M  V30 5140 O 490.724 -3.31773 2.26472 0
M  V30 5141 N 488.93 -1.98898 2.11867 0
M  V30 5142 H 488.477 -1.11777 2.32086 0
M  V30 5143 H 488.435 -2.6967 1.61634 0
M  V30 5144 N 492.207 -1.54576 0.307264 0
M  V30 5145 C 493.618 -1.8579 -0.184121 0
M  V30 5146 C 493.969 -1.22914 -1.52927 0
M  V30 5147 O 493.094 -0.529126 -2.09831 0
M  V30 5148 C 493.689 -3.37081 -0.340862 0
M  V30 5149 C 492.248 -3.68304 -0.776465 0
M  V30 5150 C 491.395 -2.77076 0.111503 0
M  V30 5151 H 494.346 -1.49656 0.528078 0
M  V30 5152 H 494.367 -3.61922 -1.17443 0
M  V30 5153 H 493.879 -3.82815 0.638309 0
M  V30 5154 H 491.98 -3.28092 -1.76596 0
M  V30 5155 H 492.093 -4.75434 -0.591512 0
M  V30 5156 H 490.457 -2.51374 -0.410256 0
M  V30 5157 H 491.24 -3.25632 1.08714 0
M  V30 5158 N 493.685 -0.035106 -1.57561 0
M  V30 5159 C 494.632 0.94474 -2.10578 0
M  V30 5160 C 495.602 1.3192 -1.00927 0
M  V30 5161 O 496.787 1.41147 -1.28382 0
M  V30 5162 C 493.927 2.21982 -2.64231 0
M  V30 5163 C 493.04 1.90128 -3.87911 0
M  V30 5164 C 492.175 3.11975 -4.29936 0
M  V30 5165 C 491.214 2.75968 -5.46359 0
M  V30 5166 N 490.351 3.90459 -5.83512 0
M  V30 5167 H 495.191 0.485717 -2.94015 0
M  V30 5168 H 492.728 0.228143 -1.4532 0
M  V30 5169 H 494.686 2.96572 -2.9343 0
M  V30 5170 H 493.316 2.6549 -1.83616 0
M  V30 5171 H 492.368 1.05755 -3.65404 0
M  V30 5172 H 493.68 1.59613 -4.72573 0
M  V30 5173 H 492.834 3.9488 -4.60603 0
M  V30 5174 H 491.573 3.45657 -3.44053 0
M  V30 5175 H 490.578 1.91478 -5.1538 0
M  V30 5176 H 491.803 2.43497 -6.33945 0
M  V30 5177 H 489.749 4.23971 -5.00584 0
M  V30 5178 H 489.666 3.63588 -6.62827 0
M  V30 5179 H 490.934 4.7405 -6.18787 0
M  V30 5180 N 495.163 1.55791 0.238111 0
M  V30 5181 C 496.113 1.87444 1.29803 0
M  V30 5182 C 497.097 0.736043 1.43078 0
M  V30 5183 O 498.289 0.998146 1.46171 0
M  V30 5184 C 495.418 2.18028 2.65177 0
M  V30 5185 C 494.504 3.38217 2.55871 0
M  V30 5186 N 494.895 4.57264 2.16202 0
M  V30 5187 C 493.193 3.41502 2.86866 0
M  V30 5188 C 493.894 5.3941 2.17744 0
M  V30 5189 N 492.87 4.78695 2.57589 0
M  V30 5190 H 496.672 2.7701 0.981965 0
M  V30 5191 H 494.186 1.56135 0.44672 0
M  V30 5192 H 496.183 2.38873 3.4168 0
M  V30 5193 H 494.843 1.29765 2.97643 0
M  V30 5194 H 495.854 4.82727 1.87602 0
M  V30 5195 H 492.531 2.63536 3.23813 0
M  V30 5196 H 493.921 6.44671 1.89339 0
M  V30 5197 N 496.642 -0.504142 1.49319 0
M  V30 5198 C 497.89 -1.25598 1.58334 0
M  V30 5199 C 498.211 -1.93114 0.270538 0
M  V30 5200 O 497.481 -1.82585 -0.709891 0
M  V30 5201 H 496.061 -0.466571 0.58337 0
M  V30 5202 H 498.723 -0.584547 1.85928 0
M  V30 5203 H 497.819 -2.02159 2.37778 0
M  V30 5204 N 498.12 -1.38341 -0.754957 0
M  V30 5205 C 499.397 -1.24995 -1.50451 0
M  V30 5206 C 499.777 0.149244 -2.10572 0
M  V30 5207 O 499.125 1.15861 -1.96948 0
M  V30 5208 C 499.335 -2.35904 -2.57197 0
M  V30 5209 C 500.683 -2.74262 -3.24138 0
M  V30 5210 O 501.707 -2.35205 -2.67501 0
M  V30 5211 O 500.566 -3.4161 -4.26574 0
M  V30 5212 H 497.66 -0.48872 -0.667144 0
M  V30 5213 H 500.206 -1.50165 -0.790486 0
M  V30 5214 H 498.978 -3.2953 -2.11011 0
M  V30 5215 H 498.601 -2.12291 -3.36182 0
M  V30 5216 N 499.598 0.982988 -1.23187 0
M  V30 5217 C 501.014 1.2487 -0.993967 0
M  V30 5218 C 501.214 1.99155 0.306498 0
M  V30 5219 O 500.27 2.30688 1.0266 0
M  V30 5220 C 501.583 2.05078 -2.19917 0
M  V30 5221 C 503.131 2.18227 -2.2438 0
M  V30 5222 C 503.606 3.01825 -3.44479 0
M  V30 5223 N 505.097 3.09411 -3.44702 0
M  V30 5224 C 505.832 3.74412 -4.34285 0
M  V30 5225 N 505.328 4.41259 -5.341 0
M  V30 5226 N 507.121 3.71273 -4.22035 0
M  V30 5227 H 499.272 0.485253 -2.06783 0
M  V30 5228 H 501.535 0.276979 -0.906635 0
M  V30 5229 H 501.241 1.57867 -3.14279 0
M  V30 5230 H 501.115 3.05829 -2.2079 0
M  V30 5231 H 503.502 2.64648 -1.30559 0
M  V30 5232 H 503.583 1.16873 -2.2754 0
M  V30 5233 H 503.227 2.56102 -4.38605 0
M  V30 5234 H 503.157 4.03342 -3.38559 0
M  V30 5235 H 505.648 2.61845 -2.7248 0
M  V30 5236 H 505.961 4.88629 -5.98717 0
M  V30 5237 H 504.306 4.39975 -5.38002 0
M  V30 5238 H 507.497 3.18217 -3.43301 0
M  V30 5239 H 507.67 4.21649 -4.92053 0
M  V30 5240 N 501.076 1.04316 1.18135 0
M  V30 5241 C 502.039 0.640794 2.2006 0
M  V30 5242 C 503.039 -0.303124 1.57917 0
M  V30 5243 O 504.229 -0.0881855 1.73977 0
M  V30 5244 C 501.361 -0.060148 3.40847 0
M  V30 5245 H 502.554 1.54281 2.57172 0
M  V30 5246 H 500.107 0.836004 1.32063 0
M  V30 5247 H 500.842 -0.975845 3.0927 0
M  V30 5248 H 500.627 0.618319 3.87194 0
M  V30 5249 H 502.117 -0.328082 4.16309 0
M  V30 5250 N 502.554 -1.34406 0.822964 0
M  V30 5251 C 503.517 -2.2783 0.250271 0
M  V30 5252 C 504.517 -1.50288 -0.571854 0
M  V30 5253 O 505.707 -1.69825 -0.387952 0
M  V30 5254 C 502.839 -3.34663 -0.649137 0
M  V30 5255 H 504.032 -2.79992 1.07444 0
M  V30 5256 H 501.585 -1.44539 0.594829 0
M  V30 5257 H 502.32 -2.87714 -1.49637 0
M  V30 5258 H 502.105 -3.92052 -0.0611199 0
M  V30 5259 H 503.595 -4.04349 -1.04363 0
M  V30 5260 N 504.032 -0.577932 -1.46621 0
M  V30 5261 C 504.962 0.145917 -2.33044 0
M  V30 5262 C 505.943 0.888412 -1.45056 0
M  V30 5263 O 507.128 0.864812 -1.73881 0
M  V30 5264 C 504.258 1.16322 -3.27241 0
M  V30 5265 C 503.212 0.535868 -4.24632 0
M  V30 5266 C 502.538 1.65929 -5.08303 0
M  V30 5267 C 503.838 -0.523861 -5.19666 0
M  V30 5268 H 505.532 -0.575636 -2.93814 0
M  V30 5269 H 503.078 -0.278272 -1.41286 0
M  V30 5270 H 505.031 1.67793 -3.86553 0
M  V30 5271 H 503.755 1.91498 -2.64567 0
M  V30 5272 H 502.414 0.0422759 -3.66576 0
M  V30 5273 H 502.062 2.40061 -4.42018 0
M  V30 5274 H 501.762 1.2452 -5.74255 0
M  V30 5275 H 503.286 2.17686 -5.70478 0
M  V30 5276 H 504.7 -0.0944059 -5.73222 0
M  V30 5277 H 503.097 -0.858 -5.93935 0
M  V30 5278 H 504.167 -1.41197 -4.63887 0
M  V30 5279 N 505.51 1.54411 -0.315457 0
M  V30 5280 C 506.473 2.22713 0.54142 0
M  V30 5281 C 507.473 1.2179 1.04995 0
M  V30 5282 O 508.663 1.46426 0.943667 0
M  V30 5283 C 505.795 2.92485 1.75116 0
M  V30 5284 H 506.988 2.99849 -0.0555508 0
M  V30 5285 H 504.541 1.56159 -0.0664453 0
M  V30 5286 H 505.276 2.19466 2.38758 0
M  V30 5287 H 505.061 3.66483 1.39401 0
M  V30 5288 H 506.551 3.44548 2.35959 0
M  V30 5289 N 506.988 0.0434614 1.5754 0
M  V30 5290 C 508.213 -0.645358 1.97104 0
M  V30 5291 C 508.638 -1.64037 0.920521 0
M  V30 5292 O 507.996 -1.80922 -0.11708 0
M  V30 5293 C 508.044 -1.31547 3.35749 0
M  V30 5294 O 507.148 -2.43103 3.33129 0
M  V30 5295 H 506.489 -0.168403 0.64229 0
M  V30 5296 H 509.019 0.109573 2.04306 0
M  V30 5297 H 509.029 -1.66895 3.72304 0
M  V30 5298 H 507.704 -0.586205 4.11748 0
M  V30 5299 H 506.281 -2.0976 3.0831 0
M  V30 5300 N 508.466 -1.55915 -0.229846 0
M  V30 5301 C 509.713 -1.78542 -0.955452 0
M  V30 5302 C 510.041 -0.610785 -1.84661 0
M  V30 5303 O 509.296 0.405213 -1.91459 0
M  V30 5304 C 509.595 -3.06845 -1.8325 0
M  V30 5305 C 509.261 -4.37395 -1.09528 0
M  V30 5306 C 507.923 -4.72868 -0.891598 0
M  V30 5307 C 510.275 -5.18029 -0.574046 0
M  V30 5308 C 507.603 -5.86496 -0.154655 0
M  V30 5309 C 509.955 -6.32423 0.149513 0
M  V30 5310 C 508.619 -6.66504 0.364519 0
M  V30 5311 H 507.889 -0.653333 -0.349625 0
M  V30 5312 H 510.536 -1.90183 -0.224235 0
M  V30 5313 H 508.841 -2.90291 -2.63132 0
M  V30 5314 H 510.538 -3.21553 -2.39592 0
M  V30 5315 H 507.128 -4.09538 -1.26399 0
M  V30 5316 H 511.312 -4.91066 -0.718899 0
M  V30 5317 H 506.568 -6.11396 0.0222356 0
M  V30 5318 H 510.742 -6.94137 0.560947 0
M  V30 5319 H 508.369 -7.54397 0.937495 0
M  V30 5320 N 509.944 0.496216 -1.49584 0
M  V30 5321 C 510.892 1.61805 -1.67098 0
M  V30 5322 C 511.886 1.60667 -0.536877 0
M  V30 5323 O 513.092 1.65118 -0.716654 0
M  V30 5324 H 509.467 0.53646 -0.526986 0
M  V30 5325 H 511.438 1.44187 -2.61252 0
M  V30 5326 C 510.187 2.99912 -1.75921 0
M  V30 5327 H 509.51 3.01496 -2.62565 0
M  V30 5328 H 510.95 3.77931 -1.92209 0
M  V30 5329 C 509.409 3.33092 -0.505088 0
M  V30 5330 O 509.939 4.00019 0.367085 0
M  V30 5331 N 508.145 2.88278 -0.366599 0
M  V30 5332 H 507.692 2.33989 -1.07735 0
M  V30 5333 H 507.65 3.10846 0.47142 0
M  V30 5334 N 511.423 1.38739 0.74761 0
M  V30 5335 C 512.669 1.35475 1.50912 0
M  V30 5336 C 513.002 -0.0533093 1.94127 0
M  V30 5337 O 512.277 -1.01572 1.65871 0
M  V30 5338 C 512.56 2.31582 2.75757 0
M  V30 5339 C 512.413 3.81274 2.38642 0
M  V30 5340 C 513.732 2.25722 3.77806 0
M  V30 5341 H 510.851 0.493427 0.547447 0
M  V30 5342 H 513.493 1.69634 0.855823 0
M  V30 5343 H 511.643 2.02582 3.31501 0
M  V30 5344 H 513.315 4.20972 1.88626 0
M  V30 5345 H 511.558 3.98664 1.71025 0
M  V30 5346 H 512.229 4.4399 3.27989 0
M  V30 5347 H 514.705 2.51336 3.31616 0
M  V30 5348 H 513.581 2.95069 4.62845 0
M  V30 5349 H 513.842 1.25803 4.23823 0
M  V30 5350 N 512.901 -0.976442 1.23707 0
M  V30 5351 C 513.864 -2.0511 1.02287 0
M  V30 5352 C 514.864 -1.60791 -0.0167195 0
M  V30 5353 O 516.054 -1.72761 0.223408 0
M  V30 5354 C 513.186 -3.36458 0.548507 0
M  V30 5355 H 514.379 -2.25545 1.9766 0
M  V30 5356 H 511.932 -1.15042 1.05806 0
M  V30 5357 H 512.667 -3.21713 -0.408818 0
M  V30 5358 H 512.452 -3.69967 1.29874 0
M  V30 5359 H 513.942 -4.15489 0.419406 0
M  V30 5360 N 514.379 -1.04941 -1.1758 0
M  V30 5361 C 515.627 -0.756492 -1.87408 0
M  V30 5362 C 515.948 0.718478 -1.81281 0
M  V30 5363 O 515.218 1.519 -1.23706 0
M  V30 5364 H 513.798 -0.276841 -0.693807 0
M  V30 5365 H 516.46 -1.32803 -1.42652 0
M  V30 5366 H 515.556 -1.06918 -2.93215 0
M  V30 5367 N 515.857 1.33968 -0.830081 0
M  V30 5368 C 516.787 2.31911 -0.271911 0
M  V30 5369 C 517.768 1.58571 0.61556 0
M  V30 5370 O 518.953 1.86514 0.540946 0
M  V30 5371 C 516.083 3.42737 0.561146 0
M  V30 5372 C 515.037 4.27383 -0.229789 0
M  V30 5373 C 514.363 5.29742 0.726463 0
M  V30 5374 C 515.663 5.02 -1.44197 0
M  V30 5375 H 517.357 2.78844 -1.09025 0
M  V30 5376 H 514.903 1.34061 -0.52571 0
M  V30 5377 H 516.856 4.10276 0.961867 0
M  V30 5378 H 515.58 2.94471 1.41261 0
M  V30 5379 H 514.239 3.61456 -0.611964 0
M  V30 5380 H 513.887 4.77736 1.57408 0
M  V30 5381 H 513.587 5.87255 0.20142 0
M  V30 5382 H 515.111 6.00149 1.12489 0
M  V30 5383 H 516.525 5.62355 -1.11488 0
M  V30 5384 H 514.922 5.69122 -1.90317 0
M  V30 5385 H 515.992 4.31281 -2.2164 0
M  V30 5386 N 517.335 0.585699 1.46312 0
M  V30 5387 C 518.285 -0.166813 2.27389 0
M  V30 5388 C 519.269 -0.859076 1.36047 0
M  V30 5389 O 520.461 -0.752678 1.60199 0
M  V30 5390 C 517.59 -1.17791 3.2246 0
M  V30 5391 C 516.676 -0.487605 4.21288 0
M  V30 5392 N 517.067 0.45849 5.03718 0
M  V30 5393 C 515.365 -0.737971 4.39852 0
M  V30 5394 C 516.066 0.862213 5.75275 0
M  V30 5395 N 515.042 0.210707 5.43191 0
M  V30 5396 H 518.844 0.560167 2.88512 0
M  V30 5397 H 516.358 0.407715 1.57199 0
M  V30 5398 H 518.355 -1.73122 3.79255 0
M  V30 5399 H 517.015 -1.90568 2.62896 0
M  V30 5400 H 518.026 0.834163 5.11138 0
M  V30 5401 H 514.703 -1.45209 3.91434 0
M  V30 5402 H 516.093 1.64128 6.51546 0
M  V30 5403 N 518.813 -1.54241 0.323641 0
M  V30 5404 C 519.776 -2.22997 -0.529602 0
M  V30 5405 C 520.776 -1.22345 -1.04347 0
M  V30 5406 O 521.966 -1.46924 -0.935889 0
M  V30 5407 C 519.098 -2.93409 -1.73562 0
M  V30 5408 H 520.291 -2.99815 0.0714518 0
M  V30 5409 H 517.844 -1.56121 0.0747258 0
M  V30 5410 H 518.579 -2.20729 -2.37591 0
M  V30 5411 H 518.364 -3.67217 -1.37456 0
M  V30 5412 H 519.854 -3.45794 -2.34128 0
M  V30 5413 N 520.291 -0.0518155 -1.57515 0
M  V30 5414 C 521.516 0.634896 -1.97443 0
M  V30 5415 C 521.941 1.63546 -0.929207 0
M  V30 5416 O 521.299 1.80981 0.107484 0
M  V30 5417 C 521.347 1.29765 -3.36442 0
M  V30 5418 O 520.451 2.41333 -3.34413 0
M  V30 5419 H 519.792 0.164994 -0.643174 0
M  V30 5420 H 522.322 -0.120407 -2.04245 0
M  V30 5421 H 522.332 1.64918 -3.73184 0
M  V30 5422 H 521.007 0.564361 -4.12053 0
M  V30 5423 H 519.584 2.08122 -3.09418 0
M  V30 5424 N 521.769 1.56035 0.221574 0
M  V30 5425 C 523.046 1.69837 0.970301 0
M  V30 5426 C 523.426 0.599065 2.02421 0
M  V30 5427 O 522.774 -0.393929 2.25079 0
M  V30 5428 C 522.984 3.11148 1.58076 0
M  V30 5429 C 524.332 3.70555 2.07302 0
M  V30 5430 O 525.356 3.14109 1.6797 0
M  V30 5431 O 524.215 4.69562 2.79596 0
M  V30 5432 H 521.309 0.691727 0.453257 0
M  V30 5433 H 523.855 1.68353 0.213358 0
M  V30 5434 H 522.627 3.82617 0.819759 0
M  V30 5435 H 522.25 3.16749 2.40324 0
M  V30 5436 N 523.247 -0.488276 1.49845 0
M  V30 5437 C 524.493 -1.24341 1.6021 0
M  V30 5438 C 524.826 -1.91967 0.293651 0
M  V30 5439 O 524.101 -1.81323 -0.703718 0
M  V30 5440 C 524.384 -2.3005 2.77036 0
M  V30 5441 C 524.237 -1.66842 4.17713 0
M  V30 5442 C 525.556 -3.31509 2.89464 0
M  V30 5443 H 522.675 -0.450704 0.583125 0
M  V30 5444 H 525.317 -0.539673 1.82174 0
M  V30 5445 H 523.467 -2.90071 2.58439 0
M  V30 5446 H 525.139 -1.1055 4.47858 0
M  V30 5447 H 523.382 -0.972079 4.22768 0
M  V30 5448 H 524.053 -2.43576 4.95353 0
M  V30 5449 H 526.529 -2.81493 3.06433 0
M  V30 5450 H 525.405 -4.02822 3.72861 0
M  V30 5451 H 525.666 -3.94603 1.99351 0
M  V30 5452 N 524.725 -1.39134 -0.740242 0
M  V30 5453 C 525.688 -1.37217 -1.83587 0
M  V30 5454 C 526.688 -0.270221 -1.58513 0
M  V30 5455 O 527.878 -0.527843 -1.6601 0
M  V30 5456 C 525.01 -1.13959 -3.21288 0
M  V30 5457 H 526.203 -2.34705 -1.86691 0
M  V30 5458 H 523.756 -1.24622 -0.94335 0
M  V30 5459 H 524.491 -0.17131 -3.23847 0
M  V30 5460 H 524.276 -1.93754 -3.40884 0
M  V30 5461 H 525.766 -1.15346 -4.01354 0
M  V30 5462 N 526.204 0.969867 -1.24223 0
M  V30 5463 C 527.432 1.74756 -1.10761 0
M  V30 5464 C 527.847 1.85713 0.340041 0
M  V30 5465 O 527.204 1.34389 1.23474 0
M  V30 5466 C 527.255 3.16915 -1.73917 0
M  V30 5467 O 526.976 3.06511 -3.13021 0
M  V30 5468 C 528.477 4.11032 -1.66036 0
M  V30 5469 H 525.697 0.548092 -0.387087 0
M  V30 5470 H 528.241 1.2178 -1.64286 0
M  V30 5471 H 526.396 3.66884 -1.244 0
M  V30 5472 H 526.81 3.96079 -3.43834 0
M  V30 5473 H 528.284 5.08446 -2.14911 0
M  V30 5474 H 528.761 4.34785 -0.621159 0
M  V30 5475 H 529.367 3.66972 -2.14969 0
M  V30 5476 N 527.682 1.05563 1.17022 0
M  V30 5477 C 528.615 0.604197 2.20056 0
M  V30 5478 C 529.593 -0.369169 1.58354 0
M  V30 5479 O 530.777 -0.279898 1.8641 0
M  V30 5480 C 527.904 -0.115265 3.38504 0
M  V30 5481 C 526.95 0.813698 4.18666 0
M  V30 5482 S 527.783 2.30492 4.83357 0
M  V30 5483 C 528.939 1.59674 6.0519 0
M  V30 5484 H 529.172 1.47713 2.58008 0
M  V30 5485 H 526.705 0.867932 1.27696 0
M  V30 5486 H 528.663 -0.524162 4.0714 0
M  V30 5487 H 527.324 -0.964284 2.98932 0
M  V30 5488 H 526.517 0.256736 5.03346 0
M  V30 5489 H 526.119 1.16213 3.55486 0
M  V30 5490 H 528.411 0.898164 6.7152 0
M  V30 5491 H 529.354 2.42115 6.65422 0
M  V30 5492 H 529.762 1.08252 5.54023 0
M  V30 5493 N 529.16 -1.33526 0.837174 0
M  V30 5494 C 530.406 -1.9813 0.432704 0
M  V30 5495 C 530.739 -1.66168 -1.00508 0
M  V30 5496 O 530.014 -0.94069 -1.70239 0
M  V30 5497 C 530.297 -3.54151 0.651834 0
M  V30 5498 C 530.15 -3.95806 2.13676 0
M  V30 5499 C 531.469 -4.39993 0.0968937 0
M  V30 5500 H 528.588 -0.719713 0.15869 0
M  V30 5501 H 531.23 -1.58193 1.05237 0
M  V30 5502 H 529.38 -3.88301 0.124369 0
M  V30 5503 H 531.052 -3.71921 2.72896 0
M  V30 5504 H 529.295 -3.45599 2.62191 0
M  V30 5505 H 529.966 -5.0447 2.24084 0
M  V30 5506 H 532.442 -4.12479 0.547733 0
M  V30 5507 H 531.318 -5.48186 0.279917 0
M  V30 5508 H 531.579 -4.3066 -0.9992 0
M  V30 5509 N 530.638 -0.59345 -1.46 0
M  V30 5510 C 531.915 -0.0157933 -1.95594 0
M  V30 5511 C 532.295 1.44807 -1.53604 0
M  V30 5512 O 531.643 2.14342 -0.791824 0
M  V30 5513 C 531.853 -0.199081 -3.48432 0
M  V30 5514 C 533.201 -0.0724943 -4.24538 0
M  V30 5515 O 534.225 -0.128469 -3.55968 0
M  V30 5516 O 533.084 0.0542426 -5.46473 0
M  V30 5517 H 530.178 0.043749 -0.825842 0
M  V30 5518 H 532.724 -0.662522 -1.56233 0
M  V30 5519 H 531.496 -1.21631 -3.71916 0
M  V30 5520 H 531.119 0.483576 -3.94648 0
M  V30 5521 N 532.116 1.54067 -0.331816 0
M  V30 5522 C 533.048 2.22139 0.564538 0
M  V30 5523 C 534.061 1.22408 1.07332 0
M  V30 5524 O 535.25 1.4883 0.985481 0
M  V30 5525 C 532.35 2.87876 1.78831 0
M  V30 5526 C 531.523 4.13817 1.41682 0
M  V30 5527 C 530.582 4.63072 2.49901 0
M  V30 5528 O 529.608 5.27562 2.13699 0
M  V30 5529 N 530.81 4.38001 3.80967 0
M  V30 5530 H 533.575 2.99694 -0.0183736 0
M  V30 5531 H 531.136 1.61153 -0.155396 0
M  V30 5532 H 533.128 3.17747 2.50637 0
M  V30 5533 H 531.698 2.13977 2.27887 0
M  V30 5534 H 530.918 3.9062 0.530044 0
M  V30 5535 H 532.206 4.95762 1.14443 0
M  V30 5536 H 531.604 3.864 4.13173 0
M  V30 5537 H 530.161 4.72507 4.48977 0
M  V30 5538 N 533.594 0.0601682 1.57485 0
M  V30 5539 C 534.871 -0.651956 1.84415 0
M  V30 5540 C 535.251 -1.88498 0.950361 0
M  V30 5541 O 534.599 -2.28496 0.0136719 0
M  V30 5542 C 534.809 -1.00069 3.34346 0
M  V30 5543 C 536.157 -1.37915 4.01578 0
M  V30 5544 O 537.181 -1.09277 3.39024 0
M  V30 5545 O 536.04 -1.91399 5.11887 0
M  V30 5546 H 533.134 -0.322668 0.761455 0
M  V30 5547 H 535.68 0.0902159 1.6946 0
M  V30 5548 H 534.452 -0.124463 3.91102 0
M  V30 5549 H 534.075 -1.80001 3.54521 0
M  V30 5550 N 535.072 -1.5615 -0.213296 0
M  V30 5551 C 536.32 -1.79191 -0.934612 0
M  V30 5552 C 536.641 -0.630112 -1.84539 0
M  V30 5553 O 535.911 0.35257 -1.92701 0
M  V30 5554 H 534.491 -0.660937 -0.348097 0
M  V30 5555 H 537.153 -1.93618 -0.22317 0
M  V30 5556 H 536.249 -2.71656 -1.53654 0
M  V30 5557 N 536.55 0.480323 -1.50102 0
M  V30 5558 C 537.799 1.22979 -1.59872 0
M  V30 5559 C 538.112 1.93282 -0.30022 0
M  V30 5560 O 539.318 2.70086 -0.276709 0
M  V30 5561 C 537.774 2.23408 -2.82164 0
M  V30 5562 C 537.382 1.5895 -4.18854 0
M  V30 5563 C 539.126 2.99055 -3.01275 0
M  V30 5564 C 537.033 2.57611 -5.32344 0
M  V30 5565 H 535.963 0.462707 -0.59533 0
M  V30 5566 H 538.614 0.501291 -1.7652 0
M  V30 5567 H 536.996 2.99511 -2.59055 0
M  V30 5568 H 538.17 0.887 -4.52182 0
M  V30 5569 H 536.485 0.956191 -4.05273 0
M  V30 5570 H 539.082 3.72876 -3.83233 0
M  V30 5571 H 539.425 3.57897 -2.12639 0
M  V30 5572 H 539.958 2.30066 -3.24522 0
M  V30 5573 H 536.697 2.03521 -6.23105 0
M  V30 5574 H 536.217 3.26041 -5.03445 0
M  V30 5575 H 537.896 3.19627 -5.62537 0
M  V30 5576 N 538.028 1.39524 0.732853 0
M  V30 5577 C 538.991 1.38189 1.82857 0
M  V30 5578 C 539.991 0.278624 1.58368 0
M  V30 5579 O 541.181 0.536639 1.65728 0
M  V30 5580 C 538.313 1.15661 3.2068 0
M  V30 5581 H 539.506 2.35692 1.85444 0
M  V30 5582 H 537.059 1.2512 0.936728 0
M  V30 5583 H 537.794 0.188482 3.23752 0
M  V30 5584 H 537.579 1.95559 3.39852 0
M  V30 5585 H 539.069 1.17472 4.00737 0
M  V30 5586 N 539.506 -0.963266 1.24736 0
M  V30 5587 C 540.755 -1.70115 1.08369 0
M  V30 5588 C 541.068 -1.91939 -0.376688 0
M  V30 5589 O 542.274 -2.6334 -0.660624 0
M  V30 5590 C 540.73 -3.06218 1.89099 0
M  V30 5591 C 540.338 -2.92221 3.39574 0
M  V30 5592 C 542.082 -3.83848 1.81275 0
M  V30 5593 C 539.989 -4.23662 4.12631 0
M  V30 5594 H 538.919 -0.637944 0.401924 0
M  V30 5595 H 541.57 -1.07304 1.48856 0
M  V30 5596 H 539.952 -3.69884 1.41429 0
M  V30 5597 H 541.126 -2.37541 3.94856 0
M  V30 5598 H 539.441 -2.28054 3.48397 0
M  V30 5599 H 542.038 -4.81188 2.33158 0
M  V30 5600 H 542.381 -4.08949 0.778895 0
M  V30 5601 H 542.914 -3.26918 2.26649 0
M  V30 5602 H 539.653 -4.03753 5.16395 0
M  V30 5603 H 539.173 -4.78141 3.62135 0
M  V30 5604 H 540.852 -4.92256 4.19873 0
M  V30 5605 N 540.985 -1.06182 -1.16461 0
M  V30 5606 C 542.401 -0.785065 -1.38956 0
M  V30 5607 C 542.601 0.616103 -1.9185 0
M  V30 5608 O 541.657 1.37686 -2.11657 0
M  V30 5609 C 542.97 -1.84902 -2.37132 0
M  V30 5610 C 544.518 -1.8724 -2.50819 0
M  V30 5611 C 544.993 -2.92686 -3.52277 0
M  V30 5612 N 546.484 -2.91712 -3.59803 0
M  V30 5613 C 547.219 -3.69949 -4.38093 0
M  V30 5614 N 546.715 -4.58 -5.19815 0
M  V30 5615 N 548.508 -3.58346 -4.33064 0
M  V30 5616 H 540.659 -1.96569 -0.804634 0
M  V30 5617 H 542.922 -0.851747 -0.416211 0
M  V30 5618 H 542.628 -2.85518 -2.0536 0
M  V30 5619 H 542.502 -1.69908 -3.36766 0
M  V30 5620 H 544.889 -0.872827 -2.81897 0
M  V30 5621 H 544.97 -2.06311 -1.51226 0
M  V30 5622 H 544.614 -3.92835 -3.21937 0
M  V30 5623 H 544.544 -2.70864 -4.51598 0
M  V30 5624 H 547.035 -2.27876 -3.01464 0
M  V30 5625 H 547.348 -5.14357 -5.76764 0
M  V30 5626 H 545.693 -4.62056 -5.19162 0
M  V30 5627 H 548.884 -2.88943 -3.68279 0
M  V30 5628 H 549.057 -4.19563 -4.93833 0
M  V30 5629 N 542.463 1.3308 -0.844243 0
M  V30 5630 C 543.688 2.02341 -0.455282 0
M  V30 5631 C 544.113 1.6308 0.93737 0
M  V30 5632 O 543.471 0.826118 1.61385 0
M  V30 5633 C 543.519 3.55743 -0.58988 0
M  V30 5634 O 542.623 4.1063 0.38166 0
M  V30 5635 H 541.964 0.637898 -0.184343 0
M  V30 5636 H 544.494 1.6986 -1.14056 0
M  V30 5637 H 544.504 4.05243 -0.473522 0
M  V30 5638 H 543.179 3.83662 -1.60549 0
M  V30 5639 H 541.756 3.72236 0.22241 0
M  V30 5640 N 543.941 0.601185 1.45683 0
M  V30 5641 C 545.189 0.0936957 2.01883 0
M  V30 5642 C 545.51 -1.2779 1.47291 0
M  V30 5643 O 544.78 -1.84279 0.664691 0
M  V30 5644 H 543.36 0.0316466 0.746329 0
M  V30 5645 H 546.022 0.781137 1.78562 0
M  V30 5646 H 545.118 0.0386297 3.12076 0
M  V30 5647 N 545.419 -1.53889 0.339982 0
M  V30 5648 C 546.369 -2.2165 -0.534354 0
M  V30 5649 C 547.353 -1.20266 -1.06887 0
M  V30 5650 O 548.545 -1.45827 -1.00316 0
M  V30 5651 C 545.674 -2.99014 -1.68659 0
M  V30 5652 C 544.76 -4.07751 -1.16618 0
M  V30 5653 N 545.151 -5.04469 -0.366717 0
M  V30 5654 C 543.449 -4.21998 -1.4434 0
M  V30 5655 C 544.15 -5.81638 -0.0847275 0
M  V30 5656 N 543.126 -5.39388 -0.675391 0
M  V30 5657 H 546.928 -2.93781 0.0835562 0
M  V30 5658 H 544.442 -1.61736 0.146665 0
M  V30 5659 H 546.439 -3.46056 -2.32489 0
M  V30 5660 H 545.099 -2.28408 -2.30781 0
M  V30 5661 H 546.11 -5.17899 -0.00811038 0
M  V30 5662 H 542.787 -3.62612 -2.06928 0
M  V30 5663 H 544.177 -6.69563 0.559943 0
M  V30 5664 N 546.897 -0.0685191 -1.57451 0
M  V30 5665 C 547.847 0.909895 -2.09057 0
M  V30 5666 C 548.831 1.26088 -0.999528 0
M  V30 5667 O 550.023 1.24041 -1.26265 0
M  V30 5668 C 547.152 2.17863 -2.65312 0
M  V30 5669 C 546.238 1.85427 -3.81415 0
M  V30 5670 N 546.629 1.23426 -4.9051 0
M  V30 5671 C 544.927 2.15196 -3.90649 0
M  V30 5672 C 545.628 1.09008 -5.71395 0
M  V30 5673 N 544.604 1.59871 -5.1956 0
M  V30 5674 H 548.406 0.426145 -2.90794 0
M  V30 5675 H 545.92 0.135462 -1.61834 0
M  V30 5676 H 547.917 2.88872 -3.00597 0
M  V30 5677 H 546.577 2.66829 -1.85021 0
M  V30 5678 H 547.588 0.904305 -5.09944 0
M  V30 5679 H 544.265 2.66562 -3.21327 0
M  V30 5680 H 545.655 0.607305 -6.6915 0
M  V30 5681 N 548.375 1.56261 0.205012 0
M  V30 5682 C 549.615 1.81823 0.933806 0
M  V30 5683 C 549.979 0.644534 1.80858 0
M  V30 5684 O 551.18 0.779819 2.5724 0
M  V30 5685 C 549.451 3.12362 1.7368 0
M  V30 5686 S 551.01 3.59296 2.51897 0
M  V30 5687 H 547.828 0.638209 0.313386 0
M  V30 5688 H 550.43 1.94495 0.198001 0
M  V30 5689 H 549.134 3.95809 1.08459 0
M  V30 5690 H 548.665 3.02542 2.5146 0
M  V30 5691 H 550.68 3.23945 3.75864 0
M  V30 5692 N 549.853 -0.472356 1.50355 0
M  V30 5693 C 551.081 -1.24784 1.65035 0
M  V30 5694 C 551.496 -1.85837 0.333176 0
M  V30 5695 O 550.853 -1.69168 -0.68472 0
M  V30 5696 C 550.904 -2.35747 2.74054 0
M  V30 5697 O 550.625 -1.77197 4.00665 0
M  V30 5698 C 552.126 -3.26645 2.99696 0
M  V30 5699 H 549.346 -0.377432 0.554785 0
M  V30 5700 H 551.89 -0.563962 1.9657 0
M  V30 5701 H 550.045 -2.99912 2.45217 0
M  V30 5702 H 550.459 -2.5026 4.60945 0
M  V30 5703 H 551.933 -4.00718 3.79644 0
M  V30 5704 H 552.41 -3.8535 2.10718 0
M  V30 5705 H 553.016 -2.68218 3.3006 0
M  V30 5706 N 551.331 -1.39911 -0.725443 0
M  V30 5707 C 552.263 -1.35301 -1.85003 0
M  V30 5708 C 553.276 -0.260102 -1.60709 0
M  V30 5709 O 554.465 -0.519749 -1.70766 0
M  V30 5710 C 551.565 -1.08039 -3.21218 0
M  V30 5711 C 550.738 -2.28793 -3.7279 0
M  V30 5712 C 549.797 -1.97841 -4.87591 0
M  V30 5713 O 548.823 -2.70616 -5.00755 0
M  V30 5714 N 550.025 -0.950367 -5.72668 0
M  V30 5715 H 552.79 -2.32218 -1.89459 0
M  V30 5716 H 550.351 -1.34137 -0.90658 0
M  V30 5717 H 552.343 -0.853354 -3.95601 0
M  V30 5718 H 550.913 -0.198229 -3.11971 0
M  V30 5719 H 550.133 -2.67388 -2.8965 0
M  V30 5720 H 551.421 -3.09317 -4.03981 0
M  V30 5721 H 550.819 -0.347436 -5.64632 0
M  V30 5722 H 549.376 -0.783232 -6.47077 0
M  V30 5723 N 552.809 0.956637 -1.25245 0
M  V30 5724 C 554.22 1.51569 -1.09012 0
M  V30 5725 C 554.571 1.93322 0.334813 0
M  V30 5726 O 553.696 1.78421 1.22454 0
M  V30 5727 C 554.291 2.75444 -1.97271 0
M  V30 5728 C 552.85 3.27669 -1.8523 0
M  V30 5729 C 551.997 2.00517 -1.91542 0
M  V30 5730 H 554.948 0.773746 -1.3856 0
M  V30 5731 H 554.969 3.4919 -1.51151 0
M  V30 5732 H 554.481 2.45024 -3.00973 0
M  V30 5733 H 552.582 3.62914 -0.844045 0
M  V30 5734 H 552.695 3.9582 -2.69932 0
M  V30 5735 H 551.059 2.15727 -1.35404 0
M  V30 5736 H 551.842 1.72448 -2.96844 0
M  V30 5737 N 554.287 1.06798 1.15896 0
M  V30 5738 C 555.217 0.704677 2.22613 0
M  V30 5739 C 556.198 -0.305252 1.67339 0
M  V30 5740 O 557.383 -0.179247 1.93371 0
M  V30 5741 C 554.513 0.0957325 3.47168 0
M  V30 5742 C 553.467 1.0322 4.15367 0
M  V30 5743 C 552.793 0.286293 5.33933 0
M  V30 5744 C 554.093 2.36341 4.65768 0
M  V30 5745 H 555.787 1.59688 2.53259 0
M  V30 5746 H 553.333 0.769257 1.21731 0
M  V30 5747 H 555.286 -0.170333 4.21056 0
M  V30 5748 H 554.01 -0.831516 3.15838 0
M  V30 5749 H 552.669 1.28309 3.43413 0
M  V30 5750 H 552.317 -0.644237 4.98857 0
M  V30 5751 H 552.017 0.910436 5.80504 0
M  V30 5752 H 553.541 0.0278938 6.10594 0
M  V30 5753 H 554.955 2.1561 5.31211 0
M  V30 5754 H 553.352 2.94299 5.2298 0
M  V30 5755 H 554.422 2.99047 3.81705 0
M  V30 5756 N 555.766 -1.3263 0.851289 0
M  V30 5757 C 556.716 -2.26451 0.265302 0
M  V30 5758 C 557.7 -1.49814 -0.586899 0
M  V30 5759 O 558.892 -1.71525 -0.436834 0
M  V30 5760 C 556.021 -3.38895 -0.548212 0
M  V30 5761 C 555.107 -4.2292 0.316189 0
M  V30 5762 N 555.498 -4.86014 1.40084 0
M  V30 5763 C 553.796 -4.45876 0.105356 0
M  V30 5764 C 554.497 -5.48667 1.93235 0
M  V30 5765 N 553.473 -5.29455 1.232 0
M  V30 5766 H 557.275 -2.72757 1.09457 0
M  V30 5767 H 554.789 -1.4668 0.697047 0
M  V30 5768 H 556.786 -4.05111 -0.984402 0
M  V30 5769 H 555.446 -2.94135 -1.37531 0
M  V30 5770 H 556.457 -4.86212 1.78377 0
M  V30 5771 H 553.134 -4.11804 -0.687299 0
M  V30 5772 H 554.524 -6.08865 2.84135 0
M  V30 5773 N 557.244 -0.608902 -1.45362 0
M  V30 5774 C 558.66 -0.272659 -1.57254 0
M  V30 5775 C 558.86 1.22477 -1.60005 0
M  V30 5776 O 557.916 2.00785 -1.53106 0
M  V30 5777 C 559.229 -0.944991 -2.85465 0
M  V30 5778 C 560.777 -0.921033 -2.99142 0
M  V30 5779 C 561.252 -1.5734 -4.30126 0
M  V30 5780 N 562.743 -1.53895 -4.36887 0
M  V30 5781 C 563.478 -2.01286 -5.36909 0
M  V30 5782 N 562.974 -2.56768 -6.43461 0
M  V30 5783 N 564.767 -1.92046 -5.28275 0
M  V30 5784 H 556.918 -1.58117 -1.4182 0
M  V30 5785 H 559.181 -0.662437 -0.678146 0
M  V30 5786 H 558.887 -1.99941 -2.89338 0
M  V30 5787 H 558.761 -0.469079 -3.74272 0
M  V30 5788 H 561.148 0.124846 -2.94836 0
M  V30 5789 H 561.229 -1.43522 -2.11743 0
M  V30 5790 H 560.873 -2.61862 -4.35191 0
M  V30 5791 H 560.803 -1.03422 -5.16344 0
M  V30 5792 H 563.294 -1.13366 -3.60495 0
M  V30 5793 H 563.607 -2.9072 -7.16032 0
M  V30 5794 H 561.952 -2.60808 -6.44208 0
M  V30 5795 H 565.143 -1.48439 -4.43941 0
M  V30 5796 H 565.316 -2.29293 -6.06077 0
M  V30 5797 N 558.722 1.53707 -0.348139 0
M  V30 5798 C 559.652 2.28111 0.498766 0
M  V30 5799 C 560.633 1.29851 1.09876 0
M  V30 5800 O 561.818 1.587 1.11928 0
M  V30 5801 C 558.948 3.05735 1.64753 0
M  V30 5802 C 557.902 4.11537 1.17565 0
M  V30 5803 C 557.228 4.77142 2.4133 0
M  V30 5804 C 558.528 5.21587 0.272844 0
M  V30 5805 H 560.222 2.99152 -0.121934 0
M  V30 5806 H 557.768 1.43875 -0.0600842 0
M  V30 5807 H 559.721 3.56526 2.24649 0
M  V30 5808 H 558.445 2.32354 2.2952 0
M  V30 5809 H 557.104 3.61665 0.599483 0
M  V30 5810 H 556.752 4.0035 3.04514 0
M  V30 5811 H 556.452 5.48626 2.10436 0
M  V30 5812 H 557.976 5.30719 3.01943 0
M  V30 5813 H 559.39 5.67986 0.778779 0
M  V30 5814 H 557.787 6.00074 0.0555849 0
M  V30 5815 H 558.857 4.79969 -0.689785 0
M  V30 5816 N 560.2 0.0768682 1.57412 0
M  V30 5817 C 561.447 -0.591085 1.93681 0
M  V30 5818 C 561.775 -1.69311 0.957286 0
M  V30 5819 O 561.03 -1.95682 -0.0262428 0
M  V30 5820 C 561.329 -1.20268 3.36557 0
M  V30 5821 C 560.995 -0.226286 4.50332 0
M  V30 5822 C 559.657 0.0423142 4.81181 0
M  V30 5823 C 562.009 0.441415 5.19327 0
M  V30 5824 C 559.337 0.985616 5.78362 0
M  V30 5825 C 561.689 1.37307 6.17519 0
M  V30 5826 C 560.353 1.65009 6.46783 0
M  V30 5827 H 559.623 -0.216293 0.70873 0
M  V30 5828 H 562.27 0.148824 1.90921 0
M  V30 5829 H 560.575 -2.01844 3.35807 0
M  V30 5830 H 562.272 -1.72688 3.61911 0
M  V30 5831 H 558.862 -0.445821 4.26275 0
M  V30 5832 H 563.046 0.247023 4.95685 0
M  V30 5833 H 558.302 1.20743 5.99359 0
M  V30 5834 H 562.476 1.89637 6.70083 0
M  V30 5835 H 560.103 2.38263 7.21897 0
M  V30 5836 N 561.678 -1.56367 -0.196722 0
M  V30 5837 C 562.955 -1.71359 -0.943159 0
M  V30 5838 C 563.335 -0.631192 -2.01443 0
M  V30 5839 O 562.683 0.358071 -2.25677 0
M  V30 5840 C 562.893 -3.13623 -1.53106 0
M  V30 5841 C 564.241 -3.73806 -2.01381 0
M  V30 5842 O 565.265 -3.16742 -1.62951 0
M  V30 5843 O 564.124 -4.73951 -2.7209 0
M  V30 5844 H 561.218 -0.698851 -0.442195 0
M  V30 5845 H 563.764 -1.68672 -0.186547 0
M  V30 5846 H 562.536 -3.83873 -0.758785 0
M  V30 5847 H 562.159 -3.20532 -2.35255 0
M  V30 5848 N 563.156 0.464375 -1.50603 0
M  V30 5849 C 564.119 1.54393 -1.69397 0
M  V30 5850 C 565.119 1.50566 -0.564504 0
M  V30 5851 O 566.309 1.53066 -0.831645 0
M  V30 5852 C 563.441 2.9401 -1.72543 0
M  V30 5853 H 564.634 1.39044 -2.65719 0
M  V30 5854 H 562.187 0.69122 -1.40185 0
M  V30 5855 H 562.922 3.14795 -0.77938 0
M  V30 5856 H 562.707 2.98195 -2.54602 0
M  V30 5857 H 564.197 3.72375 -1.89015 0
M  V30 5858 N 564.634 1.40294 0.718013 0
M  V30 5859 C 565.859 1.41941 1.5122 0
M  V30 5860 C 566.284 0.0202371 1.88089 0
M  V30 5861 O 565.642 -0.971078 1.53101 0
M  V30 5862 C 565.69 2.3141 2.76554 0
M  V30 5863 O 564.794 1.75567 3.73162 0
M  V30 5864 H 564.135 0.482644 0.456016 0
M  V30 5865 H 566.665 1.84494 0.884478 0
M  V30 5866 H 566.675 2.46513 3.25108 0
M  V30 5867 H 565.35 3.33085 2.49053 0
M  V30 5868 H 563.927 1.69798 3.31999 0
M  V30 5869 N 566.112 -0.949982 1.2575 0
M  V30 5870 C 567.36 -1.6918 1.10555 0
M  V30 5871 C 567.681 -1.91773 -0.353298 0
M  V30 5872 O 566.951 -1.50814 -1.25027 0
M  V30 5873 H 565.531 -0.626952 0.406129 0
M  V30 5874 H 568.193 -1.1419 1.57945 0
M  V30 5875 H 567.289 -2.66915 1.61749 0
M  V30 5876 N 567.59 -1.07411 -1.15328 0
M  V30 5877 C 568.815 -0.818856 -1.90551 0
M  V30 5878 C 569.24 0.622194 -1.77512 0
M  V30 5879 O 568.598 1.43484 -1.10824 0
M  V30 5880 C 568.646 -1.23267 -3.38877 0
M  V30 5881 O 567.75 -0.378345 -4.10661 0
M  V30 5882 H 567.091 -0.29827 -0.593238 0
M  V30 5883 H 569.621 -1.43289 -1.46046 0
M  V30 5884 H 569.631 -1.20912 -3.89672 0
M  V30 5885 H 568.306 -2.28226 -3.47686 0
M  V30 5886 H 566.883 -0.464437 -3.69996 0
M  V30 5887 N 569.068 1.32177 -0.85831 0
M  V30 5888 C 570.031 2.27086 -0.310588 0
M  V30 5889 C 571.031 1.51751 0.531806 0
M  V30 5890 O 572.221 1.70794 0.34279 0
M  V30 5891 C 569.353 3.36266 0.560179 0
M  V30 5892 H 570.546 2.77045 -1.1483 0
M  V30 5893 H 568.099 1.42911 -0.632942 0
M  V30 5894 H 568.834 2.9158 1.41956 0
M  V30 5895 H 568.619 3.92077 -0.0428473 0
M  V30 5896 H 570.109 4.06974 0.936056 0
M  V30 5897 N 570.547 0.616602 1.45037 0
M  V30 5898 C 571.963 0.280994 1.57107 0
M  V30 5899 C 572.163 -1.21627 1.60653 0
M  V30 5900 O 571.219 -1.9997 1.54169 0
M  V30 5901 C 572.532 0.960116 2.8496 0
M  V30 5902 C 574.08 0.936884 2.98649 0
M  V30 5903 C 574.555 1.59619 4.29285 0
M  V30 5904 N 576.046 1.5621 4.36065 0
M  V30 5905 C 576.781 2.04131 5.35834 0
M  V30 5906 N 576.277 2.60177 6.4209 0
M  V30 5907 N 578.07 1.94845 5.27249 0
M  V30 5908 H 570.221 1.58867 1.40979 0
M  V30 5909 H 572.484 0.666024 0.674623 0
M  V30 5910 H 572.19 2.01473 2.88273 0
M  V30 5911 H 572.064 0.488921 3.74018 0
M  V30 5912 H 574.451 -0.109209 2.94898 0
M  V30 5913 H 574.532 1.44643 2.10979 0
M  V30 5914 H 574.176 2.64166 4.33796 0
M  V30 5915 H 574.106 1.06159 5.15789 0
M  V30 5916 H 576.597 1.15276 3.59889 0
M  V30 5917 H 576.91 2.94513 7.1448 0
M  V30 5918 H 575.255 2.64221 6.42816 0
M  V30 5919 H 578.446 1.50792 4.43147 0
M  V30 5920 H 578.619 2.32504 6.04852 0
M  V30 5921 N 572.025 -1.5352 0.356285 0
M  V30 5922 C 572.988 -2.24071 -0.482182 0
M  V30 5923 C 573.988 -1.24531 -1.01729 0
M  V30 5924 O 575.178 -1.48876 -0.904513 0
M  V30 5925 C 572.31 -2.97025 -1.67299 0
M  V30 5926 H 573.503 -2.99596 0.135031 0
M  V30 5927 H 571.056 -1.55928 0.107825 0
M  V30 5928 H 571.791 -2.25719 -2.32855 0
M  V30 5929 H 571.576 -3.7005 -1.29636 0
M  V30 5930 H 573.066 -3.50683 -2.26741 0
M  V30 5931 N 573.503 -0.0852151 -1.57369 0
M  V30 5932 C 574.728 0.592872 -1.98746 0
M  V30 5933 C 575.153 1.61538 -0.963689 0
M  V30 5934 O 574.511 1.81168 0.069071 0
M  V30 5935 C 574.559 1.22599 -3.39119 0
M  V30 5936 O 573.663 2.34185 -3.39457 0
M  V30 5937 H 573.004 0.151314 -0.646529 0
M  V30 5938 H 575.534 -0.163703 -2.03944 0
M  V30 5939 H 575.544 1.56965 -3.76598 0
M  V30 5940 H 574.219 0.476831 -4.13158 0
M  V30 5941 H 572.796 2.01512 -3.13763 0
M  V30 5942 N 574.981 1.5647 0.188427 0
M  V30 5943 C 575.911 1.98101 1.23606 0
M  V30 5944 C 576.892 0.853961 1.47111 0
M  V30 5945 O 578.077 1.11879 1.58735 0
M  V30 5946 C 575.207 2.32624 2.57882 0
M  V30 5947 C 574.161 3.48129 2.48978 0
M  V30 5948 C 573.487 3.68347 3.87588 0
M  V30 5949 C 574.787 4.82112 2.00911 0
M  V30 5950 H 576.481 2.85864 0.890068 0
M  V30 5951 H 574.027 1.37532 0.426714 0
M  V30 5952 H 575.98 2.60343 3.3136 0
M  V30 5953 H 574.704 1.41751 2.94235 0
M  V30 5954 H 573.363 3.20511 1.77956 0
M  V30 5955 H 573.011 2.74793 4.21305 0
M  V30 5956 H 572.711 4.46055 3.82503 0
M  V30 5957 H 574.235 3.98449 4.62678 0
M  V30 5958 H 575.649 5.08819 2.64151 0
M  V30 5959 H 574.046 5.63337 2.06814 0
M  V30 5960 H 575.116 4.75249 0.96262 0
M  V30 5961 N 576.459 -0.456382 1.50847 0
M  V30 5962 C 577.689 -1.22848 1.66108 0
M  V30 5963 C 578.097 -1.85936 0.349897 0
M  V30 5964 O 577.44 -1.70664 -0.679665 0
M  V30 5965 C 577.502 -2.36722 2.70561 0
M  V30 5966 C 577.166 -1.94154 4.13707 0
M  V30 5967 C 578.163 -1.4557 4.99105 0
M  V30 5968 C 575.848 -2.02426 4.59705 0
M  V30 5969 C 577.842 -1.0582 6.28555 0
M  V30 5970 C 575.529 -1.62287 5.89157 0
M  V30 5971 C 576.527 -1.14064 6.73408 0
M  V30 5972 O 576.215 -0.744873 8.00442 0
M  V30 5973 H 575.947 -0.377105 0.561042 0
M  V30 5974 H 578.501 -0.549431 1.97915 0
M  V30 5975 H 576.731 -3.07844 2.34027 0
M  V30 5976 H 578.42 -2.98646 2.74892 0
M  V30 5977 H 579.186 -1.38589 4.64777 0
M  V30 5978 H 575.065 -2.38908 3.94264 0
M  V30 5979 H 578.609 -0.6811 6.94267 0
M  V30 5980 H 574.506 -1.68932 6.23003 0
M  V30 5981 H 575.274 -0.87242 8.13837 0
M  V30 5982 N 577.937 -1.40673 -0.710563 0
M  V30 5983 C 579.184 -1.39222 -1.47049 0
M  V30 5984 C 579.512 0.0037691 -1.945 0
M  V30 5985 O 578.767 0.989224 -1.68857 0
M  V30 5986 C 579.066 -2.33253 -2.70791 0
M  V30 5987 C 578.732 -3.80406 -2.42079 0
M  V30 5988 C 577.394 -4.20496 -2.33959 0
M  V30 5989 C 579.746 -4.73375 -2.18094 0
M  V30 5990 C 577.074 -5.51584 -1.99929 0
M  V30 5991 C 579.426 -6.04768 -1.85576 0
M  V30 5992 C 578.09 -6.43895 -1.75941 0
M  V30 5993 H 577.36 -0.509449 -0.538092 0
M  V30 5994 H 580.007 -1.73363 -0.81348 0
M  V30 5995 H 578.312 -1.92314 -3.41354 0
M  V30 5996 H 580.009 -2.29412 -3.28894 0
M  V30 5997 H 576.599 -3.48645 -2.49288 0
M  V30 5998 H 580.783 -4.43217 -2.23321 0
M  V30 5999 H 576.039 -5.80797 -1.91011 0
M  V30 6000 H 580.213 -6.76318 -1.66033 0
M  V30 6001 H 577.84 -7.45387 -1.4934 0
M  V30 6002 N 579.415 0.9433 -1.26252 0
M  V30 6003 C 580.645 1.72117 -1.14277 0
M  V30 6004 C 581.053 1.86726 0.304944 0
M  V30 6005 O 580.396 1.3727 1.22076 0
M  V30 6006 C 580.458 3.14778 -1.73651 0
M  V30 6007 C 580.122 3.23561 -3.22734 0
M  V30 6008 C 581.119 3.07001 -4.19579 0
M  V30 6009 C 578.804 3.47019 -3.63157 0
M  V30 6010 C 580.798 3.13763 -5.54826 0
M  V30 6011 C 578.485 3.53416 -4.98538 0
M  V30 6012 C 579.483 3.36804 -5.94182 0
M  V30 6013 O 579.171 3.42906 -7.27098 0
M  V30 6014 H 578.903 0.545781 -0.398873 0
M  V30 6015 H 581.457 1.19123 -1.67328 0
M  V30 6016 H 579.687 3.69186 -1.1506 0
M  V30 6017 H 581.376 3.74469 -1.56613 0
M  V30 6018 H 582.142 2.88736 -3.89688 0
M  V30 6019 H 578.021 3.59006 -2.89199 0
M  V30 6020 H 581.565 3.00714 -6.29458 0
M  V30 6021 H 577.462 3.71201 -5.28091 0
M  V30 6022 H 578.23 3.59463 -7.35342 0
M  V30 6023 N 580.893 1.08022 1.14757 0
M  V30 6024 C 581.841 0.701088 2.21783 0
M  V30 6025 C 582.835 -0.291311 1.66876 0
M  V30 6026 O 584.041 -0.154296 1.79337 0
M  V30 6027 H 580.416 0.208668 0.722469 0
M  V30 6028 H 582.387 1.61321 2.51034 0
M  V30 6029 C 581.136 0.122278 3.47485 0
M  V30 6030 H 580.459 0.877065 3.90061 0
M  V30 6031 H 581.899 -0.105248 4.23869 0
M  V30 6032 C 580.358 -1.13883 3.17068 0
M  V30 6033 O 580.888 -2.22429 3.34497 0
M  V30 6034 N 579.094 -1.04767 2.71058 0
M  V30 6035 H 578.641 -0.164302 2.57075 0
M  V30 6036 H 578.599 -1.89224 2.51081 0
M  V30 6037 N 582.371 -1.3172 0.865308 0
M  V30 6038 C 583.599 -2.01057 0.488251 0
M  V30 6039 C 584.014 -1.64979 -0.918 0
M  V30 6040 O 583.371 -0.876597 -1.60069 0
M  V30 6041 C 583.422 -3.55964 0.630224 0
M  V30 6042 O 583.143 -3.90749 1.98109 0
M  V30 6043 C 584.644 -4.42574 0.253567 0
M  V30 6044 H 581.864 -0.64332 0.190736 0
M  V30 6045 H 584.408 -1.68058 1.16519 0
M  V30 6046 H 582.563 -3.874 0.000895422 0
M  V30 6047 H 582.977 -4.85467 1.9855 0
M  V30 6048 H 584.451 -5.50521 0.403875 0
M  V30 6049 H 584.928 -4.31724 -0.806895 0
M  V30 6050 H 585.534 -4.16547 0.858404 0
M  V30 6051 N 583.85 -0.624285 -1.44708 0
M  V30 6052 C 584.797 0.0847135 -2.30644 0
M  V30 6053 C 585.767 0.843575 -1.43084 0
M  V30 6054 O 586.952 0.825982 -1.71995 0
M  V30 6055 C 584.091 1.06495 -3.28257 0
M  V30 6056 C 583.205 0.305224 -4.3092 0
M  V30 6057 C 582.34 1.27667 -5.1563 0
M  V30 6058 C 581.379 0.505706 -6.10007 0
M  V30 6059 N 580.516 1.42727 -6.8744 0
M  V30 6060 H 585.356 -0.654068 -2.90733 0
M  V30 6061 H 582.893 -0.334334 -1.4325 0
M  V30 6062 H 584.851 1.64658 -3.83332 0
M  V30 6063 H 583.481 1.77094 -2.69884 0
M  V30 6064 H 582.533 -0.392207 -3.78373 0
M  V30 6065 H 583.845 -0.295553 -4.97924 0
M  V30 6066 H 582.999 1.92984 -5.75189 0
M  V30 6067 H 581.738 1.91137 -4.48685 0
M  V30 6068 H 580.743 -0.160999 -5.49564 0
M  V30 6069 H 581.968 -0.124183 -6.78986 0
M  V30 6070 H 579.913 2.04931 -6.23169 0
M  V30 6071 H 579.831 0.880345 -7.50857 0
M  V30 6072 H 581.099 2.0695 -7.51526 0
M  V30 6073 N 585.328 1.53329 -0.364422 0
M  V30 6074 C 586.238 2.29414 0.490552 0
M  V30 6075 C 587.254 1.35335 1.09363 0
M  V30 6076 O 588.43 1.68391 1.10483 0
M  V30 6077 C 585.495 3.06772 1.61529 0
M  V30 6078 C 584.556 4.16516 1.03986 0
M  V30 6079 C 583.789 4.90176 2.111 0
M  V30 6080 O 584.012 4.63687 3.32191 0
M  V30 6081 O 582.946 5.76134 1.74222 0
M  V30 6082 H 586.772 3.03428 -0.12856 0
M  V30 6083 H 584.357 1.48843 -0.128837 0
M  V30 6084 H 586.239 3.55082 2.26924 0
M  V30 6085 H 584.914 2.35596 2.21983 0
M  V30 6086 H 583.821 3.7246 0.349856 0
M  V30 6087 H 585.154 4.89855 0.4799 0
M  V30 6088 N 586.806 0.0935595 1.57322 0
M  V30 6089 C 587.716 -0.880192 2.17462 0
M  V30 6090 C 588.732 -1.31135 1.14366 0
M  V30 6091 O 589.908 -1.37958 1.46729 0
M  V30 6092 C 586.973 -2.12184 2.74188 0
M  V30 6093 C 586.034 -1.74503 3.92234 0
M  V30 6094 C 585.267 -2.92748 4.46245 0
M  V30 6095 O 585.49 -4.07427 3.99198 0
M  V30 6096 O 584.424 -2.71303 5.37288 0
M  V30 6097 H 588.25 -0.398516 3.01074 0
M  V30 6098 H 585.835 -0.130707 1.48827 0
M  V30 6099 H 587.717 -2.84953 3.10451 0
M  V30 6100 H 586.392 -2.59407 1.93623 0
M  V30 6101 H 585.299 -0.989186 3.60785 0
M  V30 6102 H 586.632 -1.32044 4.74157 0
M  V30 6103 N 588.284 -1.56567 -0.180126 0
M  V30 6104 C 589.533 -1.80685 -0.896426 0
M  V30 6105 C 589.846 -0.669335 -1.83791 0
M  V30 6106 O 591.052 -0.795209 -2.59593 0
M  V30 6107 C 589.508 -3.20132 -1.6445 0
M  V30 6108 C 589.116 -4.41727 -0.747088 0
M  V30 6109 C 590.86 -3.53549 -2.34955 0
M  V30 6110 C 588.767 -5.72195 -1.49489 0
M  V30 6111 H 587.697 -0.673758 -0.338477 0
M  V30 6112 H 590.348 -1.8289 -0.149467 0
M  V30 6113 H 588.73 -3.12218 -2.43589 0
M  V30 6114 H 589.904 -4.608 0.00671129 0
M  V30 6115 H 588.219 -4.16122 -0.152134 0
M  V30 6116 H 590.816 -4.48267 -2.91481 0
M  V30 6117 H 591.159 -2.78006 -3.09868 0
M  V30 6118 H 591.692 -3.62976 -1.62768 0
M  V30 6119 H 588.431 -6.50743 -0.788251 0
M  V30 6120 H 587.951 -5.57115 -2.22224 0
M  V30 6121 H 589.63 -6.1384 -2.04472 0
M  V30 6122 N 589.762 0.448376 -1.51087 0
M  V30 6123 C 591.039 1.20926 -1.53741 0
M  V30 6124 C 591.419 2.09025 -0.295222 0
M  V30 6125 O 590.767 2.16851 0.720283 0
M  V30 6126 C 590.977 2.02067 -2.84552 0
M  V30 6127 C 592.325 2.59486 -3.36084 0
M  V30 6128 O 593.349 2.12289 -2.86028 0
M  V30 6129 O 592.208 3.45539 -4.23397 0
M  V30 6130 H 589.302 0.549951 -0.617643 0
M  V30 6131 H 591.848 0.458344 -1.63393 0
M  V30 6132 H 590.62 1.37291 -3.66425 0
M  V30 6133 H 590.243 2.84246 -2.78011 0
M  V30 6134 N 591.24 1.41047 0.703093 0
M  V30 6135 C 592.17 1.45067 1.82969 0
M  V30 6136 C 593.151 0.31016 1.67248 0
M  V30 6137 O 594.336 0.520548 1.87093 0
M  V30 6138 C 591.466 1.32478 3.2104 0
M  V30 6139 C 590.42 2.44262 3.51454 0
M  V30 6140 C 589.746 2.16742 4.88801 0
M  V30 6141 C 591.046 3.86606 3.51189 0
M  V30 6142 H 592.74 2.39353 1.79863 0
M  V30 6143 H 590.286 1.15206 0.863919 0
M  V30 6144 H 592.239 1.33904 3.99559 0
M  V30 6145 H 590.963 0.346735 3.24754 0
M  V30 6146 H 589.622 2.42107 2.75282 0
M  V30 6147 H 589.27 1.17299 4.89132 0
M  V30 6148 H 588.97 2.91643 5.10116 0
M  V30 6149 H 590.494 2.19872 5.69639 0
M  V30 6150 H 591.908 3.90517 4.19725 0
M  V30 6151 H 590.305 4.61128 3.84033 0
M  V30 6152 H 591.375 4.15296 2.50315 0
M  V30 6153 N 592.718 -0.936591 1.26751 0
M  V30 6154 C 593.965 -1.68331 1.12566 0
M  V30 6155 C 594.293 -1.91677 -0.330168 0
M  V30 6156 O 593.548 -1.49859 -1.2586 0
M  V30 6157 C 593.847 -3.06099 1.84494 0
M  V30 6158 C 593.513 -3.02493 3.34378 0
M  V30 6159 C 592.175 -3.01217 3.75262 0
M  V30 6160 C 594.527 -2.94453 4.30055 0
M  V30 6161 C 591.855 -2.89672 5.10203 0
M  V30 6162 C 594.207 -2.84449 5.65041 0
M  V30 6163 C 592.871 -2.81518 6.0523 0
M  V30 6164 H 592.141 -0.615965 0.411907 0
M  V30 6165 H 594.788 -1.09292 1.5725 0
M  V30 6166 H 593.093 -3.6879 1.32292 0
M  V30 6167 H 594.79 -3.62733 1.70955 0
M  V30 6168 H 591.38 -3.04269 3.01858 0
M  V30 6169 H 595.564 -2.94544 3.99447 0
M  V30 6170 H 590.82 -2.85783 5.40498 0
M  V30 6171 H 594.994 -2.77192 6.38856 0
M  V30 6172 H 592.621 -2.72329 7.09747 0
M  V30 6173 N 594.196 -1.08629 -1.14182 0
M  V30 6174 C 595.126 -0.740003 -2.21464 0
M  V30 6175 C 596.107 0.278591 -1.67803 0
M  V30 6176 O 597.292 0.148461 -1.93632 0
M  V30 6177 C 594.422 -0.150952 -3.46972 0
M  V30 6178 C 593.376 -1.09815 -4.13672 0
M  V30 6179 C 592.702 -0.3712 -5.3341 0
M  V30 6180 C 594.002 -2.43722 -4.61949 0
M  V30 6181 H 595.696 -1.63697 -2.50686 0
M  V30 6182 H 593.242 -0.788526 -1.20492 0
M  V30 6183 H 595.195 0.103325 -4.21273 0
M  V30 6184 H 593.919 0.781164 -3.1712 0
M  V30 6185 H 592.578 -1.33756 -3.41328 0
M  V30 6186 H 592.226 0.564792 -4.99819 0
M  V30 6187 H 591.926 -1.00267 -5.78982 0
M  V30 6188 H 593.45 -0.12503 -6.10472 0
M  V30 6189 H 594.864 -2.24034 -5.27714 0
M  V30 6190 H 593.261 -3.02582 -5.18232 0
M  V30 6191 H 594.331 -3.05082 -3.76899 0
M  V30 6192 N 595.674 1.31259 -0.872281 0
M  V30 6193 C 596.606 2.27396 -0.28697 0
M  V30 6194 C 597.619 1.53181 0.551297 0
M  V30 6195 O 598.808 1.74561 0.372914 0
M  V30 6196 C 595.908 3.33335 0.611617 0
M  V30 6197 C 595.081 4.36966 -0.194729 0
M  V30 6198 C 594.14 5.22387 0.632358 0
M  V30 6199 O 593.166 5.69169 0.0595691 0
M  V30 6200 N 594.368 5.46985 1.94391 0
M  V30 6201 H 597.133 2.78261 -1.11314 0
M  V30 6202 H 594.694 1.44306 -0.733994 0
M  V30 6203 H 596.686 3.87398 1.17068 0
M  V30 6204 H 595.256 2.82496 1.33846 0
M  V30 6205 H 594.476 3.82945 -0.935241 0
M  V30 6206 H 595.764 5.03273 -0.747935 0
M  V30 6207 H 595.162 5.10737 2.43237 0
M  V30 6208 H 593.719 6.03973 2.45071 0
M  V30 6209 N 597.152 0.631951 1.44375 0
M  V30 6210 C 598.377 0.142146 2.06912 0
M  V30 6211 C 598.802 -1.17456 1.4692 0
M  V30 6212 O 598.16 -1.72074 0.570975 0
M  V30 6213 C 598.208 0.0417952 3.60576 0
M  V30 6214 O 597.312 -1.00194 4.00044 0
M  V30 6215 H 596.653 0.0851491 0.658518 0
M  V30 6216 H 599.183 0.868863 1.85235 0
M  V30 6217 H 599.193 -0.148517 4.0773 0
M  V30 6218 H 597.868 1.0031 4.03622 0
M  V30 6219 H 596.445 -0.786131 3.64519 0
M  V30 6220 N 598.631 -1.53133 0.372548 0
M  V30 6221 C 599.561 -2.28876 -0.462412 0
M  V30 6222 C 600.542 -1.31583 -1.07796 0
M  V30 6223 O 601.727 -1.60461 -1.09389 0
M  V30 6224 C 598.857 -3.08317 -1.59868 0
M  V30 6225 C 597.811 -4.13355 -1.11003 0
M  V30 6226 C 597.137 -4.8092 -2.33708 0
M  V30 6227 C 598.437 -5.21955 -0.18983 0
M  V30 6228 H 600.131 -2.9892 0.169511 0
M  V30 6229 H 597.677 -1.43761 0.0829658 0
M  V30 6230 H 599.63 -3.60055 -2.18949 0
M  V30 6231 H 598.354 -2.35976 -2.25794 0
M  V30 6232 H 597.013 -3.62573 -0.541869 0
M  V30 6233 H 596.661 -4.05144 -2.98106 0
M  V30 6234 H 596.361 -5.51904 -2.01682 0
M  V30 6235 H 597.885 -5.35455 -2.93462 0
M  V30 6236 H 599.299 -5.69153 -0.688319 0
M  V30 6237 H 597.696 -6.00087 0.0398887 0
M  V30 6238 H 598.766 -4.78811 0.766057 0
M  V30 6239 N 600.109 -0.101901 -1.5727 0
M  V30 6240 C 601.041 0.884723 -2.11436 0
M  V30 6241 C 602.054 1.24149 -1.05314 0
M  V30 6242 O 603.243 1.19341 -1.3274 0
M  V30 6243 C 600.343 2.19179 -2.58484 0
M  V30 6244 C 599.516 2.00933 -3.88516 0
M  V30 6245 C 598.575 3.15213 -4.2134 0
M  V30 6246 O 597.601 2.88877 -4.90448 0
M  V30 6247 N 598.803 4.41174 -3.77288 0
M  V30 6248 H 601.568 0.422058 -2.96713 0
M  V30 6249 H 599.129 0.0830128 -1.61687 0
M  V30 6250 H 601.121 2.94593 -2.77484 0
M  V30 6251 H 599.691 2.56847 -1.7818 0
M  V30 6252 H 598.911 1.09809 -3.78597 0
M  V30 6253 H 600.199 1.86026 -4.73573 0
M  V30 6254 H 599.597 4.6545 -3.21516 0
M  V30 6255 H 598.154 5.13515 -4.01429 0
M  V30 6256 N 601.587 1.56661 0.17182 0
M  V30 6257 C 602.55 1.9549 1.19651 0
M  V30 6258 C 603.55 0.838501 1.37207 0
M  V30 6259 O 604.74 1.10556 1.34622 0
M  V30 6260 C 601.872 2.24927 2.56166 0
M  V30 6261 H 603.065 2.87184 0.864007 0
M  V30 6262 H 600.618 1.50711 0.41425 0
M  V30 6263 H 601.353 1.35944 2.94431 0
M  V30 6264 H 601.138 3.06301 2.4479 0
M  V30 6265 H 602.628 2.55891 3.30014 0
M  V30 6266 N 603.065 -0.440357 1.51323 0
M  V30 6267 C 604.293 -1.21255 1.67645 0
M  V30 6268 C 604.708 -1.85088 0.37252 0
M  V30 6269 O 604.065 -1.70582 -0.648683 0
M  V30 6270 C 604.116 -2.29881 2.78993 0
M  V30 6271 O 603.837 -1.68659 4.04334 0
M  V30 6272 C 605.338 -3.20214 3.06558 0
M  V30 6273 H 602.558 -0.36558 0.562666 0
M  V30 6274 H 605.102 -0.52214 1.97722 0
M  V30 6275 H 603.257 -2.94643 2.51524 0
M  V30 6276 H 603.671 -2.40426 4.6615 0
M  V30 6277 H 605.145 -3.92575 3.88058 0
M  V30 6278 H 605.622 -3.80794 2.18844 0
M  V30 6279 H 606.228 -2.61156 3.35675 0
M  V30 6280 N 604.543 -1.41418 -0.695603 0
M  V30 6281 C 605.792 -1.40073 -1.4513 0
M  V30 6282 C 606.105 -0.0130439 -1.95596 0
M  V30 6283 O 607.311 0.123032 -2.71221 0
M  V30 6284 C 605.767 -2.46286 -2.62433 0
M  V30 6285 C 605.375 -3.90962 -2.18753 0
M  V30 6286 C 607.119 -2.54077 -3.40066 0
M  V30 6287 C 605.026 -4.88728 -3.33015 0
M  V30 6288 H 603.956 -0.520903 -0.545138 0
M  V30 6289 H 606.607 -1.67242 -0.75515 0
M  V30 6290 H 604.989 -2.12248 -3.34315 0
M  V30 6291 H 606.163 -4.34248 -1.54161 0
M  V30 6292 H 604.478 -3.86831 -1.54114 0
M  V30 6293 H 607.075 -3.24303 -4.25125 0
M  V30 6294 H 607.418 -1.5776 -3.8525 0
M  V30 6295 H 607.951 -2.87206 -2.75241 0
M  V30 6296 H 604.69 -5.86449 -2.92844 0
M  V30 6297 H 604.21 -4.50091 -3.96457 0
M  V30 6298 H 605.889 -5.09483 -3.98793 0
M  V30 6299 N 606.021 0.929856 -1.27246 0
M  V30 6300 C 607.437 1.20542 -1.04603 0
M  V30 6301 C 607.637 2.00276 0.221754 0
M  V30 6302 O 606.693 2.34835 0.927833 0
M  V30 6303 C 608.006 1.95566 -2.28417 0
M  V30 6304 C 609.554 2.08513 -2.33433 0
M  V30 6305 C 610.029 2.86943 -3.5697 0
M  V30 6306 N 611.52 2.94512 -3.57515 0
M  V30 6307 C 612.255 3.55656 -4.49774 0
M  V30 6308 N 611.751 4.18209 -5.52334 0
M  V30 6309 N 613.544 3.53038 -4.37402 0
M  V30 6310 H 605.695 0.397113 -2.08655 0
M  V30 6311 H 607.958 0.238277 -0.917566 0
M  V30 6312 H 607.664 1.44395 -3.20691 0
M  V30 6313 H 607.538 2.9619 -2.33563 0
M  V30 6314 H 609.925 2.58872 -1.41666 0
M  V30 6315 H 610.006 1.07117 -2.32292 0
M  V30 6316 H 609.65 2.37268 -4.49072 0
M  V30 6317 H 609.58 3.8862 -3.55362 0
M  V30 6318 H 612.071 2.50053 -2.83341 0
M  V30 6319 H 612.384 4.62796 -6.18902 0
M  V30 6320 H 610.729 4.16761 -5.56179 0
M  V30 6321 H 613.92 3.0337 -3.56489 0
M  V30 6322 H 614.093 4.004 -5.09493 0
M  V30 6323 N 607.499 1.09233 1.13605 0
M  V30 6324 C 608.746 0.827159 1.84836 0
M  V30 6325 C 609.074 -0.647199 1.83416 0
M  V30 6326 O 608.329 -1.49228 1.26608 0
M  V30 6327 C 608.628 1.305 3.32723 0
M  V30 6328 C 608.294 2.78864 3.54325 0
M  V30 6329 C 606.956 3.19382 3.59928 0
M  V30 6330 C 609.308 3.74532 3.62457 0
M  V30 6331 C 606.636 4.54346 3.71196 0
M  V30 6332 C 608.988 5.09283 3.75252 0
M  V30 6333 C 607.652 5.49394 3.79108 0
M  V30 6334 H 606.922 0.302679 0.676363 0
M  V30 6335 H 609.569 1.36676 1.34134 0
M  V30 6336 H 607.874 0.68517 3.85762 0
M  V30 6337 H 609.571 1.07648 3.86281 0
M  V30 6338 H 606.161 2.46507 3.50617 0
M  V30 6339 H 610.345 3.44343 3.57409 0
M  V30 6340 H 605.601 4.84864 3.72447 0
M  V30 6341 H 609.775 5.83269 3.80487 0
M  V30 6342 H 607.402 6.5397 3.87591 0
M  V30 6343 N 608.977 -1.30795 0.87923 0
M  V30 6344 C 610.224 -1.96362 0.494786 0
M  V30 6345 C 610.552 -1.69448 -0.954868 0
M  V30 6346 O 609.807 -0.988711 -1.68888 0
M  V30 6347 C 610.106 -3.50287 0.709476 0
M  V30 6348 C 609.772 -3.9724 2.13333 0
M  V30 6349 C 608.434 -4.09772 2.52271 0
M  V30 6350 C 610.786 -4.21807 3.06151 0
M  V30 6351 C 608.114 -4.44227 3.83248 0
M  V30 6352 C 610.466 -4.5773 4.36654 0
M  V30 6353 C 609.13 -4.68469 4.75492 0
M  V30 6354 H 608.4 -0.71854 0.181055 0
M  V30 6355 H 611.047 -1.55764 1.11399 0
M  V30 6356 H 609.352 -3.91799 0.0072 0
M  V30 6357 H 611.049 -3.99082 0.391703 0
M  V30 6358 H 607.639 -3.87988 1.82107 0
M  V30 6359 H 611.823 -4.11611 2.77291 0
M  V30 6360 H 607.079 -4.50741 4.13089 0
M  V30 6361 H 611.253 -4.7569 5.08617 0
M  V30 6362 H 608.88 -4.94923 5.77022 0
M  V30 6363 N 610.455 -0.639598 -1.44038 0
M  V30 6364 C 611.68 -0.153117 -2.06834 0
M  V30 6365 C 612.105 1.16676 -1.47541 0
M  V30 6366 O 611.463 1.71769 -0.580093 0
M  V30 6367 C 611.511 -0.0609169 -3.60549 0
M  V30 6368 O 610.615 0.98071 -4.00569 0
M  V30 6369 H 609.956 -0.0886402 -0.658057 0
M  V30 6370 H 612.486 -0.878674 -1.84771 0
M  V30 6371 H 612.496 0.126892 -4.07803 0
M  V30 6372 H 611.171 -1.0245 -4.03084 0
M  V30 6373 H 609.748 0.766789 -3.64931 0
M  V30 6374 N 611.933 1.52934 -0.380664 0
M  V30 6375 C 613.21 1.93845 0.261417 0
M  V30 6376 C 613.59 1.31544 1.65104 0
M  V30 6377 O 612.938 0.480234 2.23397 0
M  V30 6378 C 613.148 3.47739 0.296466 0
M  V30 6379 C 614.496 4.21284 0.529578 0
M  V30 6380 O 615.52 3.54199 0.377041 0
M  V30 6381 O 614.379 5.40195 0.827753 0
M  V30 6382 H 611.473 0.811318 0.160285 0
M  V30 6383 H 614.019 1.64042 -0.434544 0
M  V30 6384 H 612.791 3.85395 -0.67724 0
M  V30 6385 H 612.414 3.8382 1.0377 0
M  V30 6386 N 613.412 0.11024 1.57214 0
M  V30 6387 C 614.689 -0.592956 1.86396 0
M  V30 6388 C 615.069 -1.85379 1.00985 0
M  V30 6389 O 614.417 -2.28337 0.0863592 0
M  V30 6390 C 614.627 -0.893816 3.3736 0
M  V30 6391 C 615.975 -1.25069 4.05762 0
M  V30 6392 O 616.999 -0.984356 3.42329 0
M  V30 6393 O 615.858 -1.75017 5.17718 0
M  V30 6394 H 612.952 -0.29828 0.771335 0
M  V30 6395 H 615.498 0.144083 1.69087 0
M  V30 6396 H 614.27 2.6031e-05 3.913 0
M  V30 6397 H 613.893 -1.68631 3.60068 0
M  V30 6398 N 614.89 -1.56749 -0.16351 0
M  V30 6399 C 616.167 -1.73321 -0.906599 0
M  V30 6400 C 616.547 -0.673779 -2.00059 0
M  V30 6401 O 615.895 0.310121 -2.26386 0
M  V30 6402 C 616.105 -3.168 -1.46419 0
M  V30 6403 C 617.453 -3.77993 -1.93407 0
M  V30 6404 O 618.477 -3.20127 -1.56196 0
M  V30 6405 O 617.336 -4.79615 -2.61976 0
M  V30 6406 H 614.43 -0.708073 -0.427272 0
M  V30 6407 H 616.976 -1.69029 -0.150727 0
M  V30 6408 H 615.748 -3.85396 -0.677189 0
M  V30 6409 H 615.371 -3.2545 -2.28403 0
M  V30 6410 N 616.368 0.432326 -1.51554 0
M  V30 6411 C 617.615 1.18134 -1.64471 0
M  V30 6412 C 617.943 1.91076 -0.363349 0
M  V30 6413 O 617.198 1.84492 0.65279 0
M  V30 6414 C 617.497 2.21907 -2.80164 0
M  V30 6415 C 617.163 1.65941 -4.19255 0
M  V30 6416 C 615.825 1.50401 -4.57092 0
M  V30 6417 C 618.177 1.24843 -5.06027 0
M  V30 6418 C 615.505 0.922443 -5.79403 0
M  V30 6419 C 617.857 0.68113 -6.28922 0
M  V30 6420 C 616.521 0.512673 -6.65528 0
M  V30 6421 H 615.791 0.432283 -0.601841 0
M  V30 6422 H 618.438 0.471701 -1.856 0
M  V30 6423 H 616.743 2.98928 -2.53277 0
M  V30 6424 H 618.44 2.79691 -2.87357 0
M  V30 6425 H 615.03 1.79014 -3.89425 0
M  V30 6426 H 619.214 1.35667 -4.77397 0
M  V30 6427 H 614.47 0.779733 -6.06408 0
M  V30 6428 H 618.644 0.35418 -6.95499 0
M  V30 6429 H 616.271 0.0599084 -7.60176 0
M  V30 6430 N 617.846 1.41785 0.688094 0
M  V30 6431 C 619.074 1.44915 1.47673 0
M  V30 6432 C 619.489 0.0565786 1.88715 0
M  V30 6433 O 618.846 -0.92579 1.57275 0
M  V30 6434 C 618.897 2.36452 2.73446 0
M  V30 6435 O 618.618 3.7029 2.34131 0
M  V30 6436 C 620.119 2.48463 3.67125 0
M  V30 6437 H 617.339 0.493324 0.454832 0
M  V30 6438 H 619.883 1.86153 0.846594 0
M  V30 6439 H 618.038 1.98502 3.3268 0
M  V30 6440 H 618.452 4.19183 3.15255 0
M  V30 6441 H 619.926 3.16662 4.52138 0
M  V30 6442 H 620.403 1.51826 4.12123 0
M  V30 6443 H 621.009 2.8708 3.13792 0
M  V30 6444 N 619.324 -0.923095 1.27737 0
M  V30 6445 C 620.57 -1.67375 1.14514 0
M  V30 6446 C 620.903 -1.91751 -0.307424 0
M  V30 6447 O 620.178 -1.51119 -1.22447 0
M  V30 6448 C 620.461 -3.03745 1.9342 0
M  V30 6449 C 620.314 -2.86581 3.46686 0
M  V30 6450 C 621.633 -4.04144 1.74228 0
M  V30 6451 H 618.752 -0.607427 0.417374 0
M  V30 6452 H 621.394 -1.07089 1.56946 0
M  V30 6453 H 619.544 -3.55204 1.5736 0
M  V30 6454 H 621.216 -2.42203 3.92601 0
M  V30 6455 H 619.459 -2.21829 3.72793 0
M  V30 6456 H 620.13 -3.83381 3.97143 0
M  V30 6457 H 622.606 -3.61712 2.05678 0
M  V30 6458 H 621.482 -4.97543 2.31824 0
M  V30 6459 H 621.743 -4.36661 0.691373 0
M  V30 6460 O 620.841 -1.22056 -1.05757 0
M  V30 6461 H 621.532 -0.983935 -1.66848 0
M  V30 END ATOM
M  V30 BEGIN BOND
M  V30 END BOND
M  V30 END CTAB
M  END
$$$$
