drugbank_target|P54583 Endoglucanase E1 (DB02379)
 OpenBabel12092120283D

  0  0  0     0  0            999 V3000
M  V30 BEGIN CTAB
M  V30 COUNTS 8400 8533 0 0 0
M  V30 BEGIN ATOM
M  V30 1 H -0.908 1.98254 -0.117106 0
M  V30 2 N 0 1.576 0 0
M  V30 3 C 0.933 2.03868 1.02534 0
M  V30 4 C 1.911 0.928543 1.3348 0
M  V30 5 O 3.095 1.19667 1.45644 0
M  V30 6 C 0.222 2.43627 2.35294 0
M  V30 7 C -0.732 3.65373 2.2001 0
M  V30 8 S 0.101 5.13292 1.52614 0
M  V30 9 C 1.257 5.56322 2.86805 0
M  V30 10 H 1.49 2.90518 0.631377 0
M  V30 11 H -0.977 1.52953 0.210867 0
M  V30 12 H 0.981 2.67203 3.11629 0
M  V30 13 H -0.358 1.57376 2.7183 0
M  V30 14 H -1.165 3.90944 3.18086 0
M  V30 15 H -1.563 3.418 1.51819 0
M  V30 16 H 0.729 5.58782 3.83104 0
M  V30 17 H 1.672 6.56266 2.65933 0
M  V30 18 H 2.08 4.83886 2.90714 0
M  V30 19 N 1.4781 -0.272755 1.55222 0
M  V30 20 C 2.8891 -0.84378 1.66545 0
M  V30 21 C 3.2401 -1.87035 0.592641 0
M  V30 22 O 2.3651 -2.14761 -0.265818 0
M  V30 23 C 2.9601 -1.53723 3.01918 0
M  V30 24 C 1.5191 -2.05628 3.15268 0
M  V30 25 C 0.6661 -0.898424 2.62343 0
M  V30 26 H 3.6171 -0.0490998 1.58624 0
M  V30 27 H 3.6381 -2.40421 2.94921 0
M  V30 28 H 3.1501 -0.78983 3.79978 0
M  V30 29 H 1.2511 -2.83329 2.41983 0
M  V30 30 H 1.3641 -2.27142 4.21833 0
M  V30 31 H -0.2719 -1.29186 2.19506 0
M  V30 32 H 0.5111 -0.164528 3.42906 0
M  V30 33 N 2.9562 -1.48159 -0.537278 0
M  V30 34 C 4.3722 -1.34118 -0.865129 0
M  V30 35 C 4.5722 -0.346678 -1.98495 0
M  V30 36 O 3.6282 0.234715 -2.51407 0
M  V30 37 C 4.9412 -2.73963 -1.23954 0
M  V30 38 C 6.4892 -2.82397 -1.34984 0
M  V30 39 C 6.9642 -4.22928 -1.75772 0
M  V30 40 N 8.4552 -4.25566 -1.82887 0
M  V30 41 C 9.1902 -5.31235 -2.15817 0
M  V30 42 N 8.6862 -6.47189 -2.47222 0
M  V30 43 N 10.4792 -5.18624 -2.16761 0
M  V30 44 H 2.6302 -2.1144 0.201715 0
M  V30 45 H 4.8932 -0.947598 0.0275949 0
M  V30 46 H 4.5992 -3.48264 -0.490381 0
M  V30 47 H 4.4732 -3.0702 -2.19132 0
M  V30 48 H 6.8602 -2.08356 -2.08978 0
M  V30 49 H 6.9412 -2.5297 -0.379448 0
M  V30 50 H 6.5852 -4.97482 -1.02341 0
M  V30 51 H 6.5152 -4.49794 -2.73848 0
M  V30 52 H 9.0062 -3.41924 -1.60924 0
M  V30 53 H 9.3192 -7.23564 -2.71433 0
M  V30 54 H 7.6642 -6.50476 -2.44757 0
M  V30 55 H 10.8552 -4.27056 -1.91679 0
M  V30 56 H 11.0282 -6.01078 -2.42093 0
M  V30 57 N 4.4343 0.785586 -1.36625 0
M  V30 58 C 5.3973 1.87999 -1.31107 0
M  V30 59 C 6.3973 1.59316 -0.217959 0
M  V30 60 O 7.5873 1.67656 -0.472977 0
M  V30 61 C 4.7193 3.24861 -1.03334 0
M  V30 62 H 5.9123 1.94307 -2.2844 0
M  V30 63 H 3.4653 0.983813 -1.21453 0
M  V30 64 H 4.2003 3.24235 -0.0647432 0
M  V30 65 H 3.9853 3.4707 -1.82441 0
M  V30 66 H 5.4753 4.04929 -1.02088 0
M  V30 67 N 5.9124 1.20967 1.01018 0
M  V30 68 C 6.8424 0.988272 2.11555 0
M  V30 69 C 7.8234 -0.0849778 1.69888 0
M  V30 70 O 9.0084 0.0738202 1.9406 0
M  V30 71 C 6.1384 0.546528 3.42973 0
M  V30 72 C 5.0924 1.56375 3.9841 0
M  V30 73 C 4.4184 0.97842 5.25672 0
M  V30 74 C 5.7184 2.94922 4.31066 0
M  V30 75 H 7.4124 1.91276 2.30334 0
M  V30 76 H 4.9584 0.921073 1.1069 0
M  V30 77 H 6.9114 0.378839 4.19694 0
M  V30 78 H 5.6354 -0.413598 3.23971 0
M  V30 79 H 4.2944 1.71891 3.23804 0
M  V30 80 H 3.9424 0.0101688 5.02999 0
M  V30 81 H 3.6424 1.65784 5.63728 0
M  V30 82 H 5.1664 0.821939 6.05043 0
M  V30 83 H 6.5804 2.8288 4.9865 0
M  V30 84 H 4.9774 3.5983 4.80253 0
M  V30 85 H 6.0474 3.4616 3.39561 0
M  V30 86 N 7.3905 -1.2043 1.01659 0
M  V30 87 C 8.8065 -1.41852 0.731442 0
M  V30 88 C 9.0065 -1.89358 -0.688898 0
M  V30 89 O 8.0625 -2.06247 -1.45666 0
M  V30 90 C 9.3755 -2.44019 1.75714 0
M  V30 91 C 10.9235 -2.57785 1.77527 0
M  V30 92 C 11.3985 -3.63194 2.79023 0
M  V30 93 N 12.8895 -3.70678 2.77763 0
M  V30 94 C 13.6245 -4.51897 3.52954 0
M  V30 95 N 13.1205 -5.36921 4.37821 0
M  V30 96 N 14.9135 -4.4643 3.41551 0
M  V30 97 H 7.0645 -0.879093 1.93354 0
M  V30 98 H 9.3275 -0.448425 0.835236 0
M  V30 99 H 9.0335 -2.1611 2.77469 0
M  V30 100 H 8.9075 -3.43007 1.56927 0
M  V30 101 H 11.2945 -2.85023 0.764569 0
M  V30 102 H 11.3755 -1.58992 2.00387 0
M  V30 103 H 11.0195 -3.36699 3.80258 0
M  V30 104 H 10.9495 -4.61609 2.53425 0
M  V30 105 H 13.4405 -3.09944 2.16201 0
M  V30 106 H 13.7535 -5.95981 4.91962 0
M  V30 107 H 12.0985 -5.36424 4.41899 0
M  V30 108 H 15.2895 -3.79042 2.74672 0
M  V30 109 H 15.4625 -5.09491 4.00404 0
M  V30 110 N 8.8686 -0.792821 -1.36206 0
M  V30 111 C 10.2846 -0.474903 -1.52371 0
M  V30 112 C 10.4846 1.00622 -1.74578 0
M  V30 113 O 9.5406 1.79162 -1.77924 0
M  V30 114 C 10.8536 -1.3083 -2.70747 0
M  V30 115 C 12.4016 -1.30234 -2.84619 0
M  V30 116 C 12.8766 -2.11956 -4.06004 0
M  V30 117 N 14.3676 -2.09419 -4.13156 0
M  V30 118 C 15.1026 -2.69419 -5.06163 0
M  V30 119 N 14.5986 -3.3829 -6.04592 0
M  V30 120 N 16.3916 -2.59134 -4.98804 0
M  V30 121 H 8.5426 -1.75222 -1.20046 0
M  V30 122 H 10.8056 -0.745024 -0.586211 0
M  V30 123 H 10.5116 -2.35881 -2.6087 0
M  V30 124 H 10.3856 -0.95196 -3.6499 0
M  V30 125 H 12.7726 -0.259748 -2.93955 0
M  V30 126 H 12.8536 -1.69847 -1.91274 0
M  V30 127 H 12.4976 -3.16248 -3.97429 0
M  V30 128 H 12.4276 -1.69711 -4.98503 0
M  V30 129 H 14.9186 -1.59297 -3.42685 0
M  V30 130 H 15.2316 -3.81394 -6.7213 0
M  V30 131 H 13.5766 -3.42393 -6.04807 0
M  V30 132 H 16.7676 -2.04927 -4.20859 0
M  V30 133 H 16.9406 -3.06185 -5.711 0
M  V30 134 N 10.3467 1.47872 -0.545128 0
M  V30 135 C 11.5927 2.02793 -0.0166104 0
M  V30 136 C 11.9257 1.41987 1.32489 0
M  V30 137 O 11.2007 0.571045 1.85928 0
M  V30 138 C 11.4837 3.59989 0.0893294 0
M  V30 139 C 11.3367 4.3125 -1.27841 0
M  V30 140 C 12.6557 4.32606 0.808724 0
M  V30 141 H 9.7747 0.736962 -0.00751035 0
M  V30 142 H 12.4167 1.76433 -0.705085 0
M  V30 143 H 10.5667 3.82579 0.675681 0
M  V30 144 H 12.2387 4.20035 -1.90704 0
M  V30 145 H 10.4817 3.92076 -1.85632 0
M  V30 146 H 11.1527 5.39736 -1.15713 0
M  V30 147 H 13.6287 4.14936 0.310992 0
M  V30 148 H 12.5047 5.42251 0.851782 0
M  V30 149 H 12.7657 4.00963 1.86229 0
M  V30 150 N 11.8248 0.280983 1.55075 0
M  V30 151 C 13.2358 -0.215629 1.85451 0
M  V30 152 C 13.5868 -1.54991 1.203 0
M  V30 153 O 12.7118 -2.10699 0.493435 0
M  V30 154 C 13.3068 -0.398026 3.36454 0
M  V30 155 C 11.8658 -0.838866 3.66933 0
M  V30 156 C 11.0128 0.064458 2.77225 0
M  V30 157 H 13.9638 0.502601 1.50531 0
M  V30 158 H 13.9848 -1.23569 3.59876 0
M  V30 159 H 13.4968 0.573241 3.83843 0
M  V30 160 H 11.5978 -1.8214 3.25048 0
M  V30 161 H 11.7108 -0.672123 4.74362 0
M  V30 162 H 10.0748 -0.452863 2.50642 0
M  V30 163 H 10.8578 1.03172 3.2743 0
M  V30 164 N 13.3029 -1.57598 0.00835791 0
M  V30 165 C 14.5509 -1.90551 -0.6734 0
M  V30 166 C 14.8719 -0.883301 -1.73847 0
M  V30 167 O 14.1419 0.0781442 -1.95744 0
M  V30 168 H 12.7219 -0.703312 -0.251717 0
M  V30 169 H 15.3839 -1.94833 0.0512592 0
M  V30 170 H 14.4799 -2.9056 -1.13935 0
M  V30 171 N 14.781 0.264519 -1.55364 0
M  V30 172 C 16.006 1.01726 -1.80739 0
M  V30 173 C 16.431 1.78836 -0.583044 0
M  V30 174 O 15.789 1.75167 0.467566 0
M  V30 175 C 15.837 1.94482 -3.03659 0
M  V30 176 O 14.941 3.03386 -2.7934 0
M  V30 177 H 14.282 0.290395 -0.597132 0
M  V30 178 H 16.812 0.290854 -2.02522 0
M  V30 179 H 16.822 2.36278 -3.32621 0
M  V30 180 H 15.497 1.37772 -3.92418 0
M  V30 181 H 14.074 2.65844 -2.61498 0
M  V30 182 N 16.2591 1.48442 0.529413 0
M  V30 183 C 17.6751 1.34575 0.858004 0
M  V30 184 C 17.8751 0.3572 1.98309 0
M  V30 185 O 16.9311 -0.221379 2.51528 0
M  V30 186 C 18.2441 2.74617 1.22499 0
M  V30 187 C 19.7921 2.83109 1.33484 0
M  V30 188 C 20.2671 4.23854 1.73526 0
M  V30 189 N 21.7581 4.2653 1.80628 0
M  V30 190 C 22.4931 5.32372 2.12997 0
M  V30 191 N 21.9891 6.48491 2.43786 0
M  V30 192 N 23.7821 5.19766 2.14008 0
M  V30 193 H 15.9331 2.1133 -0.212925 0
M  V30 194 H 18.1961 0.947439 -0.0326199 0
M  V30 195 H 17.9021 3.4852 0.471905 0
M  V30 196 H 17.7761 3.08177 2.17501 0
M  V30 197 H 20.1631 2.09462 2.0787 0
M  V30 198 H 20.2441 2.53168 0.366027 0
M  V30 199 H 19.8881 4.98018 0.997013 0
M  V30 200 H 19.8181 4.5124 2.71459 0
M  V30 201 H 22.3091 3.42772 1.59108 0
M  V30 202 H 22.6221 7.24993 2.67592 0
M  V30 203 H 20.9671 6.51765 2.41304 0
M  V30 204 H 24.1581 4.28066 1.89412 0
M  V30 205 H 24.3311 6.02354 2.38902 0
M  V30 206 N 17.7372 -0.778329 1.37039 0
M  V30 207 C 18.9832 -1.53892 1.32079 0
M  V30 208 C 19.3162 -1.9396 -0.0965386 0
M  V30 209 O 18.5912 -1.63568 -1.05242 0
M  V30 210 C 18.8742 -2.80847 2.25382 0
M  V30 211 C 18.7272 -2.47076 3.75864 0
M  V30 212 C 20.0462 -3.82741 2.1725 0
M  V30 213 H 17.1652 -0.558303 0.48111 0
M  V30 214 H 19.8072 -0.893397 1.67685 0
M  V30 215 H 17.9572 -3.35931 1.95148 0
M  V30 216 H 19.6292 -1.97957 4.16666 0
M  V30 217 H 17.8722 -1.79863 3.94755 0
M  V30 218 H 18.5432 -3.37798 4.36574 0
M  V30 219 H 21.0192 -3.37133 2.43887 0
M  V30 220 H 19.8952 -4.69303 2.84686 0
M  V30 221 H 20.1562 -4.2652 1.16331 0
M  V30 222 N 19.2153 -1.21501 -1.00376 0
M  V30 223 C 20.1483 -0.918669 -2.08892 0
M  V30 224 C 21.1263 0.134277 -1.62045 0
M  V30 225 O 22.3103 0.00504255 -1.88499 0
M  V30 226 C 19.4373 -0.379645 -3.36566 0
M  V30 227 C 18.4833 -1.41559 -4.02323 0
M  V30 228 S 19.3163 -2.98521 -4.44574 0
M  V30 229 C 20.4723 -2.46228 -5.75433 0
M  V30 230 H 20.7053 -1.83761 -2.33707 0
M  V30 231 H 18.2383 -1.04489 -1.13673 0
M  V30 232 H 20.1963 -0.0752195 -4.10431 0
M  V30 233 H 18.8573 0.518008 -3.09799 0
M  V30 234 H 18.0503 -0.988076 -4.9422 0
M  V30 235 H 17.6523 -1.66815 -3.34737 0
M  V30 236 H 19.9443 -1.86791 -6.51241 0
M  V30 237 H 20.8873 -3.36572 -6.22997 0
M  V30 238 H 21.2953 -1.87894 -5.32312 0
M  V30 239 N 20.6934 1.19889 -1.02296 0
M  V30 240 C 21.6234 2.25141 -0.619174 0
M  V30 241 C 22.6044 1.66051 0.368915 0
M  V30 242 O 23.7894 1.92546 0.252941 0
M  V30 243 C 20.9194 3.4728 0.0368783 0
M  V30 244 C 19.8734 4.19005 -0.872865 0
M  V30 245 C 19.1994 5.34637 -0.0822402 0
M  V30 246 C 20.4994 4.74452 -2.18387 0
M  V30 247 H 22.1934 2.59171 -1.49903 0
M  V30 248 H 19.7394 1.24579 -0.722222 0
M  V30 249 H 21.6924 4.20098 0.330958 0
M  V30 250 H 20.4164 3.12433 0.95149 0
M  V30 251 H 19.0754 3.48061 -1.15105 0
M  V30 252 H 18.7234 4.96034 0.83422 0
M  V30 253 H 18.4234 5.83557 -0.688149 0
M  V30 254 H 19.9474 6.10255 0.205238 0
M  V30 255 H 21.3614 5.39055 -1.95172 0
M  V30 256 H 19.7584 5.33834 -2.74119 0
M  V30 257 H 20.8284 3.92844 -2.84257 0
M  V30 258 N 22.1715 0.800033 1.35784 0
M  V30 259 C 23.5875 0.482977 1.52117 0
M  V30 260 C 23.7875 -0.996948 1.75109 0
M  V30 261 O 22.8435 -1.78216 1.78872 0
M  V30 262 C 24.1565 1.32264 2.70049 0
M  V30 263 C 25.7045 1.31742 2.83924 0
M  V30 264 C 26.1795 2.14106 4.04874 0
M  V30 265 N 27.6705 2.11607 4.12039 0
M  V30 266 C 28.4055 2.72099 5.04727 0
M  V30 267 N 27.9015 3.41492 6.02789 0
M  V30 268 N 29.6945 2.61776 4.97423 0
M  V30 269 H 21.8455 1.75856 1.19115 0
M  V30 270 H 24.1085 0.748122 0.582252 0
M  V30 271 H 23.8145 2.37261 2.59616 0
M  V30 272 H 23.6885 0.971303 3.6448 0
M  V30 273 H 26.0755 0.275333 2.93813 0
M  V30 274 H 26.1565 1.70859 1.9037 0
M  V30 275 H 25.8005 3.18351 3.95746 0
M  V30 276 H 25.7305 1.72353 4.97596 0
M  V30 277 H 28.2215 1.61112 3.41835 0
M  V30 278 H 28.5345 3.84953 6.70098 0
M  V30 279 H 26.8795 3.45596 6.02983 0
M  V30 280 H 30.0705 2.07157 4.19766 0
M  V30 281 H 30.2435 3.0921 5.69468 0
M  V30 282 N 23.6496 -1.47581 0.552962 0
M  V30 283 C 24.8956 -2.02782 0.0273648 0
M  V30 284 C 25.2286 -1.42687 -1.31734 0
M  V30 285 O 24.5036 -0.580897 -1.85623 0
M  V30 286 C 24.7866 -3.60031 -0.0702371 0
M  V30 287 C 24.6396 -4.30566 1.30126 0
M  V30 288 C 25.9586 -4.33028 -0.785771 0
M  V30 289 H 23.0776 -0.736912 0.0114185 0
M  V30 290 H 25.7196 -1.76056 0.714432 0
M  V30 291 H 23.8696 -3.82932 -0.655382 0
M  V30 292 H 25.5416 -4.19018 1.92929 0
M  V30 293 H 23.7846 -3.91086 1.87709 0
M  V30 294 H 24.4556 -5.39114 1.18573 0
M  V30 295 H 26.9316 -4.15095 -0.288982 0
M  V30 296 H 25.8076 -5.42695 -0.823013 0
M  V30 297 H 26.0686 -4.01945 -1.841 0
M  V30 298 N 25.1277 -0.289203 -1.54924 0
M  V30 299 C 26.3757 0.322879 -1.99504 0
M  V30 300 C 26.6967 1.55313 -1.1791 0
M  V30 301 O 25.9667 1.94001 -0.272097 0
M  V30 302 H 24.5467 0.122291 -0.736922 0
M  V30 303 H 27.2087 -0.397802 -1.90797 0
M  V30 304 H 26.3047 0.603061 -3.06218 0
M  V30 305 N 26.6058 1.57591 -0.0167156 0
M  V30 306 C 27.8518 1.91567 0.665582 0
M  V30 307 C 28.1848 0.892298 1.72487 0
M  V30 308 O 27.4598 -0.0867127 1.94307 0
M  V30 309 C 27.7428 3.36069 1.29342 0
M  V30 310 C 27.5958 4.49135 0.244541 0
M  V30 311 C 28.9148 3.803 2.21495 0
M  V30 312 H 26.0338 0.69666 0.240488 0
M  V30 313 H 28.6758 1.89866 -0.0714356 0
M  V30 314 H 26.8258 3.3765 1.92158 0
M  V30 315 H 28.4978 4.59689 -0.385228 0
M  V30 316 H 26.7408 4.3165 -0.431379 0
M  V30 317 H 27.4118 5.47242 0.723207 0
M  V30 318 H 29.8878 3.80377 1.68678 0
M  V30 319 H 28.7638 4.82127 2.62382 0
M  V30 320 H 29.0248 3.15104 3.101 0
M  V30 321 N 28.0839 -0.256276 1.55502 0
M  V30 322 C 29.3299 -0.987079 1.77157 0
M  V30 323 C 29.6629 -1.85327 0.580315 0
M  V30 324 O 28.9379 -1.89874 -0.421686 0
M  V30 325 C 29.2209 -1.85553 3.08613 0
M  V30 326 C 29.0739 -1.01816 4.38125 0
M  V30 327 C 30.3929 -2.8397 3.36228 0
M  V30 328 H 27.5119 -0.357428 0.644526 0
M  V30 329 H 30.1539 -0.258239 1.88237 0
M  V30 330 H 28.3039 -2.47695 2.99298 0
M  V30 331 H 29.9759 -0.416159 4.59419 0
M  V30 332 H 28.2189 -0.322178 4.32602 0
M  V30 333 H 28.8899 -1.65939 5.26468 0
M  V30 334 H 31.3659 -2.31964 3.45445 0
M  V30 335 H 30.2419 -3.41864 4.29442 0
M  V30 336 H 30.5029 -3.59955 2.56681 0
M  V30 337 N 29.562 -1.4872 -0.521534 0
M  V30 338 C 30.808 -1.574 -1.27879 0
M  V30 339 C 31.141 -0.250817 -1.92573 0
M  V30 340 O 30.416 0.743934 -1.79711 0
M  V30 341 C 30.699 -2.71843 -2.36164 0
M  V30 342 C 30.552 -4.13893 -1.76105 0
M  V30 343 C 31.871 -2.82008 -3.37875 0
M  V30 344 H 28.99 -0.572941 -0.463581 0
M  V30 345 H 31.632 -1.80927 -0.580119 0
M  V30 346 H 29.782 -2.51914 -2.95756 0
M  V30 347 H 31.454 -4.45284 -1.20499 0
M  V30 348 H 29.697 -4.20498 -1.06601 0
M  V30 349 H 30.368 -4.89804 -2.5455 0
M  V30 350 H 32.844 -3.00086 -2.88249 0
M  V30 351 H 31.72 -3.63796 -4.11028 0
M  V30 352 H 31.981 -1.90511 -3.98946 0
M  V30 353 N 31.0401 0.771051 -1.3745 0
M  V30 354 C 32.0031 1.86598 -1.33093 0
M  V30 355 C 33.0031 1.59076 -0.234845 0
M  V30 356 O 34.1931 1.67145 -0.490732 0
M  V30 357 C 31.3251 3.23747 -1.06773 0
M  V30 358 H 32.5181 1.91873 -2.30488 0
M  V30 359 H 30.0711 0.970876 -1.2249 0
M  V30 360 H 30.8061 3.24148 -0.099129 0
M  V30 361 H 30.5911 3.45115 -1.86112 0
M  V30 362 H 32.0811 4.03824 -1.06377 0
M  V30 363 N 32.5182 1.22032 0.997298 0
M  V30 364 C 33.7642 1.04376 1.73878 0
M  V30 365 C 34.0972 -0.420716 1.89588 0
M  V30 366 O 33.3722 -1.31202 1.43583 0
M  V30 367 C 33.6552 1.75047 3.14691 0
M  V30 368 C 33.5082 3.29062 3.06656 0
M  V30 369 C 34.8272 1.49928 4.13775 0
M  V30 370 H 31.9462 0.380578 0.631133 0
M  V30 371 H 34.5882 1.50312 1.16217 0
M  V30 372 H 32.7382 1.35996 3.63919 0
M  V30 373 H 34.4102 3.7753 2.65083 0
M  V30 374 H 32.6532 3.58967 2.43568 0
M  V30 375 H 33.3242 3.73683 4.06282 0
M  V30 376 H 35.8002 1.83842 3.73285 0
M  V30 377 H 34.6762 2.01878 5.10428 0
M  V30 378 H 34.9372 0.430929 4.39995 0
M  V30 379 N 33.9963 -1.19345 1.0293 0
M  V30 380 C 34.9263 -2.2481 0.631105 0
M  V30 381 C 35.9073 -1.66245 -0.360104 0
M  V30 382 O 37.0923 -1.92677 -0.242726 0
M  V30 383 C 34.2223 -3.47295 -0.0184607 0
M  V30 384 C 33.1763 -4.18536 0.895073 0
M  V30 385 C 32.5023 -5.34586 0.110592 0
M  V30 386 C 33.8023 -4.73287 2.209 0
M  V30 387 H 35.4963 -2.58372 1.51275 0
M  V30 388 H 33.0423 -1.24194 0.728818 0
M  V30 389 H 34.9953 -4.20268 -0.308675 0
M  V30 390 H 33.7193 -3.12933 -0.934907 0
M  V30 391 H 32.3783 -3.47446 1.16949 0
M  V30 392 H 32.0263 -4.96469 -0.807902 0
M  V30 393 H 31.7263 -5.83183 0.719087 0
M  V30 394 H 33.2503 -6.10355 -0.172871 0
M  V30 395 H 34.6643 -5.38013 1.98028 0
M  V30 396 H 33.0613 -5.32373 2.76946 0
M  V30 397 H 34.1313 -3.91331 2.86336 0
M  V30 398 N 35.4744 -0.807222 -1.35358 0
M  V30 399 C 36.4374 -0.223665 -2.28106 0
M  V30 400 C 37.4374 0.589354 -1.4961 0
M  V30 401 O 38.6274 0.407745 -1.69361 0
M  V30 402 C 35.7594 0.688149 -3.33882 0
M  V30 403 H 36.9524 -1.04169 -2.81227 0
M  V30 404 H 34.5054 -0.577921 -1.45223 0
M  V30 405 H 35.2404 1.52984 -2.85948 0
M  V30 406 H 35.0254 0.10687 -3.91954 0
M  V30 407 H 36.5154 1.09075 -4.03104 0
M  V30 408 N 36.9525 1.47285 -0.560781 0
M  V30 409 C 37.8825 2.32857 0.173105 0
M  V30 410 C 38.8635 1.44009 0.905281 0
M  V30 411 O 40.0485 1.7286 0.885046 0
M  V30 412 C 37.1785 3.25861 1.20133 0
M  V30 413 C 36.1325 4.23978 0.585388 0
M  V30 414 C 35.4585 5.06332 1.7185 0
M  V30 415 C 36.7585 5.20242 -0.463178 0
M  V30 416 H 38.4525 2.94466 -0.541307 0
M  V30 417 H 35.9985 1.41601 -0.261764 0
M  V30 418 H 37.9515 3.84569 1.72293 0
M  V30 419 H 36.6755 2.62315 1.94573 0
M  V30 420 H 35.3345 3.66501 0.085054 0
M  V30 421 H 34.9825 4.39186 2.45203 0
M  V30 422 H 34.6825 5.72762 1.31213 0
M  V30 423 H 36.2065 5.67899 2.24329 0
M  V30 424 H 37.6205 5.73293 -0.027502 0
M  V30 425 H 36.0175 5.94896 -0.788627 0
M  V30 426 H 37.0875 4.65504 -1.35773 0
M  V30 427 N 38.4306 0.297415 1.54768 0
M  V30 428 C 39.6766 -0.313376 2.00364 0
M  V30 429 C 40.0096 -1.53815 1.18553 0
M  V30 430 O 39.2846 -1.92739 0.261103 0
M  V30 431 C 39.5676 -0.673525 3.53745 0
M  V30 432 C 39.4206 0.560133 4.46299 0
M  V30 433 C 40.7396 -1.50143 4.13697 0
M  V30 434 H 37.8586 -0.112428 0.728374 0
M  V30 435 H 40.5006 0.4088 1.8555 0
M  V30 436 H 38.6506 -1.28881 3.665 0
M  V30 437 H 40.3226 1.19863 4.45455 0
M  V30 438 H 38.5656 1.19405 4.17043 0
M  V30 439 H 39.2366 0.26405 5.51368 0
M  V30 440 H 41.7126 -0.981588 4.04356 0
M  V30 441 H 40.5886 -1.72221 5.21182 0
M  V30 442 H 40.8496 -2.48952 3.65343 0
M  V30 443 N 39.9087 -1.5758 0.0250728 0
M  V30 444 C 40.8717 -2.08896 -0.943139 0
M  V30 445 C 41.8717 -1.00321 -1.25668 0
M  V30 446 O 43.0617 -1.26495 -1.19769 0
M  V30 447 C 40.1937 -2.55143 -2.26086 0
M  V30 448 H 41.3867 -2.95723 -0.498775 0
M  V30 449 H 38.9397 -1.54703 -0.222888 0
M  V30 450 H 39.6747 -1.71633 -2.75159 0
M  V30 451 H 39.4597 -3.34461 -2.04641 0
M  V30 452 H 40.9497 -2.95083 -2.95492 0
M  V30 453 N 41.3868 0.248026 -1.55636 0
M  V30 454 C 42.3498 1.29044 -1.89421 0
M  V30 455 C 43.3498 1.41134 -0.770581 0
M  V30 456 O 44.5398 1.39854 -1.03858 0
M  V30 457 C 41.6718 2.66831 -2.12165 0
M  V30 458 H 42.8648 1.00305 -2.82629 0
M  V30 459 H 40.4178 0.487265 -1.48511 0
M  V30 460 H 41.1528 3.00711 -1.21422 0
M  V30 461 H 40.9378 2.59438 -2.93997 0
M  V30 462 H 42.4278 3.42103 -2.3949 0
M  V30 463 N 42.8649 1.48995 0.513639 0
M  V30 464 C 43.7949 1.67636 1.62544 0
M  V30 465 C 44.7759 0.525087 1.61793 0
M  V30 466 O 45.9609 0.759502 1.78732 0
M  V30 467 C 43.0909 1.73114 3.01079 0
M  V30 468 C 42.0449 2.87905 3.16693 0
M  V30 469 C 41.3709 2.78486 4.56453 0
M  V30 470 C 42.6709 4.29005 2.97913 0
M  V30 471 H 44.3649 2.60716 1.47198 0
M  V30 472 H 41.9109 1.25465 0.706714 0
M  V30 473 H 43.8639 1.84742 3.78746 0
M  V30 474 H 42.5879 0.766241 3.17484 0
M  V30 475 H 41.2469 2.75859 2.41448 0
M  V30 476 H 40.8949 1.7993 4.69717 0
M  V30 477 H 40.5949 3.55523 4.67843 0
M  V30 478 H 42.1189 2.92104 5.36197 0
M  V30 479 H 43.5329 4.41798 3.65359 0
M  V30 480 H 41.9299 5.07166 3.20785 0
M  V30 481 H 42.9999 4.44329 1.94165 0
M  V30 482 N 44.343 -0.763751 1.37857 0
M  V30 483 C 45.306 -1.85889 1.34081 0
M  V30 484 C 46.306 -1.58949 0.243277 0
M  V30 485 O 47.496 -1.66882 0.499589 0
M  V30 486 C 44.628 -3.23176 1.08489 0
M  V30 487 H 45.821 -1.90648 2.31502 0
M  V30 488 H 43.374 -0.964367 1.23003 0
M  V30 489 H 44.109 -3.24091 0.116318 0
M  V30 490 H 43.894 -3.44124 1.8794 0
M  V30 491 H 45.384 -4.03254 1.08517 0
M  V30 492 N 45.8211 -1.22559 -0.990812 0
M  V30 493 C 46.7691 -0.994798 -2.10253 0
M  V30 494 C 47.7631 0.0627798 -1.69284 0
M  V30 495 O 48.9691 -0.0898392 -1.79776 0
M  V30 496 H 45.3441 -0.304527 -0.687581 0
M  V30 497 H 47.3151 -1.93812 -2.26891 0
M  V30 498 C 46.0641 -0.591439 -3.42633 0
M  V30 499 H 45.3871 -1.3969 -3.74602 0
M  V30 500 H 46.8271 -0.469385 -4.21394 0
M  V30 501 C 45.2861 0.699232 -3.29564 0
M  V30 502 O 45.8161 1.75112 -3.61523 0
M  V30 503 N 44.0221 0.671182 -2.82743 0
M  V30 504 H 43.5691 -0.185136 -2.56934 0
M  V30 505 H 43.5271 1.53502 -2.7438 0
M  V30 506 N 47.2992 1.18797 -1.03562 0
M  V30 507 C 48.2292 2.24472 -0.643019 0
M  V30 508 C 49.2102 1.66433 0.351283 0
M  V30 509 O 50.3952 1.92803 0.232505 0
M  V30 510 C 47.5252 3.473 4.24935e-05 0
M  V30 511 C 46.4792 4.18055 -0.917257 0
M  V30 512 C 45.8052 5.34519 -0.138941 0
M  V30 513 C 47.1052 4.72109 -2.23407 0
M  V30 514 H 48.7992 2.57566 -1.52643 0
M  V30 515 H 46.3452 1.23806 -0.735394 0
M  V30 516 H 48.2982 4.20426 0.286383 0
M  V30 517 H 47.0222 3.13424 0.918299 0
M  V30 518 H 45.6812 3.46821 -1.1879 0
M  V30 519 H 45.3292 4.96891 0.781562 0
M  V30 520 H 45.0292 5.82794 -0.750005 0
M  V30 521 H 46.5532 6.10438 0.1405 0
M  V30 522 H 47.9672 5.36955 -2.00879 0
M  V30 523 H 46.3642 5.30897 -2.79765 0
M  V30 524 H 47.4342 3.89807 -2.88407 0
M  V30 525 N 48.7773 0.814389 1.34928 0
M  V30 526 C 49.7403 0.235759 2.27984 0
M  V30 527 C 50.7403 -0.581412 1.49921 0
M  V30 528 O 51.9303 -0.398758 1.69575 0
M  V30 529 C 49.0623 -0.670433 3.34242 0
M  V30 530 H 50.2553 1.05659 2.80671 0
M  V30 531 H 47.8083 0.585614 1.44915 0
M  V30 532 H 48.5433 -1.51466 2.86755 0
M  V30 533 H 48.3283 -0.0860822 3.92005 0
M  V30 534 H 49.8183 -1.06935 4.03676 0
M  V30 535 N 50.2554 -1.46986 0.568584 0
M  V30 536 C 51.5014 -2.02741 0.0488709 0
M  V30 537 C 51.8344 -1.44077 -1.30214 0
M  V30 538 O 51.1094 -0.600552 -1.84996 0
M  V30 539 C 51.3924 -3.60086 -0.032047 0
M  V30 540 C 51.2454 -4.29162 1.34686 0
M  V30 541 C 52.5644 -4.33838 -0.739798 0
M  V30 542 H 49.6834 -0.736749 0.0192338 0
M  V30 543 H 52.3254 -1.75289 0.733065 0
M  V30 544 H 50.4754 -3.83606 -0.61473 0
M  V30 545 H 52.1474 -4.16948 1.97362 0
M  V30 546 H 50.3904 -3.89073 1.91846 0
M  V30 547 H 51.0614 -5.37826 1.24285 0
M  V30 548 H 53.5374 -4.15378 -0.244939 0
M  V30 549 H 52.4134 -5.43537 -0.765406 0
M  V30 550 H 52.6744 -4.03875 -1.79827 0
M  V30 551 N 51.7335 -0.305618 -1.54608 0
M  V30 552 C 53.1445 0.186098 -1.8577 0
M  V30 553 C 53.4955 1.53058 -1.22751 0
M  V30 554 O 52.6205 2.09888 -0.526893 0
M  V30 555 C 53.2155 0.344449 -3.37044 0
M  V30 556 C 51.7745 0.780384 -3.68221 0
M  V30 557 C 50.9215 -0.108554 -2.77087 0
M  V30 558 H 53.8725 -0.526485 -1.49712 0
M  V30 559 H 53.8935 1.17828 -3.61796 0
M  V30 560 H 53.4055 -0.634235 -3.82883 0
M  V30 561 H 51.5065 1.76945 -3.27904 0
M  V30 562 H 51.6195 0.596572 -4.75371 0
M  V30 563 H 49.9835 0.412931 -2.5133 0
M  V30 564 H 50.7665 -1.08368 -3.25747 0
M  V30 565 N 53.2116 1.57565 -0.0334293 0
M  V30 566 C 54.6276 1.56297 0.322997 0
M  V30 567 C 54.8276 1.03945 1.7262 0
M  V30 568 O 53.8836 0.688109 2.42943 0
M  V30 569 C 55.1966 3.00232 0.167664 0
M  V30 570 C 56.7446 3.12078 0.240107 0
M  V30 571 C 57.2196 4.57859 0.113513 0
M  V30 572 N 58.7106 4.62887 0.170359 0
M  V30 573 C 59.4456 5.73319 0.0962517 0
M  V30 574 N 58.9416 6.92794 -0.0291881 0
M  V30 575 N 60.7346 5.61898 0.150551 0
M  V30 576 H 52.8856 1.89923 -0.950956 0
M  V30 577 H 55.1486 0.873824 -0.367608 0
M  V30 578 H 54.8546 3.42501 -0.799102 0
M  V30 579 H 54.7286 3.654 0.936083 0
M  V30 580 H 57.1156 2.69718 1.19733 0
M  V30 581 H 57.1966 2.49623 -0.558763 0
M  V30 582 H 56.8406 5.009 -0.840314 0
M  V30 583 H 56.7706 5.18299 0.931302 0
M  V30 584 H 59.2616 3.76954 0.26728 0
M  V30 585 H 59.5746 7.7276 -0.0789252 0
M  V30 586 H 57.9196 6.94971 -0.0640299 0
M  V30 587 H 61.1106 4.67448 0.246981 0
M  V30 588 H 61.2836 6.47938 0.0893365 0
M  V30 589 N 54.6897 -0.239769 1.55765 0
M  V30 590 C 56.1007 -0.808263 1.68297 0
M  V30 591 C 56.4517 -1.85736 0.632181 0
M  V30 592 O 55.5767 -2.15277 -0.220204 0
M  V30 593 C 56.1717 -1.47284 3.05111 0
M  V30 594 C 54.7307 -1.98895 3.19559 0
M  V30 595 C 53.8777 -0.842575 2.64189 0
M  V30 596 H 56.8287 -0.0154422 1.58692 0
M  V30 597 H 56.8497 -2.34111 2.99954 0
M  V30 598 H 56.3617 -0.709053 3.81568 0
M  V30 599 H 54.4627 -2.78132 2.47938 0
M  V30 600 H 54.5757 -2.18143 4.26556 0
M  V30 601 H 52.9397 -1.24501 2.22197 0
M  V30 602 H 53.7227 -0.0917552 3.43177 0
M  V30 603 N 56.1678 -1.49265 -0.50573 0
M  V30 604 C 57.1308 -1.65075 -1.59006 0
M  V30 605 C 58.1308 -0.522768 -1.52065 0
M  V30 606 O 59.3208 -0.789117 -1.55302 0
M  V30 607 C 56.4528 -1.64369 -2.98656 0
M  V30 608 H 57.6458 -2.61784 -1.46319 0
M  V30 609 H 55.1988 -1.38226 -0.729616 0
M  V30 610 H 55.9338 -0.692272 -3.16825 0
M  V30 611 H 55.7188 -2.46282 -3.05103 0
M  V30 612 H 57.2088 -1.78674 -3.77446 0
M  V30 613 N 57.6459 0.756429 -1.3826 0
M  V30 614 C 59.0619 1.0591 -1.19395 0
M  V30 615 C 59.2619 2.01459 -0.0406567 0
M  V30 616 O 58.3179 2.44909 0.614467 0
M  V30 617 C 59.6309 1.64191 -2.51916 0
M  V30 618 C 61.1789 1.76376 -2.58574 0
M  V30 619 C 61.6539 2.38069 -3.91264 0
M  V30 620 N 63.1449 2.45503 -3.92788 0
M  V30 621 C 63.8799 2.94126 -4.92217 0
M  V30 622 N 63.3759 3.42805 -6.02043 0
M  V30 623 N 65.1689 2.9314 -4.7961 0
M  V30 624 H 57.3199 0.122313 -2.12048 0
M  V30 625 H 59.5829 0.116892 -0.940766 0
M  V30 626 H 59.2889 1.01451 -3.3675 0
M  V30 627 H 59.1629 2.6329 -2.70108 0
M  V30 628 H 61.5499 2.38244 -1.74137 0
M  V30 629 H 61.6309 0.759894 -2.44252 0
M  V30 630 H 61.2749 1.76835 -4.76121 0
M  V30 631 H 61.2049 3.39091 -4.02895 0
M  V30 632 H 63.6959 2.1107 -3.13461 0
M  V30 633 H 64.0089 3.78354 -6.73846 0
M  V30 634 H 62.3539 3.4087 -6.05667 0
M  V30 635 H 65.5449 2.54419 -3.92923 0
M  V30 636 H 65.7179 3.30721 -5.5725 0
M  V30 637 N 59.124 1.23083 0.984299 0
M  V30 638 C 60.087 1.00979 2.05757 0
M  V30 639 C 61.087 -0.0269573 1.60777 0
M  V30 640 O 62.277 0.212403 1.729 0
M  V30 641 C 59.409 0.527072 3.36801 0
M  V30 642 H 60.602 1.9622 2.26799 0
M  V30 643 H 58.155 1.05072 1.15714 0
M  V30 644 H 58.89 -0.429294 3.21446 0
M  V30 645 H 58.675 1.27515 3.70786 0
M  V30 646 H 60.165 0.392942 4.15747 0
M  V30 647 N 60.6021 -1.18246 1.0419 0
M  V30 648 C 61.5651 -2.20128 0.638452 0
M  V30 649 C 62.5651 -1.57885 -0.304805 0
M  V30 650 O 63.7551 -1.73967 -0.0900369 0
M  V30 651 C 60.8871 -3.4084 -0.0637751 0
M  V30 652 H 62.0801 -2.57336 1.54007 0
M  V30 653 H 59.6331 -1.32152 0.834598 0
M  V30 654 H 60.3681 -3.09166 -0.979136 0
M  V30 655 H 60.1531 -3.8726 0.614198 0
M  V30 656 H 61.6431 -4.16274 -0.332512 0
M  V30 657 N 62.0802 -0.821533 -1.34494 0
M  V30 658 C 63.3282 -0.408139 -1.97936 0
M  V30 659 C 63.6492 1.03193 -1.65457 0
M  V30 660 O 62.9192 1.71622 -0.944595 0
M  V30 661 H 61.4992 -0.147928 -0.732206 0
M  V30 662 H 64.1612 -1.05067 -1.64155 0
M  V30 663 H 63.2572 -0.52601 -3.07635 0
M  V30 664 N 63.5583 1.46682 -0.576371 0
M  V30 665 C 64.8063 2.02013 -0.0594163 0
M  V30 666 C 65.1273 1.45101 1.30271 0
M  V30 667 O 64.3973 0.633317 1.8538 0
M  V30 668 H 62.9773 0.746759 -0.0189745 0
M  V30 669 H 65.6393 1.79862 -0.750717 0
M  V30 670 H 64.7353 3.12097 0.014345 0
M  V30 671 N 65.0364 0.313813 1.54444 0
M  V30 672 C 66.2844 -0.291099 1.99993 0
M  V30 673 C 66.6054 -1.53418 1.20366 0
M  V30 674 O 65.8754 -1.93544 0.302927 0
M  V30 675 H 64.4554 -0.110552 0.738774 0
M  V30 676 H 67.1174 0.428106 1.9014 0
M  V30 677 H 66.2134 -0.554268 3.07139 0
M  V30 678 N 66.5145 -1.57545 0.0417849 0
M  V30 679 C 67.7445 -1.96339 -0.642995 0
M  V30 680 C 68.1525 -0.917536 -1.65463 0
M  V30 681 O 67.4955 0.107747 -1.83384 0
M  V30 682 C 67.5575 -3.31333 -1.39494 0
M  V30 683 C 67.2215 -4.53796 -0.540204 0
M  V30 684 C 68.2185 -5.19553 0.189806 0
M  V30 685 C 65.9035 -5.0006 -0.473886 0
M  V30 686 C 67.8975 -6.29904 0.974674 0
M  V30 687 C 65.5845 -6.10289 0.314677 0
M  V30 688 C 66.5825 -6.75072 1.03765 0
M  V30 689 O 66.2705 -7.83183 1.81327 0
M  V30 690 H 66.0025 -0.651241 -0.181277 0
M  V30 691 H 68.5565 -2.05148 0.101665 0
M  V30 692 H 66.7865 -3.19052 -2.18502 0
M  V30 693 H 68.4755 -3.54942 -1.96904 0
M  V30 694 H 69.2415 -4.84774 0.147981 0
M  V30 695 H 65.1205 -4.49433 -1.0262 0
M  V30 696 H 68.6645 -6.80401 1.5395 0
M  V30 697 H 64.5615 -6.44506 0.358174 0
M  V30 698 H 65.3295 -7.99913 1.73438 0
M  V30 699 N 67.9926 0.231505 -1.5589 0
M  V30 700 C 69.2386 0.954429 -1.79617 0
M  V30 701 C 69.5936 1.82367 -0.613199 0
M  V30 702 O 68.8866 1.87524 0.393094 0
M  V30 703 C 69.0806 1.83577 -3.0665 0
M  V30 704 C 68.9096 1.05334 -4.3719 0
M  V30 705 C 67.6796 0.75225 -4.99669 0
M  V30 706 C 69.8776 0.423444 -5.12554 0
M  V30 707 N 67.8596 -0.052627 -6.13877 0
M  V30 708 C 69.2306 -0.245287 -6.19515 0
M  V30 709 C 71.2856 0.335466 -4.96769 0
M  V30 710 C 69.9886 -0.993566 -7.12405 0
M  V30 711 C 72.0146 -0.399321 -5.9005 0
M  V30 712 C 71.3766 -1.05663 -6.9643 0
M  V30 713 H 67.4756 0.329846 -0.709031 0
M  V30 714 H 70.0596 0.226172 -1.93382 0
M  V30 715 H 68.2306 2.53592 -2.94186 0
M  V30 716 H 69.9626 2.49541 -3.18608 0
M  V30 717 H 66.7176 1.06783 -4.61405 0
M  V30 718 H 67.1416 -0.443609 -6.75545 0
M  V30 719 H 71.7836 0.829311 -4.14587 0
M  V30 720 H 69.5016 -1.49896 -7.94076 0
M  V30 721 H 73.0876 -0.468265 -5.79913 0
M  V30 722 H 71.9676 -1.61612 -7.67366 0
M  V30 723 N 69.4707 1.49531 0.497807 0
M  V30 724 C 70.4207 1.62829 1.59596 0
M  V30 725 C 71.4047 0.483824 1.53453 0
M  V30 726 O 72.5967 0.736937 1.60929 0
M  V30 727 C 69.7257 1.7011 2.98191 0
M  V30 728 C 68.8117 2.90144 3.09317 0
M  V30 729 N 69.2027 4.1418 2.90324 0
M  V30 730 C 67.5007 2.88148 3.40422 0
M  V30 731 C 68.2017 4.94886 3.05717 0
M  V30 732 N 67.1777 4.28314 3.34736 0
M  V30 733 H 70.9797 2.56446 1.4357 0
M  V30 734 H 68.4937 1.46347 0.704001 0
M  V30 735 H 70.4907 1.77735 3.77115 0
M  V30 736 H 69.1507 0.776315 3.15283 0
M  V30 737 H 70.1617 4.44109 2.66436 0
M  V30 738 H 66.8387 2.05061 3.63671 0
M  V30 739 H 68.2287 6.03432 2.95499 0
M  V30 740 N 70.9488 -0.749086 1.3866 0
M  V30 741 C 72.1768 -1.53834 1.38358 0
M  V30 742 C 72.5918 -1.88783 -0.0255219 0
M  V30 743 O 71.9488 -1.53101 -0.993292 0
M  V30 744 C 71.9998 -2.83468 2.2434 0
M  V30 745 O 71.7208 -2.50008 3.5976 0
M  V30 746 C 73.2218 -3.7758 2.32267 0
M  V30 747 H 70.4418 -0.47585 0.473083 0
M  V30 748 H 72.9858 -0.926726 1.82297 0
M  V30 749 H 71.1408 -3.40995 1.83851 0
M  V30 750 H 71.5548 -3.33182 4.05081 0
M  V30 751 H 73.0288 -4.65478 2.96706 0
M  V30 752 H 73.5058 -4.18334 1.33765 0
M  V30 753 H 74.1118 -3.25976 2.73166 0
M  V30 754 N 72.4269 -1.23603 -0.977757 0
M  V30 755 C 73.6519 -1.09735 -1.75991 0
M  V30 756 C 74.0769 0.346858 -1.84874 0
M  V30 757 O 73.4349 1.25093 -1.3123 0
M  V30 758 C 73.4829 -1.73051 -3.16363 0
M  V30 759 O 72.5869 -0.994452 -4.0023 0
M  V30 760 H 71.9279 -0.384476 -0.541364 0
M  V30 761 H 74.4579 -1.6371 -1.2272 0
M  V30 762 H 74.4679 -1.78398 -3.66931 0
M  V30 763 H 73.1429 -2.78137 -3.09213 0
M  V30 764 H 71.7199 -1.01812 -3.58732 0
M  V30 765 N 73.905 1.17692 -1.04816 0
M  V30 766 C 75.153 1.87488 -0.754497 0
M  V30 767 C 75.474 1.81205 0.720407 0
M  V30 768 O 74.744 1.23544 1.52032 0
M  V30 769 H 73.324 0.694101 -0.276102 0
M  V30 770 H 75.986 1.42793 -1.32651 0
M  V30 771 H 75.082 2.93328 -1.06606 0
M  V30 772 N 75.3831 0.828654 1.34056 0
M  V30 773 C 76.7991 0.515135 1.51058 0
M  V30 774 C 76.9991 -0.959581 1.77184 0
M  V30 775 O 76.0551 -1.74382 1.82612 0
M  V30 776 C 77.3681 1.37963 2.67183 0
M  V30 777 C 78.9161 1.37735 2.81066 0
M  V30 778 C 79.3911 2.22645 4.00241 0
M  V30 779 N 80.8821 2.203 4.07458 0
M  V30 780 C 81.6171 2.82744 4.98842 0
M  V30 781 N 81.1131 3.54201 5.9541 0
M  V30 782 N 82.9061 2.72268 4.91759 0
M  V30 783 H 75.0571 1.78343 1.15358 0
M  V30 784 H 77.3201 0.760304 0.566252 0
M  V30 785 H 77.0261 2.42714 2.54525 0
M  V30 786 H 76.9001 1.0484 3.62338 0
M  V30 787 H 79.2871 0.337593 2.93163 0
M  V30 788 H 79.3681 1.74859 1.86703 0
M  V30 789 H 79.0121 3.26674 3.88905 0
M  V30 790 H 78.9421 1.82869 4.93829 0
M  V30 791 H 81.4331 1.68327 3.38341 0
M  V30 792 H 81.7461 3.9908 6.61782 0
M  V30 793 H 80.0911 3.58308 5.95517 0
M  V30 794 H 83.2821 2.16014 4.15278 0
M  V30 795 H 83.4551 3.21219 5.62781 0
M  V30 796 N 76.8612 -1.46375 0.584142 0
M  V30 797 C 77.7712 -2.34115 -0.150728 0
M  V30 798 C 78.7872 -1.49838 -0.884567 0
M  V30 799 O 79.9632 -1.82704 -0.847429 0
M  V30 800 C 77.0282 -3.2705 -1.15062 0
M  V30 801 C 76.0892 -4.27228 -0.421293 0
M  V30 802 C 75.3222 -5.15722 -1.37355 0
M  V30 803 O 75.5452 -5.07176 -2.61014 0
M  V30 804 O 74.4792 -5.95383 -0.883355 0
M  V30 805 H 78.3052 -2.98309 0.569708 0
M  V30 806 H 75.8902 -1.45373 0.344535 0
M  V30 807 H 77.7722 -3.84381 -1.72712 0
M  V30 808 H 76.4472 -2.65451 -1.8525 0
M  V30 809 H 75.3542 -3.7358 0.197085 0
M  V30 810 H 76.6872 -4.91616 0.239641 0
M  V30 811 N 78.3393 -0.321999 -1.54275 0
M  V30 812 C 79.5883 0.281931 -1.9972 0
M  V30 813 C 79.9013 1.53369 -1.21397 0
M  V30 814 O 81.1073 2.21352 -1.57211 0
M  V30 815 C 79.5633 0.5529 -3.55628 0
M  V30 816 C 79.1713 -0.681721 -4.42783 0
M  V30 817 C 80.9153 1.11687 -4.09544 0
M  V30 818 C 78.8223 -0.382742 -5.9016 0
M  V30 819 H 77.7523 0.109124 -0.746062 0
M  V30 820 H 80.4033 -0.43398 -1.78294 0
M  V30 821 H 78.7853 1.32896 -3.73035 0
M  V30 822 H 79.9593 -1.45723 -4.37151 0
M  V30 823 H 78.2743 -1.1658 -3.99748 0
M  V30 824 H 80.8713 1.35515 -5.17242 0
M  V30 825 H 81.2143 2.06575 -3.61431 0
M  V30 826 H 81.7473 0.402032 -3.95763 0
M  V30 827 H 78.4863 -1.30076 -6.42464 0
M  V30 828 H 78.0063 0.355094 -5.98748 0
M  V30 829 H 79.6853 0.00800157 -6.47 0
M  V30 830 N 79.8174 1.5752 -0.0501392 0
M  V30 831 C 80.7474 2.14502 0.922566 0
M  V30 832 C 81.7284 1.06642 1.3252 0
M  V30 833 O 82.9134 1.34577 1.4001 0
M  V30 834 C 80.0434 2.68916 2.19776 0
M  V30 835 C 78.9974 3.8175 1.93523 0
M  V30 836 C 78.3234 4.22677 3.27487 0
M  V30 837 C 79.6234 5.06932 1.25765 0
M  V30 838 H 81.3174 2.9603 0.447952 0
M  V30 839 H 78.8634 1.42401 0.214024 0
M  V30 840 H 80.8164 3.07419 2.88222 0
M  V30 841 H 79.5404 1.84578 2.69441 0
M  V30 842 H 78.1994 3.43718 1.27489 0
M  V30 843 H 77.8474 3.35291 3.74952 0
M  V30 844 H 77.5474 4.98725 3.1072 0
M  V30 845 H 79.0714 4.63779 3.97166 0
M  V30 846 H 80.4854 5.42888 1.84244 0
M  V30 847 H 78.8824 5.88116 1.19328 0
M  V30 848 H 79.9524 4.84337 0.233536 0
M  V30 849 N 81.2955 -0.223234 1.56011 0
M  V30 850 C 82.5725 -0.972108 1.69733 0
M  V30 851 C 82.9525 -2.02485 0.59691 0
M  V30 852 O 82.3005 -2.25037 -0.396324 0
M  V30 853 C 82.5105 -1.58407 3.10979 0
M  V30 854 C 83.8585 -2.07696 3.70334 0
M  V30 855 O 84.8825 -1.68304 3.1393 0
M  V30 856 O 83.7415 -2.80096 4.69264 0
M  V30 857 H 80.8355 -0.453993 0.691245 0
M  V30 858 H 83.3815 -0.215149 1.68331 0
M  V30 859 H 82.1535 -0.823831 3.82529 0
M  V30 860 H 81.7765 -2.40661 3.16493 0
M  V30 861 N 82.7736 -1.49793 -0.48987 0
M  V30 862 C 83.7366 -1.66752 -1.57246 0
M  V30 863 C 84.7366 -0.538867 -1.51502 0
M  V30 864 O 85.9266 -0.805545 -1.54456 0
M  V30 865 C 83.0586 -1.67528 -2.96896 0
M  V30 866 H 84.2516 -2.63321 -1.43534 0
M  V30 867 H 81.8046 -1.38992 -0.714914 0
M  V30 868 H 82.5396 -0.725837 -3.16073 0
M  V30 869 H 82.3246 -2.49504 -3.02473 0
M  V30 870 H 83.8146 -1.82667 -3.7553 0
M  V30 871 N 84.2517 0.741722 -1.39055 0
M  V30 872 C 85.1997 1.87702 -1.3737 0
M  V30 873 C 86.1937 1.67427 -0.257812 0
M  V30 874 O 87.3997 1.7485 -0.427489 0
M  V30 875 H 83.7747 0.617757 -0.428812 0
M  V30 876 H 85.7457 1.86239 -2.33147 0
M  V30 877 C 84.4947 3.25315 -1.22741 0
M  V30 878 H 83.8177 3.41509 -2.07873 0
M  V30 879 H 85.2577 4.04964 -1.25618 0
M  V30 880 C 83.7167 3.36838 0.0647316 0
M  V30 881 O 84.2467 3.88073 1.03741 0
M  V30 882 N 82.4527 2.90329 0.125544 0
M  V30 883 H 81.9997 2.48823 -0.666682 0
M  V30 884 H 81.9577 2.98418 0.989639 0
M  V30 885 N 85.7298 1.2412 0.971189 0
M  V30 886 C 86.6778 1.02812 2.08644 0
M  V30 887 C 87.6718 -0.0358403 1.69362 0
M  V30 888 O 88.8778 0.118429 1.7961 0
M  V30 889 H 85.2528 0.315428 0.682649 0
M  V30 890 H 87.2238 1.97397 2.23779 0
M  V30 891 C 85.9728 0.645874 3.41649 0
M  V30 892 H 85.2958 1.45632 3.72332 0
M  V30 893 H 86.7358 0.536366 4.20594 0
M  V30 894 C 85.1948 -0.646713 3.30635 0
M  V30 895 O 85.7248 -1.69338 3.64263 0
M  V30 896 N 83.9308 -0.626115 2.83775 0
M  V30 897 H 83.4778 0.225988 2.56607 0
M  V30 898 H 83.4358 -1.49117 2.76788 0
M  V30 899 N 87.2079 -1.17134 1.05439 0
M  V30 900 C 88.4539 -1.87733 0.767077 0
M  V30 901 C 88.7869 -1.8098 -0.704253 0
M  V30 902 O 88.0619 -1.21951 -1.5152 0
M  V30 903 C 88.3449 -3.37659 1.25133 0
M  V30 904 C 88.1979 -3.53149 2.78578 0
M  V30 905 C 89.5169 -4.31768 0.852324 0
M  V30 906 H 86.6359 -0.681687 0.280129 0
M  V30 907 H 89.2779 -1.37732 1.30881 0
M  V30 908 H 87.4279 -3.80373 0.790469 0
M  V30 909 H 89.0999 -3.19434 3.32806 0
M  V30 910 H 87.3429 -2.95345 3.17732 0
M  V30 911 H 88.0139 -4.58403 3.07523 0
M  V30 912 H 90.4899 -3.96909 1.24911 0
M  V30 913 H 89.3659 -5.35199 1.21873 0
M  V30 914 H 89.6269 -4.41429 -0.243485 0
M  V30 915 N 88.686 -0.835752 -1.33615 0
M  V30 916 C 90.097 -0.487099 -1.80234 0
M  V30 917 C 90.448 0.993627 -1.69179 0
M  V30 918 O 89.573 1.77403 -1.23924 0
M  V30 919 C 90.168 -0.877385 -3.27242 0
M  V30 920 C 88.727 -0.580915 -3.7189 0
M  V30 921 C 87.874 -1.0874 -2.5509 0
M  V30 922 H 90.825 -1.02474 -1.2118 0
M  V30 923 H 90.846 -0.186195 -3.80044 0
M  V30 924 H 90.358 -1.95512 -3.35256 0
M  V30 925 H 88.459 0.486881 -3.69405 0
M  V30 926 H 88.572 -1.13396 -4.65487 0
M  V30 927 H 86.936 -0.508392 -2.49575 0
M  V30 928 H 87.719 -2.17184 -2.65868 0
M  V30 929 N 90.1641 1.46063 -0.591896 0
M  V30 930 C 91.4101 2.02638 -0.0811191 0
M  V30 931 C 91.7431 1.4613 1.27905 0
M  V30 932 O 91.0181 0.629908 1.84017 0
M  V30 933 C 91.3011 3.60091 -0.0252436 0
M  V30 934 C 91.1541 4.26965 -1.41496 0
M  V30 935 C 92.4731 4.3496 0.670685 0
M  V30 936 H 89.5921 0.73635 -0.0309524 0
M  V30 937 H 92.2341 1.741 -0.760859 0
M  V30 938 H 90.3841 3.84535 0.553624 0
M  V30 939 H 92.0561 4.13756 -2.0397 0
M  V30 940 H 90.2991 3.85971 -1.98011 0
M  V30 941 H 90.9701 5.35781 -1.32825 0
M  V30 942 H 93.4461 4.15716 0.178825 0
M  V30 943 H 92.3221 5.44686 0.678837 0
M  V30 944 H 92.5831 4.06685 1.73379 0
M  V30 945 N 91.6422 0.330177 1.54103 0
M  V30 946 C 93.0582 -0.0222371 1.59585 0
M  V30 947 C 93.2582 -1.49902 1.34654 0
M  V30 948 O 92.3142 -2.25592 1.13421 0
M  V30 949 C 93.6272 0.401932 2.98002 0
M  V30 950 C 95.1752 0.353145 3.11001 0
M  V30 951 C 95.6502 0.752576 4.51775 0
M  V30 952 N 97.1412 0.706239 4.57784 0
M  V30 953 C 97.8762 0.987417 5.64834 0
M  V30 954 N 97.3722 1.33607 6.79795 0
M  V30 955 N 99.1652 0.91254 5.54643 0
M  V30 956 H 91.3162 1.29228 1.68564 0
M  V30 957 H 93.5792 0.525906 0.78875 0
M  V30 958 H 93.2852 1.4311 3.21267 0
M  V30 959 H 93.1592 -0.229699 3.765 0
M  V30 960 H 95.5462 -0.666822 2.87467 0
M  V30 961 H 95.6272 1.0198 2.34593 0
M  V30 962 H 95.2712 1.77049 4.76042 0
M  V30 963 H 95.2012 0.0635409 5.26562 0
M  V30 964 H 97.6922 0.44889 3.75224 0
M  V30 965 H 98.0052 1.53582 7.57385 0
M  V30 966 H 96.3502 1.37439 6.81275 0
M  V30 967 H 99.5412 0.639601 4.6371 0
M  V30 968 H 99.7142 1.13503 6.37982 0
M  V30 969 N 93.1203 -1.57491 0.0584922 0
M  V30 970 C 94.3693 -1.92155 -0.613146 0
M  V30 971 C 94.6823 -0.939334 -1.71569 0
M  V30 972 O 95.8883 -1.17829 -2.44599 0
M  V30 973 C 94.3443 -3.41303 -1.14195 0
M  V30 974 C 93.9523 -4.47944 -0.0711265 0
M  V30 975 C 95.6963 -3.84988 -1.78841 0
M  V30 976 C 93.6033 -5.88212 -0.613225 0
M  V30 977 H 92.5333 -0.717162 -0.232796 0
M  V30 978 H 95.1843 -1.83049 0.12857 0
M  V30 979 H 93.5663 -3.45437 -1.93621 0
M  V30 980 H 94.7403 -4.55408 0.702836 0
M  V30 981 H 93.0553 -4.13644 0.478313 0
M  V30 982 H 95.6523 -4.87159 -2.20408 0
M  V30 983 H 95.9953 -3.21632 -2.64308 0
M  V30 984 H 96.5283 -3.83401 -1.06059 0
M  V30 985 H 93.2673 -6.55183 0.203978 0
M  V30 986 H 92.7873 -5.84294 -1.35501 0
M  V30 987 H 94.4663 -6.37687 -1.09383 0
M  V30 988 N 94.5984 0.214957 -1.56127 0
M  V30 989 C 95.5614 1.24997 -1.92116 0
M  V30 990 C 96.5614 1.39467 -0.800344 0
M  V30 991 O 97.7514 1.37619 -1.06802 0
M  V30 992 C 94.8834 2.62271 -2.17777 0
M  V30 993 H 96.0764 0.942875 -2.84693 0
M  V30 994 H 93.6294 0.455654 -1.49511 0
M  V30 995 H 94.3644 2.98068 -1.27773 0
M  V30 996 H 94.1494 2.53143 -2.99434 0
M  V30 997 H 95.6394 3.36946 -2.46693 0
M  V30 998 N 96.0765 1.50051 0.48192 0
M  V30 999 C 97.3245 1.60181 1.23234 0
M  V30 1000 C 97.6455 0.299176 1.92691 0
M  V30 1001 O 96.9155 -0.682708 1.83619 0
M  V30 1002 H 95.4955 0.590232 0.457859 0
M  V30 1003 H 98.1575 1.86775 0.556881 0
M  V30 1004 H 97.2535 2.40753 1.98607 0
M  V30 1005 N 97.5546 -0.734337 1.39446 0
M  V30 1006 C 98.8036 -1.48937 1.36017 0
M  V30 1007 C 99.1166 -1.95557 -0.0409005 0
M  V30 1008 O 100.323 -2.70779 -0.19778 0
M  V30 1009 C 98.7786 -2.69125 2.38955 0
M  V30 1010 C 98.3866 -2.29452 3.8478 0
M  V30 1011 C 100.131 -3.46944 2.44603 0
M  V30 1012 C 98.0376 -3.46366 4.79358 0
M  V30 1013 H 96.9676 -0.559296 0.505672 0
M  V30 1014 H 99.6186 -0.800983 1.65095 0
M  V30 1015 H 98.0006 -3.40041 2.02948 0
M  V30 1016 H 99.1746 -1.66077 4.29831 0
M  V30 1017 H 97.4896 -1.64723 3.82433 0
M  V30 1018 H 100.087 -4.33907 3.12456 0
M  V30 1019 H 100.43 -3.89454 1.47076 0
M  V30 1020 H 100.963 -2.83056 2.79507 0
M  V30 1021 H 97.7016 -3.08905 5.78151 0
M  V30 1022 H 97.2216 -4.08719 4.38986 0
M  V30 1023 H 98.9006 -4.12691 4.98292 0
M  V30 1024 N 99.0327 -1.24633 -0.964593 0
M  V30 1025 C 99.9807 -1.03917 -2.08096 0
M  V30 1026 C 100.975 0.0268581 -1.69379 0
M  V30 1027 O 102.181 -0.127952 -1.79545 0
M  V30 1028 H 98.5557 -0.319044 -0.680966 0
M  V30 1029 H 100.527 -1.98581 -2.22729 0
M  V30 1030 C 99.2757 -0.663983 -3.41301 0
M  V30 1031 H 98.5987 -1.47605 -3.71555 0
M  V30 1032 H 100.039 -0.558663 -4.20303 0
M  V30 1033 C 98.4977 0.629169 -3.30973 0
M  V30 1034 O 99.0277 1.67404 -3.65156 0
M  V30 1035 N 97.2337 0.611057 -2.84103 0
M  V30 1036 H 96.7807 -0.239593 -2.56483 0
M  V30 1037 H 96.7387 1.47647 -2.77575 0
M  V30 1038 N 100.511 1.16574 -1.06058 0
M  V30 1039 C 101.757 1.87565 -0.78683 0
M  V30 1040 C 102.112 1.80012 0.679214 0
M  V30 1041 O 101.405 1.20327 1.49104 0
M  V30 1042 C 101.599 3.36195 -1.21275 0
M  V30 1043 C 101.428 3.58216 -2.71866 0
M  V30 1044 C 100.198 3.7444 -3.39298 0
M  V30 1045 C 102.396 3.57134 -3.70081 0
M  V30 1046 N 100.378 3.84389 -4.78663 0
M  V30 1047 C 101.749 3.73038 -4.9522 0
M  V30 1048 C 103.804 3.40332 -3.63426 0
M  V30 1049 C 102.507 3.73879 -6.14497 0
M  V30 1050 C 104.533 3.42466 -4.82153 0
M  V30 1051 C 103.895 3.58887 -6.06118 0
M  V30 1052 H 99.9938 0.704081 -0.340284 0
M  V30 1053 H 102.578 1.39885 -1.35426 0
M  V30 1054 H 100.749 3.82522 -0.673179 0
M  V30 1055 H 102.481 3.94839 -0.887917 0
M  V30 1056 H 99.2358 3.74662 -2.89699 0
M  V30 1057 H 99.6598 3.93138 -5.51155 0
M  V30 1058 H 104.302 3.26566 -2.68541 0
M  V30 1059 H 102.02 3.86427 -7.09718 0
M  V30 1060 H 105.606 3.30712 -4.78666 0
M  V30 1061 H 104.486 3.60454 -6.9645 0
M  V30 1062 N 101.989 0.842826 1.3317 0
M  V30 1063 C 103.236 0.440447 1.97652 0
M  V30 1064 C 103.564 -1.00123 1.6675 0
M  V30 1065 O 102.819 -1.7155 0.941761 0
M  V30 1066 C 103.118 0.612607 3.52111 0
M  V30 1067 C 102.784 2.02297 4.02972 0
M  V30 1068 C 101.446 2.40874 4.16573 0
M  V30 1069 C 103.798 2.94402 4.30089 0
M  V30 1070 C 101.126 3.70852 4.54627 0
M  V30 1071 C 103.478 4.23865 4.69597 0
M  V30 1072 C 102.142 4.62392 4.81404 0
M  V30 1073 H 101.412 0.161171 0.72326 0
M  V30 1074 H 104.059 1.07061 1.58777 0
M  V30 1075 H 102.364 -0.100849 3.9167 0
M  V30 1076 H 104.061 0.2815 4.00011 0
M  V30 1077 H 100.651 1.71338 3.92863 0
M  V30 1078 H 104.835 2.65835 4.19101 0
M  V30 1079 H 100.091 4.00501 4.61962 0
M  V30 1080 H 104.265 4.95306 4.89536 0
M  V30 1081 H 101.892 5.63154 5.10648 0
M  V30 1082 N 103.467 -1.45747 0.599634 0
M  V30 1083 C 104.715 -2.01893 0.0915472 0
M  V30 1084 C 105.036 -1.47155 -1.27946 0
M  V30 1085 O 104.306 -0.66273 -1.84349 0
M  V30 1086 H 102.886 -0.746363 0.0308524 0
M  V30 1087 H 105.548 -1.78645 0.779237 0
M  V30 1088 H 104.644 -3.1208 0.0353086 0
M  V30 1089 N 104.945 -0.338344 -1.53925 0
M  V30 1090 C 106.192 0.259758 -2.00827 0
M  V30 1091 C 106.52 1.50973 -1.22628 0
M  V30 1092 O 105.775 1.93379 -0.300509 0
M  V30 1093 C 106.074 0.62448 -3.51902 0
M  V30 1094 C 105.74 -0.528006 -4.47798 0
M  V30 1095 C 104.402 -0.844298 -4.73735 0
M  V30 1096 C 106.754 -1.30143 -5.0469 0
M  V30 1097 C 104.082 -1.93648 -5.53821 0
M  V30 1098 C 106.434 -2.38382 -5.85967 0
M  V30 1099 C 105.098 -2.70576 -6.10201 0
M  V30 1100 H 104.368 0.0950523 -0.734878 0
M  V30 1101 H 107.015 -0.465182 -1.85764 0
M  V30 1102 H 105.32 1.43006 -3.64769 0
M  V30 1103 H 107.017 1.09905 -3.85645 0
M  V30 1104 H 103.607 -0.271421 -4.2774 0
M  V30 1105 H 107.791 -1.07033 -4.84621 0
M  V30 1106 H 103.047 -2.19021 -5.70824 0
M  V30 1107 H 107.221 -2.98746 -6.29066 0
M  V30 1108 H 104.848 -3.55333 -6.72044 0
M  V30 1109 N 106.423 1.57458 -0.0668435 0
M  V30 1110 C 107.333 2.15937 0.916975 0
M  V30 1111 C 108.349 1.12123 1.33058 0
M  V30 1112 O 109.525 1.44366 1.40429 0
M  V30 1113 C 106.59 2.70547 2.16807 0
M  V30 1114 C 105.651 3.89215 1.81135 0
M  V30 1115 C 104.884 4.41211 3.0028 0
M  V30 1116 O 105.107 3.92225 4.14144 0
M  V30 1117 O 104.041 5.32605 2.80384 0
M  V30 1118 H 107.867 3.00354 0.449561 0
M  V30 1119 H 105.452 1.48584 0.155949 0
M  V30 1120 H 107.334 3.0557 2.90181 0
M  V30 1121 H 106.009 1.89192 2.62656 0
M  V30 1122 H 104.916 3.59054 1.05028 0
M  V30 1123 H 106.249 4.71848 1.40073 0
M  V30 1124 N 107.901 -0.206675 1.56239 0
M  V30 1125 C 109.129 -0.945345 1.8404 0
M  V30 1126 C 109.544 -1.77336 0.647885 0
M  V30 1127 O 108.901 -1.78425 -0.383511 0
M  V30 1128 C 108.952 -1.8509 3.10522 0
M  V30 1129 O 108.673 -1.05634 4.25174 0
M  V30 1130 C 110.174 -2.70222 3.51418 0
M  V30 1131 H 107.394 -0.276372 0.61144 0
M  V30 1132 H 109.938 -0.217417 2.03341 0
M  V30 1133 H 108.093 -2.53259 2.93153 0
M  V30 1134 H 108.507 -1.67238 4.97124 0
M  V30 1135 H 109.981 -3.29438 4.42916 0
M  V30 1136 H 110.458 -3.43358 2.73864 0
M  V30 1137 H 111.064 -2.07443 3.71278 0
M  V30 1138 N 109.379 -1.50304 -0.473955 0
M  V30 1139 C 110.619 -1.62786 -1.23612 0
M  V30 1140 C 110.983 -0.319786 -1.89318 0
M  V30 1141 O 112.184 -0.320012 -2.66888 0
M  V30 1142 C 110.455 -2.77351 -2.25414 0
M  V30 1143 S 112.014 -3.09948 -3.10608 0
M  V30 1144 H 108.832 -0.573895 -0.419721 0
M  V30 1145 H 111.434 -1.88076 -0.533623 0
M  V30 1146 H 110.138 -3.70879 -1.75719 0
M  V30 1147 H 109.669 -2.54137 -3.00296 0
M  V30 1148 H 111.684 -2.53553 -4.26527 0
M  V30 1149 N 110.857 0.726932 -1.39834 0
M  V30 1150 C 111.805 1.86235 -1.39353 0
M  V30 1151 C 112.799 1.67144 -0.275555 0
M  V30 1152 O 114.005 1.74387 -0.44601 0
M  V30 1153 H 110.38 0.613174 -0.43534 0
M  V30 1154 H 112.351 1.83756 -2.35109 0
M  V30 1155 C 111.1 3.23995 -1.26185 0
M  V30 1156 H 110.423 3.39285 -2.11484 0
M  V30 1157 H 111.863 4.03609 -1.29907 0
M  V30 1158 C 110.322 3.36888 0.0290018 0
M  V30 1159 O 110.852 3.89152 0.99619 0
M  V30 1160 N 109.058 2.90446 0.0947437 0
M  V30 1161 H 108.605 2.48102 -0.693035 0
M  V30 1162 H 108.563 2.99451 0.957932 0
M  V30 1163 N 112.336 1.25143 0.95797 0
M  V30 1164 C 113.566 1.12261 1.73439 0
M  V30 1165 C 113.974 -0.326715 1.86358 0
M  V30 1166 O 113.317 -1.2367 1.35836 0
M  V30 1167 C 113.379 1.69966 3.16784 0
M  V30 1168 C 113.043 3.18936 3.27305 0
M  V30 1169 C 114.04 4.15968 3.11877 0
M  V30 1170 C 111.725 3.59083 3.51234 0
M  V30 1171 C 113.719 5.51126 3.20217 0
M  V30 1172 C 111.406 4.9438 3.5921 0
M  V30 1173 C 112.404 5.90211 3.43716 0
M  V30 1174 O 112.092 7.23046 3.51368 0
M  V30 1175 H 111.824 0.392476 0.550399 0
M  V30 1176 H 114.378 1.65927 1.21068 0
M  V30 1177 H 112.608 1.10744 3.70503 0
M  V30 1178 H 114.297 1.52232 3.76272 0
M  V30 1179 H 115.063 3.86292 2.93264 0
M  V30 1180 H 110.942 2.84989 3.62356 0
M  V30 1181 H 114.486 6.25905 3.0804 0
M  V30 1182 H 110.383 5.23723 3.77339 0
M  V30 1183 H 111.151 7.31097 3.6802 0
M  V30 1184 N 113.814 -1.1601 1.06675 0
M  V30 1185 C 115.06 -1.86909 0.786945 0
M  V30 1186 C 115.393 -1.81717 -0.685018 0
M  V30 1187 O 114.668 -1.23551 -1.50218 0
M  V30 1188 C 114.951 -3.36313 1.28707 0
M  V30 1189 C 114.804 -3.50175 2.82308 0
M  V30 1190 C 116.123 -4.3084 0.898071 0
M  V30 1191 H 113.242 -0.678677 0.287343 0
M  V30 1192 H 115.884 -1.36336 1.32334 0
M  V30 1193 H 114.034 -3.79513 0.830768 0
M  V30 1194 H 115.706 -3.15886 3.36175 0
M  V30 1195 H 113.949 -2.91959 3.20847 0
M  V30 1196 H 114.62 -4.55116 3.12368 0
M  V30 1197 H 117.096 -3.95561 1.29114 0
M  V30 1198 H 115.972 -5.33876 1.27543 0
M  V30 1199 H 116.233 -4.41662 -0.196651 0
M  V30 1200 N 115.292 -0.849877 -1.32721 0
M  V30 1201 C 116.538 -0.451591 -1.97708 0
M  V30 1202 C 116.871 0.989175 -1.6712 0
M  V30 1203 O 116.146 1.69334 -0.956891 0
M  V30 1204 C 116.429 -0.685598 -3.53513 0
M  V30 1205 C 116.282 -2.17444 -3.93749 0
M  V30 1206 C 117.601 -0.138874 -4.39881 0
M  V30 1207 H 114.72 -0.16555 -0.718166 0
M  V30 1208 H 117.362 -1.06742 -1.57182 0
M  V30 1209 H 115.512 -0.161416 -3.88165 0
M  V30 1210 H 117.184 -2.76433 -3.693 0
M  V30 1211 H 115.427 -2.65476 -3.43081 0
M  V30 1212 H 116.098 -2.28888 -5.02309 0
M  V30 1213 H 118.574 -0.587068 -4.11938 0
M  V30 1214 H 117.45 -0.332213 -5.47894 0
M  V30 1215 H 117.711 0.95806 -4.31594 0
M  V30 1216 N 116.77 1.45427 -0.607355 0
M  V30 1217 C 117.72 2.27612 0.133038 0
M  V30 1218 C 118.704 1.37307 0.838785 0
M  V30 1219 O 119.896 1.61299 0.728813 0
M  V30 1220 C 117.025 3.24173 1.12991 0
M  V30 1221 C 116.111 4.21965 0.425011 0
M  V30 1222 N 116.502 5.02982 -0.533217 0
M  V30 1223 C 114.8 4.40899 0.672593 0
M  V30 1224 C 115.501 5.73931 -0.947518 0
M  V30 1225 N 114.477 5.42819 -0.291321 0
M  V30 1226 H 118.279 2.87649 -0.602935 0
M  V30 1227 H 115.793 1.56576 -0.431006 0
M  V30 1228 H 117.79 3.81783 1.67473 0
M  V30 1229 H 116.45 2.65696 1.86644 0
M  V30 1230 H 117.461 5.09843 -0.90995 0
M  V30 1231 H 114.138 3.93547 1.39382 0
M  V30 1232 H 115.528 6.49037 -1.73782 0
M  V30 1233 N 118.248 0.346503 1.53744 0
M  V30 1234 C 119.496 -0.248612 2.00565 0
M  V30 1235 C 119.817 -1.5083 1.23593 0
M  V30 1236 O 119.087 -1.92858 0.343912 0
M  V30 1237 H 117.667 -0.0948564 0.740953 0
M  V30 1238 H 120.329 0.468341 1.89189 0
M  V30 1239 H 119.425 -0.488994 3.08245 0
M  V30 1240 N 119.726 -1.57421 0.075193 0
M  V30 1241 C 120.656 -2.15942 -0.888324 0
M  V30 1242 C 121.637 -1.08737 -1.30806 0
M  V30 1243 O 122.822 -1.36787 -1.37851 0
M  V30 1244 C 119.952 -2.72379 -2.1547 0
M  V30 1245 C 118.906 -3.8478 -1.87425 0
M  V30 1246 C 118.232 -4.27834 -3.20721 0
M  V30 1247 C 119.532 -5.08869 -1.17684 0
M  V30 1248 H 121.226 -2.96705 -0.400799 0
M  V30 1249 H 118.772 -1.42723 -0.191342 0
M  V30 1250 H 120.725 -3.11965 -2.83295 0
M  V30 1251 H 119.449 -1.88841 -2.6647 0
M  V30 1252 H 118.108 -3.45703 -1.22004 0
M  V30 1253 H 117.756 -3.41214 -3.6957 0
M  V30 1254 H 117.456 -5.03605 -3.02746 0
M  V30 1255 H 118.98 -4.70039 -3.89738 0
M  V30 1256 H 120.394 -5.4575 -1.75584 0
M  V30 1257 H 118.791 -5.8994 -1.09956 0
M  V30 1258 H 119.861 -4.84648 -0.156453 0
M  V30 1259 N 121.204 0.198386 -1.56346 0
M  V30 1260 C 122.45 0.916115 -1.81601 0
M  V30 1261 C 122.805 1.81025 -0.651744 0
M  V30 1262 O 122.098 1.88316 0.353229 0
M  V30 1263 C 122.292 1.77031 -3.10475 0
M  V30 1264 C 122.121 0.960365 -4.39326 0
M  V30 1265 C 120.891 0.646093 -5.01152 0
M  V30 1266 C 123.089 0.314628 -5.13337 0
M  V30 1267 N 121.071 -0.182828 -6.13628 0
M  V30 1268 C 122.442 -0.37664 -6.18855 0
M  V30 1269 C 124.497 0.230019 -4.97368 0
M  V30 1270 C 123.2 -1.14445 -7.10137 0
M  V30 1271 C 125.226 -0.524389 -5.89071 0
M  V30 1272 C 124.588 -1.20412 -6.94032 0
M  V30 1273 H 120.687 0.314732 -0.715868 0
M  V30 1274 H 123.271 0.185102 -1.93818 0
M  V30 1275 H 121.442 2.47295 -2.99499 0
M  V30 1276 H 123.174 2.42727 -3.2383 0
M  V30 1277 H 119.929 0.969724 -4.63566 0
M  V30 1278 H 120.353 -0.586802 -6.74452 0
M  V30 1279 H 124.995 0.741184 -4.16253 0
M  V30 1280 H 122.713 -1.66706 -7.90718 0
M  V30 1281 H 126.299 -0.591167 -5.78789 0
M  V30 1282 H 125.179 -1.77853 -7.63766 0
M  V30 1283 N 122.682 1.50554 0.465978 0
M  V30 1284 C 123.907 1.65838 1.24549 0
M  V30 1285 C 124.332 0.343486 1.84937 0
M  V30 1286 O 123.69 -0.69324 1.67523 0
M  V30 1287 C 123.738 2.75533 2.32624 0
M  V30 1288 O 122.842 2.37142 3.37398 0
M  V30 1289 H 122.183 0.553893 0.366194 0
M  V30 1290 H 124.713 1.96959 0.553927 0
M  V30 1291 H 124.723 2.98763 2.77857 0
M  V30 1292 H 123.398 3.70962 1.88043 0
M  V30 1293 H 121.975 2.24377 2.97841 0
M  V30 1294 N 124.16 -0.719506 1.40217 0
M  V30 1295 C 125.576 -1.02707 1.22161 0
M  V30 1296 C 125.776 -2.0128 0.0940557 0
M  V30 1297 O 124.832 -2.46452 -0.549318 0
M  V30 1298 C 126.145 -1.57454 2.56181 0
M  V30 1299 C 127.693 -1.69458 2.63159 0
M  V30 1300 C 128.168 -2.27611 3.97438 0
M  V30 1301 N 129.659 -2.35002 3.99159 0
M  V30 1302 C 130.394 -2.80972 4.99842 0
M  V30 1303 N 129.89 -3.26723 6.10921 0
M  V30 1304 N 131.683 -2.80321 4.87213 0
M  V30 1305 H 123.834 -0.0660492 2.12297 0
M  V30 1306 H 126.097 -0.0919077 0.943534 0
M  V30 1307 H 125.803 -0.924873 3.39321 0
M  V30 1308 H 125.677 -2.56036 2.76993 0
M  V30 1309 H 128.064 -2.33543 1.80393 0
M  V30 1310 H 128.145 -0.694867 2.46181 0
M  V30 1311 H 127.789 -1.6415 4.80643 0
M  V30 1312 H 127.719 -3.2829 4.11744 0
M  V30 1313 H 130.21 -2.02685 3.18947 0
M  V30 1314 H 130.523 -3.60355 6.8364 0
M  V30 1315 H 128.868 -3.24692 6.14492 0
M  V30 1316 H 132.059 -2.43912 3.9953 0
M  V30 1317 H 132.232 -3.15831 5.65822 0
M  V30 1318 N 125.638 -1.25649 -0.95132 0
M  V30 1319 C 126.915 -1.01361 -1.67288 0
M  V30 1320 C 127.295 0.459135 -2.06046 0
M  V30 1321 O 126.643 1.43723 -1.7764 0
M  V30 1322 C 126.853 -1.95256 -2.89268 0
M  V30 1323 C 128.201 -2.23289 -3.61147 0
M  V30 1324 O 129.225 -1.93041 -2.99355 0
M  V30 1325 O 128.084 -2.74741 -4.72419 0
M  V30 1326 H 125.178 -0.38464 -0.732107 0
M  V30 1327 H 127.724 -1.36817 -1.00395 0
M  V30 1328 H 126.496 -2.94685 -2.57442 0
M  V30 1329 H 126.119 -1.60218 -3.6389 0
M  V30 1330 N 127.117 1.15442 -1.07289 0
M  V30 1331 C 128.347 1.89821 -0.815576 0
M  V30 1332 C 128.755 1.7823 0.634867 0
M  V30 1333 O 128.098 1.13152 1.44715 0
M  V30 1334 C 128.16 3.40817 -1.14385 0
M  V30 1335 C 127.824 3.76193 -2.59476 0
M  V30 1336 C 128.821 3.77269 -3.57721 0
M  V30 1337 C 126.506 4.0652 -2.95037 0
M  V30 1338 C 128.5 4.08176 -4.89562 0
M  V30 1339 C 126.187 4.37092 -4.27076 0
M  V30 1340 C 127.185 4.37902 -5.24148 0
M  V30 1341 O 126.873 4.67741 -6.53815 0
M  V30 1342 H 126.605 0.608465 -0.294528 0
M  V30 1343 H 129.159 1.472 -1.43252 0
M  V30 1344 H 127.389 3.83835 -0.469865 0
M  V30 1345 H 129.078 3.96485 -0.869179 0
M  V30 1346 H 129.844 3.5394 -3.3159 0
M  V30 1347 H 125.723 4.05049 -2.20128 0
M  V30 1348 H 129.267 4.08723 -5.65324 0
M  V30 1349 H 125.164 4.59889 -4.5296 0
M  V30 1350 H 125.932 4.85509 -6.58957 0
M  V30 1351 N 128.595 0.856903 1.32268 0
M  V30 1352 C 130.011 0.547061 1.49931 0
M  V30 1353 C 130.211 -0.921781 1.7918 0
M  V30 1354 O 129.267 -1.70469 1.8627 0
M  V30 1355 C 130.58 1.43599 2.64196 0
M  V30 1356 C 132.128 1.43665 2.78081 0
M  V30 1357 C 132.603 2.31085 3.95428 0
M  V30 1358 N 134.094 2.28893 4.02694 0
M  V30 1359 C 134.829 2.93262 4.92732 0
M  V30 1360 N 134.325 3.66751 5.87763 0
M  V30 1361 N 136.118 2.82638 4.85873 0
M  V30 1362 H 128.269 1.8075 1.11549 0
M  V30 1363 H 130.532 0.772144 0.549997 0
M  V30 1364 H 130.238 2.48058 2.49319 0
M  V30 1365 H 130.112 1.12502 3.60032 0
M  V30 1366 H 132.499 0.399701 2.92381 0
M  V30 1367 H 132.58 1.7878 1.82952 0
M  V30 1368 H 132.224 3.34849 3.81888 0
M  V30 1369 H 132.154 1.93302 4.89839 0
M  V30 1370 H 134.645 1.75466 3.34694 0
M  V30 1371 H 134.958 4.13027 6.53168 0
M  V30 1372 H 133.303 3.70859 5.87783 0
M  V30 1373 H 136.494 2.24774 4.10602 0
M  V30 1374 H 136.667 3.33084 5.55841 0
M  V30 1375 N 130.073 -1.45103 0.615059 0
M  V30 1376 C 131.298 -2.07064 0.117988 0
M  V30 1377 C 131.723 -1.4554 -1.19163 0
M  V30 1378 O 131.081 -0.550855 -1.72729 0
M  V30 1379 C 131.129 -3.606 -0.000288387 0
M  V30 1380 O 130.233 -3.98847 -1.04856 0
M  V30 1381 H 129.574 -0.659467 0.0774581 0
M  V30 1382 H 132.104 -1.86236 0.847186 0
M  V30 1383 H 132.114 -4.07529 -0.196091 0
M  V30 1384 H 130.789 -4.04765 0.955932 0
M  V30 1385 H 129.366 -3.63577 -0.828619 0
M  V30 1386 N 131.551 -0.354651 -1.53558 0
M  V30 1387 C 132.484 0.540273 -2.21712 0
M  V30 1388 C 133.462 1.09161 -1.2051 0
M  V30 1389 O 134.646 1.14979 -1.49372 0
M  V30 1390 C 131.773 1.74435 -2.90328 0
M  V30 1391 C 130.819 1.32146 -4.05512 0
M  V30 1392 S 131.652 0.331924 -5.3447 0
M  V30 1393 C 132.808 1.54258 -6.06593 0
M  V30 1394 H 133.041 -0.0385776 -2.97275 0
M  V30 1395 H 130.574 -0.138736 -1.53775 0
M  V30 1396 H 132.532 2.43507 -3.30476 0
M  V30 1397 H 131.193 2.29444 -2.1451 0
M  V30 1398 H 130.386 2.21952 -4.52497 0
M  V30 1399 H 129.988 0.710091 -3.67197 0
M  V30 1400 H 132.28 2.47534 -6.30661 0
M  V30 1401 H 133.223 1.11431 -6.99277 0
M  V30 1402 H 133.631 1.74367 -5.36895 0
M  V30 1403 N 133.029 1.57378 -0.0835403 0
M  V30 1404 C 133.959 2.1641 0.87686 0
M  V30 1405 C 134.94 1.09429 1.30228 0
M  V30 1406 O 136.125 1.37516 1.37124 0
M  V30 1407 C 133.255 2.73517 2.14022 0
M  V30 1408 C 132.209 3.85769 1.85381 0
M  V30 1409 C 131.535 4.29529 3.18448 0
M  V30 1410 C 132.835 5.09486 1.14984 0
M  V30 1411 H 134.529 2.96914 0.385059 0
M  V30 1412 H 132.075 1.42823 0.18377 0
M  V30 1413 H 134.028 3.13463 2.81636 0
M  V30 1414 H 132.752 1.90252 2.65465 0
M  V30 1415 H 131.411 3.46345 1.20169 0
M  V30 1416 H 131.059 3.43169 3.67755 0
M  V30 1417 H 130.759 5.05204 3.00071 0
M  V30 1418 H 132.283 4.72099 3.8724 0
M  V30 1419 H 133.697 5.46674 1.72687 0
M  V30 1420 H 132.094 5.90515 1.06826 0
M  V30 1421 H 133.164 4.84724 0.130749 0
M  V30 1422 N 134.507 -0.190092 1.56449 0
M  V30 1423 C 135.784 -0.935886 1.71757 0
M  V30 1424 C 136.164 -2.01173 0.639726 0
M  V30 1425 O 135.512 -2.25827 -0.348502 0
M  V30 1426 C 135.722 -1.51775 3.1427 0
M  V30 1427 C 137.07 -1.99794 3.74656 0
M  V30 1428 O 138.094 -1.61607 3.1743 0
M  V30 1429 O 136.953 -2.70079 4.751 0
M  V30 1430 H 134.047 -0.439229 0.700719 0
M  V30 1431 H 136.593 -0.179395 1.68749 0
M  V30 1432 H 135.365 -0.742505 3.84191 0
M  V30 1433 H 134.988 -2.33894 3.21527 0
M  V30 1434 N 135.985 -1.50799 -0.457987 0
M  V30 1435 C 136.917 -1.66786 -1.57211 0
M  V30 1436 C 137.93 -0.548962 -1.53265 0
M  V30 1437 O 139.119 -0.8226 -1.58416 0
M  V30 1438 C 136.219 -1.64834 -2.96113 0
M  V30 1439 C 135.392 -2.92971 -3.24787 0
M  V30 1440 C 134.451 -2.83485 -4.43309 0
M  V30 1441 O 133.477 -3.5744 -4.42973 0
M  V30 1442 N 134.679 -1.97929 -5.45714 0
M  V30 1443 H 137.444 -2.62889 -1.43909 0
M  V30 1444 H 135.005 -1.48427 -0.646617 0
M  V30 1445 H 136.997 -1.56084 -3.7339 0
M  V30 1446 H 135.567 -0.764118 -3.03117 0
M  V30 1447 H 134.787 -3.15749 -2.36 0
M  V30 1448 H 136.075 -3.77834 -3.40762 0
M  V30 1449 H 135.473 -1.37182 -5.48815 0
M  V30 1450 H 134.03 -1.95073 -6.21924 0
M  V30 1451 N 137.463 0.71206 -1.40597 0
M  V30 1452 C 138.712 1.46754 -1.38369 0
M  V30 1453 C 139.025 1.95598 0.0097839 0
M  V30 1454 O 140.231 2.71059 0.154677 0
M  V30 1455 C 138.687 2.65289 -2.43207 0
M  V30 1456 C 138.295 2.23301 -3.88382 0
M  V30 1457 C 140.039 3.43008 -2.50091 0
M  V30 1458 C 137.946 3.38696 -4.84808 0
M  V30 1459 H 136.876 0.55118 -0.514506 0
M  V30 1460 H 139.527 0.774616 -1.66349 0
M  V30 1461 H 137.909 3.36769 -2.08332 0
M  V30 1462 H 139.083 1.59218 -4.32419 0
M  V30 1463 H 137.398 1.58618 -3.85006 0
M  V30 1464 H 139.995 4.28881 -3.1932 0
M  V30 1465 H 140.338 3.87065 -1.53253 0
M  V30 1466 H 140.871 2.78574 -2.83974 0
M  V30 1467 H 137.61 2.99668 -5.82992 0
M  V30 1468 H 137.13 4.01683 -4.45433 0
M  V30 1469 H 138.809 4.04712 -5.04794 0
M  V30 1470 N 138.941 1.26152 0.944643 0
M  V30 1471 C 139.888 1.07408 2.04285 0
M  V30 1472 C 140.858 -0.0198413 1.66088 0
M  V30 1473 O 142.043 0.139264 1.90291 0
M  V30 1474 C 139.183 0.70945 3.37729 0
M  V30 1475 C 138.296 1.87926 3.88983 0
M  V30 1476 C 137.431 1.45807 5.10797 0
M  V30 1477 C 136.47 2.5964 5.54305 0
M  V30 1478 N 135.607 2.18226 6.67324 0
M  V30 1479 H 140.447 2.01389 2.1965 0
M  V30 1480 H 137.984 1.00275 1.07626 0
M  V30 1481 H 139.942 0.478948 4.14442 0
M  V30 1482 H 138.572 -0.193389 3.2222 0
M  V30 1483 H 137.624 2.22279 3.08701 0
M  V30 1484 H 138.936 2.73377 4.17213 0
M  V30 1485 H 138.09 1.18781 5.94959 0
M  V30 1486 H 136.829 0.574414 4.84305 0
M  V30 1487 H 135.834 2.87399 4.68702 0
M  V30 1488 H 137.059 3.48599 5.828 0
M  V30 1489 H 135.005 1.3229 6.42523 0
M  V30 1490 H 134.922 2.97221 6.95123 0
M  V30 1491 H 136.19 1.94403 7.54869 0
M  V30 1492 N 140.419 -1.14872 1.07899 0
M  V30 1493 C 141.644 -1.90202 0.826926 0
M  V30 1494 C 142.069 -1.77774 -0.614664 0
M  V30 1495 O 141.427 -1.11431 -1.43013 0
M  V30 1496 C 141.475 -3.38352 1.24702 0
M  V30 1497 O 140.579 -4.10497 0.39575 0
M  V30 1498 H 139.92 -0.591968 0.300782 0
M  V30 1499 H 142.45 -1.45437 1.43907 0
M  V30 1500 H 142.46 -3.89156 1.22563 0
M  V30 1501 H 141.135 -3.46715 2.29698 0
M  V30 1502 H 139.712 -3.69796 0.480117 0
M  V30 1503 N 141.898 -0.863906 -1.31812 0
M  V30 1504 C 142.828 -0.330843 -2.31144 0
M  V30 1505 C 143.809 0.575005 -1.60087 0
M  V30 1506 O 144.994 0.493304 -1.8783 0
M  V30 1507 C 142.124 0.47374 -3.44054 0
M  V30 1508 C 141.078 -0.338481 -4.26659 0
M  V30 1509 C 140.404 0.591412 -5.31419 0
M  V30 1510 C 141.704 -1.56926 -4.98168 0
M  V30 1511 H 143.398 -1.16086 -2.75979 0
M  V30 1512 H 140.944 -0.559657 -1.32679 0
M  V30 1513 H 142.897 0.857143 -4.12591 0
M  V30 1514 H 141.621 1.33721 -2.9797 0
M  V30 1515 H 140.28 -0.703754 -3.59782 0
M  V30 1516 H 139.928 1.45199 -4.81587 0
M  V30 1517 H 139.628 0.0519022 -5.87577 0
M  V30 1518 H 141.152 0.97179 -6.02817 0
M  V30 1519 H 142.566 -1.25764 -5.59336 0
M  V30 1520 H 140.963 -2.04739 -5.64094 0
M  V30 1521 H 142.033 -2.32544 -4.25501 0
M  V30 1522 N 143.376 1.44774 -0.622745 0
M  V30 1523 C 144.624 2.01721 -0.123655 0
M  V30 1524 C 144.945 1.49172 1.25589 0
M  V30 1525 O 144.215 0.691974 1.83272 0
M  V30 1526 H 142.795 0.745777 -0.0427225 0
M  V30 1527 H 145.457 1.77382 -0.807559 0
M  V30 1528 H 144.553 3.11984 -0.0849534 0
M  V30 1529 N 144.854 0.36279 1.53368 0
M  V30 1530 C 146.084 -0.228281 2.05335 0
M  V30 1531 C 146.492 -1.43226 1.23625 0
M  V30 1532 O 145.835 -1.81717 0.269206 0
M  V30 1533 C 145.897 -0.688549 3.52845 0
M  V30 1534 C 145.561 0.398362 4.5526 0
M  V30 1535 C 146.558 1.24732 5.04716 0
M  V30 1536 C 144.243 0.557805 4.99193 0
M  V30 1537 C 146.237 2.2411 5.96702 0
M  V30 1538 C 143.924 1.55495 5.90986 0
M  V30 1539 C 144.922 2.39503 6.39631 0
M  V30 1540 O 144.61 3.37517 7.29615 0
M  V30 1541 H 144.342 -0.044395 0.674541 0
M  V30 1542 H 146.896 0.518668 1.98744 0
M  V30 1543 H 145.126 -1.48706 3.56964 0
M  V30 1544 H 146.815 -1.20231 3.87685 0
M  V30 1545 H 147.581 1.13532 4.71525 0
M  V30 1546 H 143.46 -0.0862959 4.60919 0
M  V30 1547 H 147.004 2.89718 6.34594 0
M  V30 1548 H 142.901 1.66744 6.23592 0
M  V30 1549 H 143.669 3.33213 7.47604 0
M  V30 1550 N 146.332 -1.57332 0.0918853 0
M  V30 1551 C 147.28 -2.15075 -0.885747 0
M  V30 1552 C 148.274 -1.09277 -1.29441 0
M  V30 1553 O 149.48 -1.27627 -1.26931 0
M  V30 1554 H 145.855 -0.687966 -0.303656 0
M  V30 1555 H 147.826 -2.96047 -0.373995 0
M  V30 1556 C 146.575 -2.74325 -2.13638 0
M  V30 1557 H 145.898 -3.55418 -1.8308 0
M  V30 1558 H 147.338 -3.183 -2.80109 0
M  V30 1559 C 145.797 -1.70062 -2.90827 0
M  V30 1560 O 146.327 -1.13763 -3.85254 0
M  V30 1561 N 144.533 -1.40628 -2.54307 0
M  V30 1562 H 144.08 -1.866 -1.7759 0
M  V30 1563 H 144.038 -0.711043 -3.06254 0
M  V30 1564 N 147.81 0.181792 -1.56548 0
M  V30 1565 C 149.038 0.915947 -1.85521 0
M  V30 1566 C 149.453 1.76282 -0.676016 0
M  V30 1567 O 148.81 1.79012 0.355077 0
M  V30 1568 C 148.861 1.80126 -3.13427 0
M  V30 1569 O 148.582 0.988562 -4.26801 0
M  V30 1570 C 150.083 2.64597 -3.55673 0
M  V30 1571 H 147.303 0.26661 -0.61576 0
M  V30 1572 H 149.847 0.185039 -2.03661 0
M  V30 1573 H 148.002 2.48563 -2.97145 0
M  V30 1574 H 148.416 1.59308 -4.99721 0
M  V30 1575 H 149.89 3.2235 -4.48101 0
M  V30 1576 H 150.367 3.38958 -2.79292 0
M  V30 1577 H 150.973 2.0151 -3.74532 0
M  V30 1578 N 149.288 1.51039 0.449983 0
M  V30 1579 C 150.537 1.62317 1.19733 0
M  V30 1580 C 150.85 0.339101 1.92638 0
M  V30 1581 O 152.056 0.331069 2.69474 0
M  V30 1582 C 150.512 2.86608 2.17678 0
M  V30 1583 C 150.12 4.21972 1.50479 0
M  V30 1584 C 151.864 3.07239 2.92924 0
M  V30 1585 C 149.771 5.37426 2.46834 0
M  V30 1586 H 148.701 0.604532 0.450619 0
M  V30 1587 H 151.352 1.77494 0.465625 0
M  V30 1588 H 149.734 2.65037 2.94231 0
M  V30 1589 H 150.908 4.53878 0.795716 0
M  V30 1590 H 149.223 4.07117 0.874344 0
M  V30 1591 H 151.82 3.90668 3.65079 0
M  V30 1592 H 152.163 2.19807 3.5354 0
M  V30 1593 H 152.696 3.29091 2.23481 0
M  V30 1594 H 149.435 6.27079 1.90926 0
M  V30 1595 H 148.955 5.09912 3.15832 0
M  V30 1596 H 150.634 5.68862 3.08228 0
M  V30 1597 N 150.766 -0.704594 1.40972 0
M  V30 1598 C 152.182 -1.01406 1.23244 0
M  V30 1599 C 152.382 -2.01169 0.115399 0
M  V30 1600 O 151.438 -2.47021 -0.523147 0
M  V30 1601 C 152.751 -1.54728 2.57836 0
M  V30 1602 C 154.299 -1.66658 2.64942 0
M  V30 1603 C 154.774 -2.23383 3.9983 0
M  V30 1604 N 156.265 -2.30756 4.01629 0
M  V30 1605 C 157 -2.75655 5.02794 0
M  V30 1606 N 156.496 -3.20225 6.14352 0
M  V30 1607 N 158.289 -2.75138 4.90159 0
M  V30 1608 H 150.44 -0.0435285 2.12355 0
M  V30 1609 H 152.703 -0.0818951 0.944456 0
M  V30 1610 H 152.409 -0.888832 3.40283 0
M  V30 1611 H 152.283 -2.53084 2.79693 0
M  V30 1612 H 154.67 -2.31617 1.8286 0
M  V30 1613 H 154.751 -0.668717 2.46904 0
M  V30 1614 H 154.395 -1.59043 4.82357 0
M  V30 1615 H 154.325 -3.23904 4.15203 0
M  V30 1616 H 156.816 -1.99291 3.21079 0
M  V30 1617 H 157.129 -3.53084 6.87424 0
M  V30 1618 H 155.474 -3.18156 6.17901 0
M  V30 1619 H 158.665 -2.39661 4.02095 0
M  V30 1620 H 158.838 -3.09812 5.6914 0
M  V30 1621 N 152.244 -1.26651 -0.937939 0
M  V30 1622 C 153.174 -1.10993 -2.05433 0
M  V30 1623 C 154.155 -0.0142161 -1.70094 0
M  V30 1624 O 155.34 -0.186837 -1.93299 0
M  V30 1625 C 152.47 -0.745561 -3.39203 0
M  V30 1626 C 151.424 -1.79337 -3.88616 0
M  V30 1627 C 150.75 -1.28324 -5.19073 0
M  V30 1628 C 152.05 -3.19553 -4.13138 0
M  V30 1629 H 153.744 -2.0438 -2.1879 0
M  V30 1630 H 151.29 -0.984041 -1.05131 0
M  V30 1631 H 153.243 -0.622888 -4.16771 0
M  V30 1632 H 151.967 0.22401 -3.25831 0
M  V30 1633 H 150.626 -1.90477 -3.13231 0
M  V30 1634 H 150.274 -0.303414 -5.02084 0
M  V30 1635 H 149.974 -1.98369 -5.53103 0
M  V30 1636 H 151.498 -1.1733 -5.99221 0
M  V30 1637 H 152.912 -3.11471 -4.81309 0
M  V30 1638 H 151.309 -3.87218 -4.58457 0
M  V30 1639 H 152.379 -3.65368 -3.18801 0
M  V30 1640 N 153.722 1.14298 -1.08507 0
M  V30 1641 C 155.133 1.66926 -0.836227 0
M  V30 1642 C 155.484 1.85576 0.63686 0
M  V30 1643 O 154.609 1.56767 1.49175 0
M  V30 1644 C 155.204 3.03219 -1.51142 0
M  V30 1645 C 153.763 3.52876 -1.30979 0
M  V30 1646 C 152.91 2.2833 -1.57356 0
M  V30 1647 H 155.861 0.983491 -1.24552 0
M  V30 1648 H 155.882 3.68726 -0.939211 0
M  V30 1649 H 155.394 2.89612 -2.58353 0
M  V30 1650 H 153.495 3.71703 -0.258429 0
M  V30 1651 H 153.608 4.33586 -2.03814 0
M  V30 1652 H 151.972 2.34454 -0.995164 0
M  V30 1653 H 152.755 2.17298 -2.65775 0
M  V30 1654 N 155.201 0.870884 1.31352 0
M  V30 1655 C 156.431 0.496049 2.00557 0
M  V30 1656 C 156.839 -0.916241 1.65534 0
M  V30 1657 O 156.182 -1.61188 0.881134 0
M  V30 1658 C 156.244 0.574418 3.54881 0
M  V30 1659 C 155.908 1.94849 4.1338 0
M  V30 1660 C 156.905 2.91611 4.30417 0
M  V30 1661 C 154.59 2.25005 4.49086 0
M  V30 1662 C 156.584 4.16672 4.82352 0
M  V30 1663 C 154.271 3.50315 5.00722 0
M  V30 1664 C 155.269 4.45964 5.17306 0
M  V30 1665 O 154.957 5.69052 5.67833 0
M  V30 1666 H 154.689 0.191664 0.64826 0
M  V30 1667 H 157.243 1.17409 1.68536 0
M  V30 1668 H 155.473 -0.160549 3.86367 0
M  V30 1669 H 157.162 0.212879 4.05341 0
M  V30 1670 H 157.928 2.69622 4.03149 0
M  V30 1671 H 153.807 1.51332 4.35453 0
M  V30 1672 H 157.351 4.91336 4.95211 0
M  V30 1673 H 153.248 3.72147 5.27424 0
M  V30 1674 H 154.016 5.71236 5.86201 0
M  V30 1675 N 156.679 -1.44442 0.630414 0
M  V30 1676 C 157.904 -2.06927 0.139944 0
M  V30 1677 C 158.329 -1.46795 -1.17613 0
M  V30 1678 O 157.687 -0.569144 -1.72135 0
M  V30 1679 C 157.735 -3.6058 0.0379581 0
M  V30 1680 O 156.839 -3.99937 -1.0062 0
M  V30 1681 H 156.18 -0.658608 0.0844483 0
M  V30 1682 H 158.71 -1.85327 0.866891 0
M  V30 1683 H 158.72 -4.07714 -0.152856 0
M  V30 1684 H 157.395 -4.03728 0.998809 0
M  V30 1685 H 155.972 -3.64436 -0.79001 0
M  V30 1686 N 158.157 -0.370918 -1.53173 0
M  V30 1687 C 159.434 0.273754 -1.93675 0
M  V30 1688 C 159.814 1.65938 -1.3049 0
M  V30 1689 O 159.162 2.23698 -0.465999 0
M  V30 1690 C 159.372 0.318602 -3.47543 0
M  V30 1691 C 160.72 0.556392 -4.20939 0
M  V30 1692 O 161.744 0.399587 -3.53952 0
M  V30 1693 O 160.603 0.862133 -5.39657 0
M  V30 1694 H 157.697 0.165448 -0.810281 0
M  V30 1695 H 160.243 -0.42409 -1.64315 0
M  V30 1696 H 159.015 -0.652687 -3.85818 0
M  V30 1697 H 158.638 1.06212 -3.83151 0
M  V30 1698 N 159.635 1.57281 -0.100228 0
M  V30 1699 C 160.912 1.86014 0.604812 0
M  V30 1700 C 161.292 0.998025 1.86018 0
M  V30 1701 O 160.64 0.0718184 2.28387 0
M  V30 1702 C 160.85 3.36784 0.915278 0
M  V30 1703 C 162.198 4.04957 1.27651 0
M  V30 1704 O 163.222 3.41695 1.00613 0
M  V30 1705 O 162.081 5.16593 1.7831 0
M  V30 1706 H 159.175 0.76942 0.303185 0
M  V30 1707 H 161.721 1.69176 -0.133313 0
M  V30 1708 H 160.493 3.91292 0.0248896 0
M  V30 1709 H 160.116 3.58987 1.70921 0
M  V30 1710 N 161.113 -0.173488 1.56642 0
M  V30 1711 C 162.362 -0.888758 1.81063 0
M  V30 1712 C 162.675 -1.83506 0.67712 0
M  V30 1713 O 163.881 -2.59254 0.806206 0
M  V30 1714 C 162.337 -1.63091 3.20826 0
M  V30 1715 C 161.945 -0.728357 4.4204 0
M  V30 1716 C 163.689 -2.33454 3.54541 0
M  V30 1717 C 161.596 -1.47062 5.72823 0
M  V30 1718 H 160.526 -0.335618 0.675186 0
M  V30 1719 H 163.177 -0.141712 1.82952 0
M  V30 1720 H 161.559 -2.42263 3.13248 0
M  V30 1721 H 162.733 0.0262449 4.60793 0
M  V30 1722 H 161.048 -0.134492 4.16183 0
M  V30 1723 H 163.645 -2.89578 4.49498 0
M  V30 1724 H 163.988 -3.08687 2.79317 0
M  V30 1725 H 164.521 -1.61227 3.63663 0
M  V30 1726 H 161.26 -0.760658 6.51072 0
M  V30 1727 H 160.78 -2.1986 5.58052 0
M  V30 1728 H 162.459 -2.01868 6.14702 0
M  V30 1729 N 162.591 -1.51276 -0.441967 0
M  V30 1730 C 163.521 -1.752 -1.54361 0
M  V30 1731 C 164.502 -0.601682 -1.59103 0
M  V30 1732 O 165.687 -0.843913 -1.74905 0
M  V30 1733 C 162.817 -1.87282 -2.92477 0
M  V30 1734 C 161.771 -3.02687 -3.02596 0
M  V30 1735 C 161.097 -2.99947 -4.42647 0
M  V30 1736 C 162.397 -4.4273 -2.77106 0
M  V30 1737 H 164.091 -2.67442 -1.34592 0
M  V30 1738 H 161.637 -1.28694 -0.646048 0
M  V30 1739 H 163.59 -2.02602 -3.695 0
M  V30 1740 H 162.314 -0.916844 -3.13467 0
M  V30 1741 H 160.973 -2.87065 -2.28012 0
M  V30 1742 H 160.621 -2.02136 -4.60597 0
M  V30 1743 H 160.321 -3.77439 -4.50348 0
M  V30 1744 H 161.845 -3.17354 -5.2165 0
M  V30 1745 H 163.259 -4.58727 -3.43864 0
M  V30 1746 H 161.656 -5.21893 -2.96222 0
M  V30 1747 H 162.726 -4.53087 -1.72744 0
M  V30 1748 N 164.069 0.697108 -1.41344 0
M  V30 1749 C 165.016 1.81106 -1.43071 0
M  V30 1750 C 165.986 1.63632 -0.285275 0
M  V30 1751 O 167.171 1.84504 -0.486091 0
M  V30 1752 C 164.311 3.18975 -1.31715 0
M  V30 1753 C 163.424 3.47892 -2.56115 0
M  V30 1754 C 162.559 4.75367 -2.37064 0
M  V30 1755 C 161.598 4.97247 -3.56948 0
M  V30 1756 N 160.735 6.15947 -3.36977 0
M  V30 1757 H 165.575 1.78965 -2.38276 0
M  V30 1758 H 163.112 0.873975 -1.18322 0
M  V30 1759 H 165.07 3.98615 -1.23133 0
M  V30 1760 H 163.7 3.20297 -0.401183 0
M  V30 1761 H 162.752 2.62669 -2.75153 0
M  V30 1762 H 164.064 3.59962 -3.45295 0
M  V30 1763 H 163.218 5.63059 -2.25941 0
M  V30 1764 H 161.957 4.65541 -1.45338 0
M  V30 1765 H 160.962 4.08004 -3.68527 0
M  V30 1766 H 162.187 5.08934 -4.49626 0
M  V30 1767 H 160.133 6.07336 -2.47949 0
M  V30 1768 H 160.05 6.28777 -4.19732 0
M  V30 1769 H 161.318 7.06377 -3.29623 0
M  V30 1770 N 165.547 1.27147 0.931209 0
M  V30 1771 C 166.958 1.12044 1.49342 0
M  V30 1772 C 167.309 -0.295795 1.93957 0
M  V30 1773 O 166.434 -1.18835 1.80852 0
M  V30 1774 C 167.029 2.02781 2.71414 0
M  V30 1775 C 165.588 1.91794 3.2387 0
M  V30 1776 C 164.735 1.95543 1.96617 0
M  V30 1777 H 167.686 1.40091 0.745672 0
M  V30 1778 H 167.707 1.58156 3.46074 0
M  V30 1779 H 167.219 3.05848 2.38911 0
M  V30 1780 H 165.32 0.916992 3.6114 0
M  V30 1781 H 165.433 2.77852 3.90302 0
M  V30 1782 H 163.797 1.39722 2.12955 0
M  V30 1783 H 164.58 3.00259 1.66432 0
M  V30 1784 N 167.025 -1.13721 1.09112 0
M  V30 1785 C 168.273 -1.84559 0.823562 0
M  V30 1786 C 168.594 -1.83754 -0.652658 0
M  V30 1787 O 167.864 -1.29102 -1.47342 0
M  V30 1788 H 166.444 -0.683376 0.301673 0
M  V30 1789 H 169.106 -1.37771 1.37859 0
M  V30 1790 H 168.202 -2.8917 1.17419 0
M  V30 1791 N 168.503 -0.877838 -1.30888 0
M  V30 1792 C 169.731 -0.507414 -2.00581 0
M  V30 1793 C 170.146 0.902216 -1.65848 0
M  V30 1794 O 169.503 1.59225 -0.891831 0
M  V30 1795 C 169.554 -0.664162 -3.55347 0
M  V30 1796 O 169.275 -2.01829 -3.8884 0
M  V30 1797 C 170.776 -0.295787 -4.42312 0
M  V30 1798 H 167.996 -0.196866 -0.641471 0
M  V30 1799 H 170.54 -1.18117 -1.66939 0
M  V30 1800 H 168.695 -0.0378619 -3.87381 0
M  V30 1801 H 169.109 -2.03174 -4.8355 0
M  V30 1802 H 170.583 -0.456388 -5.5011 0
M  V30 1803 H 171.06 0.765663 -4.32475 0
M  V30 1804 H 171.666 -0.898113 -4.15709 0
M  V30 1805 N 169.982 1.44106 -0.638065 0
M  V30 1806 C 170.915 2.27924 0.112161 0
M  V30 1807 C 171.893 1.38945 0.844574 0
M  V30 1808 O 173.077 1.68386 0.847248 0
M  V30 1809 C 170.204 3.18029 1.16512 0
M  V30 1810 C 169.25 4.23163 0.532458 0
M  V30 1811 S 170.083 5.31131 -0.682666 0
M  V30 1812 C 171.239 6.24805 0.37013 0
M  V30 1813 H 171.472 2.91205 -0.598887 0
M  V30 1814 H 169.005 1.48394 -0.426441 0
M  V30 1815 H 170.963 3.70492 1.76766 0
M  V30 1816 H 169.624 2.53955 1.8484 0
M  V30 1817 H 168.817 4.86252 1.32571 0
M  V30 1818 H 168.419 3.74 0.00437644 0
M  V30 1819 H 170.711 6.66042 1.24071 0
M  V30 1820 H 171.654 7.07741 -0.225349 0
M  V30 1821 H 172.062 5.60154 0.699141 0
M  V30 1822 N 171.46 0.379036 1.52974 0
M  V30 1823 C 172.871 -0.0972525 1.86447 0
M  V30 1824 C 173.222 -1.47027 1.29914 0
M  V30 1825 O 172.347 -2.07135 0.626433 0
M  V30 1826 C 172.942 -0.183248 3.38304 0
M  V30 1827 C 171.501 -0.603812 3.71525 0
M  V30 1828 C 170.648 0.240632 2.76254 0
M  V30 1829 H 173.599 0.597316 1.4703 0
M  V30 1830 H 173.62 -1.00432 3.67006 0
M  V30 1831 H 173.132 0.816191 3.79421 0
M  V30 1832 H 171.233 -1.61099 3.35973 0
M  V30 1833 H 171.346 -0.369086 4.77676 0
M  V30 1834 H 169.71 -0.292548 2.53014 0
M  V30 1835 H 170.493 1.23786 3.20206 0
M  V30 1836 N 172.938 -1.57226 0.108567 0
M  V30 1837 C 173.886 -2.16002 -0.862885 0
M  V30 1838 C 174.88 -1.10644 -1.28274 0
M  V30 1839 O 176.086 -1.28966 -1.2557 0
M  V30 1840 H 172.461 -0.691148 -0.296342 0
M  V30 1841 H 174.432 -2.96427 -0.342575 0
M  V30 1842 C 173.181 -2.76576 -2.10716 0
M  V30 1843 H 172.504 -3.5734 -1.793 0
M  V30 1844 H 173.944 -3.21253 -2.76717 0
M  V30 1845 C 172.403 -1.73137 -2.89007 0
M  V30 1846 O 172.933 -1.17842 -3.84026 0
M  V30 1847 N 171.139 -1.43317 -2.52801 0
M  V30 1848 H 170.686 -1.88473 -1.75601 0
M  V30 1849 H 170.644 -0.743485 -3.05483 0
M  V30 1850 N 174.416 0.165178 -1.56732 0
M  V30 1851 C 175.641 0.900253 -1.86843 0
M  V30 1852 C 176.066 1.74766 -0.695596 0
M  V30 1853 O 175.424 1.77786 0.35522 0
M  V30 1854 C 175.472 1.74777 -3.15413 0
M  V30 1855 O 174.576 2.85007 -2.98068 0
M  V30 1856 H 173.917 0.251832 -0.614391 0
M  V30 1857 H 176.447 0.161468 -2.03962 0
M  V30 1858 H 176.457 2.14646 -3.46974 0
M  V30 1859 H 175.132 1.12537 -4.00385 0
M  V30 1860 H 173.709 2.48676 -2.77875 0
M  V30 1861 N 175.894 1.51508 0.433938 0
M  V30 1862 C 177.143 1.63578 1.18005 0
M  V30 1863 C 177.456 0.359514 1.92268 0
M  V30 1864 O 178.662 0.359632 2.69108 0
M  V30 1865 C 177.118 2.88901 2.14626 0
M  V30 1866 C 176.726 4.23544 1.45995 0
M  V30 1867 C 178.47 3.10328 2.89649 0
M  V30 1868 C 176.377 5.40014 2.4112 0
M  V30 1869 H 175.307 0.609277 0.444182 0
M  V30 1870 H 177.958 1.77978 0.446773 0
M  V30 1871 H 176.34 2.68142 2.91403 0
M  V30 1872 H 177.514 4.54696 0.747532 0
M  V30 1873 H 175.829 4.08021 0.831115 0
M  V30 1874 H 178.426 3.94518 3.60915 0
M  V30 1875 H 178.769 2.23544 3.51189 0
M  V30 1876 H 179.302 3.31443 2.19978 0
M  V30 1877 H 176.041 6.29068 1.84264 0
M  V30 1878 H 175.561 5.13233 3.10406 0
M  V30 1879 H 177.24 5.72099 3.02177 0
M  V30 1880 N 177.372 -0.689602 1.41712 0
M  V30 1881 C 178.32 -1.82475 1.44242 0
M  V30 1882 C 179.314 -1.66354 0.319774 0
M  V30 1883 O 180.52 -1.73143 0.492089 0
M  V30 1884 H 176.895 -0.601416 0.451445 0
M  V30 1885 H 178.866 -1.77458 2.39899 0
M  V30 1886 C 177.615 -3.20535 1.3473 0
M  V30 1887 H 176.938 -3.33559 2.20405 0
M  V30 1888 H 178.378 -4.00023 1.40562 0
M  V30 1889 C 176.837 -3.36846 0.0603281 0
M  V30 1890 O 177.367 -3.91656 -0.892663 0
M  V30 1891 N 175.573 -2.90595 -0.0177039 0
M  V30 1892 H 175.12 -2.46178 0.758572 0
M  V30 1893 H 175.078 -3.01886 -0.878201 0
M  V30 1894 N 178.85 -1.27639 -0.924453 0
M  V30 1895 C 180.097 -1.14167 -1.67249 0
M  V30 1896 C 180.425 0.311863 -1.91984 0
M  V30 1897 O 179.68 1.24425 -1.51053 0
M  V30 1898 C 179.979 -1.87407 -3.04325 0
M  V30 1899 C 179.645 -3.37249 -2.99289 0
M  V30 1900 C 178.307 -3.7812 -2.97622 0
M  V30 1901 C 180.659 -4.32845 -2.90336 0
M  V30 1902 C 177.987 -5.12944 -2.8479 0
M  V30 1903 C 180.339 -5.6773 -2.79045 0
M  V30 1904 C 179.003 -6.07889 -2.7573 0
M  V30 1905 H 178.273 -0.417766 -0.612007 0
M  V30 1906 H 180.92 -1.58286 -1.07786 0
M  V30 1907 H 179.225 -1.35805 -3.67511 0
M  V30 1908 H 180.922 -1.74408 -3.61086 0
M  V30 1909 H 177.512 -3.04748 -3.01374 0
M  V30 1910 H 181.696 -4.02239 -2.90719 0
M  V30 1911 H 176.952 -5.432 -2.80612 0
M  V30 1912 H 181.126 -6.41472 -2.71083 0
M  V30 1913 H 178.753 -7.12314 -2.65544 0
M  V30 1914 N 180.328 1.1314 -1.09713 0
M  V30 1915 C 181.558 1.88048 -0.855656 0
M  V30 1916 C 181.966 1.79537 0.596919 0
M  V30 1917 O 181.309 1.16196 1.42282 0
M  V30 1918 C 181.371 3.38314 -1.21589 0
M  V30 1919 C 181.035 3.70605 -2.67397 0
M  V30 1920 C 182.032 3.69596 -3.65643 0
M  V30 1921 C 179.717 4.0017 -3.03593 0
M  V30 1922 C 181.711 3.977 -4.9811 0
M  V30 1923 C 179.398 4.27935 -4.36251 0
M  V30 1924 C 180.396 4.26685 -5.33318 0
M  V30 1925 O 180.084 4.53767 -6.63589 0
M  V30 1926 H 179.816 0.60208 -0.307368 0
M  V30 1927 H 182.37 1.44128 -1.46343 0
M  V30 1928 H 180.6 3.82752 -0.551177 0
M  V30 1929 H 182.289 3.94552 -0.953083 0
M  V30 1930 H 183.055 3.46826 -3.39023 0
M  V30 1931 H 178.934 4.00289 -2.2867 0
M  V30 1932 H 182.478 3.9664 -5.73866 0
M  V30 1933 H 178.375 4.50178 -4.62613 0
M  V30 1934 H 179.143 4.71422 -6.69107 0
M  V30 1935 N 181.806 0.884767 1.30421 0
M  V30 1936 C 182.738 0.308655 2.27112 0
M  V30 1937 C 183.751 -0.536655 1.53701 0
M  V30 1938 O 184.94 -0.35624 1.74909 0
M  V30 1939 C 182.04 -0.579782 3.33904 0
M  V30 1940 C 181.213 0.236417 4.36761 0
M  V30 1941 C 180.272 -0.582482 5.22966 0
M  V30 1942 O 179.298 -0.00525502 5.692 0
M  V30 1943 N 180.5 -1.89163 5.48815 0
M  V30 1944 H 183.265 1.13964 2.77186 0
M  V30 1945 H 180.826 0.747731 1.43599 0
M  V30 1946 H 182.818 -1.13366 3.88497 0
M  V30 1947 H 181.388 -1.31144 2.83761 0
M  V30 1948 H 180.608 0.97174 3.82035 0
M  V30 1949 H 181.896 0.795924 5.02536 0
M  V30 1950 H 181.294 -2.38352 5.13035 0
M  V30 1951 H 179.851 -2.39296 6.06284 0
M  V30 1952 N 183.284 -1.43765 0.645699 0
M  V30 1953 C 184.217 -2.2798 -0.100072 0
M  V30 1954 C 185.195 -1.39391 -0.837194 0
M  V30 1955 O 186.379 -1.68833 -0.838306 0
M  V30 1956 C 183.506 -3.18643 -1.14823 0
M  V30 1957 C 182.552 -4.2344 -0.510009 0
M  V30 1958 S 183.385 -5.30761 0.710824 0
M  V30 1959 C 184.541 -6.24992 -0.33699 0
M  V30 1960 H 184.774 -2.90884 0.614322 0
M  V30 1961 H 182.307 -1.48166 0.434304 0
M  V30 1962 H 184.265 -3.71424 -1.74799 0
M  V30 1963 H 182.926 -2.54932 -1.8349 0
M  V30 1964 H 182.119 -4.86948 -1.29991 0
M  V30 1965 H 181.721 -3.73997 0.0154577 0
M  V30 1966 H 184.013 -6.66691 -1.20537 0
M  V30 1967 H 184.956 -7.07612 0.262879 0
M  V30 1968 H 185.364 -5.60517 -0.669425 0
M  V30 1969 N 184.763 -0.387143 -1.52771 0
M  V30 1970 C 185.711 0.463953 -2.27926 0
M  V30 1971 C 186.705 1.06493 -1.31741 0
M  V30 1972 O 187.911 1.00565 -1.49287 0
M  V30 1973 H 184.286 0.16837 -0.732909 0
M  V30 1974 H 186.257 -0.19141 -2.97785 0
M  V30 1975 C 185.006 1.5803 -3.09713 0
M  V30 1976 H 184.329 1.12718 -3.83581 0
M  V30 1977 H 185.769 2.15008 -3.65442 0
M  V30 1978 C 184.228 2.53509 -2.2189 0
M  V30 1979 O 184.758 3.56863 -1.84422 0
M  V30 1980 N 182.964 2.23199 -1.86093 0
M  V30 1981 H 182.511 1.39185 -2.16761 0
M  V30 1982 H 182.469 2.87333 -1.27621 0
M  V30 1983 N 186.241 1.57166 -0.116904 0
M  V30 1984 C 187.173 2.12271 0.864507 0
M  V30 1985 C 188.186 1.06494 1.23138 0
M  V30 1986 O 189.375 1.33873 1.18069 0
M  V30 1987 C 186.475 2.60564 2.16702 0
M  V30 1988 C 185.648 3.90416 1.97216 0
M  V30 1989 C 184.707 4.24329 3.11178 0
M  V30 1990 O 183.733 4.93182 2.84184 0
M  V30 1991 N 184.935 3.8148 4.37554 0
M  V30 1992 H 187.7 2.97102 0.393726 0
M  V30 1993 H 185.261 1.61759 0.0675805 0
M  V30 1994 H 187.253 2.80282 2.91932 0
M  V30 1995 H 185.823 1.80623 2.55135 0
M  V30 1996 H 185.043 3.79627 1.06192 0
M  V30 1997 H 186.331 4.75327 1.81499 0
M  V30 1998 H 185.729 3.25943 4.62361 0
M  V30 1999 H 184.286 4.06311 5.09661 0
M  V30 2000 N 187.719 -0.156864 1.56817 0
M  V30 2001 C 188.996 -0.899244 1.73704 0
M  V30 2002 C 189.376 -1.99771 0.682254 0
M  V30 2003 O 188.724 -2.26515 -0.300522 0
M  V30 2004 C 188.934 -1.45075 3.17418 0
M  V30 2005 C 190.282 -1.91802 3.7881 0
M  V30 2006 O 191.306 -1.54838 3.20786 0
M  V30 2007 O 190.165 -2.5994 4.80722 0
M  V30 2008 H 187.259 -0.424267 0.709878 0
M  V30 2009 H 189.805 -0.143561 1.69092 0
M  V30 2010 H 188.577 -0.660846 3.85679 0
M  V30 2011 H 188.2 -2.27021 3.26416 0
M  V30 2012 N 189.197 -1.51736 -0.425897 0
M  V30 2013 C 190.127 -1.76827 -1.52494 0
M  V30 2014 C 191.108 -0.618524 -1.58456 0
M  V30 2015 O 192.293 -0.862416 -1.74 0
M  V30 2016 C 189.423 -1.90374 -2.90474 0
M  V30 2017 C 188.377 -3.0588 -2.99369 0
M  V30 2018 C 187.703 -3.04625 -4.3944 0
M  V30 2019 C 189.003 -4.45644 -2.72394 0
M  V30 2020 H 190.697 -2.68855 -1.31748 0
M  V30 2021 H 188.243 -1.29372 -0.632362 0
M  V30 2022 H 190.196 -2.0651 -3.6733 0
M  V30 2023 H 188.92 -0.95004 -3.12477 0
M  V30 2024 H 187.579 -2.89467 -2.24954 0
M  V30 2025 H 187.227 -2.0701 -4.58428 0
M  V30 2026 H 186.927 -3.82195 -4.46319 0
M  V30 2027 H 188.451 -3.22869 -5.18255 0
M  V30 2028 H 189.865 -4.62348 -3.38979 0
M  V30 2029 H 188.262 -5.25006 -2.9067 0
M  V30 2030 H 189.332 -4.54893 -1.67929 0
M  V30 2031 N 190.675 0.682077 -1.42076 0
M  V30 2032 C 191.607 1.80755 -1.40926 0
M  V30 2033 C 192.62 1.59833 -0.309398 0
M  V30 2034 O 193.809 1.69087 -0.572014 0
M  V30 2035 C 190.909 3.17744 -1.17865 0
M  V30 2036 C 190.082 3.65578 -2.40149 0
M  V30 2037 C 189.141 4.81277 -2.12742 0
M  V30 2038 O 188.167 4.92197 -2.85887 0
M  V30 2039 N 189.369 5.69474 -1.12602 0
M  V30 2040 H 192.134 1.82229 -2.37935 0
M  V30 2041 H 189.695 0.864903 -1.36861 0
M  V30 2042 H 191.687 3.9279 -0.9746 0
M  V30 2043 H 190.257 3.11214 -0.294068 0
M  V30 2044 H 189.477 2.81291 -2.76169 0
M  V30 2045 H 190.765 3.94278 -3.21593 0
M  V30 2046 H 190.163 5.63297 -0.520899 0
M  V30 2047 H 188.72 6.44363 -0.981842 0
M  V30 2048 N 192.153 1.28127 0.917671 0
M  V30 2049 C 193.401 1.14825 1.66312 0
M  V30 2050 C 193.722 -0.304379 1.9261 0
M  V30 2051 O 192.992 -1.21149 1.53947 0
M  V30 2052 H 191.572 0.421953 0.616413 0
M  V30 2053 H 194.234 1.608 1.10134 0
M  V30 2054 H 193.33 1.68489 2.62712 0
M  V30 2055 N 193.631 -1.12557 1.10312 0
M  V30 2056 C 194.561 -2.20341 0.772798 0
M  V30 2057 C 195.542 -1.68198 -0.25365 0
M  V30 2058 O 196.727 -1.93831 -0.119699 0
M  V30 2059 C 193.857 -3.46709 0.202443 0
M  V30 2060 C 192.811 -4.11996 1.15943 0
M  V30 2061 C 192.137 -5.328 0.450345 0
M  V30 2062 C 193.437 -4.5828 2.50552 0
M  V30 2063 H 195.131 -2.48229 1.674 0
M  V30 2064 H 192.677 -1.19308 0.806326 0
M  V30 2065 H 194.63 -4.2138 -0.0407752 0
M  V30 2066 H 193.354 -3.18245 -0.734001 0
M  V30 2067 H 192.013 -3.39305 1.38808 0
M  V30 2068 H 191.661 -5.00602 -0.490531 0
M  V30 2069 H 191.361 -5.7743 1.08851 0
M  V30 2070 H 192.885 -6.10219 0.215642 0
M  V30 2071 H 194.299 -5.2433 2.31843 0
M  V30 2072 H 192.696 -5.13683 3.10242 0
M  V30 2073 H 193.766 -3.72329 3.10643 0
M  V30 2074 N 195.109 -0.891671 -1.2995 0
M  V30 2075 C 196.337 -0.52866 -2.00032 0
M  V30 2076 C 196.752 0.884574 -1.66795 0
M  V30 2077 O 196.109 1.5827 -0.908669 0
M  V30 2078 C 196.16 -0.701814 -3.54622 0
M  V30 2079 O 195.881 -2.05942 -3.86678 0
M  V30 2080 C 197.382 -0.342683 -4.41973 0
M  V30 2081 H 194.602 -0.203659 -0.639347 0
M  V30 2082 H 197.146 -1.19881 -1.65677 0
M  V30 2083 H 195.301 -0.0789468 -3.8732 0
M  V30 2084 H 195.715 -2.08291 -4.81368 0
M  V30 2085 H 197.189 -0.514709 -5.49595 0
M  V30 2086 H 197.666 0.71975 -4.33262 0
M  V30 2087 H 198.272 -0.942154 -4.14733 0
M  V30 2088 N 196.587 1.43421 -0.653314 0
M  V30 2089 C 197.812 2.06678 -0.172846 0
M  V30 2090 C 198.237 1.48648 1.15262 0
M  V30 2091 O 197.595 0.596457 1.71208 0
M  V30 2092 C 197.643 3.60474 -0.0953184 0
M  V30 2093 O 196.747 4.01487 0.942442 0
M  V30 2094 H 196.088 0.657181 -0.0949155 0
M  V30 2095 H 198.618 1.83925 -0.896265 0
M  V30 2096 H 198.628 4.07905 0.0879728 0
M  V30 2097 H 197.303 4.02088 -1.06291 0
M  V30 2098 H 195.88 3.65646 0.731932 0
M  V30 2099 N 198.065 0.39524 1.52563 0
M  V30 2100 C 198.995 -0.428384 2.29537 0
M  V30 2101 C 199.976 -1.05831 1.33169 0
M  V30 2102 O 201.161 -1.06995 1.62067 0
M  V30 2103 C 198.291 -1.55274 3.10656 0
M  V30 2104 C 197.245 -1.04855 4.14957 0
M  V30 2105 C 196.571 -2.26543 4.84337 0
M  V30 2106 C 197.871 -0.112324 5.22179 0
M  V30 2107 H 199.565 0.213867 2.98635 0
M  V30 2108 H 197.111 0.104298 1.43622 0
M  V30 2109 H 199.064 -2.1358 3.63265 0
M  V30 2110 H 197.788 -2.22266 2.39302 0
M  V30 2111 H 196.447 -0.487985 3.63338 0
M  V30 2112 H 196.095 -2.92059 4.09525 0
M  V30 2113 H 195.795 -1.93466 5.54837 0
M  V30 2114 H 197.319 -2.85481 5.39753 0
M  V30 2115 H 198.733 -0.603752 5.70112 0
M  V30 2116 H 197.13 0.128968 5.99961 0
M  V30 2117 H 198.2 0.837052 4.77621 0
M  V30 2118 N 199.544 -1.57102 0.125237 0
M  V30 2119 C 200.476 -2.12726 -0.853237 0
M  V30 2120 C 201.489 -1.07145 -1.22571 0
M  V30 2121 O 202.678 -1.34497 -1.17358 0
M  V30 2122 C 199.778 -2.61709 -2.15317 0
M  V30 2123 C 198.951 -3.91456 -1.95143 0
M  V30 2124 C 198.01 -4.25973 -3.08923 0
M  V30 2125 O 197.036 -4.94682 -2.81564 0
M  V30 2126 N 198.238 -3.83795 -4.35524 0
M  V30 2127 H 201.003 -2.97307 -0.377964 0
M  V30 2128 H 198.564 -1.61792 -0.0590011 0
M  V30 2129 H 200.556 -2.81826 -2.90441 0
M  V30 2130 H 199.126 -1.81974 -2.54174 0
M  V30 2131 H 198.346 -3.80185 -1.04177 0
M  V30 2132 H 199.634 -4.76283 -1.78976 0
M  V30 2133 H 199.032 -3.2839 -4.60626 0
M  V30 2134 H 197.589 -4.09008 -5.07499 0
M  V30 2135 N 201.022 0.148545 -1.56898 0
M  V30 2136 C 202.268 0.862694 -1.83536 0
M  V30 2137 C 202.601 1.80889 -0.706604 0
M  V30 2138 O 201.876 1.92328 0.289885 0
M  V30 2139 C 202.159 1.63853 -3.20662 0
M  V30 2140 C 202.012 0.713925 -4.44098 0
M  V30 2141 C 203.331 2.60133 -3.54991 0
M  V30 2142 H 200.45 0.312179 -0.667618 0
M  V30 2143 H 203.092 0.127953 -1.89569 0
M  V30 2144 H 201.242 2.26489 -3.1565 0
M  V30 2145 H 202.914 0.098686 -4.61194 0
M  V30 2146 H 201.157 0.0234019 -4.33794 0
M  V30 2147 H 201.828 1.29278 -5.36648 0
M  V30 2148 H 204.304 2.07616 -3.60603 0
M  V30 2149 H 203.18 3.11468 -4.51972 0
M  V30 2150 H 203.441 3.41417 -2.80868 0
M  V30 2151 N 202.5 1.5196 0.417844 0
M  V30 2152 C 203.433 1.69387 1.52916 0
M  V30 2153 C 204.411 0.541419 1.53321 0
M  V30 2154 O 205.595 0.767695 1.72159 0
M  V30 2155 C 202.722 1.72525 2.91467 0
M  V30 2156 C 201.768 2.93967 3.09008 0
M  V30 2157 S 202.601 4.54461 2.83242 0
M  V30 2158 C 203.757 4.60372 4.24038 0
M  V30 2159 H 203.99 2.63382 1.37903 0
M  V30 2160 H 201.523 1.41889 0.608845 0
M  V30 2161 H 203.481 1.75018 3.7132 0
M  V30 2162 H 202.142 0.796733 3.03827 0
M  V30 2163 H 201.335 2.92619 4.10353 0
M  V30 2164 H 200.937 2.89316 2.37007 0
M  V30 2165 H 203.229 4.37213 5.17544 0
M  V30 2166 H 204.172 5.62273 4.30412 0
M  V30 2167 H 204.58 3.89492 4.08602 0
M  V30 2168 N 203.978 -0.674533 1.42435 0
M  V30 2169 C 205.255 -1.4305 1.33402 0
M  V30 2170 C 205.635 -2.11081 -0.0284674 0
M  V30 2171 O 204.983 -2.03257 -1.04397 0
M  V30 2172 C 205.193 -2.43272 2.50239 0
M  V30 2173 C 206.541 -3.07907 2.92367 0
M  V30 2174 O 207.565 -2.53599 2.50132 0
M  V30 2175 O 206.424 -4.0632 3.65467 0
M  V30 2176 H 203.518 -0.638076 0.526106 0
M  V30 2177 H 206.064 -0.703235 1.54443 0
M  V30 2178 H 204.836 -1.91803 3.41068 0
M  V30 2179 H 204.459 -3.23479 2.31186 0
M  V30 2180 N 205.456 -1.28612 -0.910864 0
M  V30 2181 C 206.403 -1.12786 -2.01365 0
M  V30 2182 C 207.373 -0.024201 -1.66082 0
M  V30 2183 O 208.558 -0.189667 -1.89855 0
M  V30 2184 C 205.698 -0.798743 -3.35729 0
M  V30 2185 C 204.811 -1.98173 -3.83864 0
M  V30 2186 C 203.946 -1.59298 -5.06752 0
M  V30 2187 C 202.985 -2.74245 -5.47226 0
M  V30 2188 N 202.122 -2.35842 -6.61304 0
M  V30 2189 H 206.962 -2.07142 -2.14234 0
M  V30 2190 H 204.499 -1.03093 -1.0493 0
M  V30 2191 H 206.457 -0.588662 -4.13026 0
M  V30 2192 H 205.087 0.10789 -3.2262 0
M  V30 2193 H 204.139 -2.30386 -3.02699 0
M  V30 2194 H 205.451 -2.84343 -4.09818 0
M  V30 2195 H 204.605 -1.34513 -5.916 0
M  V30 2196 H 203.344 -0.702618 -4.82612 0
M  V30 2197 H 202.349 -2.99725 -4.60918 0
M  V30 2198 H 203.574 -3.63928 -5.73353 0
M  V30 2199 H 201.52 -1.49279 -6.38789 0
M  V30 2200 H 201.437 -3.15546 -6.86998 0
M  V30 2201 H 202.705 -2.14348 -7.4945 0
M  V30 2202 N 206.934 1.1197 -1.10907 0
M  V30 2203 C 208.183 1.82947 -0.849302 0
M  V30 2204 C 208.496 1.85275 0.627112 0
M  V30 2205 O 209.702 2.52296 1.00295 0
M  V30 2206 C 208.158 3.28529 -1.46959 0
M  V30 2207 C 207.766 3.34546 -2.97965 0
M  V30 2208 C 209.51 4.04443 -1.28942 0
M  V30 2209 C 207.417 4.74491 -3.53004 0
M  V30 2210 H 206.347 0.685477 -0.314065 0
M  V30 2211 H 208.998 1.2604 -1.33365 0
M  V30 2212 H 207.38 3.85333 -0.912917 0
M  V30 2213 H 208.554 2.87654 -3.59989 0
M  V30 2214 H 206.869 2.72108 -3.15192 0
M  V30 2215 H 209.466 5.07787 -1.67502 0
M  V30 2216 H 209.809 4.15656 -0.231456 0
M  V30 2217 H 210.342 3.5401 -1.81443 0
M  V30 2218 H 207.081 4.68474 -4.58489 0
M  V30 2219 H 206.601 5.21816 -2.9575 0
M  V30 2220 H 208.28 5.4344 -3.51115 0
M  V30 2221 N 208.412 0.89855 1.29475 0
M  V30 2222 C 209.658 0.524658 1.95896 0
M  V30 2223 C 209.991 -0.926468 1.70676 0
M  V30 2224 O 209.266 -1.65665 1.01908 0
M  V30 2225 C 209.549 0.81633 3.50725 0
M  V30 2226 C 209.402 2.31907 3.85408 0
M  V30 2227 C 210.721 0.302038 4.39062 0
M  V30 2228 H 207.84 0.19209 0.711527 0
M  V30 2229 H 210.482 1.12502 1.53112 0
M  V30 2230 H 208.632 0.305369 3.87298 0
M  V30 2231 H 210.304 2.89949 3.58786 0
M  V30 2232 H 208.547 2.78027 3.32992 0
M  V30 2233 H 209.218 2.47373 4.93468 0
M  V30 2234 H 211.694 0.739551 4.09475 0
M  V30 2235 H 210.57 0.535331 5.46283 0
M  V30 2236 H 210.831 -0.797216 4.34853 0
M  V30 2237 N 209.89 -1.43072 0.660911 0
M  V30 2238 C 210.853 -2.29194 -0.0166406 0
M  V30 2239 C 211.853 -1.42609 -0.742912 0
M  V30 2240 O 213.043 -1.64155 -0.583004 0
M  V30 2241 C 210.175 -3.24831 -1.0343 0
M  V30 2242 H 211.368 -2.90596 0.741208 0
M  V30 2243 H 208.921 -1.5048 0.422532 0
M  V30 2244 H 209.656 -2.68339 -1.82111 0
M  V30 2245 H 209.441 -3.88676 -0.517082 0
M  V30 2246 H 210.931 -3.89451 -1.50723 0
M  V30 2247 N 211.368 -0.403325 -1.52352 0
M  V30 2248 C 212.598 0.17376 -2.05868 0
M  V30 2249 C 213.006 1.39898 -1.27378 0
M  V30 2250 O 212.349 1.80939 -0.31729 0
M  V30 2251 C 212.411 0.594756 -3.54546 0
M  V30 2252 C 212.075 -0.518926 -4.54044 0
M  V30 2253 C 213.072 -1.3807 -5.01231 0
M  V30 2254 C 210.757 -0.689961 -4.97539 0
M  V30 2255 C 212.751 -2.39852 -5.90551 0
M  V30 2256 C 210.438 -1.71109 -5.86656 0
M  V30 2257 C 211.436 -2.56378 -6.33056 0
M  V30 2258 O 211.124 -3.56743 -7.20409 0
M  V30 2259 H 210.856 0.0264951 -0.675481 0
M  V30 2260 H 213.41 -0.571179 -1.97299 0
M  V30 2261 H 211.64 1.39189 -3.60782 0
M  V30 2262 H 213.329 1.0991 -3.90736 0
M  V30 2263 H 214.095 -1.25994 -4.68349 0
M  V30 2264 H 209.974 -0.035939 -4.60986 0
M  V30 2265 H 213.518 -3.06441 -6.26689 0
M  V30 2266 H 209.415 -1.83218 -6.18952 0
M  V30 2267 H 210.183 -3.52918 -7.38506 0
M  V30 2268 N 212.846 1.57033 -0.133567 0
M  V30 2269 C 213.809 2.14897 0.796995 0
M  V30 2270 C 214.809 1.0874 1.18458 0
M  V30 2271 O 215.999 1.34446 1.1077 0
M  V30 2272 C 213.131 2.70112 2.07973 0
M  V30 2273 H 214.324 2.98457 0.293873 0
M  V30 2274 H 211.877 1.55871 0.115787 0
M  V30 2275 H 212.612 1.9018 2.62682 0
M  V30 2276 H 212.397 3.47764 1.81115 0
M  V30 2277 H 213.887 3.14738 2.74462 0
M  V30 2278 N 214.325 -0.140222 1.56975 0
M  V30 2279 C 215.573 -0.850005 1.83356 0
M  V30 2280 C 215.894 -1.81399 0.71551 0
M  V30 2281 O 215.164 -1.94136 -0.262294 0
M  V30 2282 H 213.744 -0.316886 0.676456 0
M  V30 2283 H 216.406 -0.132608 1.94448 0
M  V30 2284 H 215.502 -1.40814 2.78528 0
M  V30 2285 N 215.803 -1.52179 -0.40978 0
M  V30 2286 C 216.735 -1.71703 -1.51825 0
M  V30 2287 C 217.748 -0.597445 -1.51441 0
M  V30 2288 O 218.937 -0.872582 -1.55719 0
M  V30 2289 C 216.037 -1.74171 -2.90719 0
M  V30 2290 C 215.21 -3.03156 -3.15302 0
M  V30 2291 C 214.269 -2.97445 -4.34065 0
M  V30 2292 O 213.295 -3.71352 -4.31377 0
M  V30 2293 N 214.497 -2.15191 -5.39141 0
M  V30 2294 H 217.262 -2.67334 -1.35472 0
M  V30 2295 H 214.823 -1.50409 -0.599069 0
M  V30 2296 H 216.815 -1.67884 -3.68235 0
M  V30 2297 H 215.385 -0.860166 -3.00533 0
M  V30 2298 H 214.605 -3.23097 -2.25836 0
M  V30 2299 H 215.893 -3.88484 -3.28569 0
M  V30 2300 H 215.291 -1.54573 -5.44173 0
M  V30 2301 H 213.848 -2.1476 -6.15403 0
M  V30 2302 N 217.281 0.66697 -1.42791 0
M  V30 2303 C 218.53 1.42278 -1.42968 0
M  V30 2304 C 218.843 1.9553 -0.0524489 0
M  V30 2305 O 220.049 2.71414 0.068363 0
M  V30 2306 C 218.505 2.57418 -2.51524 0
M  V30 2307 C 218.113 2.10832 -3.9529 0
M  V30 2308 C 219.857 3.34878 -2.60877 0
M  V30 2309 C 217.764 3.23101 -4.95338 0
M  V30 2310 H 216.694 0.534533 -0.531781 0
M  V30 2311 H 219.345 0.721302 -1.68729 0
M  V30 2312 H 217.727 3.29971 -2.18941 0
M  V30 2313 H 218.901 1.4538 -4.37266 0
M  V30 2314 H 217.216 1.46289 -3.89857 0
M  V30 2315 H 219.813 4.18505 -3.32802 0
M  V30 2316 H 220.156 3.81993 -1.6549 0
M  V30 2317 H 220.689 2.69398 -2.92693 0
M  V30 2318 H 217.428 2.80969 -5.9223 0
M  V30 2319 H 216.948 3.87309 -4.57987 0
M  V30 2320 H 218.627 3.88447 -5.17415 0
M  V30 2321 N 218.759 1.29093 0.90403 0
M  V30 2322 C 220.007 1.16583 1.65085 0
M  V30 2323 C 220.328 -0.283933 1.92922 0
M  V30 2324 O 219.598 -1.19509 1.55224 0
M  V30 2325 H 218.178 0.428467 0.611903 0
M  V30 2326 H 220.84 1.61959 1.08422 0
M  V30 2327 H 219.936 1.71266 2.6091 0
M  V30 2328 N 220.237 -1.11381 1.11499 0
M  V30 2329 C 221.167 -2.19509 0.796125 0
M  V30 2330 C 222.148 -1.68458 -0.235796 0
M  V30 2331 O 223.333 -1.93947 -0.0991344 0
M  V30 2332 C 220.463 -3.46475 0.239205 0
M  V30 2333 C 219.417 -4.10744 1.20307 0
M  V30 2334 C 218.743 -5.32293 0.50683 0
M  V30 2335 C 220.043 -4.55597 2.55399 0
M  V30 2336 H 221.737 -2.46439 1.70024 0
M  V30 2337 H 219.283 -1.18446 0.818935 0
M  V30 2338 H 221.236 -4.214 0.00392006 0
M  V30 2339 H 219.96 -3.19006 -0.700206 0
M  V30 2340 H 218.619 -3.37813 1.42399 0
M  V30 2341 H 218.267 -5.01095 -0.437408 0
M  V30 2342 H 217.967 -5.76243 1.1497 0
M  V30 2343 H 219.491 -6.09956 0.280351 0
M  V30 2344 H 220.905 -5.21841 2.37391 0
M  V30 2345 H 219.302 -5.10363 3.15673 0
M  V30 2346 H 220.372 -3.69013 3.14575 0
M  V30 2347 N 221.715 -0.905404 -1.28997 0
M  V30 2348 C 223.131 -0.60233 -1.47798 0
M  V30 2349 C 223.331 0.854645 -1.82478 0
M  V30 2350 O 222.387 1.63439 -1.92468 0
M  V30 2351 C 223.7 -1.53306 -2.58685 0
M  V30 2352 C 225.248 -1.53887 -2.72558 0
M  V30 2353 C 225.723 -2.45602 -3.86579 0
M  V30 2354 N 227.214 -2.43681 -3.93921 0
M  V30 2355 C 227.949 -3.11347 -4.81509 0
M  V30 2356 N 227.445 -3.88313 -5.73746 0
M  V30 2357 N 229.238 -3.00476 -4.75048 0
M  V30 2358 H 221.389 -1.84765 -1.04764 0
M  V30 2359 H 223.652 -0.792025 -0.520961 0
M  V30 2360 H 223.358 -2.57141 -2.39941 0
M  V30 2361 H 223.232 -1.25787 -3.55609 0
M  V30 2362 H 225.619 -0.507941 -2.90696 0
M  V30 2363 H 225.7 -1.85447 -1.76191 0
M  V30 2364 H 225.344 -3.48792 -3.69197 0
M  V30 2365 H 225.274 -2.11349 -4.82327 0
M  V30 2366 H 227.765 -1.87767 -3.27951 0
M  V30 2367 H 228.078 -4.36985 -6.37389 0
M  V30 2368 H 226.423 -3.92419 -5.73614 0
M  V30 2369 H 229.614 -2.39858 -4.01977 0
M  V30 2370 H 229.787 -3.53485 -5.43095 0
M  V30 2371 N 223.193 1.4272 -0.668489 0
M  V30 2372 C 224.442 2.00846 -0.185389 0
M  V30 2373 C 224.755 1.53442 1.21305 0
M  V30 2374 O 225.961 2.03944 1.79218 0
M  V30 2375 C 224.417 3.58805 -0.280591 0
M  V30 2376 C 224.025 4.15198 -1.68268 0
M  V30 2377 C 225.769 4.24255 0.14412 0
M  V30 2378 C 223.676 5.655 -1.73099 0
M  V30 2379 H 222.606 0.751145 -0.0655475 0
M  V30 2380 H 225.257 1.63516 -0.832752 0
M  V30 2381 H 223.639 3.93608 0.434553 0
M  V30 2382 H 224.813 3.91866 -2.42441 0
M  V30 2383 H 223.128 3.62176 -2.05469 0
M  V30 2384 H 225.725 5.34547 0.128086 0
M  V30 2385 H 226.068 3.99277 1.17827 0
M  V30 2386 H 226.601 3.94389 -0.519798 0
M  V30 2387 H 223.34 5.95268 -2.74475 0
M  V30 2388 H 222.86 5.90842 -1.03274 0
M  V30 2389 H 224.539 6.29808 -1.48158 0
M  V30 2390 N 224.671 0.411399 1.52136 0
M  V30 2391 C 225.92 -0.165009 2.01024 0
M  V30 2392 C 226.233 -1.4603 1.30133 0
M  V30 2393 O 227.439 -2.1181 1.69849 0
M  V30 2394 C 225.895 -0.344618 3.58246 0
M  V30 2395 C 225.503 0.938716 4.38055 0
M  V30 2396 C 227.247 -0.876195 4.15359 0
M  V30 2397 C 225.154 0.726172 5.86925 0
M  V30 2398 H 224.084 -0.0654407 0.751155 0
M  V30 2399 H 226.735 0.537192 1.75461 0
M  V30 2400 H 225.117 -1.10921 3.80148 0
M  V30 2401 H 226.291 1.70963 4.27912 0
M  V30 2402 H 224.606 1.39688 3.92271 0
M  V30 2403 H 227.203 -1.05128 5.24263 0
M  V30 2404 H 227.546 -1.85152 3.7286 0
M  V30 2405 H 228.079 -0.170607 3.97434 0
M  V30 2406 H 224.818 1.67312 6.33788 0
M  V30 2407 H 224.338 -0.00540283 5.998 0
M  V30 2408 H 226.017 0.369231 6.45946 0
M  V30 2409 N 226.149 -1.5696 0.141893 0
M  V30 2410 C 227.079 -2.19516 -0.795936 0
M  V30 2411 C 228.06 -1.14187 -1.26077 0
M  V30 2412 O 229.245 -1.42511 -1.31925 0
M  V30 2413 C 226.375 -2.81272 -2.03723 0
M  V30 2414 C 225.329 -3.92384 -1.70936 0
M  V30 2415 C 224.655 -4.41052 -3.02287 0
M  V30 2416 C 225.955 -5.13403 -0.959954 0
M  V30 2417 H 227.649 -2.98138 -0.274596 0
M  V30 2418 H 225.195 -1.43406 -0.130636 0
M  V30 2419 H 227.148 -3.237 -2.69808 0
M  V30 2420 H 225.872 -1.99973 -2.58221 0
M  V30 2421 H 224.531 -3.50566 -1.07232 0
M  V30 2422 H 224.179 -3.56582 -3.54765 0
M  V30 2423 H 223.879 -5.15993 -2.81114 0
M  V30 2424 H 225.403 -4.86146 -3.69451 0
M  V30 2425 H 226.817 -5.52706 -1.52279 0
M  V30 2426 H 225.214 -5.94073 -0.848357 0
M  V30 2427 H 226.284 -4.84875 0.0492434 0
M  V30 2428 N 227.627 0.131896 -1.57047 0
M  V30 2429 C 228.904 0.871495 -1.75112 0
M  V30 2430 C 229.284 1.9866 -0.713949 0
M  V30 2431 O 228.632 2.26965 0.264447 0
M  V30 2432 C 228.842 1.40007 -3.19686 0
M  V30 2433 C 230.19 1.85752 -3.81813 0
M  V30 2434 O 231.214 1.49715 -3.23209 0
M  V30 2435 O 230.073 2.5226 -4.84796 0
M  V30 2436 H 227.167 0.412919 -0.716538 0
M  V30 2437 H 229.713 0.116641 -1.69299 0
M  V30 2438 H 228.485 0.599404 -3.86682 0
M  V30 2439 H 228.108 2.218 -3.29986 0
M  V30 2440 N 229.106 1.52395 0.401703 0
M  V30 2441 C 230.522 1.41363 0.740864 0
M  V30 2442 C 230.722 0.523982 1.94568 0
M  V30 2443 O 229.778 -0.00741204 2.52499 0
M  V30 2444 C 231.091 2.84011 0.987847 0
M  V30 2445 C 232.639 2.93404 1.09011 0
M  V30 2446 C 233.114 4.37036 1.3698 0
M  V30 2447 N 234.605 4.40304 1.43829 0
M  V30 2448 C 235.34 5.48508 1.67112 0
M  V30 2449 N 234.836 6.66819 1.87949 0
M  V30 2450 N 236.629 5.36034 1.69187 0
M  V30 2451 H 228.78 2.08765 -0.391262 0
M  V30 2452 H 231.043 0.941265 -0.112798 0
M  V30 2453 H 230.749 3.51265 0.174835 0
M  V30 2454 H 230.623 3.25502 1.906 0
M  V30 2455 H 233.01 2.26325 1.8937 0
M  V30 2456 H 233.091 2.55359 0.15015 0
M  V30 2457 H 232.735 5.04676 0.571353 0
M  V30 2458 H 232.665 4.72623 2.3224 0
M  V30 2459 H 235.156 3.55024 1.29486 0
M  V30 2460 H 235.469 7.45063 2.05185 0
M  V30 2461 H 233.814 6.6987 1.85199 0
M  V30 2462 H 237.005 4.42579 1.52451 0
M  V30 2463 H 237.178 6.20434 1.86993 0
M  V30 2464 N 230.584 -0.659388 1.43143 0
M  V30 2465 C 231.534 -1.7655 1.44271 0
M  V30 2466 C 232.518 -1.57847 0.311961 0
M  V30 2467 O 233.71 -1.68064 0.555306 0
M  V30 2468 C 230.839 -3.15104 1.36251 0
M  V30 2469 C 229.925 -3.39377 2.54331 0
M  V30 2470 N 230.316 -3.34153 3.79704 0
M  V30 2471 C 228.614 -3.70072 2.48922 0
M  V30 2472 C 229.315 -3.58337 4.58225 0
M  V30 2473 N 228.291 -3.79851 3.88863 0
M  V30 2474 H 232.093 -1.70928 2.39083 0
M  V30 2475 H 229.607 -0.860823 1.37708 0
M  V30 2476 H 231.604 -3.94389 1.35141 0
M  V30 2477 H 230.264 -3.21913 0.424531 0
M  V30 2478 H 231.275 -3.13704 4.1208 0
M  V30 2479 H 227.952 -3.84034 1.63781 0
M  V30 2480 H 229.342 -3.60129 5.67236 0
M  V30 2481 N 232.062 -1.29571 -0.897171 0
M  V30 2482 C 233.478 -1.07637 -1.17841 0
M  V30 2483 C 233.678 0.170713 -2.00776 0
M  V30 2484 O 232.734 0.867768 -2.3712 0
M  V30 2485 C 234.047 -2.3332 -1.8969 0
M  V30 2486 C 235.595 -2.38664 -2.02505 0
M  V30 2487 C 236.07 -3.64157 -2.77765 0
M  V30 2488 N 237.561 -3.64894 -2.85318 0
M  V30 2489 C 238.296 -4.58679 -3.44094 0
M  V30 2490 N 237.792 -5.62799 -4.04017 0
M  V30 2491 N 239.585 -4.46245 -3.41793 0
M  V30 2492 H 231.736 -2.09598 -0.343883 0
M  V30 2493 H 233.999 -0.923333 -0.214848 0
M  V30 2494 H 233.705 -3.24262 -1.36187 0
M  V30 2495 H 233.579 -2.41025 -2.9015 0
M  V30 2496 H 235.966 -1.48208 -2.55183 0
M  V30 2497 H 236.047 -2.34943 -1.01171 0
M  V30 2498 H 235.691 -4.54965 -2.25763 0
M  V30 2499 H 235.621 -3.65137 -3.7945 0
M  V30 2500 H 238.112 -2.89613 -2.42761 0
M  V30 2501 H 238.425 -6.3048 -4.46895 0
M  V30 2502 H 236.77 -5.66605 -4.02472 0
M  V30 2503 H 239.961 -3.64094 -2.94199 0
M  V30 2504 H 240.134 -5.19518 -3.87304 0
M  V30 2505 N 233.54 1.10788 -1.12088 0
M  V30 2506 C 234.951 1.64181 -0.88891 0
M  V30 2507 C 235.302 1.87508 0.577498 0
M  V30 2508 O 234.427 1.61434 1.44112 0
M  V30 2509 C 235.022 2.98257 -1.60712 0
M  V30 2510 C 233.581 3.4853 -1.42139 0
M  V30 2511 C 232.728 2.23208 -1.6454 0
M  V30 2512 H 235.679 0.943368 -1.27618 0
M  V30 2513 H 235.7 3.65552 -1.05604 0
M  V30 2514 H 235.212 2.81246 -2.67436 0
M  V30 2515 H 233.313 3.70692 -0.376552 0
M  V30 2516 H 233.426 4.26882 -2.17505 0
M  V30 2517 H 231.79 2.31169 -1.06925 0
M  V30 2518 H 232.573 2.08733 -2.72554 0
M  V30 2519 N 235.018 0.912232 1.28515 0
M  V30 2520 C 236.295 0.463597 1.90027 0
M  V30 2521 C 236.675 -1.05753 1.82701 0
M  V30 2522 O 236.023 -1.90492 1.26194 0
M  V30 2523 C 236.233 0.992253 3.34597 0
M  V30 2524 C 237.581 1.04344 4.11579 0
M  V30 2525 O 238.605 0.94079 3.43551 0
M  V30 2526 O 237.464 1.1995 5.33174 0
M  V30 2527 H 234.558 0.146666 0.813891 0
M  V30 2528 H 237.104 1.00292 1.36893 0
M  V30 2529 H 235.876 2.03623 3.34146 0
M  V30 2530 H 235.499 0.433672 3.95228 0
M  V30 2531 N 236.496 -1.42363 0.676048 0
M  V30 2532 C 237.736 -2.03392 0.20273 0
M  V30 2533 C 238.1 -1.52306 -1.16906 0
M  V30 2534 O 239.301 -2.05129 -1.73711 0
M  V30 2535 C 237.572 -3.56614 0.236947 0
M  V30 2536 S 239.131 -4.38489 -0.165186 0
M  V30 2537 H 235.949 -0.70611 0.0832418 0
M  V30 2538 H 238.551 -1.74093 0.88948 0
M  V30 2539 H 237.255 -3.91293 1.23767 0
M  V30 2540 H 236.786 -3.90587 -0.469596 0
M  V30 2541 H 238.801 -4.76093 -1.39822 0
M  V30 2542 N 237.974 -0.419461 -1.51915 0
M  V30 2543 C 239.199 0.154572 -2.06823 0
M  V30 2544 C 239.624 1.3722 -1.28656 0
M  V30 2545 O 238.982 1.78461 -0.319583 0
M  V30 2546 C 239.03 0.473172 -3.57482 0
M  V30 2547 O 238.134 1.56255 -3.81652 0
M  V30 2548 H 237.475 0.0096924 -0.663929 0
M  V30 2549 H 240.005 -0.595642 -1.95738 0
M  V30 2550 H 240.015 0.728825 -4.01438 0
M  V30 2551 H 238.69 -0.416873 -4.13805 0
M  V30 2552 H 237.267 1.29825 -3.49571 0
M  V30 2553 N 239.452 1.56882 -0.150215 0
M  V30 2554 C 240.7 1.9584 0.499105 0
M  V30 2555 C 241.021 1.03623 1.65188 0
M  V30 2556 O 240.291 0.0984084 1.95653 0
M  V30 2557 H 238.871 0.723119 0.187373 0
M  V30 2558 H 241.533 1.9358 -0.226466 0
M  V30 2559 H 240.629 2.99638 0.873122 0
M  V30 2560 N 240.93 -0.123565 1.57115 0
M  V30 2561 C 241.862 -1.17739 1.96648 0
M  V30 2562 C 242.875 -1.37906 0.865201 0
M  V30 2563 O 244.064 -1.37062 1.14351 0
M  V30 2564 C 241.164 -2.53821 2.24562 0
M  V30 2565 C 240.337 -2.54317 3.55867 0
M  V30 2566 C 239.396 -3.72112 3.72047 0
M  V30 2567 O 238.422 -3.55907 4.44206 0
M  V30 2568 N 239.624 -4.90498 3.10471 0
M  V30 2569 H 242.389 -0.841147 2.87654 0
M  V30 2570 H 239.95 -0.31289 1.58848 0
M  V30 2571 H 241.942 -3.31175 2.32606 0
M  V30 2572 H 240.512 -2.79645 1.39705 0
M  V30 2573 H 239.732 -1.62711 3.59053 0
M  V30 2574 H 241.02 -2.51701 4.42181 0
M  V30 2575 H 240.418 -5.06567 2.51806 0
M  V30 2576 H 238.975 -5.65544 3.24043 0
M  V30 2577 N 242.408 -1.52605 -0.393616 0
M  V30 2578 C 243.633 -1.71592 -1.16495 0
M  V30 2579 C 244.058 -0.43133 -1.83088 0
M  V30 2580 O 243.416 0.612523 -1.7064 0
M  V30 2581 C 243.464 -2.86318 -2.19213 0
M  V30 2582 O 242.568 -2.52969 -3.257 0
M  V30 2583 H 241.909 -0.570734 -0.33935 0
M  V30 2584 H 244.439 -1.99377 -0.459324 0
M  V30 2585 H 244.449 -3.1168 -2.63286 0
M  V30 2586 H 243.124 -3.79511 -1.7013 0
M  V30 2587 H 241.701 -2.38332 -2.86797 0
M  V30 2588 N 243.887 0.651787 -1.4349 0
M  V30 2589 C 244.85 1.74647 -1.48429 0
M  V30 2590 C 245.85 1.56513 -0.368817 0
M  V30 2591 O 247.04 1.62385 -0.630623 0
M  V30 2592 C 244.172 3.13533 -1.33827 0
M  V30 2593 H 245.365 1.71649 -2.4592 0
M  V30 2594 H 242.918 0.863573 -1.30277 0
M  V30 2595 H 243.653 3.22142 -0.37349 0
M  V30 2596 H 243.438 3.28101 -2.14691 0
M  V30 2597 H 244.928 3.93356 -1.40218 0
M  V30 2598 N 245.365 1.30045 0.890287 0
M  V30 2599 C 246.295 1.18541 2.01172 0
M  V30 2600 C 247.276 0.0773356 1.69924 0
M  V30 2601 O 248.461 0.25845 1.92473 0
M  V30 2602 C 245.591 0.870941 3.36202 0
M  V30 2603 C 244.545 1.93637 3.81692 0
M  V30 2604 C 243.871 1.475 5.13953 0
M  V30 2605 C 245.171 3.34666 4.00994 0
M  V30 2606 H 246.865 2.12359 2.11054 0
M  V30 2607 H 244.411 1.02238 1.01407 0
M  V30 2608 H 246.364 0.777141 4.14172 0
M  V30 2609 H 245.088 -0.102926 3.26438 0
M  V30 2610 H 243.747 2.01972 3.05946 0
M  V30 2611 H 243.395 0.489551 5.00612 0
M  V30 2612 H 243.095 2.1876 5.4536 0
M  V30 2613 H 244.619 1.39489 5.94454 0
M  V30 2614 H 246.033 3.2912 4.69417 0
M  V30 2615 H 244.43 4.03966 4.43769 0
M  V30 2616 H 245.5 3.76949 3.05021 0
M  V30 2617 N 246.843 -1.10192 1.12674 0
M  V30 2618 C 248.089 -1.82658 0.894847 0
M  V30 2619 C 248.444 -1.83666 -0.573107 0
M  V30 2620 O 247.737 -1.28816 -1.41835 0
M  V30 2621 C 247.931 -3.28552 1.4067 0
M  V30 2622 C 247.76 -3.41756 2.92289 0
M  V30 2623 C 246.53 -3.54021 3.60551 0
M  V30 2624 C 248.728 -3.34949 3.90274 0
M  V30 2625 N 246.71 -3.55827 5.0026 0
M  V30 2626 C 248.081 -3.43531 5.16127 0
M  V30 2627 C 250.136 -3.18565 3.8265 0
M  V30 2628 C 248.839 -3.37416 6.3525 0
M  V30 2629 C 250.865 -3.13772 5.01299 0
M  V30 2630 C 250.227 -3.22938 6.26012 0
M  V30 2631 H 246.326 -0.683044 0.380756 0
M  V30 2632 H 248.91 -1.31752 1.43351 0
M  V30 2633 H 247.081 -3.77946 0.895055 0
M  V30 2634 H 248.813 -3.88991 1.11661 0
M  V30 2635 H 245.568 -3.57135 3.1105 0
M  V30 2636 H 245.992 -3.60335 5.73138 0
M  V30 2637 H 250.634 -3.10354 2.87124 0
M  V30 2638 H 248.352 -3.44391 7.3104 0
M  V30 2639 H 251.938 -3.02242 4.97133 0
M  V30 2640 H 250.818 -3.19235 7.16281 0
M  V30 2641 N 248.321 -0.919034 -1.28029 0
M  V30 2642 C 249.551 -0.570143 -1.98577 0
M  V30 2643 C 249.959 0.854172 -1.68821 0
M  V30 2644 O 249.302 1.57807 -0.940351 0
M  V30 2645 C 249.364 -0.705734 -3.52505 0
M  V30 2646 C 249.028 -2.10057 -4.05863 0
M  V30 2647 C 250.025 -3.07385 -4.19298 0
M  V30 2648 C 247.71 -2.41517 -4.40426 0
M  V30 2649 C 249.704 -4.34287 -4.66555 0
M  V30 2650 C 247.391 -3.68657 -4.87376 0
M  V30 2651 C 248.389 -4.64856 -5.00398 0
M  V30 2652 O 248.077 -5.89735 -5.46322 0
M  V30 2653 H 247.809 -0.215592 -0.6407 0
M  V30 2654 H 250.363 -1.23583 -1.64062 0
M  V30 2655 H 248.593 0.0170414 -3.86696 0
M  V30 2656 H 250.282 -0.363172 -4.04272 0
M  V30 2657 H 251.048 -2.84398 -3.92865 0
M  V30 2658 H 246.927 -1.67389 -4.29537 0
M  V30 2659 H 250.471 -5.09377 -4.76635 0
M  V30 2660 H 246.368 -3.91466 -5.13249 0
M  V30 2661 H 247.136 -5.92599 -5.64596 0
M  V30 2662 N 249.799 1.42003 -0.683588 0
M  V30 2663 C 251.027 2.05746 -0.218182 0
M  V30 2664 C 251.442 1.51396 1.12804 0
M  V30 2665 O 250.799 0.657303 1.70252 0
M  V30 2666 C 250.85 3.61171 -0.154131 0
M  V30 2667 O 250.571 4.13508 -1.44716 0
M  V30 2668 C 252.072 4.42042 0.333713 0
M  V30 2669 H 249.292 0.662888 -0.10402 0
M  V30 2670 H 251.836 1.81987 -0.9328 0
M  V30 2671 H 249.991 3.84012 0.511231 0
M  V30 2672 H 250.405 5.07453 -1.32632 0
M  V30 2673 H 251.879 5.51028 0.327423 0
M  V30 2674 H 252.356 4.17269 1.37053 0
M  V30 2675 H 252.962 4.24239 -0.300222 0
M  V30 2676 N 251.277 0.427512 1.51691 0
M  V30 2677 C 252.502 -0.143601 2.06902 0
M  V30 2678 C 252.927 -1.36536 1.29382 0
M  V30 2679 O 252.285 -1.78289 0.329043 0
M  V30 2680 C 252.333 -0.454207 3.57728 0
M  V30 2681 O 251.437 -1.54228 3.82475 0
M  V30 2682 H 250.778 -0.00617128 0.663971 0
M  V30 2683 H 253.308 0.606014 1.95419 0
M  V30 2684 H 253.318 -0.707525 4.01818 0
M  V30 2685 H 251.993 0.438812 4.13579 0
M  V30 2686 H 250.57 -1.2797 3.50254 0
M  V30 2687 N 252.755 -1.56801 0.158532 0
M  V30 2688 C 253.98 -2.01295 -0.499516 0
M  V30 2689 C 254.405 -1.03799 -1.56867 0
M  V30 2690 O 253.763 -0.0155162 -1.81293 0
M  V30 2691 C 253.811 -3.44469 -1.06647 0
M  V30 2692 O 252.915 -3.50012 -2.18095 0
M  V30 2693 H 252.256 -0.652884 -0.12099 0
M  V30 2694 H 254.786 -2.02958 0.258661 0
M  V30 2695 H 254.796 -3.8351 -1.39227 0
M  V30 2696 H 253.471 -4.14932 -0.283581 0
M  V30 2697 H 252.048 -3.22822 -1.86656 0
M  V30 2698 N 254.233 0.115231 -1.57178 0
M  V30 2699 C 255.479 0.82357 -1.85325 0
M  V30 2700 C 255.812 1.79349 -0.744814 0
M  V30 2701 O 255.087 1.92899 0.249024 0
M  V30 2702 C 255.37 1.57014 -3.24066 0
M  V30 2703 C 255.223 0.619565 -4.45513 0
M  V30 2704 C 256.542 2.52545 -3.60429 0
M  V30 2705 H 253.661 0.297948 -0.674089 0
M  V30 2706 H 256.303 0.0877138 -1.89797 0
M  V30 2707 H 254.453 2.19742 -3.20383 0
M  V30 2708 H 256.125 0.000837639 -4.613 0
M  V30 2709 H 254.368 -0.0686174 -4.33746 0
M  V30 2710 H 255.039 1.17866 -5.3927 0
M  V30 2711 H 257.515 1.9992 -3.64926 0
M  V30 2712 H 256.391 3.01811 -4.58477 0
M  V30 2713 H 256.652 3.35383 -2.88047 0
M  V30 2714 N 255.711 1.52812 0.385517 0
M  V30 2715 C 256.936 1.72207 1.15583 0
M  V30 2716 C 257.361 0.441034 1.82857 0
M  V30 2717 O 256.719 -0.603465 1.70962 0
M  V30 2718 C 256.767 2.87476 2.17692 0
M  V30 2719 O 255.871 2.54693 3.24354 0
M  V30 2720 H 255.212 0.572526 0.336319 0
M  V30 2721 H 257.742 1.99618 0.448744 0
M  V30 2722 H 257.752 3.13072 2.6163 0
M  V30 2723 H 256.427 3.80408 1.68115 0
M  V30 2724 H 255.004 2.3985 2.85529 0
M  V30 2725 N 257.189 -0.644168 1.43834 0
M  V30 2726 C 258.099 -1.78563 1.52159 0
M  V30 2727 C 259.115 -1.69147 0.408069 0
M  V30 2728 O 260.291 -1.90156 0.663524 0
M  V30 2729 C 257.356 -3.14888 1.45073 0
M  V30 2730 C 256.417 -3.36034 2.6717 0
M  V30 2731 C 255.65 -4.65855 2.60413 0
M  V30 2732 O 255.873 -5.45805 1.65689 0
M  V30 2733 O 254.807 -4.88918 3.5106 0
M  V30 2734 H 258.633 -1.74494 2.48567 0
M  V30 2735 H 256.218 -0.80378 1.25935 0
M  V30 2736 H 258.1 -3.96179 1.43597 0
M  V30 2737 H 256.775 -3.19528 0.518037 0
M  V30 2738 H 255.682 -2.54472 2.74217 0
M  V30 2739 H 257.015 -3.36247 3.59442 0
M  V30 2740 N 258.668 -1.30515 -0.883378 0
M  V30 2741 C 259.631 -1.1701 -1.97082 0
M  V30 2742 C 260.631 -0.10089 -1.60483 0
M  V30 2743 O 261.821 -0.349127 -1.70666 0
M  V30 2744 C 258.953 -0.793045 -3.31547 0
M  V30 2745 H 260.146 -2.13622 -2.10489 0
M  V30 2746 H 257.699 -1.13935 -1.06998 0
M  V30 2747 H 258.434 0.172499 -3.23841 0
M  V30 2748 H 258.219 -1.56576 -3.5948 0
M  V30 2749 H 259.709 -0.722073 -4.1131 0
M  V30 2750 N 260.146 1.09593 -1.13257 0
M  V30 2751 C 261.374 1.855 -0.916378 0
M  V30 2752 C 261.789 1.81069 0.534738 0
M  V30 2753 O 261.146 1.20562 1.37007 0
M  V30 2754 C 261.197 3.33546 -1.39388 0
M  V30 2755 O 260.918 3.37927 -2.78813 0
M  V30 2756 C 262.419 4.26299 -1.21588 0
M  V30 2757 H 259.639 0.585991 -0.326887 0
M  V30 2758 H 262.183 1.38488 -1.5047 0
M  V30 2759 H 260.338 3.77992 -0.848597 0
M  V30 2760 H 260.752 4.30254 -2.9997 0
M  V30 2761 H 262.226 5.28341 -1.59876 0
M  V30 2762 H 262.703 4.38918 -0.157376 0
M  V30 2763 H 263.309 3.87668 -1.7491 0
M  V30 2764 N 261.624 0.925811 1.2754 0
M  V30 2765 C 262.87 0.575575 1.95086 0
M  V30 2766 C 263.225 -0.873246 1.71441 0
M  V30 2767 O 262.518 -1.61443 1.03183 0
M  V30 2768 C 262.712 0.835296 3.47502 0
M  V30 2769 C 262.541 2.30781 3.85967 0
M  V30 2770 C 261.311 2.96017 4.09514 0
M  V30 2771 C 263.509 3.28519 3.95702 0
M  V30 2772 N 261.491 4.3344 4.34744 0
M  V30 2773 C 262.862 4.51146 4.25285 0
M  V30 2774 C 264.917 3.23753 3.7827 0
M  V30 2775 C 263.62 5.69606 4.39251 0
M  V30 2776 C 265.646 4.41523 3.9346 0
M  V30 2777 C 265.008 5.62928 4.23428 0
M  V30 2778 H 261.107 0.260711 0.737261 0
M  V30 2779 H 263.691 1.19204 1.53943 0
M  V30 2780 H 261.862 0.248005 3.87607 0
M  V30 2781 H 263.594 0.447878 4.02214 0
M  V30 2782 H 260.349 2.46695 4.04275 0
M  V30 2783 H 260.773 5.04528 4.5142 0
M  V30 2784 H 265.415 2.3096 3.54143 0
M  V30 2785 H 263.133 6.62866 4.62205 0
M  V30 2786 H 266.719 4.39351 3.81394 0
M  V30 2787 H 265.599 6.52538 4.34929 0
M  V30 2788 N 263.102 -1.41638 0.69111 0
M  V30 2789 C 264.351 -2.00526 0.217318 0
M  V30 2790 C 264.664 -1.55353 -1.18848 0
M  V30 2791 O 265.87 -2.06769 -1.75951 0
M  V30 2792 C 264.326 -3.58313 0.337639 0
M  V30 2793 C 263.934 -4.12469 1.74852 0
M  V30 2794 C 265.678 -4.24431 -0.0766066 0
M  V30 2795 C 263.585 -5.62675 1.82074 0
M  V30 2796 H 262.515 -0.750008 0.0774893 0
M  V30 2797 H 265.166 -1.6217 0.858661 0
M  V30 2798 H 263.548 -3.9425 -0.371879 0
M  V30 2799 H 264.722 -3.8796 2.48644 0
M  V30 2800 H 263.037 -3.58861 2.11205 0
M  V30 2801 H 265.634 -5.34683 -0.0430284 0
M  V30 2802 H 265.977 -4.01101 -1.1146 0
M  V30 2803 H 266.51 -3.93512 0.582476 0
M  V30 2804 H 263.249 -5.90826 2.83911 0
M  V30 2805 H 262.769 -5.89124 1.12661 0
M  V30 2806 H 264.448 -6.27371 1.58159 0
M  V30 2807 N 264.58 -0.43555 -1.51462 0
M  V30 2808 C 265.805 0.132627 -2.06976 0
M  V30 2809 C 266.23 1.35848 -1.30104 0
M  V30 2810 O 265.588 1.78112 -0.338493 0
M  V30 2811 C 265.636 0.43523 -3.57964 0
M  V30 2812 O 264.74 1.52198 -3.83288 0
M  V30 2813 H 264.081 0.00265 -0.663995 0
M  V30 2814 H 266.611 -0.616369 -1.95095 0
M  V30 2815 H 266.621 0.686206 -4.02188 0
M  V30 2816 H 265.296 -0.460739 -4.1334 0
M  V30 2817 H 263.873 1.2611 -3.50928 0
M  V30 2818 N 266.058 1.56714 -0.166846 0
M  V30 2819 C 267.335 1.88412 0.525373 0
M  V30 2820 C 267.715 1.07602 1.81618 0
M  V30 2821 O 267.063 0.168621 2.27877 0
M  V30 2822 C 267.273 3.40363 0.771613 0
M  V30 2823 C 268.621 4.10007 1.1036 0
M  V30 2824 O 269.645 3.45655 0.860304 0
M  V30 2825 O 268.504 5.2369 1.56239 0
M  V30 2826 H 265.598 0.781587 0.270278 0
M  V30 2827 H 268.144 1.68458 -0.204946 0
M  V30 2828 H 266.916 3.91046 -0.141093 0
M  V30 2829 H 266.539 3.65914 1.55541 0
M  V30 2830 N 267.536 -0.106894 1.57237 0
M  V30 2831 C 268.466 -1.13148 2.04254 0
M  V30 2832 C 269.447 -1.42476 0.929224 0
M  V30 2833 O 270.632 -1.52709 1.19973 0
M  V30 2834 C 267.762 -2.4545 2.45706 0
M  V30 2835 C 266.716 -2.30558 3.60592 0
M  V30 2836 C 266.042 -3.67931 3.87983 0
M  V30 2837 C 267.342 -1.75597 4.91897 0
M  V30 2838 H 269.036 -0.740374 2.90101 0
M  V30 2839 H 266.582 -0.354696 1.39563 0
M  V30 2840 H 268.535 -3.17389 2.77205 0
M  V30 2841 H 267.259 -2.86475 1.56843 0
M  V30 2842 H 265.918 -1.61067 3.29322 0
M  V30 2843 H 265.566 -4.06462 2.96306 0
M  V30 2844 H 265.266 -3.58817 4.65322 0
M  V30 2845 H 266.79 -4.41356 4.21945 0
M  V30 2846 H 268.204 -2.37364 5.21854 0
M  V30 2847 H 266.601 -1.77272 5.73319 0
M  V30 2848 H 267.671 -0.714451 4.79608 0
M  V30 2849 N 269.014 -1.53014 -0.377408 0
M  V30 2850 C 269.946 -1.74884 -1.48149 0
M  V30 2851 C 270.959 -0.629433 -1.5014 0
M  V30 2852 O 272.148 -0.905416 -1.53833 0
M  V30 2853 C 269.248 -1.80299 -2.86959 0
M  V30 2854 C 268.421 -3.09776 -3.08801 0
M  V30 2855 C 267.48 -3.06586 -4.27658 0
M  V30 2856 O 266.506 -3.80419 -4.23403 0
M  V30 2857 N 267.708 -2.26578 -5.34455 0
M  V30 2858 H 270.473 -2.70147 -1.29771 0
M  V30 2859 H 268.034 -1.51646 -0.56703 0
M  V30 2860 H 270.026 -1.75657 -3.64591 0
M  V30 2861 H 268.596 -0.92372 -2.98641 0
M  V30 2862 H 267.816 -3.27815 -2.18931 0
M  V30 2863 H 269.104 -3.95366 -3.20255 0
M  V30 2864 H 268.502 -1.66081 -5.40771 0
M  V30 2865 H 267.059 -2.27766 -6.10709 0
M  V30 2866 N 270.492 0.636531 -1.44174 0
M  V30 2867 C 271.455 1.73063 -1.50273 0
M  V30 2868 C 272.455 1.56113 -0.385397 0
M  V30 2869 O 273.645 1.61707 -0.64781 0
M  V30 2870 C 270.777 3.12096 -1.37145 0
M  V30 2871 H 271.97 1.69031 -2.47727 0
M  V30 2872 H 269.523 0.849706 -1.31186 0
M  V30 2873 H 270.258 3.21728 -0.407636 0
M  V30 2874 H 270.043 3.25805 -2.18159 0
M  V30 2875 H 271.533 3.91846 -1.44382 0
M  V30 2876 N 271.97 1.30982 0.876444 0
M  V30 2877 C 272.9 1.20668 1.99903 0
M  V30 2878 C 273.881 0.095354 1.69833 0
M  V30 2879 O 275.066 0.27885 1.92188 0
M  V30 2880 C 272.196 0.90655 3.3526 0
M  V30 2881 C 271.15 1.97675 3.79617 0
M  V30 2882 C 270.476 1.52943 5.1236 0
M  V30 2883 C 271.776 3.389 3.97422 0
M  V30 2884 H 273.47 2.14586 2.0879 0
M  V30 2885 H 271.016 1.03308 1.00317 0
M  V30 2886 H 272.969 0.821025 4.13324 0
M  V30 2887 H 271.693 -0.0682969 3.26529 0
M  V30 2888 H 270.352 2.05205 3.03787 0
M  V30 2889 H 270 0.54262 5.00065 0
M  V30 2890 H 269.7 2.24532 5.43009 0
M  V30 2891 H 271.224 1.45786 5.92941 0
M  V30 2892 H 272.638 3.34081 4.659 0
M  V30 2893 H 271.035 4.0865 4.3946 0
M  V30 2894 H 272.105 3.80163 3.01006 0
M  V30 2895 N 273.449 -1.08991 1.13837 0
M  V30 2896 C 274.412 -2.13925 0.822715 0
M  V30 2897 C 275.412 -1.599 -0.1699 0
M  V30 2898 O 276.602 -1.74104 0.0577251 0
M  V30 2899 C 273.734 -3.40155 0.225318 0
M  V30 2900 H 274.927 -2.43358 1.75262 0
M  V30 2901 H 272.48 -1.24603 0.943594 0
M  V30 2902 H 273.215 -3.16352 -0.713594 0
M  V30 2903 H 273 -3.80661 0.940193 0
M  V30 2904 H 274.49 -4.17594 0.0214784 0
M  V30 2905 N 274.927 -0.932562 -1.27047 0
M  V30 2906 C 275.859 -0.392734 -2.2581 0
M  V30 2907 C 276.872 0.479241 -1.55586 0
M  V30 2908 O 278.061 0.291078 -1.76111 0
M  V30 2909 C 275.161 0.455456 -3.35826 0
M  V30 2910 C 274.334 -0.398355 -4.35582 0
M  V30 2911 C 273.393 0.387985 -5.24768 0
M  V30 2912 O 272.419 -0.206003 -5.68827 0
M  V30 2913 N 273.621 1.68664 -5.55457 0
M  V30 2914 H 276.386 -1.24173 -2.72766 0
M  V30 2915 H 273.947 -0.800511 -1.40725 0
M  V30 2916 H 275.939 0.988692 -3.92437 0
M  V30 2917 H 274.509 1.20522 -2.88432 0
M  V30 2918 H 273.729 -1.11286 -3.78165 0
M  V30 2919 H 275.017 -0.981889 -4.99236 0
M  V30 2920 H 274.415 2.19147 -5.21528 0
M  V30 2921 H 272.972 2.1663 -6.14748 0
M  V30 2922 N 276.405 1.4127 -0.698611 0
M  V30 2923 C 277.821 1.55241 -0.370462 0
M  V30 2924 C 278.021 1.67351 1.12231 0
M  V30 2925 O 277.077 1.65363 1.90818 0
M  V30 2926 C 278.39 2.78997 -1.12165 0
M  V30 2927 C 279.938 2.92797 -1.1063 0
M  V30 2928 C 280.413 4.19445 -1.8393 0
M  V30 2929 N 281.904 4.26409 -1.80914 0
M  V30 2930 C 282.639 5.23271 -2.34467 0
M  V30 2931 N 282.135 6.26145 -2.96504 0
M  V30 2932 N 283.928 5.15232 -2.24706 0
M  V30 2933 H 276.079 1.31654 -1.66676 0
M  V30 2934 H 278.342 0.635393 -0.703548 0
M  V30 2935 H 278.048 2.76268 -2.17644 0
M  V30 2936 H 277.922 3.70606 -0.702209 0
M  V30 2937 H 280.309 2.95039 -0.0597713 0
M  V30 2938 H 280.39 2.02353 -1.56483 0
M  V30 2939 H 280.034 4.17964 -2.88563 0
M  V30 2940 H 279.964 5.08866 -1.35509 0
M  V30 2941 H 282.455 3.527 -1.35687 0
M  V30 2942 H 282.768 6.96451 -3.34927 0
M  V30 2943 H 281.113 6.26638 -3.00583 0
M  V30 2944 H 284.304 4.33789 -1.7591 0
M  V30 2945 H 284.477 5.90552 -2.66745 0
M  V30 2946 N 277.883 0.443576 1.51229 0
M  V30 2947 C 279.113 -0.119117 2.06256 0
M  V30 2948 C 279.521 -1.36471 1.31043 0
M  V30 2949 O 278.864 -1.80034 0.365151 0
M  V30 2950 C 278.926 -0.500546 3.55998 0
M  V30 2951 C 278.59 0.639125 4.52509 0
M  V30 2952 C 279.587 1.51311 4.97394 0
M  V30 2953 C 277.272 0.821632 4.95535 0
M  V30 2954 C 279.266 2.55425 5.83984 0
M  V30 2955 C 276.953 1.86603 5.81913 0
M  V30 2956 C 277.951 2.73072 6.26036 0
M  V30 2957 O 277.639 3.75718 7.10698 0
M  V30 2958 H 277.371 -0.00857665 0.675946 0
M  V30 2959 H 279.925 0.623288 1.95715 0
M  V30 2960 H 278.155 -1.29575 3.64345 0
M  V30 2961 H 279.844 -0.995116 3.93513 0
M  V30 2962 H 280.61 1.38367 4.64844 0
M  V30 2963 H 276.489 0.158149 4.60729 0
M  V30 2964 H 280.033 3.22949 6.18344 0
M  V30 2965 H 275.93 1.99564 6.13876 0
M  V30 2966 H 276.698 3.72374 7.2889 0
M  V30 2967 N 279.361 -1.56624 0.175154 0
M  V30 2968 C 280.308 -2.18149 -0.753634 0
M  V30 2969 C 281.278 -1.12265 -1.22417 0
M  V30 2970 O 282.463 -1.40432 -1.29165 0
M  V30 2971 C 279.603 -2.82933 -1.97592 0
M  V30 2972 C 278.716 -4.03289 -1.5486 0
M  V30 2973 C 277.851 -4.55988 -2.72485 0
M  V30 2974 C 276.89 -5.68746 -2.26262 0
M  V30 2975 N 276.027 -6.15938 -3.36994 0
M  V30 2976 H 280.867 -2.9717 -0.222195 0
M  V30 2977 H 278.404 -1.46774 -0.0979422 0
M  V30 2978 H 280.362 -3.18653 -2.69288 0
M  V30 2979 H 278.992 -2.06509 -2.481 0
M  V30 2980 H 278.044 -3.73364 -0.728246 0
M  V30 2981 H 279.356 -4.849 -1.16933 0
M  V30 2982 H 278.51 -4.9391 -3.52332 0
M  V30 2983 H 277.249 -3.73443 -3.13674 0
M  V30 2984 H 276.254 -5.30372 -1.44863 0
M  V30 2985 H 277.479 -6.53095 -1.86127 0
M  V30 2986 H 275.425 -5.36321 -3.77751 0
M  V30 2987 H 275.342 -6.92548 -3.03172 0
M  V30 2988 H 276.61 -6.58511 -4.17114 0
M  V30 2989 N 280.839 0.0985539 -1.57292 0
M  V30 2990 C 282.087 0.801092 -1.85545 0
M  V30 2991 C 282.408 1.79438 -0.763353 0
M  V30 2992 O 281.678 1.94763 0.21073 0
M  V30 2993 H 280.258 0.29884 -0.684619 0
M  V30 2994 H 282.92 0.0810064 -1.94732 0
M  V30 2995 H 282.016 1.3338 -2.82163 0
M  V30 2996 N 282.317 1.53212 0.369288 0
M  V30 2997 C 283.265 1.80054 1.47253 0
M  V30 2998 C 284.259 0.669456 1.55611 0
M  V30 2999 O 285.465 0.852328 1.58541 0
M  V30 3000 H 281.84 0.570034 0.490475 0
M  V30 3001 H 283.811 2.72403 1.21817 0
M  V30 3002 C 282.56 2.00403 2.84137 0
M  V30 3003 H 281.883 2.86876 2.78464 0
M  V30 3004 H 283.323 2.23164 3.60519 0
M  V30 3005 C 281.782 0.782081 3.27697 0
M  V30 3006 O 282.312 -0.0310205 4.01688 0
M  V30 3007 N 280.518 0.606573 2.84199 0
M  V30 3008 H 280.065 1.26939 2.24152 0
M  V30 3009 H 280.023 -0.20962 3.137 0
M  V30 3010 N 283.795 -0.628877 1.44509 0
M  V30 3011 C 285.206 -1.21054 1.42137 0
M  V30 3012 C 285.557 -1.95715 0.137881 0
M  V30 3013 O 284.682 -2.02554 -0.761645 0
M  V30 3014 C 285.277 -2.20189 2.57493 0
M  V30 3015 C 283.836 -2.73777 2.58308 0
M  V30 3016 C 282.983 -1.48813 2.33987 0
M  V30 3017 H 285.934 -0.41942 1.53057 0
M  V30 3018 H 285.955 -3.02833 2.30375 0
M  V30 3019 H 285.467 -1.6582 3.50892 0
M  V30 3020 H 283.568 -3.32142 1.68856 0
M  V30 3021 H 283.681 -3.19662 3.56865 0
M  V30 3022 H 282.045 -1.77024 1.83124 0
M  V30 3023 H 282.828 -0.963442 3.29504 0
M  V30 3024 N 285.273 -1.31445 -0.869486 0
M  V30 3025 C 286.501 -1.24122 -1.65534 0
M  V30 3026 C 286.916 0.193387 -1.87807 0
M  V30 3027 O 286.273 1.12557 -1.43656 0
M  V30 3028 C 286.324 -1.98229 -3.02304 0
M  V30 3029 O 286.045 -3.3609 -2.81026 0
M  V30 3030 C 287.546 -1.97751 -3.96749 0
M  V30 3031 H 284.766 -0.428868 -0.516055 0
M  V30 3032 H 287.31 -1.73328 -1.08525 0
M  V30 3033 H 285.465 -1.52782 -3.56001 0
M  V30 3034 H 285.879 -3.7383 -3.67902 0
M  V30 3035 H 287.353 -2.54114 -4.90031 0
M  V30 3036 H 287.83 -0.960137 -4.28577 0
M  V30 3037 H 288.436 -2.43079 -3.48988 0
M  V30 3038 N 286.751 1.08385 -1.14413 0
M  V30 3039 C 287.997 1.81044 -0.913834 0
M  V30 3040 C 288.33 1.86004 0.558209 0
M  V30 3041 O 287.605 1.33606 1.4135 0
M  V30 3042 C 287.888 3.26648 -1.51569 0
M  V30 3043 C 287.741 3.29895 -3.0576 0
M  V30 3044 C 289.06 4.23629 -1.19273 0
M  V30 3045 H 286.179 0.65727 -0.333414 0
M  V30 3046 H 288.821 1.26896 -1.41412 0
M  V30 3047 H 286.971 3.72889 -1.09023 0
M  V30 3048 H 288.643 2.91977 -3.57137 0
M  V30 3049 H 286.886 2.69163 -3.40197 0
M  V30 3050 H 287.557 4.32516 -3.42977 0
M  V30 3051 H 290.033 3.85727 -1.56057 0
M  V30 3052 H 288.909 5.23822 -1.64017 0
M  V30 3053 H 289.17 4.41968 -0.108068 0
M  V30 3054 N 288.23 0.939286 1.26551 0
M  V30 3055 C 289.476 0.586715 1.94128 0
M  V30 3056 C 289.809 -0.8717 1.73537 0
M  V30 3057 O 289.084 -1.62339 1.07127 0
M  V30 3058 C 289.367 0.927497 3.4795 0
M  V30 3059 C 289.22 2.44052 3.77834 0
M  V30 3060 C 290.539 0.441569 4.37879 0
M  V30 3061 H 287.658 0.21463 0.705055 0
M  V30 3062 H 290.3 1.17316 1.49455 0
M  V30 3063 H 288.45 0.428431 3.8613 0
M  V30 3064 H 290.122 3.01216 3.4938 0
M  V30 3065 H 288.365 2.8848 3.23978 0
M  V30 3066 H 289.036 2.62947 4.85348 0
M  V30 3067 H 291.512 0.869448 4.06915 0
M  V30 3068 H 290.388 0.708856 5.44304 0
M  V30 3069 H 290.649 -0.658467 4.37169 0
M  V30 3070 N 289.708 -1.40897 0.706093 0
M  V30 3071 C 290.956 -2.00657 0.241054 0
M  V30 3072 C 291.277 -1.56241 -1.16678 0
M  V30 3073 O 290.547 -0.79765 -1.78926 0
M  V30 3074 H 289.127 -0.742018 0.0861308 0
M  V30 3075 H 291.789 -1.72372 0.909604 0
M  V30 3076 H 290.885 -3.10958 0.266705 0
M  V30 3077 N 291.186 -0.45159 -1.50991 0
M  V30 3078 C 292.433 0.110074 -2.02201 0
M  V30 3079 C 292.761 1.4146 -1.33489 0
M  V30 3080 O 292.016 1.90617 -0.443125 0
M  V30 3081 C 292.315 0.361728 -3.55565 0
M  V30 3082 C 291.981 -0.858717 -4.42648 0
M  V30 3083 C 290.643 -1.19338 -4.66167 0
M  V30 3084 C 292.995 -1.67221 -4.93646 0
M  V30 3085 C 290.323 -2.34195 -5.37931 0
M  V30 3086 C 292.675 -2.8119 -5.6667 0
M  V30 3087 C 291.339 -3.15094 -5.88449 0
M  V30 3088 H 290.609 0.040279 -0.739904 0
M  V30 3089 H 293.256 -0.601696 -1.81802 0
M  V30 3090 H 291.561 1.15554 -3.74372 0
M  V30 3091 H 293.258 0.80996 -3.92735 0
M  V30 3092 H 289.848 -0.58796 -4.24548 0
M  V30 3093 H 294.032 -1.42686 -4.75347 0
M  V30 3094 H 289.288 -2.6076 -5.53005 0
M  V30 3095 H 293.462 -3.44585 -6.05173 0
M  V30 3096 H 291.089 -4.04204 -6.43835 0
M  V30 3097 N 292.664 1.56529 -0.183458 0
M  V30 3098 C 293.941 1.88959 0.50536 0
M  V30 3099 C 294.321 1.09523 1.80466 0
M  V30 3100 O 293.669 0.19278 2.27685 0
M  V30 3101 C 293.879 3.41162 0.73547 0
M  V30 3102 C 295.227 4.11155 1.06005 0
M  V30 3103 O 296.251 3.46548 0.823594 0
M  V30 3104 O 295.11 5.25318 1.50675 0
M  V30 3105 H 292.204 0.78441 0.261973 0
M  V30 3106 H 294.75 1.68231 -0.222802 0
M  V30 3107 H 293.522 3.90874 -0.182561 0
M  V30 3108 H 293.145 3.67543 1.51651 0
M  V30 3109 N 294.142 -0.090211 1.57342 0
M  V30 3110 C 295.072 -1.10976 2.05443 0
M  V30 3111 C 296.053 -1.41482 0.944284 0
M  V30 3112 O 297.238 -1.51428 1.21586 0
M  V30 3113 C 294.368 -2.42831 2.48295 0
M  V30 3114 C 293.322 -2.26721 3.63018 0
M  V30 3115 C 292.648 -3.63796 3.91863 0
M  V30 3116 C 293.948 -1.7037 4.93732 0
M  V30 3117 H 295.642 -0.709564 2.9087 0
M  V30 3118 H 293.188 -0.339874 1.39932 0
M  V30 3119 H 295.141 -3.14431 2.80555 0
M  V30 3120 H 293.865 -2.84795 1.59873 0
M  V30 3121 H 292.524 -1.57565 3.31012 0
M  V30 3122 H 292.172 -4.03297 3.00601 0
M  V30 3123 H 291.872 -3.53861 4.69101 0
M  V30 3124 H 293.396 -4.36855 4.26603 0
M  V30 3125 H 294.81 -2.31816 5.24342 0
M  V30 3126 H 293.207 -1.71181 5.75167 0
M  V30 3127 H 294.277 -0.663542 4.80339 0
M  V30 3128 N 295.62 -1.53406 -0.361157 0
M  V30 3129 C 296.57 -1.76536 -1.44287 0
M  V30 3130 C 297.554 -0.620019 -1.48474 0
M  V30 3131 O 298.746 -0.878834 -1.53641 0
M  V30 3132 C 295.875 -1.96266 -2.81664 0
M  V30 3133 C 294.961 -3.16815 -2.81938 0
M  V30 3134 N 295.352 -4.38637 -2.51855 0
M  V30 3135 C 293.65 -3.17627 -3.13096 0
M  V30 3136 C 294.351 -5.20401 -2.59919 0
M  V30 3137 N 293.327 -4.56712 -2.94814 0
M  V30 3138 H 297.129 -2.68331 -1.19899 0
M  V30 3139 H 294.643 -1.52091 -0.56938 0
M  V30 3140 H 296.64 -2.10966 -3.59582 0
M  V30 3141 H 295.3 -1.05702 -3.07013 0
M  V30 3142 H 296.311 -4.66293 -2.25369 0
M  V30 3143 H 292.988 -2.36971 -3.43731 0
M  V30 3144 H 294.378 -6.27586 -2.39969 0
M  V30 3145 N 297.098 0.621204 -1.44841 0
M  V30 3146 C 298.046 1.75385 -1.52784 0
M  V30 3147 C 299.04 1.64639 -0.398779 0
M  V30 3148 O 300.246 1.70598 -0.574137 0
M  V30 3149 H 296.621 0.579193 -0.479625 0
M  V30 3150 H 298.592 1.6581 -2.48092 0
M  V30 3151 C 297.341 3.13742 -1.4987 0
M  V30 3152 H 296.664 3.22663 -2.36069 0
M  V30 3153 H 298.104 3.92861 -1.59487 0
M  V30 3154 C 296.563 3.36175 -0.220973 0
M  V30 3155 O 297.093 3.95469 0.704782 0
M  V30 3156 N 295.299 2.90348 -0.120963 0
M  V30 3157 H 294.846 2.42278 -0.875162 0
M  V30 3158 H 294.804 3.05732 0.733168 0
M  V30 3159 N 298.576 1.31904 0.862503 0
M  V30 3160 C 299.486 1.22161 2.00285 0
M  V30 3161 C 300.502 0.136785 1.73462 0
M  V30 3162 O 301.678 0.355994 1.98229 0
M  V30 3163 C 298.743 0.937093 3.33796 0
M  V30 3164 C 297.804 2.10957 3.73893 0
M  V30 3165 C 297.037 1.83853 5.01033 0
M  V30 3166 O 297.26 0.777274 5.65079 0
M  V30 3167 O 296.194 2.69741 5.38074 0
M  V30 3168 H 300.02 2.18008 2.11439 0
M  V30 3169 H 297.605 1.11716 0.991957 0
M  V30 3170 H 299.487 0.794583 4.13841 0
M  V30 3171 H 298.162 0.00871894 3.23699 0
M  V30 3172 H 297.069 2.30752 2.94456 0
M  V30 3173 H 298.402 3.02046 3.88625 0
M  V30 3174 N 300.054 -1.07777 1.14986 0
M  V30 3175 C 301.465 -1.61766 0.932127 0
M  V30 3176 C 301.816 -1.88974 -0.527581 0
M  V30 3177 O 300.941 -1.65198 -1.39781 0
M  V30 3178 C 301.536 -2.93891 1.68563 0
M  V30 3179 C 300.095 -3.44639 1.5133 0
M  V30 3180 C 299.242 -2.18767 1.704 0
M  V30 3181 H 302.193 -0.909201 1.30074 0
M  V30 3182 H 302.214 -3.62623 1.15259 0
M  V30 3183 H 301.726 -2.74057 2.74799 0
M  V30 3184 H 299.827 -3.69564 0.474702 0
M  V30 3185 H 299.94 -4.20966 2.28746 0
M  V30 3186 H 298.304 -2.28253 1.13016 0
M  V30 3187 H 299.087 -2.01433 2.77992 0
M  V30 3188 N 301.532 -0.945985 -1.26051 0
M  V30 3189 C 302.482 -0.430164 -2.23905 0
M  V30 3190 C 303.466 0.47579 -1.53704 0
M  V30 3191 O 304.658 0.310252 -1.7426 0
M  V30 3192 C 301.787 0.298957 -3.41996 0
M  V30 3193 C 300.873 -0.624566 -4.19476 0
M  V30 3194 N 301.264 -1.75245 -4.74471 0
M  V30 3195 C 299.562 -0.431082 -4.43912 0
M  V30 3196 C 300.263 -2.32834 -5.3307 0
M  V30 3197 N 299.239 -1.61583 -5.1903 0
M  V30 3198 H 303.041 -1.29107 -2.64024 0
M  V30 3199 H 300.555 -0.802428 -1.41191 0
M  V30 3200 H 302.552 0.685565 -4.11225 0
M  V30 3201 H 301.212 1.15657 -3.03403 0
M  V30 3202 H 302.223 -2.13449 -4.71868 0
M  V30 3203 H 298.9 0.384364 -4.15727 0
M  V30 3204 H 300.29 -3.27893 -5.86461 0
M  V30 3205 N 303.011 1.40521 -0.713556 0
M  V30 3206 C 304.288 1.94775 -0.17943 0
M  V30 3207 C 304.668 1.65184 1.31444 0
M  V30 3208 O 304.016 0.968429 2.06963 0
M  V30 3209 C 304.226 3.45543 -0.489986 0
M  V30 3210 C 305.574 4.22442 -0.427536 0
M  V30 3211 O 306.598 3.53644 -0.425929 0
M  V30 3212 O 305.457 5.4501 -0.403292 0
M  V30 3213 H 302.551 0.826606 -0.0255192 0
M  V30 3214 H 305.097 1.5014 -0.790949 0
M  V30 3215 H 303.869 3.60432 -1.5233 0
M  V30 3216 H 303.492 3.97311 0.151598 0
M  V30 3217 N 304.489 0.459591 1.5075 0
M  V30 3218 C 305.9 0.00171547 1.867 0
M  V30 3219 C 306.251 -1.39934 1.37525 0
M  V30 3220 O 305.376 -2.03523 0.735349 0
M  V30 3221 C 305.971 -0.00366298 3.388 0
M  V30 3222 C 304.53 -0.406026 3.74204 0
M  V30 3223 C 303.677 0.38673 2.7459 0
M  V30 3224 H 306.628 0.674413 1.43657 0
M  V30 3225 H 306.649 -0.808371 3.71814 0
M  V30 3226 H 306.161 1.01617 3.74561 0
M  V30 3227 H 304.262 -1.43063 3.4404 0
M  V30 3228 H 304.375 -0.115362 4.78961 0
M  V30 3229 H 302.739 -0.158019 2.54209 0
M  V30 3230 H 303.522 1.40585 3.13194 0
M  V30 3231 N 305.967 -1.56429 0.191757 0
M  V30 3232 C 306.93 -2.17707 -0.716688 0
M  V30 3233 C 307.93 -1.13061 -1.14341 0
M  V30 3234 O 309.12 -1.38464 -1.05704 0
M  V30 3235 C 306.252 -2.77644 -1.97804 0
M  V30 3236 H 307.445 -2.99342 -0.1829 0
M  V30 3237 H 304.998 -1.56193 -0.0578566 0
M  V30 3238 H 305.733 -1.99799 -2.55443 0
M  V30 3239 H 305.518 -3.54246 -1.68083 0
M  V30 3240 H 307.008 -3.24708 -2.62592 0
M  V30 3241 N 307.445 0.0818655 -1.57387 0
M  V30 3242 C 308.685 0.788375 -1.88584 0
M  V30 3243 C 309.049 1.75248 -0.784351 0
M  V30 3244 O 310.25 2.50334 -0.979105 0
M  V30 3245 C 308.521 1.48654 -3.25018 0
M  V30 3246 S 310.08 2.22951 -3.7794 0
M  V30 3247 H 306.898 0.262383 -0.660815 0
M  V30 3248 H 309.5 0.0448995 -1.95448 0
M  V30 3249 H 308.204 0.770919 -4.03094 0
M  V30 3250 H 307.735 2.26965 -3.21326 0
M  V30 3251 H 309.75 3.49309 -3.52417 0
M  V30 3252 N 308.923 1.53595 0.353017 0
M  V30 3253 C 310.169 1.71581 1.09232 0
M  V30 3254 C 310.524 0.468328 1.86613 0
M  V30 3255 O 309.817 -0.538911 1.83865 0
M  V30 3256 C 310.011 2.91313 2.07054 0
M  V30 3257 C 309.84 4.27585 1.39287 0
M  V30 3258 C 308.61 4.92233 1.1417 0
M  V30 3259 C 310.808 5.07656 0.824005 0
M  V30 3260 N 308.79 6.124 0.428841 0
M  V30 3261 C 310.161 6.19531 0.241195 0
M  V30 3262 C 312.216 4.92609 0.723922 0
M  V30 3263 C 310.919 7.18002 -0.431952 0
M  V30 3264 C 312.945 5.91365 0.0645334 0
M  V30 3265 C 312.307 7.02571 -0.507347 0
M  V30 3266 H 308.406 0.680987 0.384422 0
M  V30 3267 H 310.99 1.91013 0.377096 0
M  V30 3268 H 309.161 2.73398 2.75877 0
M  V30 3269 H 310.893 2.98062 2.73753 0
M  V30 3270 H 307.648 4.51612 1.42631 0
M  V30 3271 H 308.072 6.76944 0.0874131 0
M  V30 3272 H 312.714 4.06808 1.15181 0
M  V30 3273 H 310.432 8.03384 -0.871758 0
M  V30 3274 H 314.018 5.81799 -0.0121469 0
M  V30 3275 H 312.898 7.77675 -1.0095 0
M  V30 3276 N 310.401 -0.613514 1.45168 0
M  V30 3277 C 311.649 -1.36997 1.48581 0
M  V30 3278 C 311.97 -1.94589 0.126545 0
M  V30 3279 O 311.24 -1.76816 -0.843372 0
M  V30 3280 H 309.82 -0.508558 0.547154 0
M  V30 3281 H 312.482 -0.720853 1.81079 0
M  V30 3282 H 311.578 -2.1924 2.22127 0
M  V30 3283 N 311.879 -1.3236 -0.855495 0
M  V30 3284 C 313.119 -1.24187 -1.62348 0
M  V30 3285 C 313.483 0.193597 -1.91021 0
M  V30 3286 O 314.684 0.39904 -2.65822 0
M  V30 3287 C 312.955 -2.07661 -2.90881 0
M  V30 3288 S 314.514 -2.16505 -3.81669 0
M  V30 3289 H 311.332 -0.442076 -0.556857 0
M  V30 3290 H 313.934 -1.67198 -1.01317 0
M  V30 3291 H 312.638 -3.11018 -2.67761 0
M  V30 3292 H 312.169 -1.65425 -3.56929 0
M  V30 3293 H 314.184 -1.31394 -4.78487 0
M  V30 3294 N 313.357 1.07166 -1.15556 0
M  V30 3295 C 314.605 1.79443 -0.929764 0
M  V30 3296 C 314.926 1.87246 0.544414 0
M  V30 3297 O 314.196 1.37473 1.39564 0
M  V30 3298 H 312.776 0.664625 -0.341003 0
M  V30 3299 H 315.438 1.29499 -1.45657 0
M  V30 3300 H 314.534 2.81832 -1.34079 0
M  V30 3301 N 314.835 0.952656 1.25548 0
M  V30 3302 C 316.112 0.523818 1.88456 0
M  V30 3303 C 316.492 -0.998871 1.85973 0
M  V30 3304 O 315.84 -1.86381 1.3219 0
M  V30 3305 C 316.05 1.0982 3.31271 0
M  V30 3306 C 317.398 1.17385 4.08051 0
M  V30 3307 O 318.422 1.04961 3.40384 0
M  V30 3308 O 317.281 1.36852 5.29088 0
M  V30 3309 H 314.375 0.172485 0.808813 0
M  V30 3310 H 316.921 1.04596 1.33633 0
M  V30 3311 H 315.693 2.1415 3.27499 0
M  V30 3312 H 315.316 0.559191 3.93648 0
M  V30 3313 N 316.313 -1.40141 0.720998 0
M  V30 3314 C 317.724 -1.83678 0.334553 0
M  V30 3315 C 318.075 -1.6027 -1.13173 0
M  V30 3316 O 317.2 -1.08643 -1.87152 0
M  V30 3317 C 317.795 -3.33437 0.600437 0
M  V30 3318 C 316.354 -3.75447 0.267642 0
M  V30 3319 C 315.501 -2.63296 0.870097 0
M  V30 3320 H 318.452 -1.29331 0.919732 0
M  V30 3321 H 318.473 -3.80269 -0.132517 0
M  V30 3322 H 317.985 -3.50442 1.66768 0
M  V30 3323 H 316.086 -3.64035 -0.794329 0
M  V30 3324 H 316.199 -4.73344 0.74042 0
M  V30 3325 H 314.563 -2.52954 0.297739 0
M  V30 3326 H 315.346 -2.83112 1.94172 0
M  V30 3327 N 317.792 -0.46758 -1.50504 0
M  V30 3328 C 319.017 0.0886943 -2.0721 0
M  V30 3329 C 319.442 1.33057 -1.32956 0
M  V30 3330 O 318.8 1.77354 -0.376197 0
M  V30 3331 C 318.848 0.359202 -3.58806 0
M  V30 3332 O 317.952 1.44034 -3.8643 0
M  V30 3333 H 317.293 -0.0114349 -0.663902 0
M  V30 3334 H 319.823 -0.657613 -1.93744 0
M  V30 3335 H 319.833 0.600742 -4.03553 0
M  V30 3336 H 318.508 -0.548311 -4.1227 0
M  V30 3337 H 317.085 1.18638 -3.53524 0
M  V30 3338 N 319.27 1.56325 -0.20005 0
M  V30 3339 C 320.519 1.96895 0.437652 0
M  V30 3340 C 320.832 1.08999 1.62415 0
M  V30 3341 O 322.038 1.39372 2.32997 0
M  V30 3342 C 320.494 3.50198 0.830025 0
M  V30 3343 C 320.102 4.46765 -0.332461 0
M  V30 3344 C 321.846 3.99526 1.43453 0
M  V30 3345 C 319.753 5.91344 0.0811468 0
M  V30 3346 H 318.683 0.735209 0.167282 0
M  V30 3347 H 321.334 1.81148 -0.292853 0
M  V30 3348 H 319.716 3.61467 1.61734 0
M  V30 3349 H 320.89 4.47231 -1.11 0
M  V30 3350 H 319.205 4.07657 -0.848789 0
M  V30 3351 H 321.802 5.05025 1.75652 0
M  V30 3352 H 322.145 3.44122 2.34277 0
M  V30 3353 H 322.678 3.91393 0.71109 0
M  V30 3354 H 319.417 6.50685 -0.793033 0
M  V30 3355 H 318.937 5.94121 0.823445 0
M  V30 3356 H 320.616 6.44945 0.515252 0
M  V30 3357 N 320.748 -0.0735177 1.57428 0
M  V30 3358 C 322.025 -0.805903 1.78226 0
M  V30 3359 C 322.405 -1.95874 0.787189 0
M  V30 3360 O 321.753 -2.2779 -0.180029 0
M  V30 3361 C 321.963 -1.28045 3.24662 0
M  V30 3362 C 323.311 -1.71453 3.88444 0
M  V30 3363 O 324.335 -1.37616 3.28543 0
M  V30 3364 O 323.194 -2.34093 4.93825 0
M  V30 3365 H 320.288 -0.386041 0.73137 0
M  V30 3366 H 322.834 -0.0537269 1.69615 0
M  V30 3367 H 321.606 -0.455476 3.8864 0
M  V30 3368 H 321.229 -2.094 3.37991 0
M  V30 3369 N 322.226 -1.5378 -0.344866 0
M  V30 3370 C 323.472 -1.72158 -1.0832 0
M  V30 3371 C 323.827 -0.478218 -1.86362 0
M  V30 3372 O 323.12 0.529152 -1.84148 0
M  V30 3373 C 323.314 -2.92407 -2.05506 0
M  V30 3374 C 323.143 -4.28318 -1.37017 0
M  V30 3375 C 321.913 -4.92832 -1.11558 0
M  V30 3376 C 324.111 -5.08086 -0.797071 0
M  V30 3377 N 322.093 -6.12619 -0.396358 0
M  V30 3378 C 323.464 -6.1965 -0.208336 0
M  V30 3379 C 325.519 -4.92986 -0.697787 0
M  V30 3380 C 324.222 -7.17763 0.470023 0
M  V30 3381 C 326.248 -5.91391 -0.033171 0
M  V30 3382 C 325.61 -7.02292 0.544599 0
M  V30 3383 H 321.709 -0.683017 -0.380805 0
M  V30 3384 H 324.293 -1.91211 -0.366961 0
M  V30 3385 H 322.464 -2.74857 -2.74423 0
M  V30 3386 H 324.196 -2.9951 -2.72169 0
M  V30 3387 H 320.951 -4.52362 -1.40234 0
M  V30 3388 H 321.375 -6.7698 -0.0515119 0
M  V30 3389 H 326.017 -4.07414 -1.13022 0
M  V30 3390 H 323.735 -8.0291 0.914351 0
M  V30 3391 H 327.321 -5.81784 0.0430009 0
M  V30 3392 H 326.201 -7.77129 1.05073 0
M  V30 3393 N 323.704 0.605807 -1.45491 0
M  V30 3394 C 325.12 0.926751 -1.29936 0
M  V30 3395 C 325.32 1.99896 -0.253706 0
M  V30 3396 O 324.376 2.50038 0.351737 0
M  V30 3397 C 325.689 1.36599 -2.67883 0
M  V30 3398 C 327.237 1.4801 -2.75793 0
M  V30 3399 C 327.712 1.95309 -4.14268 0
M  V30 3400 N 329.203 2.0254 -4.16571 0
M  V30 3401 C 329.938 2.40363 -5.20589 0
M  V30 3402 N 329.434 2.77143 -6.34952 0
M  V30 3403 N 331.227 2.40718 -5.07948 0
M  V30 3404 H 323.378 -0.102862 -2.12151 0
M  V30 3405 H 325.641 0.016639 -0.947854 0
M  V30 3406 H 325.347 0.652306 -3.45598 0
M  V30 3407 H 325.221 2.33215 -2.96463 0
M  V30 3408 H 327.608 2.1847 -1.98381 0
M  V30 3409 H 327.689 0.497041 -2.50925 0
M  V30 3410 H 327.333 1.25436 -4.92167 0
M  V30 3411 H 327.263 2.94532 -4.3653 0
M  V30 3412 H 329.754 1.76699 -3.34045 0
M  V30 3413 H 330.067 3.0489 -7.10114 0
M  V30 3414 H 328.412 2.74834 -6.3835 0
M  V30 3415 H 331.603 2.11392 -4.1765 0
M  V30 3416 H 331.776 2.69869 -5.89131 0
M  V30 3417 N 325.182 1.32811 0.848464 0
M  V30 3418 C 326.112 1.24882 1.97299 0
M  V30 3419 C 327.093 0.131357 1.69592 0
M  V30 3420 O 328.278 0.319553 1.91553 0
M  V30 3421 C 325.408 0.97746 3.33261 0
M  V30 3422 C 324.362 2.05682 3.75338 0
M  V30 3423 C 323.688 1.63777 5.09 0
M  V30 3424 C 324.988 3.47254 3.90144 0
M  V30 3425 H 326.682 2.18966 2.04191 0
M  V30 3426 H 324.228 1.05413 0.981029 0
M  V30 3427 H 326.181 0.908513 4.1149 0
M  V30 3428 H 324.905 0.000980011 3.266 0
M  V30 3429 H 323.564 2.11603 2.99366 0
M  V30 3430 H 323.212 0.648569 4.98801 0
M  V30 3431 H 322.912 2.36 5.38124 0
M  V30 3432 H 324.436 1.5833 5.89715 0
M  V30 3433 H 325.85 3.43888 4.58709 0
M  V30 3434 H 324.247 4.1788 4.30693 0
M  V30 3435 H 325.317 3.86462 2.92874 0
M  V30 3436 N 326.66 -1.06551 1.16123 0
M  V30 3437 C 327.623 -2.12132 0.867906 0
M  V30 3438 C 328.623 -1.60224 -0.135944 0
M  V30 3439 O 329.813 -1.73943 0.0946422 0
M  V30 3440 C 326.945 -3.396 0.297419 0
M  V30 3441 H 328.138 -2.39586 1.80385 0
M  V30 3442 H 325.691 -1.22574 0.969812 0
M  V30 3443 H 326.426 -3.17794 -0.64633 0
M  V30 3444 H 326.211 -3.78581 1.02073 0
M  V30 3445 H 327.701 -4.17455 0.110052 0
M  V30 3446 N 328.138 -0.959301 -1.25041 0
M  V30 3447 C 329.101 -0.487677 -2.23952 0
M  V30 3448 C 330.101 0.41119 -1.55454 0
M  V30 3449 O 331.291 0.207825 -1.72956 0
M  V30 3450 C 328.423 0.294807 -3.39623 0
M  V30 3451 H 329.616 -1.36198 -2.67189 0
M  V30 3452 H 327.169 -0.743042 -1.37508 0
M  V30 3453 H 327.904 1.18658 -3.01813 0
M  V30 3454 H 327.689 -0.35012 -3.90534 0
M  V30 3455 H 329.179 0.614089 -4.1306 0
M  V30 3456 N 329.616 1.39756 -0.72842 0
M  V30 3457 C 330.526 2.34444 -0.0855374 0
M  V30 3458 C 331.542 1.57976 0.729356 0
M  V30 3459 O 332.718 1.90301 0.659346 0
M  V30 3460 C 329.783 3.36965 0.815798 0
M  V30 3461 C 328.844 4.29299 -0.0105996 0
M  V30 3462 C 328.077 5.26923 0.84781 0
M  V30 3463 O 328.3 5.30859 2.08673 0
M  V30 3464 O 327.234 6.01249 0.279969 0
M  V30 3465 H 331.06 2.91065 -0.866892 0
M  V30 3466 H 328.645 1.4117 -0.48902 0
M  V30 3467 H 330.527 3.99804 1.33171 0
M  V30 3468 H 329.202 2.82739 1.57608 0
M  V30 3469 H 328.109 3.69703 -0.571877 0
M  V30 3470 H 329.442 4.86712 -0.73295 0
M  V30 3471 N 331.094 0.475555 1.50254 0
M  V30 3472 C 332.51 0.12997 1.5907 0
M  V30 3473 C 332.71 -1.36385 1.48328 0
M  V30 3474 O 331.766 -2.13754 1.34407 0
M  V30 3475 C 333.079 0.684139 2.92814 0
M  V30 3476 C 334.627 0.647965 3.0622 0
M  V30 3477 C 335.102 1.17975 4.42545 0
M  V30 3478 N 336.593 1.13936 4.48969 0
M  V30 3479 C 337.328 1.52129 5.52851 0
M  V30 3480 N 336.824 1.97793 6.63965 0
M  V30 3481 N 338.617 1.43704 5.4342 0
M  V30 3482 H 330.768 1.44706 1.55479 0
M  V30 3483 H 333.031 0.598691 0.735033 0
M  V30 3484 H 332.737 1.73079 3.06164 0
M  V30 3485 H 332.611 0.130204 3.76975 0
M  V30 3486 H 334.998 -0.38979 2.92514 0
M  V30 3487 H 335.079 1.23876 2.23805 0
M  V30 3488 H 334.723 2.21616 4.57 0
M  V30 3489 H 334.653 0.565138 5.23559 0
M  V30 3490 H 337.144 0.804488 3.69238 0
M  V30 3491 H 337.457 2.25072 7.39299 0
M  V30 3492 H 335.802 2.01749 6.65073 0
M  V30 3493 H 338.993 1.07867 4.55502 0
M  V30 3494 H 339.166 1.73794 6.24259 0
M  V30 3495 N 332.573 -1.56217 0.208337 0
M  V30 3496 C 333.536 -2.18455 -0.693557 0
M  V30 3497 C 334.536 -1.14268 -1.13135 0
M  V30 3498 O 335.726 -1.39577 -1.0423 0
M  V30 3499 C 332.858 -2.79727 -1.94848 0
M  V30 3500 H 334.051 -2.99519 -0.15114 0
M  V30 3501 H 331.604 -1.56245 -0.041287 0
M  V30 3502 H 332.339 -2.02497 -2.53309 0
M  V30 3503 H 332.124 -3.56009 -1.64316 0
M  V30 3504 H 333.614 -3.27475 -2.59133 0
M  V30 3505 N 334.051 0.0651679 -1.57465 0
M  V30 3506 C 335.299 0.761555 -1.87202 0
M  V30 3507 C 335.62 1.77778 -0.801243 0
M  V30 3508 O 334.89 1.95166 0.16937 0
M  V30 3509 H 333.47 0.284251 -0.690804 0
M  V30 3510 H 336.132 0.0396827 -1.9486 0
M  V30 3511 H 335.228 1.27365 -2.84929 0
M  V30 3512 N 335.529 1.53961 0.336706 0
M  V30 3513 C 336.477 1.83136 1.43401 0
M  V30 3514 C 337.471 0.702313 1.54156 0
M  V30 3515 O 338.677 0.885765 1.56698 0
M  V30 3516 H 335.052 0.580309 0.478273 0
M  V30 3517 H 337.023 2.74925 1.16012 0
M  V30 3518 C 335.772 2.06385 2.79822 0
M  V30 3519 H 335.095 2.92718 2.72316 0
M  V30 3520 H 336.535 2.30761 3.55704 0
M  V30 3521 C 334.994 0.851414 3.25964 0
M  V30 3522 O 335.524 0.0541904 4.01663 0
M  V30 3523 N 333.73 0.66672 2.82848 0
M  V30 3524 H 333.277 1.31665 2.21409 0
M  V30 3525 H 333.235 -0.143032 3.14074 0
M  V30 3526 N 337.007 -0.598083 1.45811 0
M  V30 3527 C 337.97 -1.69018 1.54808 0
M  V30 3528 C 338.97 -1.55037 0.426652 0
M  V30 3529 O 340.16 -1.59932 0.690456 0
M  V30 3530 C 337.292 -3.0835 1.45371 0
M  V30 3531 H 338.485 -1.62403 2.52121 0
M  V30 3532 H 336.038 -0.814626 1.33392 0
M  V30 3533 H 336.773 -3.20534 0.492793 0
M  V30 3534 H 336.558 -3.19907 2.26721 0
M  V30 3535 H 338.048 -3.8788 1.54721 0
M  V30 3536 N 338.485 -1.33259 -0.841409 0
M  V30 3537 C 339.731 -1.24757 -1.59886 0
M  V30 3538 C 340.064 0.186913 -1.93298 0
M  V30 3539 O 339.339 1.12757 -1.5848 0
M  V30 3540 C 339.622 -2.12036 -2.91055 0
M  V30 3541 C 339.475 -3.63929 -2.6434 0
M  V30 3542 C 340.794 -1.9916 -3.92458 0
M  V30 3543 H 337.913 -0.454542 -0.580138 0
M  V30 3544 H 340.555 -1.63335 -0.970647 0
M  V30 3545 H 338.705 -1.79265 -3.44669 0
M  V30 3546 H 340.377 -4.06978 -2.17178 0
M  V30 3547 H 338.62 -3.85935 -1.98082 0
M  V30 3548 H 339.291 -4.20341 -3.57796 0
M  V30 3549 H 341.767 -2.27895 -3.48143 0
M  V30 3550 H 340.643 -2.62484 -4.82072 0
M  V30 3551 H 340.904 -0.963082 -4.31482 0
M  V30 3552 N 339.963 1.05934 -1.16686 0
M  V30 3553 C 340.893 2.1546 -0.899949 0
M  V30 3554 C 341.874 1.69391 0.155154 0
M  V30 3555 O 343.059 1.94199 0.00648693 0
M  V30 3556 C 340.189 3.44939 -0.404241 0
M  V30 3557 C 339.143 4.04536 -1.39767 0
M  V30 3558 C 338.469 5.29268 -0.760216 0
M  V30 3559 C 339.769 4.42893 -2.76845 0
M  V30 3560 H 341.463 2.38046 -1.81588 0
M  V30 3561 H 339.009 1.14404 -0.874514 0
M  V30 3562 H 340.962 4.20901 -0.204971 0
M  V30 3563 H 339.686 3.21983 0.547206 0
M  V30 3564 H 338.345 3.30635 -1.58355 0
M  V30 3565 H 337.993 5.02611 0.197831 0
M  V30 3566 H 337.693 5.70101 -1.42332 0
M  V30 3567 H 339.217 6.07924 -0.57105 0
M  V30 3568 H 340.631 5.09921 -2.62019 0
M  V30 3569 H 339.028 4.94721 -3.39663 0
M  V30 3570 H 340.098 3.53584 -3.31823 0
M  V30 3571 N 341.441 0.965919 1.2453 0
M  V30 3572 C 342.666 0.643971 1.97149 0
M  V30 3573 C 343.091 -0.779487 1.71189 0
M  V30 3574 O 342.449 -1.5288 0.974553 0
M  V30 3575 C 342.497 0.922557 3.48599 0
M  V30 3576 O 341.601 0.00707672 4.12399 0
M  V30 3577 H 340.942 0.243647 0.617683 0
M  V30 3578 H 343.472 1.29558 1.58353 0
M  V30 3579 H 343.482 0.853373 3.98976 0
M  V30 3580 H 342.157 1.95996 3.66822 0
M  V30 3581 H 340.734 0.12943 3.72675 0
M  V30 3582 N 342.919 -1.39368 0.735821 0
M  V30 3583 C 344.165 -2.00794 0.284544 0
M  V30 3584 C 344.498 -1.58255 -1.12557 0
M  V30 3585 O 343.773 -0.811819 -1.76748 0
M  V30 3586 C 344.056 -3.58011 0.387337 0
M  V30 3587 C 343.909 -4.10566 1.83728 0
M  V30 3588 C 345.228 -4.395 -0.22975 0
M  V30 3589 H 342.347 -0.729501 0.104866 0
M  V30 3590 H 344.989 -1.65564 0.93213 0
M  V30 3591 H 343.139 -3.88154 -0.164006 0
M  V30 3592 H 344.811 -3.91139 2.44556 0
M  V30 3593 H 343.054 -3.64095 2.35833 0
M  V30 3594 H 343.725 -5.19702 1.86047 0
M  V30 3595 H 346.201 -4.15406 0.240257 0
M  V30 3596 H 345.077 -5.48752 -0.127485 0
M  V30 3597 H 345.338 -4.22062 -1.3159 0
M  V30 3598 N 344.397 -0.483516 -1.5 0
M  V30 3599 C 345.345 0.318061 -2.30415 0
M  V30 3600 C 346.339 0.978988 -1.38247 0
M  V30 3601 O 347.545 0.908673 -1.55381 0
M  V30 3602 H 343.92 0.121419 -0.742133 0
M  V30 3603 H 345.891 -0.380403 -2.95965 0
M  V30 3604 C 344.64 1.38013 -3.19136 0
M  V30 3605 H 343.963 0.880952 -3.89973 0
M  V30 3606 H 345.403 1.91332 -3.78375 0
M  V30 3607 C 343.862 2.38884 -2.37563 0
M  V30 3608 O 344.392 3.44412 -2.06744 0
M  V30 3609 N 342.598 2.10912 -1.99911 0
M  V30 3610 H 342.145 1.25118 -2.25174 0
M  V30 3611 H 342.103 2.78635 -1.45636 0
M  V30 3612 N 345.875 1.56104 -0.216619 0
M  V30 3613 C 347.286 1.844 0.292128 0
M  V30 3614 C 347.637 1.13788 1.59833 0
M  V30 3615 O 346.762 0.405888 2.12559 0
M  V30 3616 C 347.357 3.3452 0.53681 0
M  V30 3617 C 345.916 3.63151 0.989876 0
M  V30 3618 C 345.063 2.77255 0.0502302 0
M  V30 3619 H 348.014 1.52481 -0.439926 0
M  V30 3620 H 348.035 3.54459 1.38345 0
M  V30 3621 H 347.547 3.85885 -0.414031 0
M  V30 3622 H 345.648 3.17238 1.95425 0
M  V30 3623 H 345.761 4.71177 0.867698 0
M  V30 3624 H 344.125 2.48555 0.556117 0
M  V30 3625 H 344.908 3.31416 -0.89544 0
M  V30 3626 N 347.353 -0.0568162 1.57498 0
M  V30 3627 C 348.301 -1.08452 2.05769 0
M  V30 3628 C 349.295 -1.39164 0.965903 0
M  V30 3629 O 350.501 -1.38395 1.15095 0
M  V30 3630 H 346.876 -0.367148 0.656282 0
M  V30 3631 H 348.847 -0.651368 2.91204 0
M  V30 3632 C 347.596 -2.38543 2.52968 0
M  V30 3633 H 346.919 -2.15765 3.36579 0
M  V30 3634 H 348.359 -3.08863 2.90481 0
M  V30 3635 C 346.818 -3.05562 1.41893 0
M  V30 3636 O 347.348 -3.94262 0.769442 0
M  V30 3637 N 345.554 -2.6643 1.16032 0
M  V30 3638 H 345.101 -1.94387 1.6903 0
M  V30 3639 H 345.059 -3.11593 0.419219 0
M  V30 3640 N 348.832 -1.54138 -0.328536 0
M  V30 3641 C 349.762 -1.86167 -1.40939 0
M  V30 3642 C 350.743 -0.718044 -1.54202 0
M  V30 3643 O 351.928 -0.971328 -1.68163 0
M  V30 3644 C 349.058 -2.08461 -2.77779 0
M  V30 3645 C 348.012 -3.24299 -2.7931 0
M  V30 3646 C 347.338 -3.31955 -4.19178 0
M  V30 3647 C 348.638 -4.62065 -2.43502 0
M  V30 3648 H 350.332 -2.76689 -1.14383 0
M  V30 3649 H 347.878 -1.33132 -0.548806 0
M  V30 3650 H 349.831 -2.29453 -3.53454 0
M  V30 3651 H 348.555 -1.14684 -3.05802 0
M  V30 3652 H 347.214 -3.03187 -2.0609 0
M  V30 3653 H 346.862 -2.35745 -4.44335 0
M  V30 3654 H 346.562 -4.09805 -4.2111 0
M  V30 3655 H 348.086 -3.55175 -4.96672 0
M  V30 3656 H 349.5 -4.8297 -3.08889 0
M  V30 3657 H 347.897 -5.42429 -2.56693 0
M  V30 3658 H 348.967 -4.64652 -1.38659 0
M  V30 3659 N 350.31 0.590341 -1.46126 0
M  V30 3660 C 351.24 1.71032 -1.58966 0
M  V30 3661 C 352.221 1.64302 -0.440335 0
M  V30 3662 O 353.406 1.82436 -0.665634 0
M  V30 3663 C 350.536 3.09665 -1.57241 0
M  V30 3664 C 349.49 3.31221 -2.71066 0
M  V30 3665 C 348.816 4.70303 -2.54399 0
M  V30 3666 C 350.116 3.19796 -4.1295 0
M  V30 3667 H 351.81 1.60543 -2.52718 0
M  V30 3668 H 349.356 0.770933 -1.21625 0
M  V30 3669 H 351.309 3.87831 -1.64819 0
M  V30 3670 H 350.033 3.21036 -0.600289 0
M  V30 3671 H 348.692 2.55452 -2.62944 0
M  V30 3672 H 348.34 4.78429 -1.55288 0
M  V30 3673 H 348.04 4.85679 -3.30741 0
M  V30 3674 H 349.564 5.50647 -2.63857 0
M  V30 3675 H 350.978 3.87815 -4.22223 0
M  V30 3676 H 349.375 3.46696 -4.89818 0
M  V30 3677 H 350.445 2.16983 -4.33643 0
M  V30 3678 N 351.788 1.33704 0.83433 0
M  V30 3679 C 353.037 1.24763 1.58484 0
M  V30 3680 C 353.35 -0.183775 1.94735 0
M  V30 3681 O 354.556 -0.395234 2.68608 0
M  V30 3682 C 353.012 2.18638 2.85876 0
M  V30 3683 C 352.62 3.66974 2.56971 0
M  V30 3684 C 354.364 2.18581 3.63899 0
M  V30 3685 C 352.271 4.5275 3.80488 0
M  V30 3686 H 351.201 0.463425 0.594772 0
M  V30 3687 H 353.852 1.58797 0.919551 0
M  V30 3688 H 352.234 1.77542 3.5397 0
M  V30 3689 H 353.408 4.16538 1.9706 0
M  V30 3690 H 351.723 3.69366 1.92244 0
M  V30 3691 H 354.32 2.79894 4.55591 0
M  V30 3692 H 354.663 1.18207 3.99165 0
M  V30 3693 H 355.196 2.58062 3.02735 0
M  V30 3694 H 351.935 5.54017 3.5035 0
M  V30 3695 H 351.455 4.07927 4.39722 0
M  V30 3696 H 353.134 4.66784 4.4802 0
M  V30 3697 N 353.266 -1.05314 1.17247 0
M  V30 3698 C 354.513 -1.78293 0.960091 0
M  V30 3699 C 354.841 -1.87658 -0.51136 0
M  V30 3700 O 354.096 -1.3718 -1.39571 0
M  V30 3701 C 354.395 -3.2229 1.54479 0
M  V30 3702 C 354.061 -3.32987 3.04024 0
M  V30 3703 C 352.723 -3.35613 3.44844 0
M  V30 3704 C 355.075 -3.34102 4.00031 0
M  V30 3705 C 352.403 -3.36982 4.8027 0
M  V30 3706 C 354.755 -3.3701 5.35357 0
M  V30 3707 C 353.419 -3.37923 5.75642 0
M  V30 3708 H 352.689 -0.652422 0.351322 0
M  V30 3709 H 355.336 -1.23782 1.46117 0
M  V30 3710 H 353.641 -3.7972 0.965391 0
M  V30 3711 H 355.338 -3.77376 1.35603 0
M  V30 3712 H 351.928 -3.31655 2.71483 0
M  V30 3713 H 356.112 -3.31276 3.69554 0
M  V30 3714 H 351.368 -3.35999 5.10798 0
M  V30 3715 H 355.542 -3.36822 6.09528 0
M  V30 3716 H 353.169 -3.38738 6.80559 0
M  V30 3717 N 354.744 -0.972509 -1.24016 0
M  V30 3718 C 355.99 -0.637978 -1.92504 0
M  V30 3719 C 356.323 0.825383 -1.75787 0
M  V30 3720 O 355.598 1.59442 -1.11393 0
M  V30 3721 C 355.881 -1.01942 -3.45369 0
M  V30 3722 C 355.734 -2.53983 -3.71231 0
M  V30 3723 C 357.053 -0.55751 -4.36555 0
M  V30 3724 H 354.172 -0.233248 -0.699117 0
M  V30 3725 H 356.814 -1.21238 -1.46292 0
M  V30 3726 H 354.964 -0.530656 -3.84859 0
M  V30 3727 H 356.636 -3.10374 -3.41271 0
M  V30 3728 H 354.879 -2.96968 -3.16216 0
M  V30 3729 H 355.55 -2.75723 -4.78206 0
M  V30 3730 H 358.026 -0.977029 -4.04467 0
M  V30 3731 H 356.902 -0.85292 -5.42233 0
M  V30 3732 H 357.163 0.542328 -4.38761 0
M  V30 3733 N 356.222 1.38976 -0.743202 0
M  V30 3734 C 357.132 2.3434 -0.110399 0
M  V30 3735 C 358.148 1.58741 0.712559 0
M  V30 3736 O 359.324 1.9099 0.639125 0
M  V30 3737 C 356.389 3.37812 0.780012 0
M  V30 3738 C 355.45 4.29263 -0.0561319 0
M  V30 3739 C 354.683 5.27793 0.791875 0
M  V30 3740 O 354.906 5.33043 2.03031 0
M  V30 3741 O 353.84 6.01512 0.216183 0
M  V30 3742 H 357.666 2.90129 -0.897714 0
M  V30 3743 H 355.251 1.40643 -0.503966 0
M  V30 3744 H 357.133 4.01194 1.28923 0
M  V30 3745 H 355.808 2.84395 1.546 0
M  V30 3746 H 354.715 3.69076 -0.611056 0
M  V30 3747 H 356.048 4.85907 -0.784531 0
M  V30 3748 N 357.7 0.491464 1.49741 0
M  V30 3749 C 358.948 -0.0563141 2.02022 0
M  V30 3750 C 359.269 -1.38363 1.37407 0
M  V30 3751 O 358.539 -1.88702 0.526166 0
M  V30 3752 H 357.119 -0.0238014 0.746621 0
M  V30 3753 H 359.781 0.646533 1.83864 0
M  V30 3754 H 358.877 -0.192967 3.11503 0
M  V30 3755 N 359.178 -1.55987 0.224894 0
M  V30 3756 C 360.424 -1.98684 -0.406502 0
M  V30 3757 C 360.757 -1.11248 -1.59177 0
M  V30 3758 O 360.032 -0.170909 -1.93748 0
M  V30 3759 C 360.315 -3.50218 -0.837808 0
M  V30 3760 C 360.168 -4.48426 0.351332 0
M  V30 3761 C 361.487 -4.06243 -1.69278 0
M  V30 3762 H 358.606 -0.722337 -0.146283 0
M  V30 3763 H 361.248 -1.87255 0.321799 0
M  V30 3764 H 359.398 -3.60089 -1.45837 0
M  V30 3765 H 361.07 -4.50562 0.989526 0
M  V30 3766 H 359.313 -4.22159 0.998207 0
M  V30 3767 H 359.984 -5.52 0.00655905 0
M  V30 3768 H 362.46 -3.99337 -1.16914 0
M  V30 3769 H 361.336 -5.12581 -1.96346 0
M  V30 3770 H 361.597 -3.53332 -2.65723 0
M  V30 3771 N 360.656 0.0484629 -1.57525 0
M  V30 3772 C 361.588 1.08222 -2.02041 0
M  V30 3773 C 362.601 1.33621 -0.930012 0
M  V30 3774 O 363.79 1.3145 -1.20761 0
M  V30 3775 C 360.89 2.42818 -2.36416 0
M  V30 3776 C 360.063 2.37049 -3.67596 0
M  V30 3777 C 359.122 3.53937 -3.89378 0
M  V30 3778 O 358.148 3.34308 -4.60681 0
M  V30 3779 N 359.35 4.75126 -3.3352 0
M  V30 3780 H 362.115 0.702946 -2.9134 0
M  V30 3781 H 359.676 0.236745 -1.6016 0
M  V30 3782 H 361.668 3.197 -2.48141 0
M  V30 3783 H 360.238 2.72661 -1.52888 0
M  V30 3784 H 359.458 1.45395 -3.66407 0
M  V30 3785 H 360.746 2.30318 -4.53686 0
M  V30 3786 H 360.144 4.93976 -2.75688 0
M  V30 3787 H 358.701 5.49439 -3.50656 0
M  V30 3788 N 362.134 1.5431 0.320358 0
M  V30 3789 C 363.359 1.76954 1.08175 0
M  V30 3790 C 363.784 0.518193 1.80821 0
M  V30 3791 O 363.142 -0.530411 1.73368 0
M  V30 3792 C 363.19 2.96451 2.05303 0
M  V30 3793 O 362.294 2.68221 3.13259 0
M  V30 3794 H 361.635 0.586275 0.311733 0
M  V30 3795 H 364.165 2.01342 0.363676 0
M  V30 3796 H 364.175 3.23887 2.48116 0
M  V30 3797 H 362.85 3.87196 1.51829 0
M  V30 3798 H 361.427 2.51744 2.75099 0
M  V30 3799 N 363.613 -0.582584 1.46437 0
M  V30 3800 C 364.843 -1.36484 1.55099 0
M  V30 3801 C 365.251 -1.88233 0.191056 0
M  V30 3802 O 364.594 -1.6429 -0.821858 0
M  V30 3803 C 364.656 -2.588 2.49525 0
M  V30 3804 C 364.32 -2.28517 3.95764 0
M  V30 3805 C 365.317 -1.87346 4.84972 0
M  V30 3806 C 363.002 -2.40658 4.40896 0
M  V30 3807 C 364.996 -1.5871 6.17325 0
M  V30 3808 C 362.683 -2.11635 5.73284 0
M  V30 3809 C 363.681 -1.70725 6.61318 0
M  V30 3810 O 363.369 -1.42057 7.91249 0
M  V30 3811 H 363.101 -0.423297 0.527063 0
M  V30 3812 H 365.655 -0.715188 1.92547 0
M  V30 3813 H 363.885 -3.26571 2.07095 0
M  V30 3814 H 365.574 -3.20868 2.48593 0
M  V30 3815 H 366.34 -1.77481 4.5136 0
M  V30 3816 H 362.219 -2.71463 3.72598 0
M  V30 3817 H 365.763 -1.26704 6.85997 0
M  V30 3818 H 361.66 -2.21124 6.06444 0
M  V30 3819 H 362.428 -1.55901 8.03515 0
M  V30 3820 N 365.091 -1.34144 -0.827227 0
M  V30 3821 C 366.039 -1.25364 -1.95925 0
M  V30 3822 C 367.033 -0.152608 -1.68711 0
M  V30 3823 O 368.239 -0.317311 -1.77181 0
M  V30 3824 H 364.614 -0.389342 -0.643364 0
M  V30 3825 H 366.585 -2.21045 -2.00454 0
M  V30 3826 C 365.334 -1.02158 -3.32354 0
M  V30 3827 H 364.657 -1.86111 -3.5384 0
M  V30 3828 H 366.097 -1.00048 -4.12027 0
M  V30 3829 C 364.556 0.275244 -3.35774 0
M  V30 3830 O 365.086 1.27806 -3.80826 0
M  V30 3831 N 363.292 0.306853 -2.88975 0
M  V30 3832 H 362.839 -0.509777 -2.52506 0
M  V30 3833 H 362.797 1.17432 -2.91646 0
M  V30 3834 N 366.569 1.04691 -1.17803 0
M  V30 3835 C 367.817 1.7743 -0.967617 0
M  V30 3836 C 368.138 1.88359 0.504574 0
M  V30 3837 O 367.408 1.40402 1.36617 0
M  V30 3838 H 365.988 0.657242 -0.355024 0
M  V30 3839 H 368.65 1.2638 -1.48371 0
M  V30 3840 H 367.746 2.78924 -1.40027 0
M  V30 3841 N 368.047 0.979072 1.23499 0
M  V30 3842 C 369.324 0.563674 1.87302 0
M  V30 3843 C 369.704 -0.959199 1.88049 0
M  V30 3844 O 369.052 -1.83535 1.36114 0
M  V30 3845 C 369.262 1.16822 3.28867 0
M  V30 3846 C 370.61 1.26014 4.0547 0
M  V30 3847 O 371.634 1.12158 3.38082 0
M  V30 3848 O 370.493 1.48044 5.26066 0
M  V30 3849 H 367.587 0.189602 0.804972 0
M  V30 3850 H 370.133 1.07407 1.31384 0
M  V30 3851 H 368.905 2.21049 3.22883 0
M  V30 3852 H 368.528 0.642564 3.92373 0
M  V30 3853 N 369.525 -1.3858 0.750561 0
M  V30 3854 C 370.75 -2.04997 0.314812 0
M  V30 3855 C 371.175 -1.56235 -1.04749 0
M  V30 3856 O 370.533 -0.712981 -1.66692 0
M  V30 3857 C 370.581 -3.58961 0.343415 0
M  V30 3858 O 369.685 -4.07025 -0.663628 0
M  V30 3859 H 369.026 -0.649081 0.139962 0
M  V30 3860 H 371.556 -1.77313 1.02084 0
M  V30 3861 H 371.566 -4.07542 0.193233 0
M  V30 3862 H 370.241 -3.93811 1.33738 0
M  V30 3863 H 368.818 -3.6982 -0.478307 0
M  V30 3864 N 371.003 -0.499398 -1.49478 0
M  V30 3865 C 372.233 0.0424839 -2.06556 0
M  V30 3866 C 372.641 1.31514 -1.36018 0
M  V30 3867 O 371.984 1.78555 -0.431718 0
M  V30 3868 C 372.046 0.368074 -3.57611 0
M  V30 3869 C 371.71 -0.806631 -4.49825 0
M  V30 3870 C 372.707 -1.69667 -4.91436 0
M  V30 3871 C 370.392 -1.00498 -4.92144 0
M  V30 3872 C 372.386 -2.76923 -5.74101 0
M  V30 3873 C 370.073 -2.08072 -5.74586 0
M  V30 3874 C 371.071 -2.96119 -6.15469 0
M  V30 3875 O 370.759 -4.01836 -6.96264 0
M  V30 3876 H 370.491 -0.0165165 -0.675798 0
M  V30 3877 H 373.045 -0.695497 -1.93267 0
M  V30 3878 H 371.275 1.15963 -3.68903 0
M  V30 3879 H 372.964 0.848381 -3.96935 0
M  V30 3880 H 373.73 -1.55524 -4.59388 0
M  V30 3881 H 369.609 -0.329036 -4.59824 0
M  V30 3882 H 373.153 -3.45676 -6.05932 0
M  V30 3883 H 369.05 -2.22211 -6.06047 0
M  V30 3884 H 369.818 -3.9917 -7.14567 0
M  V30 3885 N 372.481 1.55866 -0.233164 0
M  V30 3886 C 373.727 1.99643 0.389148 0
M  V30 3887 C 374.082 1.11836 1.56558 0
M  V30 3888 O 373.375 0.170848 1.90837 0
M  V30 3889 C 373.569 3.46856 0.861724 0
M  V30 3890 C 373.398 4.48904 -0.267376 0
M  V30 3891 C 372.168 4.99888 -0.737577 0
M  V30 3892 C 374.366 5.02624 -1.08966 0
M  V30 3893 N 372.348 5.8566 -1.84052 0
M  V30 3894 C 373.719 5.85434 -2.04125 0
M  V30 3895 C 375.774 4.84959 -1.12779 0
M  V30 3896 C 374.477 6.52466 -3.02789 0
M  V30 3897 C 376.503 5.52759 -2.10266 0
M  V30 3898 C 375.865 6.35346 -3.04162 0
M  V30 3899 H 371.964 0.774402 0.108742 0
M  V30 3900 H 374.548 1.91572 -0.347596 0
M  V30 3901 H 372.719 3.55352 1.5678 0
M  V30 3902 H 374.451 3.77531 1.45783 0
M  V30 3903 H 371.206 4.7249 -0.324122 0
M  V30 3904 H 371.63 6.33246 -2.39434 0
M  V30 3905 H 376.272 4.20751 -0.415749 0
M  V30 3906 H 373.99 7.15849 -3.74948 0
M  V30 3907 H 377.576 5.41051 -2.13905 0
M  V30 3908 H 376.456 6.86883 -3.78366 0
M  V30 3909 N 373.959 -0.0401083 1.57549 0
M  V30 3910 C 375.205 -0.728793 1.89895 0
M  V30 3911 C 375.56 -1.73551 0.830535 0
M  V30 3912 O 374.853 -1.90914 -0.162007 0
M  V30 3913 C 375.047 -1.44902 3.26708 0
M  V30 3914 C 374.876 -0.513568 4.46758 0
M  V30 3915 C 373.646 -0.138698 5.0511 0
M  V30 3916 C 375.844 0.203341 5.13898 0
M  V30 3917 N 373.826 0.799159 6.08676 0
M  V30 3918 C 375.197 0.997246 6.11927 0
M  V30 3919 C 377.252 0.271459 4.97159 0
M  V30 3920 C 375.955 1.85299 6.95023 0
M  V30 3921 C 377.981 1.11429 5.80808 0
M  V30 3922 C 377.343 1.89615 6.78399 0
M  V30 3923 H 373.442 -0.241125 0.743897 0
M  V30 3924 H 376.026 0.0108016 1.94697 0
M  V30 3925 H 374.197 -2.15914 3.22856 0
M  V30 3926 H 375.929 -2.08921 3.46603 0
M  V30 3927 H 372.684 -0.498496 4.70969 0
M  V30 3928 H 373.108 1.26227 6.65128 0
M  V30 3929 H 377.75 -0.318709 4.21597 0
M  V30 3930 H 375.468 2.454 7.69938 0
M  V30 3931 H 379.054 1.17038 5.69906 0
M  V30 3932 H 377.934 2.53779 7.42001 0
M  V30 3933 N 375.437 -1.54477 -0.31217 0
M  V30 3934 C 376.685 -1.72884 -1.04668 0
M  V30 3935 C 377.006 -0.511477 -1.88173 0
M  V30 3936 O 376.276 0.474407 -1.90069 0
M  V30 3937 H 374.856 -0.637461 -0.389425 0
M  V30 3938 H 377.518 -1.91807 -0.345852 0
M  V30 3939 H 376.614 -2.61334 -1.70619 0
M  V30 3940 N 376.915 0.57481 -1.46744 0
M  V30 3941 C 378.163 1.33009 -1.52161 0
M  V30 3942 C 378.484 1.94185 -0.178092 0
M  V30 3943 O 377.754 1.7899 0.796196 0
M  V30 3944 H 376.334 0.493873 -0.560445 0
M  V30 3945 H 378.996 0.672589 -1.82927 0
M  V30 3946 H 378.092 2.13273 -2.27862 0
M  V30 3947 N 378.394 1.34581 0.820102 0
M  V30 3948 C 379.342 1.26401 1.95258 0
M  V30 3949 C 380.336 0.161553 1.68628 0
M  V30 3950 O 381.542 0.326703 1.7701 0
M  V30 3951 H 377.917 0.392749 0.64129 0
M  V30 3952 H 379.888 2.22105 1.99279 0
M  V30 3953 C 378.637 1.03919 3.31807 0
M  V30 3954 H 377.96 1.87984 3.52848 0
M  V30 3955 H 379.4 1.02232 4.11491 0
M  V30 3956 C 377.859 -0.257433 3.35915 0
M  V30 3957 O 378.389 -1.25784 3.81499 0
M  V30 3958 N 376.595 -0.291524 2.89134 0
M  V30 3959 H 376.142 0.523161 2.52232 0
M  V30 3960 H 376.1 -1.15883 2.92264 0
M  V30 3961 N 379.872 -1.04064 1.18357 0
M  V30 3962 C 380.802 -2.14001 0.934113 0
M  V30 3963 C 381.783 -1.69616 -0.128186 0
M  V30 3964 O 382.968 -1.94185 0.0244093 0
M  V30 3965 C 380.098 -3.44253 0.459066 0
M  V30 3966 C 379.052 -4.02261 1.46185 0
M  V30 3967 C 378.378 -5.27992 0.844322 0
M  V30 3968 C 379.678 -4.38432 2.83856 0
M  V30 3969 H 381.372 -2.35127 1.85352 0
M  V30 3970 H 378.918 -1.12998 0.892604 0
M  V30 3971 H 380.871 -4.20522 0.271907 0
M  V30 3972 H 379.595 -3.22813 -0.495912 0
M  V30 3973 H 378.254 -3.28074 1.63595 0
M  V30 3974 H 377.902 -5.02862 -0.117845 0
M  V30 3975 H 377.602 -5.67765 1.51384 0
M  V30 3976 H 379.126 -6.06938 0.667693 0
M  V30 3977 H 380.54 -5.05688 2.70098 0
M  V30 3978 H 378.937 -4.89254 3.47491 0
M  V30 3979 H 380.007 -3.4826 3.37406 0
M  V30 3980 N 381.35 -0.985608 -1.22978 0
M  V30 3981 C 382.282 -0.488154 -2.23941 0
M  V30 3982 C 383.295 0.41282 -1.57479 0
M  V30 3983 O 384.484 0.216121 -1.77187 0
M  V30 3984 C 381.584 0.312611 -3.37455 0
M  V30 3985 C 380.757 -0.582741 -4.33501 0
M  V30 3986 C 379.816 0.165064 -5.25941 0
M  V30 3987 O 378.842 -0.447077 -5.67442 0
M  V30 3988 N 380.044 1.44953 -5.62111 0
M  V30 3989 H 382.809 -1.3563 -2.67254 0
M  V30 3990 H 380.37 -0.859477 -1.37203 0
M  V30 3991 H 382.362 0.821357 -3.96277 0
M  V30 3992 H 380.932 1.0818 -2.93285 0
M  V30 3993 H 380.152 -1.27225 -3.73105 0
M  V30 3994 H 381.44 -1.19275 -4.94622 0
M  V30 3995 H 380.838 1.9683 -5.30353 0
M  V30 3996 H 379.395 1.90361 -6.23383 0
M  V30 3997 N 382.828 1.3818 -0.7579 0
M  V30 3998 C 384.076 1.99624 -0.315361 0
M  V30 3999 C 384.397 1.60464 1.10799 0
M  V30 4000 O 383.667 0.863507 1.75842 0
M  V30 4001 H 382.247 0.73831 -0.113611 0
M  V30 4002 H 384.909 1.68878 -0.972952 0
M  V30 4003 H 384.005 3.09754 -0.381931 0
M  V30 4004 N 384.306 0.507319 1.49211 0
M  V30 4005 C 385.269 -0.256763 2.27757 0
M  V30 4006 C 386.269 -0.888287 1.34038 0
M  V30 4007 O 387.459 -0.751841 1.5714 0
M  V30 4008 C 384.591 -1.36905 3.12202 0
M  V30 4009 H 385.784 0.432557 2.96764 0
M  V30 4010 H 383.337 0.262488 1.5408 0
M  V30 4011 H 384.072 -2.09233 2.47775 0
M  V30 4012 H 383.857 -0.921599 3.81115 0
M  V30 4013 H 385.347 -1.9071 3.7151 0
M  V30 4014 N 385.784 -1.5574 0.241426 0
M  V30 4015 C 387.032 -1.98417 -0.384075 0
M  V30 4016 C 387.353 -1.13078 -1.58866 0
M  V30 4017 O 386.623 -0.212312 -1.94746 0
M  V30 4018 H 385.203 -0.732813 -0.144894 0
M  V30 4019 H 387.865 -1.9193 0.338943 0
M  V30 4020 H 386.961 -3.04219 -0.696939 0
M  V30 4021 N 387.262 0.0317525 -1.57568 0
M  V30 4022 C 388.194 1.06073 -2.03178 0
M  V30 4023 C 389.207 1.32627 -0.944132 0
M  V30 4024 O 390.396 1.30162 -1.22148 0
M  V30 4025 C 387.496 2.40297 -2.38978 0
M  V30 4026 C 386.669 2.33137 -3.70089 0
M  V30 4027 C 385.728 3.49787 -3.9311 0
M  V30 4028 O 384.754 3.29403 -4.64201 0
M  V30 4029 N 385.956 4.71562 -3.38541 0
M  V30 4030 H 388.721 0.672006 -2.92069 0
M  V30 4031 H 386.282 0.219745 -1.60402 0
M  V30 4032 H 388.274 3.1705 -2.51518 0
M  V30 4033 H 386.844 2.71024 -1.55771 0
M  V30 4034 H 386.064 1.415 -3.67928 0
M  V30 4035 H 387.352 2.25493 -4.56104 0
M  V30 4036 H 386.75 4.91024 -2.80912 0
M  V30 4037 H 385.307 5.45689 -3.56464 0
M  V30 4038 N 388.74 1.54641 0.303973 0
M  V30 4039 C 389.97 1.77511 1.05705 0
M  V30 4040 C 390.378 0.533228 1.81531 0
M  V30 4041 O 389.721 -0.506423 1.76582 0
M  V30 4042 C 389.783 2.92779 2.08617 0
M  V30 4043 C 389.447 4.30977 1.52013 0
M  V30 4044 C 390.444 5.11115 0.9517 0
M  V30 4045 C 388.129 4.77571 1.55665 0
M  V30 4046 C 390.123 6.35966 0.427327 0
M  V30 4047 C 387.81 6.02384 1.02841 0
M  V30 4048 C 388.808 6.81417 0.464713 0
M  V30 4049 O 388.496 8.03881 -0.0555283 0
M  V30 4050 H 388.228 0.59579 0.319391 0
M  V30 4051 H 390.782 2.02401 0.349712 0
M  V30 4052 H 389.012 2.63506 2.83022 0
M  V30 4053 H 390.701 3.03252 2.69802 0
M  V30 4054 H 391.467 4.76264 0.916407 0
M  V30 4055 H 387.346 4.16085 1.9848 0
M  V30 4056 H 390.89 6.97599 -0.0133062 0
M  V30 4057 H 386.787 6.36723 1.06084 0
M  V30 4058 H 387.555 8.18479 0.0580522 0
M  V30 4059 N 390.218 -0.567019 1.47046 0
M  V30 4060 C 391.629 -1.14916 1.47143 0
M  V30 4061 C 391.98 -1.94954 0.220767 0
M  V30 4062 O 391.105 -2.05602 -0.67505 0
M  V30 4063 C 391.7 -2.09069 2.666 0
M  V30 4064 C 390.259 -2.62575 2.69687 0
M  V30 4065 C 389.406 -1.38755 2.40088 0
M  V30 4066 H 392.357 -0.354126 1.54699 0
M  V30 4067 H 392.378 -2.92789 2.43011 0
M  V30 4068 H 391.89 -1.50789 3.57609 0
M  V30 4069 H 389.991 -3.24681 1.82792 0
M  V30 4070 H 390.104 -3.04239 3.70102 0
M  V30 4071 H 388.468 -1.69098 1.90468 0
M  V30 4072 H 389.251 -0.822822 3.33293 0
M  V30 4073 N 391.696 -1.35014 -0.812953 0
M  V30 4074 C 392.942 -1.2812 -1.57204 0
M  V30 4075 C 393.275 0.145869 -1.93651 0
M  V30 4076 O 392.55 1.0937 -1.60836 0
M  V30 4077 C 392.833 -2.18162 -2.86492 0
M  V30 4078 C 392.686 -3.69454 -2.56561 0
M  V30 4079 C 394.005 -2.07439 -3.88145 0
M  V30 4080 H 391.124 -0.466746 -0.570366 0
M  V30 4081 H 393.766 -1.65357 -0.935783 0
M  V30 4082 H 391.916 -1.86535 -3.40789 0
M  V30 4083 H 393.588 -4.11493 -2.08497 0
M  V30 4084 H 391.831 -3.9005 -1.89851 0
M  V30 4085 H 392.502 -4.27835 -3.48799 0
M  V30 4086 H 394.978 -2.35228 -3.4323 0
M  V30 4087 H 393.854 -2.7265 -4.76396 0
M  V30 4088 H 394.115 -1.05439 -4.29343 0
M  V30 4089 N 393.175 1.03435 -1.18907 0
M  V30 4090 C 394.421 1.77005 -0.989798 0
M  V30 4091 C 394.754 1.88205 0.478816 0
M  V30 4092 O 394.029 1.39481 1.35556 0
M  V30 4093 C 394.312 3.19925 -1.65287 0
M  V30 4094 C 394.165 3.1663 -3.19477 0
M  V30 4095 C 395.484 4.18189 -1.37134 0
M  V30 4096 H 392.603 0.642538 -0.360991 0
M  V30 4097 H 395.245 1.20784 -1.46667 0
M  V30 4098 H 393.395 3.67929 -1.24741 0
M  V30 4099 H 395.067 2.76567 -3.692 0
M  V30 4100 H 393.31 2.54491 -3.51307 0
M  V30 4101 H 393.981 4.1758 -3.61013 0
M  V30 4102 H 396.457 3.78761 -1.72276 0
M  V30 4103 H 395.333 5.16394 -1.86087 0
M  V30 4104 H 395.594 4.41112 -0.295424 0
M  V30 4105 N 394.653 0.992116 1.22453 0
M  V30 4106 C 395.583 0.561677 2.26644 0
M  V30 4107 C 396.564 -0.411055 1.65059 0
M  V30 4108 O 397.749 -0.301861 1.9184 0
M  V30 4109 C 394.879 -0.125247 3.47074 0
M  V30 4110 C 393.833 0.765948 4.21091 0
M  V30 4111 C 393.159 -0.0538484 5.34673 0
M  V30 4112 C 394.459 2.06242 4.79856 0
M  V30 4113 H 396.153 1.43259 2.62902 0
M  V30 4114 H 393.699 0.690283 1.26377 0
M  V30 4115 H 395.652 -0.437764 4.1912 0
M  V30 4116 H 394.376 -1.03069 3.0991 0
M  V30 4117 H 393.035 1.0621 3.50878 0
M  V30 4118 H 392.683 -0.960188 4.9375 0
M  V30 4119 H 392.383 0.539415 5.85119 0
M  V30 4120 H 393.907 -0.360477 6.09535 0
M  V30 4121 H 395.321 1.8139 5.43848 0
M  V30 4122 H 393.718 2.60444 5.40638 0
M  V30 4123 H 394.788 2.74167 3.99951 0
M  V30 4124 N 396.131 -1.37776 0.765217 0
M  V30 4125 C 397.079 -2.32209 0.134798 0
M  V30 4126 C 398.073 -1.54607 -0.692315 0
M  V30 4127 O 399.279 -1.70052 -0.590109 0
M  V30 4128 H 395.654 -0.751591 0.0248005 0
M  V30 4129 H 397.625 -2.8297 0.947119 0
M  V30 4130 C 396.374 -3.39841 -0.735063 0
M  V30 4131 H 395.697 -3.99654 -0.107991 0
M  V30 4132 H 397.137 -4.08296 -1.14326 0
M  V30 4133 C 395.596 -2.79378 -1.88281 0
M  V30 4134 O 396.126 -2.69608 -2.97783 0
M  V30 4135 N 394.332 -2.37016 -1.68142 0
M  V30 4136 H 393.879 -2.45162 -0.790772 0
M  V30 4137 H 393.837 -1.96905 -2.45104 0
M  V30 4138 N 397.609 -0.515225 -1.4894 0
M  V30 4139 C 398.855 0.0242508 -2.02785 0
M  V30 4140 C 399.188 1.35323 -1.39289 0
M  V30 4141 O 398.463 1.87041 -0.533469 0
M  V30 4142 C 398.746 0.16184 -3.59736 0
M  V30 4143 C 398.599 -1.19127 -4.33738 0
M  V30 4144 C 399.918 0.895719 -4.30888 0
M  V30 4145 H 397.037 0.00733914 -0.736963 0
M  V30 4146 H 399.679 -0.669395 -1.77818 0
M  V30 4147 H 397.829 0.752624 -3.8114 0
M  V30 4148 H 399.501 -1.82202 -4.23792 0
M  V30 4149 H 397.744 -1.77695 -3.95736 0
M  V30 4150 H 398.415 -1.04815 -5.41957 0
M  V30 4151 H 400.891 0.394528 -4.14225 0
M  V30 4152 H 399.767 0.960859 -5.40425 0
M  V30 4153 H 400.028 1.9427 -3.97129 0
M  V30 4154 N 399.087 1.5561 -0.249682 0
M  V30 4155 C 400.498 1.84979 0.252949 0
M  V30 4156 C 400.849 1.17153 1.57384 0
M  V30 4157 O 399.974 0.450884 2.11651 0
M  V30 4158 C 400.569 3.35584 0.465732 0
M  V30 4159 C 399.128 3.65169 0.912624 0
M  V30 4160 C 398.275 2.77299 -0.00859085 0
M  V30 4161 H 401.226 1.51513 -0.47217 0
M  V30 4162 H 401.247 3.57313 1.30795 0
M  V30 4163 H 400.759 3.8492 -0.49579 0
M  V30 4164 H 398.86 3.21312 1.88652 0
M  V30 4165 H 398.973 4.72912 0.767559 0
M  V30 4166 H 397.337 2.49678 0.50327 0
M  V30 4167 H 398.12 3.29442 -0.965537 0
M  V30 4168 N 400.565 -0.0233959 1.57583 0
M  V30 4169 C 401.513 -1.04063 2.08023 0
M  V30 4170 C 402.507 -1.37084 0.995204 0
M  V30 4171 O 403.713 -1.35923 1.18004 0
M  V30 4172 H 400.088 -0.353144 0.663922 0
M  V30 4173 H 402.059 -0.589453 2.9252 0
M  V30 4174 C 400.808 -2.33123 2.57971 0
M  V30 4175 H 400.131 -2.08577 3.4108 0
M  V30 4176 H 401.571 -3.02632 2.96967 0
M  V30 4177 C 400.03 -3.02483 1.48342 0
M  V30 4178 O 400.56 -3.92541 0.852898 0
M  V30 4179 N 398.766 -2.63909 1.21658 0
M  V30 4180 H 398.313 -1.90758 1.73116 0
M  V30 4181 H 398.271 -3.10633 0.485218 0
M  V30 4182 N 402.043 -1.548 -0.295768 0
M  V30 4183 C 403.459 -1.4613 -0.641722 0
M  V30 4184 C 403.659 -0.656771 -1.90496 0
M  V30 4185 O 402.715 -0.166547 -2.5195 0
M  V30 4186 C 404.028 -2.90141 -0.789852 0
M  V30 4187 C 405.576 -3.00216 -0.885396 0
M  V30 4188 C 406.051 -4.45434 -1.06548 0
M  V30 4189 N 407.542 -4.49166 -1.13156 0
M  V30 4190 C 408.277 -5.58717 -1.28929 0
M  V30 4191 N 407.773 -6.78182 -1.41567 0
M  V30 4192 N 409.566 -5.46415 -1.31859 0
M  V30 4193 H 401.717 -2.05574 0.534147 0
M  V30 4194 H 403.98 -0.931259 0.177372 0
M  V30 4195 H 403.686 -3.51635 0.0675598 0
M  V30 4196 H 403.56 -3.37859 -1.67724 0
M  V30 4197 H 405.947 -2.38833 -1.73329 0
M  V30 4198 H 406.028 -2.55787 0.0261185 0
M  V30 4199 H 405.672 -5.07413 -0.222335 0
M  V30 4200 H 405.602 -4.87499 -1.9913 0
M  V30 4201 H 408.093 -3.631 -1.04721 0
M  V30 4202 H 408.406 -7.57428 -1.53372 0
M  V30 4203 H 406.751 -6.81037 -1.38613 0
M  V30 4204 H 409.942 -4.5203 -1.21601 0
M  V30 4205 H 410.115 -6.31841 -1.43808 0
M  V30 4206 N 403.521 0.559213 -1.47345 0
M  V30 4207 C 404.451 1.67622 -1.62558 0
M  V30 4208 C 405.432 1.63331 -0.475087 0
M  V30 4209 O 406.617 1.80983 -0.704182 0
M  V30 4210 C 403.747 3.0626 -1.63774 0
M  V30 4211 C 402.701 3.25397 -2.7803 0
M  V30 4212 C 402.027 4.64801 -2.64318 0
M  V30 4213 C 403.327 3.10965 -4.19641 0
M  V30 4214 H 405.021 1.55146 -2.56067 0
M  V30 4215 H 402.567 0.744961 -1.23233 0
M  V30 4216 H 404.52 3.84247 -1.73008 0
M  V30 4217 H 403.244 3.1969 -0.66825 0
M  V30 4218 H 401.903 2.49817 -2.68304 0
M  V30 4219 H 401.551 4.75028 -1.65401 0
M  V30 4220 H 401.251 4.78555 -3.40968 0
M  V30 4221 H 402.775 5.44926 -2.75478 0
M  V30 4222 H 404.189 3.78772 -4.30354 0
M  V30 4223 H 402.586 3.36229 -4.97062 0
M  V30 4224 H 403.656 2.07736 -4.38148 0
M  V30 4225 N 404.999 1.35443 0.805782 0
M  V30 4226 C 406.245 1.28952 1.56522 0
M  V30 4227 C 406.578 -0.135597 1.93726 0
M  V30 4228 O 405.853 -1.08516 1.61414 0
M  V30 4229 C 406.136 2.19678 2.85331 0
M  V30 4230 C 405.989 3.7081 2.54598 0
M  V30 4231 C 407.308 2.09495 3.8704 0
M  V30 4232 H 404.427 0.469764 0.567883 0
M  V30 4233 H 407.069 1.65851 0.927001 0
M  V30 4234 H 405.219 1.8834 3.39795 0
M  V30 4235 H 406.891 4.12593 2.06312 0
M  V30 4236 H 405.134 3.91051 1.8778 0
M  V30 4237 H 405.805 4.29679 3.46525 0
M  V30 4238 H 408.281 2.37045 3.41978 0
M  V30 4239 H 407.157 2.75173 4.74943 0
M  V30 4240 H 407.418 1.07714 4.28777 0
M  V30 4241 N 406.477 -1.02803 1.19454 0
M  V30 4242 C 407.707 -1.79581 1.02149 0
M  V30 4243 C 408.115 -1.84182 -0.432851 0
M  V30 4244 O 407.458 -1.28534 -1.31243 0
M  V30 4245 C 407.52 -3.25993 1.51554 0
M  V30 4246 C 407.184 -3.45025 2.99678 0
M  V30 4247 C 408.181 -3.35175 3.97434 0
M  V30 4248 C 405.866 -3.71212 3.38389 0
M  V30 4249 C 407.86 -3.51238 5.31893 0
M  V30 4250 C 405.547 -3.8692 4.73008 0
M  V30 4251 C 406.545 -3.76936 5.69569 0
M  V30 4252 O 406.233 -3.92179 7.01748 0
M  V30 4253 H 405.965 -0.571962 0.360327 0
M  V30 4254 H 408.519 -1.30367 1.58725 0
M  V30 4255 H 406.749 -3.76235 0.893543 0
M  V30 4256 H 408.438 -3.84368 1.30444 0
M  V30 4257 H 409.204 -3.14895 3.68872 0
M  V30 4258 H 405.083 -3.78075 2.6378 0
M  V30 4259 H 408.627 -3.43362 6.07247 0
M  V30 4260 H 404.524 -4.06699 5.01265 0
M  V30 4261 H 405.292 -4.09265 7.08833 0
M  V30 4262 N 407.956 -0.998596 -1.21925 0
M  V30 4263 C 409.181 -0.696015 -1.95372 0
M  V30 4264 C 409.606 0.733826 -1.73195 0
M  V30 4265 O 408.964 1.50242 -1.01474 0
M  V30 4266 C 409.012 -1.01466 -3.4603 0
M  V30 4267 O 408.116 -0.116415 -4.12236 0
M  V30 4268 H 407.457 -0.259938 -0.611006 0
M  V30 4269 H 409.987 -1.33711 -1.54863 0
M  V30 4270 H 409.997 -0.958855 -3.96573 0
M  V30 4271 H 408.672 -2.05653 -3.61497 0
M  V30 4272 H 407.249 -0.228193 -3.72201 0
M  V30 4273 N 409.434 1.37368 -0.772513 0
M  V30 4274 C 410.397 2.28601 -0.165541 0
M  V30 4275 C 411.397 1.48062 0.627238 0
M  V30 4276 O 412.587 1.68268 0.450715 0
M  V30 4277 C 409.719 3.32023 0.772897 0
M  V30 4278 H 410.912 2.83787 -0.969787 0
M  V30 4279 H 408.465 1.46647 -0.540775 0
M  V30 4280 H 409.2 2.81962 1.60212 0
M  V30 4281 H 408.985 3.91555 0.206585 0
M  V30 4282 H 410.475 4.00197 1.19298 0
M  V30 4283 N 410.912 0.523116 1.48665 0
M  V30 4284 C 411.862 -0.263106 2.26477 0
M  V30 4285 C 412.846 -0.916005 1.32281 0
M  V30 4286 O 414.038 -0.819946 1.56863 0
M  V30 4287 C 411.167 -1.31361 3.17174 0
M  V30 4288 C 410.253 -0.665849 4.1884 0
M  V30 4289 N 410.644 0.244434 5.05209 0
M  V30 4290 C 408.942 -0.923863 4.36326 0
M  V30 4291 C 409.643 0.617443 5.78414 0
M  V30 4292 N 408.619 -0.0198686 5.43596 0
M  V30 4293 H 412.421 0.437295 2.90629 0
M  V30 4294 H 409.935 0.340675 1.58787 0
M  V30 4295 H 411.932 -1.89052 3.71571 0
M  V30 4296 H 410.592 -2.01546 2.54576 0
M  V30 4297 H 411.603 0.616621 5.14216 0
M  V30 4298 H 408.28 -1.6168 3.84923 0
M  V30 4299 H 409.67 1.36346 6.57921 0
M  V30 4300 N 412.39 -1.55475 0.257931 0
M  V30 4301 C 413.667 -1.91155 -0.414629 0
M  V30 4302 C 414.047 -1.18008 -1.75035 0
M  V30 4303 O 413.395 -0.301193 -2.26506 0
M  V30 4304 C 413.605 -3.44283 -0.571859 0
M  V30 4305 C 414.953 -4.15744 -0.862678 0
M  V30 4306 O 415.977 -3.50083 -0.657314 0
M  V30 4307 O 414.836 -5.31909 -1.2544 0
M  V30 4308 H 411.93 -0.796016 -0.22425 0
M  V30 4309 H 414.476 -1.66976 0.302814 0
M  V30 4310 H 413.248 -3.89558 0.368844 0
M  V30 4311 H 412.871 -3.7436 -1.33943 0
M  V30 4312 N 413.868 0.0150385 -1.57593 0
M  V30 4313 C 415.098 0.713359 -1.93894 0
M  V30 4314 C 415.506 1.68663 -0.857289 0
M  V30 4315 O 414.849 1.82876 0.173788 0
M  V30 4316 C 414.911 1.51348 -3.26089 0
M  V30 4317 C 414.575 0.703451 -4.51554 0
M  V30 4318 C 415.572 -0.00237924 -5.199 0
M  V30 4319 C 413.257 0.653854 -4.98026 0
M  V30 4320 C 415.251 -0.746955 -6.33008 0
M  V30 4321 C 412.938 -0.0944578 -6.11027 0
M  V30 4322 C 413.936 -0.793609 -6.78374 0
M  V30 4323 O 413.624 -1.52974 -7.89211 0
M  V30 4324 H 413.356 0.204637 -0.644282 0
M  V30 4325 H 415.91 -0.0276411 -2.05381 0
M  V30 4326 H 414.14 2.29862 -3.10967 0
M  V30 4327 H 415.829 2.09572 -3.47612 0
M  V30 4328 H 416.595 0.0268803 -4.84993 0
M  V30 4329 H 412.474 1.18756 -4.45441 0
M  V30 4330 H 416.018 -1.2932 -6.85509 0
M  V30 4331 H 411.915 -0.125591 -6.45378 0
M  V30 4332 H 412.683 -1.44488 -8.05646 0
M  V30 4333 N 415.346 1.54954 0.287554 0
M  V30 4334 C 416.309 1.86076 1.33823 0
M  V30 4335 C 417.309 0.734414 1.43049 0
M  V30 4336 O 418.499 1.00266 1.42452 0
M  V30 4337 C 415.631 2.05305 2.72144 0
M  V30 4338 H 416.824 2.79984 1.07465 0
M  V30 4339 H 414.377 1.47223 0.524902 0
M  V30 4340 H 415.112 1.1373 3.03704 0
M  V30 4341 H 414.897 2.873 2.66836 0
M  V30 4342 H 416.387 2.30706 3.48087 0
M  V30 4343 N 416.824 -0.551391 1.4764 0
M  V30 4344 C 418.052 -1.33357 1.58189 0
M  V30 4345 C 418.467 -1.87342 0.234199 0
M  V30 4346 O 417.824 -1.65301 -0.77343 0
M  V30 4347 C 417.875 -2.49942 2.61173 0
M  V30 4348 O 417.596 -1.98187 3.90709 0
M  V30 4349 C 419.097 -3.42072 2.8196 0
M  V30 4350 H 416.317 -0.40631 0.533998 0
M  V30 4351 H 418.861 -0.667367 1.93304 0
M  V30 4352 H 417.016 -3.12489 2.28975 0
M  V30 4353 H 417.43 -2.74342 4.47031 0
M  V30 4354 H 418.904 -4.20278 3.57869 0
M  V30 4355 H 419.381 -3.95978 1.89995 0
M  V30 4356 H 419.987 -2.85336 3.15378 0
M  V30 4357 N 418.302 -1.35869 -0.798587 0
M  V30 4358 C 419.527 -1.32883 -1.59238 0
M  V30 4359 C 419.952 0.0894587 -1.87887 0
M  V30 4360 O 419.31 1.05869 -1.47178 0
M  V30 4361 C 419.358 -2.14892 -2.89575 0
M  V30 4362 O 418.462 -1.53512 -3.82763 0
M  V30 4363 H 417.803 -0.455236 -0.48338 0
M  V30 4364 H 420.333 -1.79024 -0.990539 0
M  V30 4365 H 420.343 -2.27139 -3.38928 0
M  V30 4366 H 419.018 -3.17998 -2.68049 0
M  V30 4367 H 417.595 -1.50153 -3.41334 0
M  V30 4368 N 419.78 1.02168 -1.19998 0
M  V30 4369 C 421.026 1.75945 -1.00852 0
M  V30 4370 C 421.359 1.88702 0.458828 0
M  V30 4371 O 420.634 1.40911 1.34069 0
M  V30 4372 C 420.917 3.18154 -1.68671 0
M  V30 4373 C 420.77 3.13224 -3.22817 0
M  V30 4374 C 422.089 4.16711 -1.41561 0
M  V30 4375 H 419.208 0.638673 -0.367785 0
M  V30 4376 H 421.85 1.19222 -1.4794 0
M  V30 4377 H 420 3.66586 -1.28636 0
M  V30 4378 H 421.672 2.72635 -3.72112 0
M  V30 4379 H 419.915 2.50751 -3.53986 0
M  V30 4380 H 420.586 4.13728 -3.65422 0
M  V30 4381 H 423.062 3.76913 -1.76284 0
M  V30 4382 H 421.938 5.14391 -1.91553 0
M  V30 4383 H 422.199 4.40774 -0.342193 0
M  V30 4384 N 421.258 1.00505 1.21394 0
M  V30 4385 C 422.488 0.705584 1.94178 0
M  V30 4386 C 422.896 -0.735846 1.74304 0
M  V30 4387 O 422.239 -1.50954 1.04683 0
M  V30 4388 C 422.301 0.94689 3.46806 0
M  V30 4389 C 421.965 2.37517 3.90429 0
M  V30 4390 C 422.962 3.35539 3.97127 0
M  V30 4391 C 420.647 2.71284 4.22742 0
M  V30 4392 C 422.641 4.65395 4.3553 0
M  V30 4393 C 420.328 4.01356 4.60822 0
M  V30 4394 C 421.326 4.98223 4.67186 0
M  V30 4395 O 421.014 6.25969 5.04399 0
M  V30 4396 H 420.746 0.259216 0.624326 0
M  V30 4397 H 423.3 1.34592 1.55159 0
M  V30 4398 H 421.53 0.249386 3.85895 0
M  V30 4399 H 423.219 0.640804 4.0081 0
M  V30 4400 H 423.985 3.10786 3.7234 0
M  V30 4401 H 419.864 1.96581 4.16985 0
M  V30 4402 H 423.408 5.41002 4.40412 0
M  V30 4403 H 419.305 4.25893 4.85063 0
M  V30 4404 H 420.073 6.30085 5.22431 0
M  V30 4405 N 422.737 -1.36956 0.779787 0
M  V30 4406 C 424.148 -1.82094 0.412156 0
M  V30 4407 C 424.499 -1.64926 -1.06273 0
M  V30 4408 O 423.624 -1.16483 -1.82375 0
M  V30 4409 C 424.219 -3.3059 0.741319 0
M  V30 4410 C 422.778 -3.73974 0.426641 0
M  V30 4411 C 421.925 -2.59368 0.980987 0
M  V30 4412 H 424.876 -1.25314 0.973758 0
M  V30 4413 H 424.897 -3.80489 0.028887 0
M  V30 4414 H 424.409 -3.43054 1.81482 0
M  V30 4415 H 422.51 -3.67076 -0.639215 0
M  V30 4416 H 422.623 -4.69778 0.940515 0
M  V30 4417 H 420.987 -2.51463 0.404757 0
M  V30 4418 H 421.77 -2.74621 2.06005 0
M  V30 4419 N 424.215 -0.530993 -1.48385 0
M  V30 4420 C 425.147 0.268353 -2.27624 0
M  V30 4421 C 426.16 0.903525 -1.35426 0
M  V30 4422 O 427.349 0.781796 -1.60469 0
M  V30 4423 C 424.449 1.39535 -3.08842 0
M  V30 4424 C 423.622 0.861913 -4.28824 0
M  V30 4425 C 422.681 1.87016 -4.91845 0
M  V30 4426 O 421.707 1.4267 -5.5103 0
M  V30 4427 N 422.909 3.20238 -4.84178 0
M  V30 4428 H 425.674 -0.41123 -2.96865 0
M  V30 4429 H 423.235 -0.365387 -1.57723 0
M  V30 4430 H 425.227 2.06803 -3.47871 0
M  V30 4431 H 423.797 1.97859 -2.42014 0
M  V30 4432 H 423.017 0.0132126 -3.94198 0
M  V30 4433 H 424.305 0.484415 -5.06489 0
M  V30 4434 H 423.703 3.58932 -4.37246 0
M  V30 4435 H 422.26 3.83136 -5.27305 0
M  V30 4436 N 425.693 1.55336 -0.266172 0
M  V30 4437 C 426.921 2.03801 0.356756 0
M  V30 4438 C 427.336 1.14485 1.50129 0
M  V30 4439 O 426.693 0.163121 1.8177 0
M  V30 4440 C 426.744 3.51455 0.846281 0
M  V30 4441 O 426.465 4.37371 -0.252663 0
M  V30 4442 C 427.966 4.15767 1.53794 0
M  V30 4443 H 425.186 0.665906 0.0825218 0
M  V30 4444 H 427.73 2.00636 -0.39566 0
M  V30 4445 H 425.885 3.55092 1.54881 0
M  V30 4446 H 426.299 5.24358 0.122173 0
M  V30 4447 H 427.773 5.20714 1.83198 0
M  V30 4448 H 428.25 3.63404 2.46646 0
M  V30 4449 H 428.856 4.16107 0.879488 0
M  V30 4450 N 427.171 -0.0066808 1.57599 0
M  V30 4451 C 428.417 -0.68835 1.91398 0
M  V30 4452 C 428.772 -1.7175 0.86716 0
M  V30 4453 O 428.065 -1.91215 -0.121475 0
M  V30 4454 C 428.259 -1.37939 3.29708 0
M  V30 4455 C 428.088 -0.418689 4.47747 0
M  V30 4456 C 426.858 -0.031526 5.0529 0
M  V30 4457 C 429.056 0.312301 5.13351 0
M  V30 4458 N 427.038 0.928088 6.06844 0
M  V30 4459 C 428.409 1.12682 6.09674 0
M  V30 4460 C 430.464 0.376853 4.96472 0
M  V30 4461 C 429.167 2 6.90936 0
M  V30 4462 C 431.193 1.23723 5.78314 0
M  V30 4463 C 430.555 2.03962 6.74225 0
M  V30 4464 H 426.654 -0.225292 0.748844 0
M  V30 4465 H 429.238 0.0520973 1.9463 0
M  V30 4466 H 427.409 -2.09017 3.27363 0
M  V30 4467 H 429.141 -2.01522 3.50957 0
M  V30 4468 H 425.896 -0.398485 4.71921 0
M  V30 4469 H 426.32 1.40307 6.62301 0
M  V30 4470 H 430.962 -0.22921 4.22178 0
M  V30 4471 H 428.68 2.61676 7.64559 0
M  V30 4472 H 432.266 1.291 5.67296 0
M  V30 4473 H 431.146 2.69461 7.36451 0
M  V30 4474 N 428.649 -1.55105 -0.279332 0
M  V30 4475 C 429.896 -1.75412 -1.01177 0
M  V30 4476 C 430.224 -0.551728 -1.86511 0
M  V30 4477 O 429.479 0.465919 -1.90073 0
M  V30 4478 C 429.778 -3.0086 -1.92919 0
M  V30 4479 C 429.444 -4.33689 -1.23387 0
M  V30 4480 C 428.106 -4.69792 -1.04159 0
M  V30 4481 C 430.458 -5.15941 -0.738562 0
M  V30 4482 C 427.786 -5.85707 -0.341166 0
M  V30 4483 C 430.138 -6.32579 -0.0517636 0
M  V30 4484 C 428.802 -6.67326 0.152292 0
M  V30 4485 H 428.072 -0.641879 -0.370233 0
M  V30 4486 H 430.719 -1.89373 -0.284627 0
M  V30 4487 H 429.024 -2.81773 -2.72234 0
M  V30 4488 H 430.721 -3.13768 -2.49701 0
M  V30 4489 H 427.311 -4.05309 -1.39364 0
M  V30 4490 H 431.495 -4.8853 -0.874764 0
M  V30 4491 H 426.751 -6.11157 -0.172287 0
M  V30 4492 H 430.925 -6.9557 0.339828 0
M  V30 4493 H 428.552 -7.56998 0.697014 0
M  V30 4494 N 430.127 0.543554 -1.4793 0
M  V30 4495 C 431.352 1.32995 -1.59145 0
M  V30 4496 C 431.777 1.86472 -0.246956 0
M  V30 4497 O 431.135 1.63696 0.779324 0
M  V30 4498 C 431.183 2.46623 -2.63077 0
M  V30 4499 O 430.287 3.49261 -2.19295 0
M  V30 4500 H 429.628 0.394472 -0.534124 0
M  V30 4501 H 432.158 0.655489 -1.93816 0
M  V30 4502 H 432.168 2.93001 -2.83926 0
M  V30 4503 H 430.843 2.07059 -3.60693 0
M  V30 4504 H 429.42 3.09094 -2.08603 0
M  V30 4505 N 431.605 1.3629 0.791371 0
M  V30 4506 C 432.882 1.20962 1.53712 0
M  V30 4507 C 433.262 -0.205021 2.10102 0
M  V30 4508 O 432.61 -1.21042 1.93807 0
M  V30 4509 C 432.82 2.29002 2.63361 0
M  V30 4510 C 434.168 2.65572 3.31295 0
M  V30 4511 O 435.192 2.2803 2.73643 0
M  V30 4512 O 434.051 3.3018 4.35481 0
M  V30 4513 H 431.145 0.47086 0.679867 0
M  V30 4514 H 433.691 1.48016 0.830021 0
M  V30 4515 H 432.463 3.2382 2.19674 0
M  V30 4516 H 432.086 2.03303 3.41692 0
M  V30 4517 N 433.083 -1.0153 1.20538 0
M  V30 4518 C 434.494 -1.56598 1.01657 0
M  V30 4519 C 434.845 -1.91505 -0.426668 0
M  V30 4520 O 433.97 -1.72375 -1.30827 0
M  V30 4521 C 434.565 -2.84542 1.83905 0
M  V30 4522 C 433.124 -3.36133 1.69386 0
M  V30 4523 C 432.271 -2.09427 1.81757 0
M  V30 4524 H 435.222 -0.838974 1.34711 0
M  V30 4525 H 435.243 -3.56004 1.34319 0
M  V30 4526 H 434.755 -2.59105 2.8894 0
M  V30 4527 H 432.856 -3.66528 0.669933 0
M  V30 4528 H 432.969 -4.08248 2.50739 0
M  V30 4529 H 431.333 -2.21941 1.24957 0
M  V30 4530 H 432.116 -1.86414 2.88279 0
M  V30 4531 N 434.561 -1.01147 -1.20859 0
M  V30 4532 C 435.789 -0.716911 -1.94082 0
M  V30 4533 C 436.204 0.721568 -1.74467 0
M  V30 4534 O 435.561 1.48889 -1.05539 0
M  V30 4535 C 435.612 -1.03662 -3.46318 0
M  V30 4536 O 435.333 -2.4186 -3.65288 0
M  V30 4537 C 436.834 -0.762386 -4.36695 0
M  V30 4538 H 434.054 -0.26367 -0.617024 0
M  V30 4539 H 436.598 -1.35127 -1.53496 0
M  V30 4540 H 434.753 -0.447757 -3.84804 0
M  V30 4541 H 435.167 -2.53224 -4.59323 0
M  V30 4542 H 436.641 -1.03621 -5.42187 0
M  V30 4543 H 437.118 0.303514 -4.3815 0
M  V30 4544 H 437.724 -1.33316 -4.03865 0
M  V30 4545 N 436.039 1.36541 -0.78704 0
M  V30 4546 C 437.286 1.99304 -0.358341 0
M  V30 4547 C 437.614 1.62467 1.06933 0
M  V30 4548 O 436.869 0.870019 1.75297 0
M  V30 4549 C 437.168 3.54343 -0.466485 0
M  V30 4550 C 436.834 4.10993 -1.85461 0
M  V30 4551 C 435.496 4.26177 -2.23443 0
M  V30 4552 C 437.848 4.41895 -2.76366 0
M  V30 4553 C 435.176 4.69573 -3.51736 0
M  V30 4554 C 437.528 4.86722 -4.04084 0
M  V30 4555 C 436.192 5.00112 -4.42091 0
M  V30 4556 H 435.462 0.729306 -0.131126 0
M  V30 4557 H 438.109 1.63068 -1.00404 0
M  V30 4558 H 436.414 3.90918 0.262719 0
M  V30 4559 H 438.111 4.00833 -0.115854 0
M  V30 4560 H 434.701 3.99612 -1.54946 0
M  V30 4561 H 438.885 4.29735 -2.48277 0
M  V30 4562 H 434.141 4.78127 -3.81057 0
M  V30 4563 H 438.315 5.09598 -4.7464 0
M  V30 4564 H 435.942 5.33498 -5.41557 0
M  V30 4565 N 437.518 0.538854 1.48102 0
M  V30 4566 C 438.929 0.100679 1.86428 0
M  V30 4567 C 439.28 -1.32447 1.44749 0
M  V30 4568 O 438.405 -1.99339 0.842199 0
M  V30 4569 C 439 0.175933 3.38343 0
M  V30 4570 C 437.559 -0.207098 3.7583 0
M  V30 4571 C 436.706 0.531741 2.72154 0
M  V30 4572 H 439.657 0.749614 1.3988 0
M  V30 4573 H 439.678 -0.610144 3.75576 0
M  V30 4574 H 439.19 1.21328 3.68648 0
M  V30 4575 H 437.291 -1.24626 3.5114 0
M  V30 4576 H 437.404 0.138687 4.78899 0
M  V30 4577 H 435.768 -0.0230462 2.5469 0
M  V30 4578 H 436.551 1.56989 3.05302 0
M  V30 4579 N 438.996 -1.55193 0.274407 0
M  V30 4580 C 439.944 -2.23924 -0.629362 0
M  V30 4581 C 440.938 -1.23602 -1.1584 0
M  V30 4582 O 442.144 -1.41535 -1.11211 0
M  V30 4583 H 438.519 -0.718637 -0.221507 0
M  V30 4584 H 440.49 -2.98388 -0.0268322 0
M  V30 4585 C 439.239 -2.97329 -1.80252 0
M  V30 4586 H 438.562 -3.74313 -1.40462 0
M  V30 4587 H 440.002 -3.48743 -2.41152 0
M  V30 4588 C 438.461 -2.0276 -2.69054 0
M  V30 4589 O 438.991 -1.57836 -3.69392 0
M  V30 4590 N 437.197 -1.69275 -2.36208 0
M  V30 4591 H 436.744 -2.06004 -1.54661 0
M  V30 4592 H 436.702 -1.06271 -2.95895 0
M  V30 4593 N 440.474 -0.00167713 -1.576 0
M  V30 4594 C 441.422 1.0074 -2.09652 0
M  V30 4595 C 442.416 1.35483 -1.01689 0
M  V30 4596 O 443.622 1.34028 -1.20152 0
M  V30 4597 H 439.997 0.342537 -0.669457 0
M  V30 4598 H 441.968 0.542841 -2.93421 0
M  V30 4599 C 440.717 2.2899 -2.61647 0
M  V30 4600 H 440.04 2.03124 -3.44355 0
M  V30 4601 H 441.48 2.9787 -3.01744 0
M  V30 4602 C 439.939 3.00085 -1.53136 0
M  V30 4603 O 440.469 3.91135 -0.91524 0
M  V30 4604 N 438.675 2.6194 -1.25841 0
M  V30 4605 H 438.222 1.8798 -1.76129 0
M  V30 4606 H 438.18 3.09822 -0.534576 0
M  V30 4607 N 441.952 1.55251 0.271103 0
M  V30 4608 C 442.885 1.83191 1.36075 0
M  V30 4609 C 443.863 0.685091 1.47463 0
M  V30 4610 O 445.047 0.928292 1.64058 0
M  V30 4611 C 442.174 1.99521 2.73696 0
M  V30 4612 C 441.22 3.22081 2.79582 0
M  V30 4613 S 442.053 4.79388 2.38636 0
M  V30 4614 C 443.209 4.98693 3.78228 0
M  V30 4615 H 443.442 2.75327 1.12171 0
M  V30 4616 H 440.975 1.47046 0.470833 0
M  V30 4617 H 442.933 2.09613 3.52948 0
M  V30 4618 H 441.594 1.0827 2.9485 0
M  V30 4619 H 440.787 3.304 3.80594 0
M  V30 4620 H 440.389 3.10589 2.08352 0
M  V30 4621 H 442.681 4.84551 4.73515 0
M  V30 4622 H 443.624 6.00738 3.7486 0
M  V30 4623 H 444.032 4.26665 3.69618 0
M  V30 4624 N 443.43 -0.535701 1.48216 0
M  V30 4625 C 444.841 -1.11769 1.49548 0
M  V30 4626 C 445.192 -1.94442 0.26207 0
M  V30 4627 O 444.317 -2.06987 -0.631287 0
M  V30 4628 C 444.912 -2.03367 2.70975 0
M  V30 4629 C 443.471 -2.56795 2.75196 0
M  V30 4630 C 442.618 -1.33631 2.42977 0
M  V30 4631 H 445.569 -0.321232 1.55415 0
M  V30 4632 H 445.59 -2.87569 2.49167 0
M  V30 4633 H 445.102 -1.43169 3.60727 0
M  V30 4634 H 443.203 -3.20731 1.89638 0
M  V30 4635 H 443.316 -2.9632 3.76472 0
M  V30 4636 H 441.68 -1.6502 1.94012 0
M  V30 4637 H 442.463 -0.75194 3.34964 0
M  V30 4638 N 444.908 -1.36708 -0.784132 0
M  V30 4639 C 446.156 -1.30972 -1.53918 0
M  V30 4640 C 446.477 0.109086 -1.94695 0
M  V30 4641 O 445.747 1.05048 -1.65353 0
M  V30 4642 H 444.327 -0.481819 -0.570841 0
M  V30 4643 H 446.989 -1.71063 -0.934002 0
M  V30 4644 H 446.085 -1.94061 -2.44431 0
M  V30 4645 N 446.386 1.0089 -1.21074 0
M  V30 4646 C 447.635 1.74019 -1.01981 0
M  V30 4647 C 447.948 1.90408 0.447665 0
M  V30 4648 O 449.154 2.60707 0.757906 0
M  V30 4649 C 447.61 3.13026 -1.77603 0
M  V30 4650 C 447.218 3.04623 -3.28495 0
M  V30 4651 C 448.962 3.90312 -1.66904 0
M  V30 4652 C 446.869 4.38685 -3.96623 0
M  V30 4653 H 445.799 0.652422 -0.377971 0
M  V30 4654 H 448.45 1.12755 -1.44771 0
M  V30 4655 H 446.832 3.74878 -1.27604 0
M  V30 4656 H 448.006 2.52032 -3.85767 0
M  V30 4657 H 446.321 2.40827 -3.39693 0
M  V30 4658 H 448.918 4.8951 -2.15138 0
M  V30 4659 H 449.261 4.11558 -0.62658 0
M  V30 4660 H 449.794 3.35104 -2.14359 0
M  V30 4661 H 446.533 4.22641 -5.01054 0
M  V30 4662 H 446.053 4.91252 -3.4414 0
M  V30 4663 H 447.732 5.075 -4.01314 0
M  V30 4664 N 447.864 1.01787 1.20321 0
M  V30 4665 C 449.11 0.718699 1.90279 0
M  V30 4666 C 449.465 -0.743669 1.77447 0
M  V30 4667 O 448.758 -1.53345 1.14874 0
M  V30 4668 C 448.952 1.09076 3.40349 0
M  V30 4669 C 448.781 2.58775 3.67784 0
M  V30 4670 C 447.551 3.25578 3.86428 0
M  V30 4671 C 449.749 3.56966 3.70243 0
M  V30 4672 N 447.731 4.64495 4.01395 0
M  V30 4673 C 449.102 4.8145 3.90649 0
M  V30 4674 C 451.157 3.5092 3.53213 0
M  V30 4675 C 449.86 6.00619 3.95789 0
M  V30 4676 C 451.886 4.69493 3.59625 0
M  V30 4677 C 451.248 5.92786 3.80505 0
M  V30 4678 H 447.347 0.31468 0.715891 0
M  V30 4679 H 449.931 1.30295 1.44677 0
M  V30 4680 H 448.102 0.534839 3.847 0
M  V30 4681 H 449.834 0.744997 3.97784 0
M  V30 4682 H 446.589 2.76003 3.84862 0
M  V30 4683 H 447.013 5.36624 4.12752 0
M  V30 4684 H 451.655 2.56593 3.36035 0
M  V30 4685 H 449.373 6.95326 4.11762 0
M  V30 4686 H 452.959 4.66432 3.47754 0
M  V30 4687 H 451.839 6.83003 3.85327 0
M  V30 4688 N 449.342 -1.36122 0.79427 0
M  V30 4689 C 450.29 -2.31871 0.184023 0
M  V30 4690 C 451.284 -1.56041 -0.659365 0
M  V30 4691 O 452.49 -1.71266 -0.553906 0
M  V30 4692 H 448.865 -0.750896 0.0407373 0
M  V30 4693 H 450.836 -2.80898 1.00693 0
M  V30 4694 C 449.585 -3.41324 -0.662813 0
M  V30 4695 H 448.908 -3.99793 -0.0231944 0
M  V30 4696 H 450.348 -4.10629 -1.05639 0
M  V30 4697 C 448.807 -2.83308 -1.82313 0
M  V30 4698 O 449.337 -2.75863 -2.91997 0
M  V30 4699 N 447.543 -2.40529 -1.63077 0
M  V30 4700 H 447.09 -2.46785 -0.738591 0
M  V30 4701 H 447.048 -2.02059 -2.40872 0
M  V30 4702 N 450.82 -0.546701 -1.47814 0
M  V30 4703 C 451.767 0.206854 -2.29871 0
M  V30 4704 C 452.737 0.918235 -1.38411 0
M  V30 4705 O 453.922 0.915991 -1.67375 0
M  V30 4706 C 451.062 1.23746 -3.22151 0
M  V30 4707 C 450.175 0.533216 -4.28697 0
M  V30 4708 C 449.31 1.5482 -5.08138 0
M  V30 4709 C 448.349 0.828347 -6.06469 0
M  V30 4710 N 447.486 1.78966 -6.78908 0
M  V30 4711 H 452.326 -0.499037 -2.93792 0
M  V30 4712 H 449.863 -0.25793 -1.44821 0
M  V30 4713 H 451.821 1.84746 -3.74065 0
M  V30 4714 H 450.451 1.91151 -2.60117 0
M  V30 4715 H 449.503 -0.191089 -3.7992 0
M  V30 4716 H 450.815 -0.0311987 -4.9879 0
M  V30 4717 H 449.969 2.23202 -5.6415 0
M  V30 4718 H 448.708 2.14652 -4.37922 0
M  V30 4719 H 447.713 0.130539 -5.49645 0
M  V30 4720 H 448.938 0.235907 -6.7869 0
M  V30 4721 H 446.884 2.37675 -6.1143 0
M  V30 4722 H 446.801 1.27712 -7.45135 0
M  V30 4723 H 448.069 2.46496 -7.395 0
M  V30 4724 N 452.299 1.55045 -0.282633 0
M  V30 4725 C 453.247 2.24254 0.617478 0
M  V30 4726 C 454.241 1.24215 1.15183 0
M  V30 4727 O 455.447 1.42123 1.10459 0
M  V30 4728 H 451.822 0.719801 0.217693 0
M  V30 4729 H 453.793 2.98398 0.0110076 0
M  V30 4730 C 452.542 2.98281 1.78672 0
M  V30 4731 H 451.865 3.75053 1.38475 0
M  V30 4732 H 453.305 3.50017 2.393 0
M  V30 4733 C 451.764 2.04184 2.67975 0
M  V30 4734 O 452.294 1.59792 3.6855 0
M  V30 4735 N 450.5 1.70526 2.35307 0
M  V30 4736 H 450.047 2.06821 1.53567 0
M  V30 4737 H 450.005 1.07839 2.95327 0
M  V30 4738 N 453.777 0.010035 1.57597 0
M  V30 4739 C 455.023 -0.668011 1.92118 0
M  V30 4740 C 455.378 -1.70821 0.885328 0
M  V30 4741 O 454.671 -1.91333 -0.101187 0
M  V30 4742 C 454.865 -1.34434 3.31153 0
M  V30 4743 C 454.694 -0.371176 4.48166 0
M  V30 4744 C 453.464 0.0220686 5.05295 0
M  V30 4745 C 455.662 0.366731 5.12991 0
M  V30 4746 N 453.644 0.9924 6.05826 0
M  V30 4747 C 455.015 1.19142 6.08445 0
M  V30 4748 C 457.07 0.429489 4.96044 0
M  V30 4749 C 455.773 2.07317 6.88776 0
M  V30 4750 C 457.799 1.2985 5.76969 0
M  V30 4751 C 457.161 2.11101 6.72023 0
M  V30 4752 H 453.26 -0.217337 0.751192 0
M  V30 4753 H 455.844 0.0727375 1.94564 0
M  V30 4754 H 454.015 -2.05533 3.29561 0
M  V30 4755 H 455.747 -1.97789 3.53075 0
M  V30 4756 H 452.502 -0.348409 4.72317 0
M  V30 4757 H 452.926 1.47324 6.60776 0
M  V30 4758 H 457.568 -0.18442 4.22398 0
M  V30 4759 H 455.286 2.69771 7.61741 0
M  V30 4760 H 458.872 1.3511 5.65894 0
M  V30 4761 H 457.752 2.77257 7.33552 0
M  V30 4762 N 455.255 -1.55392 -0.262866 0
M  V30 4763 C 456.503 -1.76127 -0.991147 0
M  V30 4764 C 456.824 -0.571083 -1.8645 0
M  V30 4765 O 456.094 0.413698 -1.91482 0
M  V30 4766 H 454.674 -0.649528 -0.368948 0
M  V30 4767 H 457.336 -1.9281 -0.284655 0
M  V30 4768 H 456.432 -2.6663 -1.62219 0
M  V30 4769 N 456.733 0.527833 -1.48498 0
M  V30 4770 C 457.963 1.30633 -1.60058 0
M  V30 4771 C 458.371 1.87394 -0.260786 0
M  V30 4772 O 457.714 1.67227 0.760317 0
M  V30 4773 C 457.776 2.49361 -2.58958 0
M  V30 4774 C 457.44 2.13671 -4.03972 0
M  V30 4775 C 458.437 1.69217 -4.91591 0
M  V30 4776 C 456.122 2.24129 -4.49524 0
M  V30 4777 C 458.116 1.35689 -6.2279 0
M  V30 4778 C 455.803 1.90212 -5.80743 0
M  V30 4779 C 456.801 1.46063 -6.67199 0
M  V30 4780 O 456.489 1.12593 -7.95976 0
M  V30 4781 H 456.221 0.403444 -0.54241 0
M  V30 4782 H 458.775 0.643233 -1.95068 0
M  V30 4783 H 457.005 3.18659 -2.19073 0
M  V30 4784 H 458.694 3.11421 -2.6033 0
M  V30 4785 H 459.46 1.60607 -4.57636 0
M  V30 4786 H 455.339 2.57447 -3.82416 0
M  V30 4787 H 458.883 1.01157 -6.90227 0
M  V30 4788 H 454.78 1.98464 -6.14233 0
M  V30 4789 H 455.548 1.25972 -8.08748 0
M  V30 4790 N 458.211 1.37122 0.776871 0
M  V30 4791 C 459.141 1.35164 1.90402 0
M  V30 4792 C 460.122 0.221069 1.68657 0
M  V30 4793 O 461.307 0.420642 1.8959 0
M  V30 4794 C 458.437 1.15274 3.27611 0
M  V30 4795 C 457.391 2.25289 3.63908 0
M  V30 4796 C 456.717 1.90527 4.99603 0
M  V30 4797 C 458.017 3.67446 3.71188 0
M  V30 4798 H 459.711 2.29482 1.92297 0
M  V30 4799 H 457.257 1.10465 0.923773 0
M  V30 4800 H 459.21 1.12536 4.06096 0
M  V30 4801 H 457.934 0.174102 3.26136 0
M  V30 4802 H 456.593 2.27174 2.87728 0
M  V30 4803 H 456.241 0.91206 4.94662 0
M  V30 4804 H 455.941 2.64193 5.24858 0
M  V30 4805 H 457.465 1.89367 5.80493 0
M  V30 4806 H 458.879 3.67719 4.39836 0
M  V30 4807 H 457.276 4.40123 4.07936 0
M  V30 4808 H 458.346 4.01443 2.71977 0
M  V30 4809 N 459.689 -1.00246 1.21608 0
M  V30 4810 C 460.936 -1.74061 1.03485 0
M  V30 4811 C 461.264 -1.89658 -0.431308 0
M  V30 4812 O 460.519 -1.42976 -1.33627 0
M  V30 4813 C 460.818 -3.15448 1.68009 0
M  V30 4814 C 460.484 -3.19792 3.17874 0
M  V30 4815 C 459.146 -3.20685 3.58768 0
M  V30 4816 C 461.498 -3.16835 4.13842 0
M  V30 4817 C 458.826 -3.16309 4.94131 0
M  V30 4818 C 461.178 -3.14001 5.49169 0
M  V30 4819 C 459.842 -3.13204 5.89457 0
M  V30 4820 H 459.112 -0.636934 0.378677 0
M  V30 4821 H 461.759 -1.17473 1.51236 0
M  V30 4822 H 460.064 -3.75284 1.12557 0
M  V30 4823 H 461.761 -3.71285 1.51487 0
M  V30 4824 H 458.351 -3.19842 2.85305 0
M  V30 4825 H 462.535 -3.15303 3.83272 0
M  V30 4826 H 457.791 -3.14032 5.24589 0
M  V30 4827 H 461.965 -3.10667 6.23265 0
M  V30 4828 H 459.592 -3.09568 6.94314 0
M  V30 4829 N 461.167 -1.02423 -1.1978 0
M  V30 4830 C 462.115 -0.594474 -2.24875 0
M  V30 4831 C 463.109 0.370598 -1.65296 0
M  V30 4832 O 464.315 0.239684 -1.78397 0
M  V30 4833 H 460.69 -0.173961 -0.731602 0
M  V30 4834 H 462.661 -1.4916 -2.58445 0
M  V30 4835 C 461.41 0.0436512 -3.47673 0
M  V30 4836 H 460.733 -0.689963 -3.93801 0
M  V30 4837 H 462.173 0.307362 -4.22884 0
M  V30 4838 C 460.632 1.28881 -3.11274 0
M  V30 4839 O 461.162 2.38135 -3.23503 0
M  V30 4840 N 459.368 1.1758 -2.6575 0
M  V30 4841 H 458.915 0.286769 -2.55999 0
M  V30 4842 H 458.873 2.00988 -2.41767 0
M  V30 4843 N 462.645 1.35699 -0.801477 0
M  V30 4844 C 463.577 2.28598 -0.166028 0
M  V30 4845 C 464.59 1.50044 0.631721 0
M  V30 4846 O 465.779 1.72339 0.464921 0
M  V30 4847 C 462.879 3.29625 0.787451 0
M  V30 4848 C 462.052 4.37384 0.037171 0
M  V30 4849 C 461.111 5.183 0.908375 0
M  V30 4850 O 460.137 5.68053 0.361189 0
M  V30 4851 N 461.339 5.35912 2.23112 0
M  V30 4852 H 464.104 2.83771 -0.964071 0
M  V30 4853 H 461.665 1.47994 -0.656469 0
M  V30 4854 H 463.657 3.80648 1.37439 0
M  V30 4855 H 462.227 2.75004 1.48632 0
M  V30 4856 H 461.447 3.87364 -0.730935 0
M  V30 4857 H 462.735 5.0653 -0.480109 0
M  V30 4858 H 462.133 4.97125 2.69968 0
M  V30 4859 H 460.69 5.90133 2.76741 0
M  V30 4860 N 464.123 0.554532 1.47522 0
M  V30 4861 C 465.071 -0.207765 2.3167 0
M  V30 4862 C 466.065 -0.911914 1.4276 0
M  V30 4863 O 467.271 -0.833504 1.59539 0
M  V30 4864 H 463.646 -0.0858726 0.747081 0
M  V30 4865 H 465.617 0.521178 2.93813 0
M  V30 4866 C 464.366 -1.2263 3.25357 0
M  V30 4867 H 463.689 -0.693887 3.93732 0
M  V30 4868 H 465.129 -1.73062 3.87073 0
M  V30 4869 C 463.588 -2.27278 2.4869 0
M  V30 4870 O 464.118 -3.34156 2.22941 0
M  V30 4871 N 462.324 -2.01134 2.09746 0
M  V30 4872 H 461.871 -1.14232 2.30887 0
M  V30 4873 H 461.829 -2.71369 1.58765 0
M  V30 4874 N 465.601 -1.54893 0.290851 0
M  V30 4875 C 466.85 -1.99111 -0.322113 0
M  V30 4876 C 467.163 -1.18283 -1.55784 0
M  V30 4877 O 468.369 -1.5272 -2.24475 0
M  V30 4878 C 466.825 -3.54442 -0.624438 0
M  V30 4879 C 466.433 -4.44066 0.592373 0
M  V30 4880 C 468.177 -4.07211 -1.19916 0
M  V30 4881 C 466.084 -5.90812 0.263762 0
M  V30 4882 H 465.014 -0.743712 -0.124133 0
M  V30 4883 H 467.665 -1.79132 0.39797 0
M  V30 4884 H 466.047 -3.70281 -1.40384 0
M  V30 4885 H 467.221 -4.39999 1.36886 0
M  V30 4886 H 465.536 -4.02015 1.08502 0
M  V30 4887 H 468.133 -5.14407 -1.45909 0
M  V30 4888 H 468.476 -3.57196 -2.13815 0
M  V30 4889 H 469.009 -3.94873 -0.481687 0
M  V30 4890 H 465.748 -6.44955 1.17105 0
M  V30 4891 H 465.268 -5.97911 -0.475655 0
M  V30 4892 H 466.947 -6.46852 -0.138354 0
M  V30 4893 N 467.08 -0.0183926 -1.57589 0
M  V30 4894 C 468.043 0.951986 -2.08494 0
M  V30 4895 C 469.043 1.26092 -0.997874 0
M  V30 4896 O 470.233 1.20304 -1.25987 0
M  V30 4897 C 467.365 2.27165 -2.54182 0
M  V30 4898 H 468.558 0.511307 -2.95509 0
M  V30 4899 H 466.111 0.229444 -1.54607 0
M  V30 4900 H 466.846 2.75884 -1.70465 0
M  V30 4901 H 466.631 2.06057 -3.33591 0
M  V30 4902 H 468.121 2.9674 -2.93828 0
M  V30 4903 N 468.558 1.5553 0.254621 0
M  V30 4904 C 469.969 1.67518 0.824286 0
M  V30 4905 C 470.32 0.614429 1.86331 0
M  V30 4906 O 469.445 -0.240736 2.15057 0
M  V30 4907 C 470.04 3.03692 1.50189 0
M  V30 4908 C 468.599 3.17646 2.01935 0
M  V30 4909 C 467.746 2.63373 0.867746 0
M  V30 4910 H 470.697 1.58671 0.0305843 0
M  V30 4911 H 470.718 2.97706 2.36962 0
M  V30 4912 H 470.23 3.80874 0.745431 0
M  V30 4913 H 468.331 2.45273 2.80485 0
M  V30 4914 H 468.444 4.24455 2.22204 0
M  V30 4915 H 466.808 2.20999 1.26616 0
M  V30 4916 H 467.591 3.43074 0.124498 0
M  V30 4917 N 470.036 -0.519951 1.48776 0
M  V30 4918 C 471.282 -1.27711 1.57536 0
M  V30 4919 C 471.615 -1.92547 0.252866 0
M  V30 4920 O 470.89 -1.7979 -0.742021 0
M  V30 4921 C 471.173 -2.35875 2.72094 0
M  V30 4922 C 471.026 -1.75664 4.1408 0
M  V30 4923 C 472.345 -3.37575 2.82367 0
M  V30 4924 H 469.464 -0.462971 0.573434 0
M  V30 4925 H 472.106 -0.578194 1.80989 0
M  V30 4926 H 470.256 -2.95488 2.52228 0
M  V30 4927 H 471.928 -1.20025 4.45412 0
M  V30 4928 H 470.171 -1.06154 4.20611 0
M  V30 4929 H 470.842 -2.54029 4.90075 0
M  V30 4930 H 473.318 -2.87929 3.00393 0
M  V30 4931 H 472.194 -4.1064 3.64233 0
M  V30 4932 H 472.455 -3.98743 1.90936 0
M  V30 4933 N 471.514 -1.37532 -0.769588 0
M  V30 4934 C 472.76 -1.34063 -1.52966 0
M  V30 4935 C 473.115 0.0737942 -1.92258 0
M  V30 4936 O 472.408 1.03291 -1.61374 0
M  V30 4937 C 472.602 -2.21558 -2.8044 0
M  V30 4938 C 472.431 -3.71367 -2.53608 0
M  V30 4939 C 471.201 -4.40464 -2.47628 0
M  V30 4940 C 473.399 -4.64177 -2.21459 0
M  V30 4941 N 471.381 -5.758 -2.12902 0
M  V30 4942 C 472.752 -5.87907 -1.9689 0
M  V30 4943 C 474.807 -4.52541 -2.07633 0
M  V30 4944 C 473.51 -7.01304 -1.59892 0
M  V30 4945 C 475.536 -5.65825 -1.72034 0
M  V30 4946 C 474.898 -6.88606 -1.48327 0
M  V30 4947 H 470.997 -0.545856 -0.559969 0
M  V30 4948 H 473.581 -1.72773 -0.897634 0
M  V30 4949 H 471.752 -1.85061 -3.41478 0
M  V30 4950 H 473.484 -2.09332 -3.46356 0
M  V30 4951 H 470.239 -3.93491 -2.63556 0
M  V30 4952 H 470.663 -6.47328 -1.9823 0
M  V30 4953 H 475.305 -3.58183 -2.24643 0
M  V30 4954 H 473.023 -7.95594 -1.4162 0
M  V30 4955 H 476.609 -5.58793 -1.61991 0
M  V30 4956 H 475.489 -7.74779 -1.21189 0
M  V30 4957 N 472.992 0.995999 -1.22138 0
M  V30 4958 C 473.922 2.10387 -1.01289 0
M  V30 4959 C 474.903 1.69975 0.0651454 0
M  V30 4960 O 476.088 1.9396 -0.0964628 0
M  V30 4961 C 473.218 3.42312 -0.586517 0
M  V30 4962 C 472.172 3.96558 -1.61014 0
M  V30 4963 C 471.498 5.24494 -1.0397 0
M  V30 4964 C 472.798 4.27595 -2.99933 0
M  V30 4965 H 474.492 2.28086 -1.93951 0
M  V30 4966 H 472.038 1.09607 -0.933928 0
M  V30 4967 H 473.991 4.19223 -0.427793 0
M  V30 4968 H 472.715 3.24431 0.375761 0
M  V30 4969 H 471.374 3.21776 -1.75658 0
M  V30 4970 H 471.022 5.02953 -0.0688703 0
M  V30 4971 H 470.722 5.61755 -1.72352 0
M  V30 4972 H 472.246 6.04042 -0.892494 0
M  V30 4973 H 473.66 4.95315 -2.8868 0
M  V30 4974 H 472.057 4.76021 -3.6541 0
M  V30 4975 H 473.127 3.35498 -3.50099 0
M  V30 4976 N 474.47 1.03057 1.19235 0
M  V30 4977 C 475.718 0.726581 1.88587 0
M  V30 4978 C 476.039 -0.747227 1.80115 0
M  V30 4979 O 475.309 -1.53849 1.21274 0
M  V30 4980 H 473.889 0.265768 0.698124 0
M  V30 4981 H 476.551 1.30516 1.44746 0
M  V30 4982 H 475.647 1.0224 2.94879 0
M  V30 4983 N 475.948 -1.35272 0.808662 0
M  V30 4984 C 476.858 -2.33546 0.222079 0
M  V30 4985 C 477.874 -1.6196 -0.636011 0
M  V30 4986 O 479.05 -1.93822 -0.547274 0
M  V30 4987 C 476.115 -3.41148 -0.61795 0
M  V30 4988 C 475.176 -4.28507 0.260875 0
M  V30 4989 C 474.409 -5.3097 -0.539156 0
M  V30 4990 O 474.632 -5.42123 -1.77367 0
M  V30 4991 O 473.566 -6.01858 0.0710526 0
M  V30 4992 H 477.392 -2.85515 1.03512 0
M  V30 4993 H 474.977 -1.38079 0.570495 0
M  V30 4994 H 476.859 -4.06889 -1.09634 0
M  V30 4995 H 475.534 -2.91447 -1.40855 0
M  V30 4996 H 474.441 -3.6574 0.786451 0
M  V30 4997 H 475.774 -4.81611 1.01547 0
M  V30 4998 N 477.426 -0.562348 -1.47226 0
M  V30 4999 C 478.673 -0.0402165 -2.0246 0
M  V30 5000 C 479.001 1.31169 -1.43614 0
M  V30 5001 O 478.256 1.86805 -0.5833 0
M  V30 5002 C 478.555 0.0969817 -3.57268 0
M  V30 5003 C 478.221 -1.1847 -4.35058 0
M  V30 5004 C 476.883 -1.53588 -4.56031 0
M  V30 5005 C 479.235 -2.03378 -4.79882 0
M  V30 5006 C 476.563 -2.73452 -5.19077 0
M  V30 5007 C 478.915 -3.2245 -5.44251 0
M  V30 5008 C 477.579 -3.57876 -5.63455 0
M  V30 5009 H 476.849 -0.0147163 -0.740854 0
M  V30 5010 H 479.496 -0.734895 -1.76838 0
M  V30 5011 H 477.801 0.87466 -3.81912 0
M  V30 5012 H 479.498 0.516408 -3.97661 0
M  V30 5013 H 476.088 -0.90126 -4.19017 0
M  V30 5014 H 480.272 -1.77553 -4.63453 0
M  V30 5015 H 475.528 -3.01062 -5.32139 0
M  V30 5016 H 479.702 -3.88526 -5.77945 0
M  V30 5017 H 477.329 -4.50849 -6.12078 0
M  V30 5018 N 478.904 1.54736 -0.299062 0
M  V30 5019 C 480.152 1.99706 0.31017 0
M  V30 5020 C 480.473 1.18896 1.54559 0
M  V30 5021 O 479.743 0.284445 1.93824 0
M  V30 5022 H 478.323 0.737686 0.117596 0
M  V30 5023 H 480.985 1.9054 -0.409943 0
M  V30 5024 H 480.081 3.06596 0.58355 0
M  V30 5025 N 480.382 0.0267497 1.57577 0
M  V30 5026 C 481.61 -0.662661 1.96001 0
M  V30 5027 C 482.025 -1.65799 0.903117 0
M  V30 5028 O 481.382 -1.82135 -0.115317 0
M  V30 5029 C 481.433 -1.37112 3.34488 0
M  V30 5030 O 481.154 -0.415683 4.36123 0
M  V30 5031 C 482.655 -2.15257 3.8753 0
M  V30 5032 H 479.875 -0.18287 0.6456 0
M  V30 5033 H 482.419 0.0858116 2.0432 0
M  V30 5034 H 480.574 -2.07101 3.27395 0
M  V30 5035 H 480.988 -0.918496 5.16395 0
M  V30 5036 H 482.462 -2.60285 4.86781 0
M  V30 5037 H 482.939 -2.99063 3.21649 0
M  V30 5038 H 483.545 -1.50231 3.97883 0
M  V30 5039 N 481.861 -1.55662 -0.24637 0
M  V30 5040 C 483.089 -1.81575 -0.991876 0
M  V30 5041 C 483.504 -0.602545 -1.78927 0
M  V30 5042 O 482.861 0.428795 -1.77391 0
M  V30 5043 C 482.912 -3.05711 -1.92933 0
M  V30 5044 O 482.633 -4.22348 -1.1642 0
M  V30 5045 C 484.134 -3.44428 -2.79078 0
M  V30 5046 H 481.354 -0.604209 -0.291844 0
M  V30 5047 H 483.898 -2.02722 -0.269095 0
M  V30 5048 H 482.053 -2.86612 -2.60638 0
M  V30 5049 H 482.467 -4.92706 -1.79835 0
M  V30 5050 H 483.941 -4.34388 -3.40603 0
M  V30 5051 H 484.418 -2.65037 -3.50217 0
M  V30 5052 H 485.024 -3.65879 -2.16824 0
M  V30 5053 N 483.339 0.512053 -1.4905 0
M  V30 5054 C 484.269 1.62365 -1.67809 0
M  V30 5055 C 485.25 1.61737 -0.526809 0
M  V30 5056 O 486.435 1.78651 -0.761404 0
M  V30 5057 C 483.565 3.00895 -1.73435 0
M  V30 5058 C 482.519 3.16387 -2.88242 0
M  V30 5059 C 481.845 4.56157 -2.78971 0
M  V30 5060 C 483.145 2.97457 -4.29321 0
M  V30 5061 H 484.839 1.46921 -2.60873 0
M  V30 5062 H 482.385 0.705379 -1.2554 0
M  V30 5063 H 484.338 3.78549 -1.85145 0
M  V30 5064 H 483.062 3.17403 -0.769619 0
M  V30 5065 H 481.721 2.41155 -2.76116 0
M  V30 5066 H 481.369 4.69525 -1.8043 0
M  V30 5067 H 481.069 4.67465 -3.5602 0
M  V30 5068 H 482.593 5.35886 -2.92675 0
M  V30 5069 H 484.007 3.64888 -4.42187 0
M  V30 5070 H 482.404 3.20245 -5.07507 0
M  V30 5071 H 483.474 1.93692 -4.44535 0
M  V30 5072 N 484.817 1.37938 0.762283 0
M  V30 5073 C 485.749 1.30349 1.88525 0
M  V30 5074 C 486.762 0.217402 1.61342 0
M  V30 5075 O 487.951 0.474291 1.72084 0
M  V30 5076 C 485.051 0.994844 3.23969 0
M  V30 5077 C 484.224 2.18829 3.78725 0
M  V30 5078 C 483.283 1.84844 4.92665 0
M  V30 5079 O 482.309 2.57244 5.07754 0
M  V30 5080 N 483.511 0.798201 5.74986 0
M  V30 5081 H 486.276 2.27114 1.95549 0
M  V30 5082 H 483.837 1.31686 0.941825 0
M  V30 5083 H 485.829 0.748168 3.97724 0
M  V30 5084 H 484.399 0.115446 3.12387 0
M  V30 5085 H 483.619 2.59615 2.96637 0
M  V30 5086 H 484.907 2.98497 4.1204 0
M  V30 5087 H 484.305 0.197611 5.65355 0
M  V30 5088 H 482.862 0.611396 6.48926 0
M  V30 5089 N 486.295 -0.989507 1.22664 0
M  V30 5090 C 487.52 -1.77031 1.08051 0
M  V30 5091 C 487.945 -1.84535 -0.364483 0
M  V30 5092 O 487.303 -1.3003 -1.2634 0
M  V30 5093 C 487.351 -3.18 1.70024 0
M  V30 5094 O 486.455 -4.01161 0.956216 0
M  V30 5095 H 485.796 -0.545008 0.379292 0
M  V30 5096 H 488.326 -1.24277 1.62531 0
M  V30 5097 H 488.336 -3.68616 1.74888 0
M  V30 5098 H 487.011 -3.11853 2.75174 0
M  V30 5099 H 485.588 -3.59687 0.98384 0
M  V30 5100 N 487.773 -1.03688 -1.18687 0
M  V30 5101 C 489.001 -0.757918 -1.92518 0
M  V30 5102 C 489.416 0.684398 -1.75959 0
M  V30 5103 O 488.773 1.46617 -1.08673 0
M  V30 5104 C 488.824 -1.10985 -3.44042 0
M  V30 5105 O 488.545 -2.49554 -3.60076 0
M  V30 5106 C 490.046 -0.854844 -4.3498 0
M  V30 5107 H 487.266 -0.276699 -0.611293 0
M  V30 5108 H 489.81 -1.38352 -1.50595 0
M  V30 5109 H 487.965 -0.529279 -3.83767 0
M  V30 5110 H 488.379 -2.6291 -4.53849 0
M  V30 5111 H 489.853 -1.15098 -5.39867 0
M  V30 5112 H 490.33 0.210507 -4.38695 0
M  V30 5113 H 490.936 -1.41853 -4.00946 0
M  V30 5114 N 489.251 1.34841 -0.815825 0
M  V30 5115 C 490.479 2.0273 -0.413294 0
M  V30 5116 C 490.894 1.61459 0.978599 0
M  V30 5117 O 490.251 0.816584 1.63212 0
M  V30 5118 C 490.302 3.58058 -0.497676 0
M  V30 5119 O 490.023 3.97832 -1.8347 0
M  V30 5120 C 491.524 4.4321 -0.0891339 0
M  V30 5121 H 488.744 0.649956 -0.166728 0
M  V30 5122 H 491.288 1.72267 -1.10201 0
M  V30 5123 H 489.443 3.87136 0.142886 0
M  V30 5124 H 489.857 4.92501 -1.80396 0
M  V30 5125 H 491.331 5.5164 -0.199274 0
M  V30 5126 H 491.808 4.28432 0.966571 0
M  V30 5127 H 492.414 4.19446 -0.703214 0
M  V30 5128 N 490.729 0.570148 1.46925 0
M  V30 5129 C 492.006 -0.0153259 1.95594 0
M  V30 5130 C 492.386 -1.47232 1.51281 0
M  V30 5131 O 491.734 -2.15574 0.757624 0
M  V30 5132 C 491.944 0.143624 3.48704 0
M  V30 5133 C 493.292 0.00494484 4.246 0
M  V30 5134 O 494.316 0.0718214 3.56128 0
M  V30 5135 O 493.175 -0.141175 5.46318 0
M  V30 5136 H 490.269 -0.0568819 0.825041 0
M  V30 5137 H 492.815 0.637583 1.57267 0
M  V30 5138 H 491.587 1.15699 3.73804 0
M  V30 5139 H 491.21 -0.5463 3.93829 0
M  V30 5140 N 492.207 -1.54576 0.307264 0
M  V30 5141 C 493.139 -2.21212 -0.599807 0
M  V30 5142 C 494.152 -1.20685 -1.09266 0
M  V30 5143 O 495.341 -1.47244 -1.00903 0
M  V30 5144 C 492.441 -2.84994 -1.83389 0
M  V30 5145 C 491.614 -4.11511 -1.48248 0
M  V30 5146 C 490.673 -4.59038 -2.57237 0
M  V30 5147 O 489.699 -5.24095 -2.22065 0
M  V30 5148 N 490.901 -4.31884 -3.87887 0
M  V30 5149 H 493.666 -2.99686 -0.0293075 0
M  V30 5150 H 491.227 -1.61379 0.129738 0
M  V30 5151 H 493.219 -3.1372 -2.5566 0
M  V30 5152 H 491.789 -2.10324 -2.31263 0
M  V30 5153 H 491.009 -3.89728 -0.592122 0
M  V30 5154 H 492.297 -4.93879 -1.22316 0
M  V30 5155 H 491.695 -3.79778 -4.19268 0
M  V30 5156 H 490.252 -4.65304 -4.56438 0
M  V30 5157 N 493.685 -0.035106 -1.57561 0
M  V30 5158 C 494.913 0.652258 -1.9635 0
M  V30 5159 C 495.328 1.65317 -0.911897 0
M  V30 5160 O 494.685 1.82194 0.105657 0
M  V30 5161 C 494.736 1.35337 -3.35211 0
M  V30 5162 O 494.457 0.392548 -4.36338 0
M  V30 5163 C 495.958 2.13199 -3.88666 0
M  V30 5164 H 493.178 0.179444 -0.646561 0
M  V30 5165 H 495.722 -0.0966459 -2.04271 0
M  V30 5166 H 493.877 2.05362 -3.28489 0
M  V30 5167 H 494.291 0.891097 -5.16875 0
M  V30 5168 H 495.765 2.577 -4.88154 0
M  V30 5169 H 496.242 2.97353 -3.23231 0
M  V30 5170 H 496.848 1.48118 -3.98674 0
M  V30 5171 N 495.163 1.55791 0.238111 0
M  V30 5172 C 496.409 1.79211 0.962035 0
M  V30 5173 C 496.764 0.605463 1.82625 0
M  V30 5174 O 496.057 -0.40104 1.87356 0
M  V30 5175 C 496.251 3.05869 1.84875 0
M  V30 5176 C 496.08 4.36739 1.07186 0
M  V30 5177 C 494.85 4.99346 0.773424 0
M  V30 5178 C 497.048 5.1237 0.445168 0
M  V30 5179 N 495.03 6.13894 -0.0266037 0
M  V30 5180 C 496.401 6.19613 -0.219023 0
M  V30 5181 C 498.456 4.96622 0.356522 0
M  V30 5182 C 497.159 7.1282 -0.963358 0
M  V30 5183 C 499.185 5.90214 -0.374304 0
M  V30 5184 C 498.547 6.96872 -1.0271 0
M  V30 5185 H 494.646 0.707627 0.332849 0
M  V30 5186 H 497.23 1.93284 0.234368 0
M  V30 5187 H 495.401 2.93108 2.54837 0
M  V30 5188 H 497.133 3.17547 2.5089 0
M  V30 5189 H 493.888 4.60948 1.08738 0
M  V30 5190 H 494.312 6.75727 -0.414968 0
M  V30 5191 H 498.954 4.14232 0.846878 0
M  V30 5192 H 496.672 7.94704 -1.46529 0
M  V30 5193 H 500.258 5.80106 -0.443678 0
M  V30 5194 H 499.138 7.68045 -1.58358 0
M  V30 5195 N 496.642 -0.504142 1.49319 0
M  V30 5196 C 497.572 -1.61473 1.68667 0
M  V30 5197 C 498.553 -1.61455 0.535378 0
M  V30 5198 O 499.738 -1.78245 0.770868 0
M  V30 5199 C 496.868 -2.99971 1.75028 0
M  V30 5200 C 495.822 -3.14854 2.89916 0
M  V30 5201 C 495.148 -4.54671 2.81387 0
M  V30 5202 C 496.448 -2.95176 4.30893 0
M  V30 5203 H 498.142 -1.45535 2.61648 0
M  V30 5204 H 495.688 -0.698711 1.25913 0
M  V30 5205 H 497.641 -3.77562 1.8715 0
M  V30 5206 H 496.365 -3.1699 0.786441 0
M  V30 5207 H 495.024 -2.39687 2.77391 0
M  V30 5208 H 494.672 -4.68562 1.82917 0
M  V30 5209 H 494.372 -4.6557 3.58494 0
M  V30 5210 H 495.896 -5.34327 2.95512 0
M  V30 5211 H 497.31 -3.62538 4.44116 0
M  V30 5212 H 495.707 -3.17549 5.09198 0
M  V30 5213 H 496.777 -1.91332 4.45556 0
M  V30 5214 N 498.12 -1.38341 -0.754957 0
M  V30 5215 C 499.067 -1.3546 -1.86867 0
M  V30 5216 C 500.037 -0.217369 -1.64672 0
M  V30 5217 O 501.222 -0.409383 -1.86356 0
M  V30 5218 C 498.362 -1.18413 -3.24149 0
M  V30 5219 C 497.475 -2.41511 -3.58185 0
M  V30 5220 C 496.61 -2.17205 -4.84763 0
M  V30 5221 C 495.649 -3.36081 -5.11582 0
M  V30 5222 N 494.786 -3.11219 -6.29354 0
M  V30 5223 H 499.626 -2.30672 -1.88664 0
M  V30 5224 H 497.163 -1.14607 -0.922154 0
M  V30 5225 H 499.121 -1.06545 -4.03366 0
M  V30 5226 H 497.751 -0.268397 -3.21682 0
M  V30 5227 H 496.803 -2.64056 -2.73822 0
M  V30 5228 H 498.115 -3.30115 -3.73932 0
M  V30 5229 H 497.269 -2.02465 -5.7192 0
M  V30 5230 H 496.008 -1.25964 -4.71152 0
M  V30 5231 H 495.013 -3.51341 -4.22894 0
M  V30 5232 H 496.238 -4.28196 -5.27091 0
M  V30 5233 H 494.184 -2.22624 -6.17069 0
M  V30 5234 H 494.101 -3.93373 -6.45596 0
M  V30 5235 H 495.369 -3.00132 -7.19403 0
M  V30 5236 N 499.598 0.982988 -1.23187 0
M  V30 5237 C 500.826 1.75921 -1.08901 0
M  V30 5238 C 501.241 1.85341 0.359719 0
M  V30 5239 O 500.598 1.33072 1.24892 0
M  V30 5240 C 500.649 3.18742 -1.70545 0
M  V30 5241 O 500.37 3.09814 -3.09753 0
M  V30 5242 C 501.871 4.1277 -1.61667 0
M  V30 5243 H 499.091 0.552166 -0.381252 0
M  V30 5244 H 501.635 1.23516 -1.62985 0
M  V30 5245 H 499.79 3.68182 -1.20501 0
M  V30 5246 H 500.204 3.99703 -3.39614 0
M  V30 5247 H 501.678 5.10697 -2.09506 0
M  V30 5248 H 502.155 4.3542 -0.575009 0
M  V30 5249 H 502.761 3.69232 -2.11064 0
M  V30 5250 N 501.076 1.04316 1.18135 0
M  V30 5251 C 502.006 0.657299 2.24058 0
M  V30 5252 C 502.987 -0.340678 1.66654 0
M  V30 5253 O 504.172 -0.220223 1.92947 0
M  V30 5254 C 501.302 0.0220715 3.47293 0
M  V30 5255 C 500.256 0.943857 4.17463 0
M  V30 5256 C 499.582 0.172973 5.3442 0
M  V30 5257 C 500.882 2.26409 4.70677 0
M  V30 5258 H 502.576 1.5428 2.56589 0
M  V30 5259 H 500.122 0.743263 1.23335 0
M  V30 5260 H 502.075 -0.259607 4.206 0
M  V30 5261 H 500.799 -0.898323 3.14003 0
M  V30 5262 H 499.458 1.20996 3.46057 0
M  V30 5263 H 499.106 -0.749907 4.97379 0
M  V30 5264 H 498.806 0.787098 5.82304 0
M  V30 5265 H 500.33 -0.101628 6.10515 0
M  V30 5266 H 501.744 2.04294 5.35665 0
M  V30 5267 H 500.141 2.8314 5.29105 0
M  V30 5268 H 501.211 2.90883 3.87962 0
M  V30 5269 N 502.554 -1.34406 0.822964 0
M  V30 5270 C 503.8 -1.98578 0.411666 0
M  V30 5271 C 504.133 -1.65093 -1.02264 0
M  V30 5272 O 503.408 -0.92258 -1.71227 0
M  V30 5273 C 503.691 -3.54823 0.614235 0
M  V30 5274 C 503.544 -3.9805 2.09466 0
M  V30 5275 C 504.863 -4.40071 0.050221 0
M  V30 5276 H 501.982 -0.721355 0.151047 0
M  V30 5277 H 504.624 -1.59301 1.03554 0
M  V30 5278 H 502.774 -3.88411 0.0831774 0
M  V30 5279 H 504.446 -3.74795 2.68936 0
M  V30 5280 H 502.689 -3.4836 2.5851 0
M  V30 5281 H 503.36 -5.06819 2.18721 0
M  V30 5282 H 505.836 -4.13037 0.503953 0
M  V30 5283 H 504.712 -5.48452 0.221759 0
M  V30 5284 H 504.973 -4.29576 -1.04482 0
M  V30 5285 N 504.032 -0.577932 -1.46621 0
M  V30 5286 C 504.964 0.195801 -2.28362 0
M  V30 5287 C 505.977 0.859983 -1.38232 0
M  V30 5288 O 507.166 0.730349 -1.62875 0
M  V30 5289 C 504.266 1.29639 -3.13124 0
M  V30 5290 C 503.439 0.725049 -4.31349 0
M  V30 5291 C 502.498 1.71274 -4.97546 0
M  V30 5292 O 501.524 1.25067 -5.5529 0
M  V30 5293 N 502.726 3.04672 -4.94121 0
M  V30 5294 H 505.491 -0.505468 -2.95407 0
M  V30 5295 H 503.052 -0.415381 -1.56481 0
M  V30 5296 H 505.044 1.95631 -3.54275 0
M  V30 5297 H 503.614 1.90059 -2.48186 0
M  V30 5298 H 502.834 -0.112205 -3.9404 0
M  V30 5299 H 504.122 0.323034 -5.07774 0
M  V30 5300 H 503.52 3.4484 -4.48444 0
M  V30 5301 H 502.077 3.66166 -5.39227 0
M  V30 5302 N 505.51 1.54411 -0.315457 0
M  V30 5303 C 506.74 2.04536 0.291315 0
M  V30 5304 C 507.148 1.19162 1.4696 0
M  V30 5305 O 506.491 0.213199 1.82459 0
M  V30 5306 C 506.553 3.5056 0.796725 0
M  V30 5307 C 506.217 4.5627 -0.258178 0
M  V30 5308 C 507.214 5.08312 -1.09153 0
M  V30 5309 C 504.899 5.00672 -0.404036 0
M  V30 5310 C 506.893 6.03312 -2.05655 0
M  V30 5311 C 504.58 5.95488 -1.37248 0
M  V30 5312 C 505.578 6.46693 -2.19721 0
M  V30 5313 O 505.266 7.39648 -3.14921 0
M  V30 5314 H 504.998 0.672856 0.0651165 0
M  V30 5315 H 507.552 2.00244 -0.457308 0
M  V30 5316 H 505.782 3.52223 1.59612 0
M  V30 5317 H 507.471 3.83804 1.32096 0
M  V30 5318 H 508.237 4.74793 -0.98979 0
M  V30 5319 H 504.116 4.60436 0.22799 0
M  V30 5320 H 507.66 6.43203 -2.70067 0
M  V30 5321 H 503.557 6.28424 -1.47489 0
M  V30 5322 H 504.325 7.57496 -3.10067 0
M  V30 5323 N 506.988 0.0434614 1.5754 0
M  V30 5324 C 507.918 -0.931651 2.14109 0
M  V30 5325 C 508.899 -1.32971 1.06079 0
M  V30 5326 O 510.084 -1.40579 1.33982 0
M  V30 5327 C 507.214 -2.20914 2.67982 0
M  V30 5328 C 506.168 -1.95139 3.80926 0
M  V30 5329 C 505.494 -3.29276 4.21285 0
M  V30 5330 C 506.794 -1.27913 5.06395 0
M  V30 5331 H 508.488 -0.460497 2.95837 0
M  V30 5332 H 506.034 -0.220058 1.42309 0
M  V30 5333 H 507.987 -2.89522 3.06194 0
M  V30 5334 H 506.711 -2.70221 1.83434 0
M  V30 5335 H 505.37 -1.28945 3.43175 0
M  V30 5336 H 505.018 -3.76369 3.33699 0
M  V30 5337 H 504.718 -3.12831 4.97404 0
M  V30 5338 H 506.242 -3.99129 4.62091 0
M  V30 5339 H 507.656 -1.86544 5.42102 0
M  V30 5340 H 506.053 -1.2182 5.87605 0
M  V30 5341 H 507.123 -0.254066 4.84234 0
M  V30 5342 N 508.466 -1.55915 -0.229846 0
M  V30 5343 C 509.882 -1.48721 -0.579166 0
M  V30 5344 C 510.082 -0.736976 -1.87539 0
M  V30 5345 O 509.138 -0.273258 -2.51017 0
M  V30 5346 C 510.451 -2.9323 -0.666082 0
M  V30 5347 C 511.999 -3.03701 -0.757267 0
M  V30 5348 C 512.474 -4.49552 -0.8756 0
M  V30 5349 N 513.965 -4.53561 -0.940035 0
M  V30 5350 C 514.7 -5.63683 -1.05116 0
M  V30 5351 N 514.196 -6.83576 -1.12675 0
M  V30 5352 N 515.989 -5.51516 -1.08565 0
M  V30 5353 H 508.14 -2.03123 0.620857 0
M  V30 5354 H 510.403 -0.922898 0.21671 0
M  V30 5355 H 510.109 -3.51032 0.21664 0
M  V30 5356 H 509.983 -3.44668 -1.53243 0
M  V30 5357 H 512.37 -2.45969 -1.63043 0
M  V30 5358 H 512.451 -2.55446 0.134583 0
M  V30 5359 H 512.095 -5.079 -0.00692351 0
M  V30 5360 H 512.025 -4.95506 -1.78274 0
M  V30 5361 H 514.516 -3.67215 -0.892269 0
M  V30 5362 H 514.829 -7.63251 -1.21109 0
M  V30 5363 H 513.174 -6.86303 -1.09603 0
M  V30 5364 H 516.365 -4.5678 -1.02319 0
M  V30 5365 H 516.538 -6.37372 -1.1688 0
M  V30 5366 N 509.944 0.496216 -1.49584 0
M  V30 5367 C 511.355 1.07765 -1.52459 0
M  V30 5368 C 511.706 1.93679 -0.31353 0
M  V30 5369 O 510.831 2.08588 0.576186 0
M  V30 5370 C 511.426 1.96111 -2.76271 0
M  V30 5371 C 509.985 2.49409 -2.81908 0
M  V30 5372 C 509.132 1.27142 -2.46435 0
M  V30 5373 H 512.083 0.279914 -1.56212 0
M  V30 5374 H 512.104 2.80862 -2.56704 0
M  V30 5375 H 511.616 1.33555 -3.64396 0
M  V30 5376 H 509.717 3.1559 -1.98074 0
M  V30 5377 H 509.83 2.86234 -3.84196 0
M  V30 5378 H 508.194 1.59818 -1.98319 0
M  V30 5379 H 508.977 0.662866 -3.3684 0
M  V30 5380 N 511.423 1.38739 0.74761 0
M  V30 5381 C 512.651 1.38521 1.53686 0
M  V30 5382 C 513.066 -0.0235129 1.88785 0
M  V30 5383 O 512.423 -0.991662 1.53207 0
M  V30 5384 C 512.474 2.24641 2.83229 0
M  V30 5385 O 512.195 3.60026 2.49625 0
M  V30 5386 C 513.696 2.32669 3.77333 0
M  V30 5387 H 510.916 0.473589 0.475347 0
M  V30 5388 H 513.46 1.82395 0.924786 0
M  V30 5389 H 511.615 1.84213 3.40799 0
M  V30 5390 H 512.029 4.05435 3.3275 0
M  V30 5391 H 513.503 2.97201 4.65162 0
M  V30 5392 H 513.98 1.3421 4.18192 0
M  V30 5393 H 514.586 2.73512 3.25685 0
M  V30 5394 N 512.901 -0.976442 1.23707 0
M  V30 5395 C 513.864 -2.0511 1.02287 0
M  V30 5396 C 514.864 -1.60791 -0.0167195 0
M  V30 5397 O 516.054 -1.72761 0.223408 0
M  V30 5398 C 513.186 -3.36458 0.548507 0
M  V30 5399 H 514.379 -2.25545 1.9766 0
M  V30 5400 H 511.932 -1.15042 1.05806 0
M  V30 5401 H 512.667 -3.21713 -0.408818 0
M  V30 5402 H 512.452 -3.69967 1.29874 0
M  V30 5403 H 513.942 -4.15489 0.419406 0
M  V30 5404 N 514.379 -1.04941 -1.1758 0
M  V30 5405 C 515.311 -0.606174 -2.21039 0
M  V30 5406 C 516.324 0.328763 -1.59446 0
M  V30 5407 O 517.513 0.121895 -1.78083 0
M  V30 5408 C 514.613 0.133294 -3.38638 0
M  V30 5409 C 513.786 -0.811711 -4.29802 0
M  V30 5410 C 512.845 -0.113958 -5.26077 0
M  V30 5411 O 511.871 -0.747237 -5.64274 0
M  V30 5412 N 513.073 1.14953 -5.69004 0
M  V30 5413 H 515.838 -1.49606 -2.59689 0
M  V30 5414 H 513.399 -0.930997 -1.32454 0
M  V30 5415 H 515.391 0.610144 -4.00074 0
M  V30 5416 H 513.961 0.924816 -2.98607 0
M  V30 5417 H 513.181 -1.46824 -3.65837 0
M  V30 5418 H 514.469 -1.45326 -4.87604 0
M  V30 5419 H 513.867 1.68441 -5.40041 0
M  V30 5420 H 512.424 1.57049 -6.32597 0
M  V30 5421 N 515.857 1.33968 -0.830081 0
M  V30 5422 C 517.087 2.01987 -0.434142 0
M  V30 5423 C 517.495 1.62639 0.96671 0
M  V30 5424 O 516.838 0.831151 1.63822 0
M  V30 5425 C 516.9 3.5648 -0.465018 0
M  V30 5426 C 516.564 4.19176 -1.82045 0
M  V30 5427 C 517.561 4.39181 -2.78237 0
M  V30 5428 C 515.246 4.55792 -2.11089 0
M  V30 5429 C 517.24 4.94937 -4.01642 0
M  V30 5430 C 514.927 5.11258 -3.34752 0
M  V30 5431 C 515.925 5.30775 -4.29845 0
M  V30 5432 O 515.613 5.85064 -5.51322 0
M  V30 5433 H 515.345 0.653847 -0.171639 0
M  V30 5434 H 517.899 1.72066 -1.12171 0
M  V30 5435 H 516.129 3.8569 0.279284 0
M  V30 5436 H 517.818 4.05804 -0.0881334 0
M  V30 5437 H 518.584 4.11249 -2.57097 0
M  V30 5438 H 514.463 4.39901 -1.3787 0
M  V30 5439 H 518.007 5.10086 -4.75876 0
M  V30 5440 H 513.904 5.38619 -3.55753 0
M  V30 5441 H 514.672 6.03489 -5.5294 0
M  V30 5442 N 517.335 0.585699 1.46312 0
M  V30 5443 C 518.583 0.072278 2.01971 0
M  V30 5444 C 518.904 -1.29345 1.45928 0
M  V30 5445 O 518.174 -1.84973 0.645109 0
M  V30 5446 H 516.754 0.023729 0.746623 0
M  V30 5447 H 519.416 0.762155 1.7938 0
M  V30 5448 H 518.512 0.00552767 3.121 0
M  V30 5449 N 518.813 -1.54241 0.323641 0
M  V30 5450 C 519.776 -2.22997 -0.529602 0
M  V30 5451 C 520.776 -1.22345 -1.04347 0
M  V30 5452 O 521.966 -1.46924 -0.935889 0
M  V30 5453 C 519.098 -2.93409 -1.73562 0
M  V30 5454 H 520.291 -2.99815 0.0714518 0
M  V30 5455 H 517.844 -1.56121 0.0747258 0
M  V30 5456 H 518.579 -2.20729 -2.37591 0
M  V30 5457 H 518.364 -3.67217 -1.37456 0
M  V30 5458 H 519.854 -3.45794 -2.34128 0
M  V30 5459 N 520.291 -0.0518155 -1.57515 0
M  V30 5460 C 521.568 0.661727 -1.84067 0
M  V30 5461 C 521.948 1.88999 -0.940351 0
M  V30 5462 O 521.296 2.285 -0.00155404 0
M  V30 5463 C 521.506 1.01841 -3.3381 0
M  V30 5464 C 522.854 1.40043 -4.00841 0
M  V30 5465 O 523.878 1.11073 -3.38439 0
M  V30 5466 O 522.737 1.94111 -5.10865 0
M  V30 5467 H 519.831 0.326702 -0.759733 0
M  V30 5468 H 522.377 -0.0812277 -1.69505 0
M  V30 5469 H 521.149 0.145202 -3.91031 0
M  V30 5470 H 520.772 1.81879 -3.53562 0
M  V30 5471 N 521.769 1.56035 0.221574 0
M  V30 5472 C 522.994 1.83476 0.967026 0
M  V30 5473 C 523.419 0.632139 1.7716 0
M  V30 5474 O 522.777 -0.419082 1.7639 0
M  V30 5475 C 522.825 3.08907 1.86034 0
M  V30 5476 O 521.929 2.876 2.95567 0
M  V30 5477 H 521.27 0.604913 0.273817 0
M  V30 5478 H 523.8 2.03247 0.234893 0
M  V30 5479 H 523.81 3.3901 2.27016 0
M  V30 5480 H 522.485 3.96068 1.26898 0
M  V30 5481 H 521.062 2.6873 2.58532 0
M  V30 5482 N 523.247 -0.488276 1.49845 0
M  V30 5483 C 524.494 -1.24157 1.59973 0
M  V30 5484 C 524.822 -1.92293 0.292182 0
M  V30 5485 O 524.077 -1.81942 -0.720813 0
M  V30 5486 C 524.376 -2.32152 2.71735 0
M  V30 5487 C 524.042 -1.81387 4.12807 0
M  V30 5488 C 522.704 -1.67262 4.51195 0
M  V30 5489 C 525.056 -1.43537 5.01045 0
M  V30 5490 C 522.384 -1.13685 5.7558 0
M  V30 5491 C 524.736 -0.914081 6.25961 0
M  V30 5492 C 523.4 -0.759327 6.63167 0
M  V30 5493 H 522.67 -0.454322 0.585383 0
M  V30 5494 H 525.317 -0.540261 1.83721 0
M  V30 5495 H 523.622 -3.08122 2.42008 0
M  V30 5496 H 525.319 -2.90164 2.76778 0
M  V30 5497 H 521.909 -1.93344 3.82513 0
M  V30 5498 H 526.093 -1.53292 4.72033 0
M  V30 5499 H 521.349 -1.00426 6.03096 0
M  V30 5500 H 525.523 -0.612066 6.93705 0
M  V30 5501 H 523.15 -0.342002 7.5943 0
M  V30 5502 N 524.725 -1.39134 -0.740242 0
M  V30 5503 C 525.657 -1.33332 -1.86428 0
M  V30 5504 C 526.67 -0.243042 -1.60976 0
M  V30 5505 O 527.859 -0.501608 -1.71307 0
M  V30 5506 C 524.959 -1.04626 -3.22346 0
M  V30 5507 C 524.132 -2.24826 -3.75196 0
M  V30 5508 C 523.191 -1.92659 -4.89662 0
M  V30 5509 O 522.217 -2.6529 -5.03597 0
M  V30 5510 N 523.419 -0.889575 -5.73643 0
M  V30 5511 H 526.184 -2.30196 -1.91911 0
M  V30 5512 H 523.745 -1.33168 -0.920756 0
M  V30 5513 H 525.737 -0.811347 -3.96484 0
M  V30 5514 H 524.307 -0.165129 -3.12164 0
M  V30 5515 H 523.527 -2.64301 -2.9247 0
M  V30 5516 H 524.815 -3.05015 -4.07239 0
M  V30 5517 H 524.213 -0.287529 -5.64969 0
M  V30 5518 H 522.77 -0.714557 -6.47871 0
M  V30 5519 N 526.204 0.969867 -1.24223 0
M  V30 5520 C 527.45 1.71582 -1.09231 0
M  V30 5521 C 527.805 1.88898 0.365432 0
M  V30 5522 O 527.098 1.43781 1.2664 0
M  V30 5523 C 527.292 3.10883 -1.76314 0
M  V30 5524 C 527.121 3.07155 -3.2846 0
M  V30 5525 C 525.891 3.11757 -3.97663 0
M  V30 5526 C 528.089 2.895 -4.25082 0
M  V30 5527 N 526.071 2.98025 -5.36707 0
M  V30 5528 C 527.442 2.84041 -5.51109 0
M  V30 5529 C 529.497 2.74064 -4.15684 0
M  V30 5530 C 528.2 2.64725 -6.68815 0
M  V30 5531 C 530.226 2.56115 -5.33066 0
M  V30 5532 C 529.588 2.51363 -6.58024 0
M  V30 5533 H 525.687 0.636496 -0.454309 0
M  V30 5534 H 528.271 1.15004 -1.57106 0
M  V30 5535 H 526.442 3.65657 -1.30955 0
M  V30 5536 H 528.174 3.74171 -1.54201 0
M  V30 5537 H 524.929 3.20352 -3.48814 0
M  V30 5538 H 525.353 2.94405 -6.09635 0
M  V30 5539 H 529.995 2.76521 -3.19837 0
M  V30 5540 H 527.713 2.61011 -7.64787 0
M  V30 5541 H 531.299 2.45119 -5.27644 0
M  V30 5542 H 530.179 2.37651 -7.47323 0
M  V30 5543 N 527.682 1.05563 1.17022 0
M  V30 5544 C 528.91 0.78845 1.91288 0
M  V30 5545 C 529.325 -0.656318 1.77025 0
M  V30 5546 O 528.682 -1.44869 1.10992 0
M  V30 5547 C 528.733 1.16444 3.42232 0
M  V30 5548 O 528.454 2.5525 3.5606 0
M  V30 5549 C 529.955 0.923937 4.33565 0
M  V30 5550 H 527.175 0.286389 0.606813 0
M  V30 5551 H 529.719 1.4073 1.48375 0
M  V30 5552 H 527.874 0.590266 3.82877 0
M  V30 5553 H 528.288 2.70097 4.49609 0
M  V30 5554 H 529.762 1.23672 5.37968 0
M  V30 5555 H 530.239 -0.140688 4.38975 0
M  V30 5556 H 530.845 1.48214 3.98639 0
M  V30 5557 N 529.16 -1.33526 0.837174 0
M  V30 5558 C 530.407 -1.97837 0.432064 0
M  V30 5559 C 530.735 -1.66324 -1.00829 0
M  V30 5560 O 529.99 -0.93448 -1.71948 0
M  V30 5561 C 530.289 -3.52367 0.597675 0
M  V30 5562 C 529.955 -4.03826 2.00587 0
M  V30 5563 C 528.617 -4.1759 2.39106 0
M  V30 5564 C 530.969 -4.31333 2.92576 0
M  V30 5565 C 528.297 -4.56195 3.68921 0
M  V30 5566 C 530.649 -4.7139 4.2187 0
M  V30 5567 C 529.313 -4.8336 4.60347 0
M  V30 5568 H 528.583 -0.723937 0.158104 0
M  V30 5569 H 531.23 -1.5923 1.06387 0
M  V30 5570 H 529.535 -3.91624 -0.117452 0
M  V30 5571 H 531.232 -4.00126 0.26454 0
M  V30 5572 H 527.822 -3.93586 1.69671 0
M  V30 5573 H 532.006 -4.20224 2.64056 0
M  V30 5574 H 527.262 -4.63655 3.9854 0
M  V30 5575 H 531.436 -4.91631 4.93226 0
M  V30 5576 H 529.063 -5.1303 5.60985 0
M  V30 5577 N 530.638 -0.59345 -1.46 0
M  V30 5578 C 531.884 -0.0916503 -2.03193 0
M  V30 5579 C 532.239 1.25839 -1.45541 0
M  V30 5580 O 531.532 1.81455 -0.615191 0
M  V30 5581 C 531.726 0.021178 -3.57394 0
M  V30 5582 C 531.555 -1.31638 -4.30002 0
M  V30 5583 C 530.325 -1.89336 -4.68487 0
M  V30 5584 C 532.523 -2.242 -4.62859 0
M  V30 5585 N 530.505 -3.1672 -5.25891 0
M  V30 5586 C 531.876 -3.36175 -5.20948 0
M  V30 5587 C 533.931 -2.23748 -4.44794 0
M  V30 5588 C 532.634 -4.47844 -5.62875 0
M  V30 5589 C 534.66 -3.34454 -4.87744 0
M  V30 5590 C 534.022 -4.4515 -5.45913 0
M  V30 5591 H 530.121 -0.0765713 -0.778242 0
M  V30 5592 H 532.705 -0.788705 -1.7801 0
M  V30 5593 H 530.876 0.687423 -3.82268 0
M  V30 5594 H 532.608 0.528343 -4.01236 0
M  V30 5595 H 529.363 -1.42704 -4.51589 0
M  V30 5596 H 529.787 -3.81746 -5.59106 0
M  V30 5597 H 534.429 -1.39433 -3.99147 0
M  V30 5598 H 532.147 -5.32894 -6.07495 0
M  V30 5599 H 535.733 -3.35234 -4.75509 0
M  V30 5600 H 534.613 -5.29398 -5.78539 0
M  V30 5601 N 532.116 1.54067 -0.331816 0
M  V30 5602 C 533.341 2.05599 0.272705 0
M  V30 5603 C 533.766 1.2059 1.44359 0
M  V30 5604 O 533.124 0.216907 1.79998 0
M  V30 5605 C 533.172 3.54188 0.677021 0
M  V30 5606 O 532.276 3.72082 1.77844 0
M  V30 5607 H 531.617 0.662286 0.0476801 0
M  V30 5608 H 534.147 1.98826 -0.482624 0
M  V30 5609 H 534.157 3.96608 0.957415 0
M  V30 5610 H 532.832 4.15513 -0.179325 0
M  V30 5611 H 531.409 3.41566 1.49622 0
M  V30 5612 N 533.594 0.0601682 1.57485 0
M  V30 5613 C 534.84 -0.606552 1.94146 0
M  V30 5614 C 535.195 -1.67918 0.939225 0
M  V30 5615 O 534.488 -1.91558 -0.0402649 0
M  V30 5616 C 534.682 -1.23831 3.35262 0
M  V30 5617 C 534.511 -0.228408 4.4912 0
M  V30 5618 C 533.281 0.182813 5.04969 0
M  V30 5619 C 535.479 0.52975 5.11564 0
M  V30 5620 N 533.461 1.18464 6.02362 0
M  V30 5621 C 534.832 1.38439 6.04346 0
M  V30 5622 C 536.887 0.587084 4.94427 0
M  V30 5623 C 535.59 2.29125 6.81832 0
M  V30 5624 C 537.616 1.4814 5.72546 0
M  V30 5625 C 536.978 2.32375 6.64967 0
M  V30 5626 H 533.077 -0.193328 0.757726 0
M  V30 5627 H 535.661 0.1346 1.94234 0
M  V30 5628 H 533.832 -1.94944 3.35933 0
M  V30 5629 H 535.564 -1.86456 3.59188 0
M  V30 5630 H 532.319 -0.197968 4.73186 0
M  V30 5631 H 532.743 1.68271 6.55754 0
M  V30 5632 H 537.385 -0.049944 4.22771 0
M  V30 5633 H 535.103 2.93868 7.52773 0
M  V30 5634 H 538.689 1.53045 5.6131 0
M  V30 5635 H 537.569 3.00454 7.2436 0
M  V30 5636 N 535.072 -1.5615 -0.213296 0
M  V30 5637 C 536.02 -1.93953 -1.28394 0
M  V30 5638 C 537.014 -0.822592 -1.48087 0
M  V30 5639 O 538.22 -1.00748 -1.49164 0
M  V30 5640 H 534.595 -0.61648 -0.430646 0
M  V30 5641 H 536.566 -2.83275 -0.937977 0
M  V30 5642 C 535.315 -2.27969 -2.62537 0
M  V30 5643 H 534.638 -3.13432 -2.48194 0
M  V30 5644 H 536.078 -2.58297 -3.36242 0
M  V30 5645 C 534.537 -1.10775 -3.18167 0
M  V30 5646 O 535.067 -0.373201 -3.99963 0
M  V30 5647 N 533.273 -0.889377 -2.76656 0
M  V30 5648 H 532.82 -1.48843 -2.10246 0
M  V30 5649 H 532.778 -0.107 -3.14218 0
M  V30 5650 N 536.55 0.480323 -1.50102 0
M  V30 5651 C 537.961 1.06142 -1.53593 0
M  V30 5652 C 538.312 1.93335 -0.334055 0
M  V30 5653 O 537.437 2.09188 0.55403 0
M  V30 5654 C 538.032 1.9317 -2.78336 0
M  V30 5655 C 536.591 2.46405 -2.84538 0
M  V30 5656 C 535.738 1.24521 -2.4777 0
M  V30 5657 H 538.689 0.26333 -1.565 0
M  V30 5658 H 538.71 2.78123 -2.59669 0
M  V30 5659 H 538.222 1.29683 -3.65792 0
M  V30 5660 H 536.323 3.13472 -2.01411 0
M  V30 5661 H 536.436 2.82143 -3.87211 0
M  V30 5662 H 534.8 1.57706 -2.00003 0
M  V30 5663 H 535.583 0.627102 -3.37524 0
M  V30 5664 N 538.028 1.39524 0.732853 0
M  V30 5665 C 539.305 1.27373 1.48444 0
M  V30 5666 C 539.685 -0.115725 2.10783 0
M  V30 5667 O 539.033 -1.12713 1.98766 0
M  V30 5668 C 539.243 2.39966 2.53412 0
M  V30 5669 C 540.591 2.79384 3.19733 0
M  V30 5670 O 541.615 2.39431 2.63725 0
M  V30 5671 O 540.474 3.48353 4.21085 0
M  V30 5672 H 537.568 0.499272 0.659285 0
M  V30 5673 H 540.114 1.51403 0.766496 0
M  V30 5674 H 538.886 3.32845 2.05742 0
M  V30 5675 H 538.509 2.17612 3.32762 0
M  V30 5676 N 539.506 -0.963266 1.24736 0
M  V30 5677 C 540.731 -1.74699 1.11781 0
M  V30 5678 C 541.156 -1.85267 -0.325258 0
M  V30 5679 O 540.514 -1.32681 -1.23553 0
M  V30 5680 C 540.562 -3.14322 1.76731 0
M  V30 5681 O 539.666 -3.99043 1.04109 0
M  V30 5682 H 539.007 -0.53684 0.390767 0
M  V30 5683 H 541.537 -1.20801 1.65131 0
M  V30 5684 H 541.547 -3.64824 1.82668 0
M  V30 5685 H 540.222 -3.05946 2.81726 0
M  V30 5686 H 538.799 -3.5752 1.05991 0
M  V30 5687 N 540.985 -1.06182 -1.16461 0
M  V30 5688 C 542.233 -0.776326 -1.86595 0
M  V30 5689 C 542.554 0.69921 -1.82033 0
M  V30 5690 O 541.824 1.50579 -1.2531 0
M  V30 5691 H 540.404 -0.284184 -0.690832 0
M  V30 5692 H 543.066 -1.34308 -1.41235 0
M  V30 5693 H 542.162 -1.10022 -2.92064 0
M  V30 5694 N 542.463 1.3308 -0.844243 0
M  V30 5695 C 543.74 1.92178 -0.364261 0
M  V30 5696 C 544.12 1.76961 1.15101 0
M  V30 5697 O 543.468 1.16128 1.9679 0
M  V30 5698 C 543.678 3.393 -0.817106 0
M  V30 5699 C 545.026 4.16444 -0.828236 0
M  V30 5700 O 546.05 3.47975 -0.761062 0
M  V30 5701 O 544.909 5.38685 -0.920926 0
M  V30 5702 H 542.003 0.820411 -0.10419 0
M  V30 5703 H 544.549 1.41918 -0.930453 0
M  V30 5704 H 543.321 3.44272 -1.85991 0
M  V30 5705 H 542.944 3.96947 -0.227785 0
M  V30 5706 N 543.941 0.601185 1.45683 0
M  V30 5707 C 545.169 0.100054 2.06658 0
M  V30 5708 C 545.584 -1.21285 1.44691 0
M  V30 5709 O 544.941 -1.73735 0.558772 0
M  V30 5710 C 544.992 -0.0528579 3.61461 0
M  V30 5711 O 544.713 1.20809 4.21114 0
M  V30 5712 C 546.214 -0.586193 4.39407 0
M  V30 5713 H 543.434 0.065905 0.667756 0
M  V30 5714 H 545.978 0.827101 1.87028 0
M  V30 5715 H 544.133 -0.730203 3.80456 0
M  V30 5716 H 544.547 1.03368 5.14213 0
M  V30 5717 H 546.021 -0.642297 5.4825 0
M  V30 5718 H 546.498 -1.60713 4.0874 0
M  V30 5719 H 547.104 0.0568935 4.25262 0
M  V30 5720 N 545.419 -1.53889 0.339982 0
M  V30 5721 C 546.667 -2.00458 -0.257112 0
M  V30 5722 C 546.988 -1.22953 -1.51353 0
M  V30 5723 O 546.258 -0.335734 -1.93002 0
M  V30 5724 H 544.838 -0.740544 -0.0979965 0
M  V30 5725 H 547.5 -1.89386 0.460317 0
M  V30 5726 H 546.596 -3.08035 -0.502057 0
M  V30 5727 N 546.897 -0.0685191 -1.57451 0
M  V30 5728 C 548.145 0.60016 -1.92983 0
M  V30 5729 C 548.466 1.70348 -0.949028 0
M  V30 5730 O 547.736 1.959 0.00335647 0
M  V30 5731 H 546.316 0.224682 -0.712409 0
M  V30 5732 H 548.978 -0.125605 -1.94495 0
M  V30 5733 H 548.074 1.02759 -2.94698 0
M  V30 5734 N 548.375 1.56261 0.205012 0
M  V30 5735 C 549.624 1.79236 0.925058 0
M  V30 5736 C 549.937 0.640011 1.84833 0
M  V30 5737 O 551.143 0.753809 2.60826 0
M  V30 5738 C 549.599 3.17475 1.69522 0
M  V30 5739 C 549.207 4.40482 0.817269 0
M  V30 5740 C 550.951 3.49766 2.4055 0
M  V30 5741 C 548.858 5.69744 1.58573 0
M  V30 5742 H 547.788 0.668287 0.349153 0
M  V30 5743 H 550.439 1.82629 0.178544 0
M  V30 5744 H 548.821 3.08304 2.48526 0
M  V30 5745 H 549.995 4.60752 0.0665988 0
M  V30 5746 H 548.31 4.15827 0.218316 0
M  V30 5747 H 550.907 4.43573 2.98575 0
M  V30 5748 H 551.25 2.73041 3.14252 0
M  V30 5749 H 551.783 3.60341 1.68522 0
M  V30 5750 H 548.522 6.49407 0.891679 0
M  V30 5751 H 548.042 5.53509 2.31059 0
M  V30 5752 H 549.721 6.1051 2.14212 0
M  V30 5753 N 549.853 -0.472356 1.50355 0
M  V30 5754 C 550.783 -1.57859 1.72055 0
M  V30 5755 C 551.764 -1.60283 0.569505 0
M  V30 5756 O 552.949 -1.7657 0.808503 0
M  V30 5757 C 550.079 -2.96191 1.81351 0
M  V30 5758 C 549.033 -3.08633 2.96529 0
M  V30 5759 C 548.359 -4.486 2.90968 0
M  V30 5760 C 549.659 -2.85969 4.37057 0
M  V30 5761 H 551.353 -1.39953 2.64676 0
M  V30 5762 H 548.899 -0.671846 1.27367 0
M  V30 5763 H 550.852 -3.73507 1.95117 0
M  V30 5764 H 549.576 -3.15251 0.853502 0
M  V30 5765 H 548.235 -2.33749 2.82413 0
M  V30 5766 H 547.883 -4.64577 1.92815 0
M  V30 5767 H 547.583 -4.57861 3.68289 0
M  V30 5768 H 549.107 -5.27938 3.0678 0
M  V30 5769 H 550.521 -3.53036 4.51706 0
M  V30 5770 H 548.918 -3.06677 5.15819 0
M  V30 5771 H 549.988 -1.81838 4.49514 0
M  V30 5772 N 551.331 -1.39911 -0.725443 0
M  V30 5773 C 552.278 -1.39393 -1.83952 0
M  V30 5774 C 553.248 -0.252249 -1.64173 0
M  V30 5775 O 554.433 -0.44882 -1.85446 0
M  V30 5776 C 551.573 -1.25262 -3.21564 0
M  V30 5777 C 550.686 -2.49054 -3.52982 0
M  V30 5778 C 549.821 -2.27439 -4.80047 0
M  V30 5779 C 548.86 -3.46857 -5.04338 0
M  V30 5780 N 547.997 -3.24499 -6.22611 0
M  V30 5781 H 552.837 -2.34622 -1.83729 0
M  V30 5782 H 550.374 -1.16537 -0.897636 0
M  V30 5783 H 552.332 -1.15077 -4.01015 0
M  V30 5784 H 550.962 -0.33657 -3.21041 0
M  V30 5785 H 550.014 -2.69805 -2.6816 0
M  V30 5786 H 551.326 -3.37973 -3.66846 0
M  V30 5787 H 550.48 -2.14551 -5.67497 0
M  V30 5788 H 549.219 -1.35929 -4.68374 0
M  V30 5789 H 548.224 -3.60232 -4.15346 0
M  V30 5790 H 549.449 -4.3928 -5.17889 0
M  V30 5791 H 547.395 -2.35663 -6.12208 0
M  V30 5792 H 547.312 -4.06978 -6.37106 0
M  V30 5793 H 548.58 -3.15325 -7.12875 0
M  V30 5794 N 552.809 0.956637 -1.25245 0
M  V30 5795 C 554.086 1.67716 -1.00651 0
M  V30 5796 C 554.466 2.0585 0.467866 0
M  V30 5797 O 553.814 1.77029 1.44475 0
M  V30 5798 C 554.024 2.90093 -1.94028 0
M  V30 5799 C 555.372 3.6209 -2.21756 0
M  V30 5800 O 556.396 3.00171 -1.9177 0
M  V30 5801 O 555.255 4.7358 -2.72735 0
M  V30 5802 H 552.349 0.733731 -0.381533 0
M  V30 5803 H 554.895 1.00974 -1.3639 0
M  V30 5804 H 553.667 2.58689 -2.93591 0
M  V30 5805 H 553.29 3.64566 -1.58674 0
M  V30 5806 N 554.287 1.06798 1.15896 0
M  V30 5807 C 555.564 0.701057 1.82605 0
M  V30 5808 C 555.944 -0.817066 1.94646 0
M  V30 5809 O 555.292 -1.72933 1.49353 0
M  V30 5810 C 555.502 1.40895 3.19296 0
M  V30 5811 C 556.85 1.55744 3.95005 0
M  V30 5812 O 557.874 1.36927 3.28831 0
M  V30 5813 O 556.733 1.86658 5.13635 0
M  V30 5814 H 553.827 0.248791 0.78869 0
M  V30 5815 H 556.373 1.16857 1.23055 0
M  V30 5816 H 555.145 2.4439 3.05596 0
M  V30 5817 H 554.768 0.931847 3.86526 0
M  V30 5818 N 555.766 -1.3263 0.851289 0
M  V30 5819 C 557.012 -1.98061 0.462963 0
M  V30 5820 C 557.367 -1.66162 -0.969948 0
M  V30 5821 O 556.66 -0.937723 -1.67085 0
M  V30 5822 C 556.854 -3.51713 0.635015 0
M  V30 5823 C 556.683 -3.98544 2.0831 0
M  V30 5824 C 555.453 -4.25787 2.72091 0
M  V30 5825 C 557.651 -4.13858 3.0533 0
M  V30 5826 N 555.633 -4.58842 4.07845 0
M  V30 5827 C 557.004 -4.50412 4.26063 0
M  V30 5828 C 559.059 -3.96182 3.0157 0
M  V30 5829 C 557.762 -4.71136 5.43529 0
M  V30 5830 C 559.788 -4.18088 4.18278 0
M  V30 5831 C 559.15 -4.54956 5.37768 0
M  V30 5832 H 555.249 -0.750976 0.218082 0
M  V30 5833 H 557.833 -1.60514 1.10197 0
M  V30 5834 H 556.004 -3.88391 0.0257298 0
M  V30 5835 H 557.736 -4.04118 0.216915 0
M  V30 5836 H 554.491 -4.17734 2.23149 0
M  V30 5837 H 554.915 -4.7956 4.77862 0
M  V30 5838 H 559.557 -3.66783 2.1031 0
M  V30 5839 H 557.275 -4.9939 6.35323 0
M  V30 5840 H 560.861 -4.05918 4.168 0
M  V30 5841 H 559.741 -4.71567 6.26573 0
M  V30 5842 N 557.244 -0.608902 -1.45362 0
M  V30 5843 C 558.176 0.147318 -2.28726 0
M  V30 5844 C 559.189 0.830468 -1.40025 0
M  V30 5845 O 560.378 0.695636 -1.64387 0
M  V30 5846 C 557.478 1.22968 -3.15804 0
M  V30 5847 C 556.651 0.633391 -4.3279 0
M  V30 5848 C 555.71 1.60682 -5.01067 0
M  V30 5849 O 554.736 1.13261 -5.57818 0
M  V30 5850 N 555.938 2.94123 -5.00472 0
M  V30 5851 H 558.703 -0.568014 -2.94268 0
M  V30 5852 H 556.264 -0.448479 -1.55564 0
M  V30 5853 H 558.256 1.88072 -3.58345 0
M  V30 5854 H 556.826 1.84752 -2.52162 0
M  V30 5855 H 556.046 -0.195762 -3.93714 0
M  V30 5856 H 557.334 0.215255 -5.08344 0
M  V30 5857 H 556.732 3.3525 -4.55657 0
M  V30 5858 H 555.289 3.54646 -5.46872 0
M  V30 5859 N 558.722 1.53707 -0.348139 0
M  V30 5860 C 559.95 2.05406 0.248224 0
M  V30 5861 C 560.365 1.22282 1.43849 0
M  V30 5862 O 559.722 0.259244 1.80649 0
M  V30 5863 C 559.773 3.55446 0.658793 0
M  V30 5864 O 559.494 4.35417 -0.484149 0
M  V30 5865 C 560.995 4.23335 1.31539 0
M  V30 5866 H 558.215 0.669344 0.0471075 0
M  V30 5867 H 560.759 1.98257 -0.501456 0
M  V30 5868 H 558.914 3.62803 1.35841 0
M  V30 5869 H 559.328 5.24268 -0.155949 0
M  V30 5870 H 560.802 5.29692 1.55338 0
M  V30 5871 H 561.279 3.75967 2.27036 0
M  V30 5872 H 561.885 4.20184 0.657683 0
M  V30 5873 N 560.2 0.0768682 1.57412 0
M  V30 5874 C 561.446 -0.591961 1.93968 0
M  V30 5875 C 561.779 -1.68954 0.9575 0
M  V30 5876 O 561.054 -1.94496 -0.0124675 0
M  V30 5877 C 561.337 -1.16418 3.40762 0
M  V30 5878 C 561.19 -0.0728933 4.49741 0
M  V30 5879 C 562.509 -2.06814 3.88479 0
M  V30 5880 H 559.628 -0.213716 0.705333 0
M  V30 5881 H 562.27 0.14387 1.89455 0
M  V30 5882 H 560.42 -1.79128 3.4474 0
M  V30 5883 H 562.092 0.560446 4.57883 0
M  V30 5884 H 560.335 0.595859 4.29688 0
M  V30 5885 H 561.006 -0.513755 5.49604 0
M  V30 5886 H 563.482 -1.54033 3.8654 0
M  V30 5887 H 562.358 -2.43785 4.91793 0
M  V30 5888 H 562.619 -2.97844 3.26713 0
M  V30 5889 N 561.678 -1.56367 -0.196722 0
M  V30 5890 C 562.955 -1.71359 -0.943159 0
M  V30 5891 C 563.335 -0.631192 -2.01443 0
M  V30 5892 O 562.683 0.358071 -2.25677 0
M  V30 5893 C 562.893 -3.13623 -1.53106 0
M  V30 5894 C 564.241 -3.73806 -2.01381 0
M  V30 5895 O 565.265 -3.16742 -1.62951 0
M  V30 5896 O 564.124 -4.73951 -2.7209 0
M  V30 5897 H 561.218 -0.698851 -0.442195 0
M  V30 5898 H 563.764 -1.68672 -0.186547 0
M  V30 5899 H 562.536 -3.83873 -0.758785 0
M  V30 5900 H 562.159 -3.20532 -2.35255 0
M  V30 5901 N 563.156 0.464375 -1.50603 0
M  V30 5902 C 564.384 1.23907 -1.65695 0
M  V30 5903 C 564.799 1.85658 -0.343027 0
M  V30 5904 O 564.156 1.69529 0.675739 0
M  V30 5905 C 564.207 2.3429 -2.75301 0
M  V30 5906 O 563.928 1.7507 -4.01599 0
M  V30 5907 C 565.429 3.25051 -3.01424 0
M  V30 5908 H 562.649 0.374485 -0.556778 0
M  V30 5909 H 565.193 0.55353 -1.96866 0
M  V30 5910 H 563.348 2.98607 -2.46804 0
M  V30 5911 H 563.762 2.47812 -4.62266 0
M  V30 5912 H 565.236 3.98699 -3.81763 0
M  V30 5913 H 565.713 3.84227 -2.12758 0
M  V30 5914 H 566.319 2.66463 -3.31477 0
M  V30 5915 N 564.634 1.40294 0.718013 0
M  V30 5916 C 565.88 1.38645 1.48005 0
M  V30 5917 C 566.213 -0.0121202 1.94196 0
M  V30 5918 O 565.488 -0.980309 1.67989 0
M  V30 5919 C 565.771 2.37379 2.70782 0
M  V30 5920 C 565.624 3.8625 2.30501 0
M  V30 5921 C 566.943 2.33685 3.72933 0
M  V30 5922 H 564.062 0.504928 0.536858 0
M  V30 5923 H 566.704 1.71411 0.819649 0
M  V30 5924 H 564.854 2.09568 3.27129 0
M  V30 5925 H 566.526 4.24879 1.79655 0
M  V30 5926 H 564.769 4.02202 1.6253 0
M  V30 5927 H 565.44 4.50847 3.18498 0
M  V30 5928 H 567.916 2.58314 3.2621 0
M  V30 5929 H 566.792 3.0482 4.56482 0
M  V30 5930 H 567.053 1.34765 4.21059 0
M  V30 5931 N 566.112 -0.949982 1.2575 0
M  V30 5932 C 567.059 -2.04738 1.06541 0
M  V30 5933 C 568.029 -1.66078 -0.0268818 0
M  V30 5934 O 569.214 -1.90348 0.131196 0
M  V30 5935 C 566.354 -3.38027 0.695127 0
M  V30 5936 C 565.467 -3.89776 1.86276 0
M  V30 5937 C 564.602 -5.11411 1.4364 0
M  V30 5938 C 563.641 -5.554 2.57287 0
M  V30 5939 N 562.778 -6.68244 2.15395 0
M  V30 5940 H 567.618 -2.20502 2.00457 0
M  V30 5941 H 565.155 -1.0805 0.998178 0
M  V30 5942 H 567.113 -4.14641 0.461375 0
M  V30 5943 H 565.743 -3.22135 -0.207046 0
M  V30 5944 H 564.795 -3.0964 2.20969 0
M  V30 5945 H 566.107 -4.18368 2.71606 0
M  V30 5946 H 565.261 -5.95457 1.16257 0
M  V30 5947 H 564 -4.84545 0.553879 0
M  V30 5948 H 563.005 -4.69916 2.85409 0
M  V30 5949 H 564.23 -5.84272 3.46125 0
M  V30 5950 H 562.176 -6.43078 1.29565 0
M  V30 5951 H 562.093 -6.96377 2.94272 0
M  V30 5952 H 563.361 -7.55687 1.91201 0
M  V30 5953 N 567.59 -1.07411 -1.15328 0
M  V30 5954 C 568.867 -0.710732 -1.82231 0
M  V30 5955 C 569.247 0.806732 -1.95077 0
M  V30 5956 O 568.595 1.72139 -1.50268 0
M  V30 5957 C 568.805 -1.42586 -3.18544 0
M  V30 5958 C 570.153 -1.57836 -3.94174 0
M  V30 5959 O 571.177 -1.38669 -3.281 0
M  V30 5960 O 570.036 -1.8938 -5.12638 0
M  V30 5961 H 567.13 -0.25297 -0.78736 0
M  V30 5962 H 569.676 -1.17508 -1.22434 0
M  V30 5963 H 568.448 -2.46008 -3.04296 0
M  V30 5964 H 568.071 -0.952332 -3.86026 0
M  V30 5965 N 569.068 1.32177 -0.85831 0
M  V30 5966 C 570.316 1.96735 -0.462568 0
M  V30 5967 C 570.637 1.6824 0.985911 0
M  V30 5968 O 569.907 0.991564 1.68952 0
M  V30 5969 H 568.487 0.727849 -0.168064 0
M  V30 5970 H 571.149 1.61195 -1.09554 0
M  V30 5971 H 570.245 3.06068 -0.610647 0
M  V30 5972 N 570.547 0.616602 1.45037 0
M  V30 5973 C 571.777 0.121791 2.06241 0
M  V30 5974 C 572.185 -1.20289 1.46038 0
M  V30 5975 O 571.528 -1.7456 0.572242 0
M  V30 5976 C 571.59 -0.0827345 3.59405 0
M  V30 5977 C 571.254 1.16153 4.41993 0
M  V30 5978 C 572.251 2.08183 4.76399 0
M  V30 5979 C 569.936 1.39288 4.82601 0
M  V30 5980 C 571.93 3.21668 5.5028 0
M  V30 5981 C 569.617 2.53073 5.56235 0
M  V30 5982 C 570.615 3.44091 5.89992 0
M  V30 5983 O 570.303 4.55894 6.6213 0
M  V30 5984 H 570.035 0.0701667 0.672349 0
M  V30 5985 H 572.589 0.846877 1.87129 0
M  V30 5986 H 570.819 -0.862812 3.76952 0
M  V30 5987 H 572.508 -0.530273 4.02421 0
M  V30 5988 H 573.274 1.91538 4.45576 0
M  V30 5989 H 569.153 0.693396 4.55755 0
M  V30 5990 H 572.697 3.92733 5.76547 0
M  V30 5991 H 568.594 2.69667 5.86472 0
M  V30 5992 H 569.362 4.5469 6.80587 0
M  V30 5993 N 572.025 -1.5352 0.356285 0
M  V30 5994 C 572.955 -2.28372 -0.486661 0
M  V30 5995 C 573.936 -1.30432 -1.09185 0
M  V30 5996 O 575.121 -1.59291 -1.11085 0
M  V30 5997 C 572.251 -3.06604 -1.63129 0
M  V30 5998 C 571.205 -4.12154 -1.15381 0
M  V30 5999 C 570.531 -4.78415 -2.38796 0
M  V30 6000 C 571.831 -5.21724 -0.245179 0
M  V30 6001 H 573.525 -2.99083 0.137797 0
M  V30 6002 H 571.071 -1.43841 0.0677134 0
M  V30 6003 H 573.024 -3.57712 -2.22755 0
M  V30 6004 H 571.748 -2.33568 -2.28284 0
M  V30 6005 H 570.407 -3.61978 -0.580294 0
M  V30 6006 H 570.055 -4.01959 -3.02387 0
M  V30 6007 H 569.755 -5.49734 -2.07524 0
M  V30 6008 H 571.279 -5.32313 -2.99125 0
M  V30 6009 H 572.693 -5.68391 -0.748646 0
M  V30 6010 H 571.09 -6.00095 -0.0237608 0
M  V30 6011 H 572.16 -4.79596 0.715229 0
M  V30 6012 N 573.503 -0.0852151 -1.57369 0
M  V30 6013 C 574.466 0.8627 -2.12344 0
M  V30 6014 C 575.466 1.21746 -1.05046 0
M  V30 6015 O 576.656 1.14852 -1.30976 0
M  V30 6016 C 573.788 2.1618 -2.63589 0
M  V30 6017 H 574.981 0.385511 -2.97412 0
M  V30 6018 H 572.534 0.163663 -1.55441 0
M  V30 6019 H 573.269 2.68406 -1.82013 0
M  V30 6020 H 573.054 1.91723 -3.4203 0
M  V30 6021 H 574.544 2.84011 -3.06149 0
M  V30 6022 N 574.981 1.5647 0.188427 0
M  V30 6023 C 576.392 1.70864 0.752494 0
M  V30 6024 C 576.743 0.692905 1.83557 0
M  V30 6025 O 575.868 -0.149307 2.15884 0
M  V30 6026 C 576.463 3.09789 1.37173 0
M  V30 6027 C 575.022 3.25925 1.88281 0
M  V30 6028 C 574.169 2.66817 0.755259 0
M  V30 6029 H 577.12 1.58657 -0.0367408 0
M  V30 6030 H 577.141 3.07489 2.24122 0
M  V30 6031 H 576.653 3.83693 0.583219 0
M  V30 6032 H 574.754 2.56948 2.6983 0
M  V30 6033 H 574.867 4.33498 2.04001 0
M  V30 6034 H 573.231 2.2617 1.17128 0
M  V30 6035 H 574.014 3.43294 -0.0211237 0
M  V30 6036 N 576.459 -0.456382 1.50847 0
M  V30 6037 C 577.708 -1.2042 1.61808 0
M  V30 6038 C 578.021 -1.9278 0.330932 0
M  V30 6039 O 579.227 -2.69612 0.319643 0
M  V30 6040 C 577.683 -2.18891 2.85683 0
M  V30 6041 C 577.291 -1.52267 4.2133 0
M  V30 6042 C 579.035 -2.94224 3.05994 0
M  V30 6043 C 576.942 -2.4911 5.36375 0
M  V30 6044 H 575.872 -0.453177 0.602616 0
M  V30 6045 H 578.523 -0.473144 1.77295 0
M  V30 6046 H 576.905 -2.95351 2.63787 0
M  V30 6047 H 578.079 -0.814949 4.53536 0
M  V30 6048 H 576.394 -0.891594 4.06743 0
M  V30 6049 H 578.991 -3.66732 3.89117 0
M  V30 6050 H 579.334 -3.54469 2.18306 0
M  V30 6051 H 579.867 -2.24874 3.28141 0
M  V30 6052 H 576.606 -1.93582 6.26264 0
M  V30 6053 H 576.126 -3.17991 5.08569 0
M  V30 6054 H 577.805 -3.10637 5.67551 0
M  V30 6055 N 577.937 -1.40673 -0.710563 0
M  V30 6056 C 578.884 -1.41336 -1.82463 0
M  V30 6057 C 579.854 -0.269648 -1.63897 0
M  V30 6058 O 581.039 -0.468463 -1.8496 0
M  V30 6059 C 578.179 -1.28665 -3.20218 0
M  V30 6060 C 577.292 -2.52784 -3.5032 0
M  V30 6061 C 576.427 -2.32517 -4.77608 0
M  V30 6062 C 575.466 -3.52187 -5.0063 0
M  V30 6063 N 574.603 -3.31084 -6.19135 0
M  V30 6064 H 579.443 -2.36558 -1.8123 0
M  V30 6065 H 576.98 -1.17483 -0.885226 0
M  V30 6066 H 578.938 -1.19324 -3.99772 0
M  V30 6067 H 577.568 -0.370602 -3.20666 0
M  V30 6068 H 576.62 -2.72634 -2.65283 0
M  V30 6069 H 577.932 -3.41845 -3.63241 0
M  V30 6070 H 577.086 -2.20558 -5.65189 0
M  V30 6071 H 575.825 -1.40889 -4.66906 0
M  V30 6072 H 574.83 -3.64617 -4.11502 0
M  V30 6073 H 576.055 -4.44749 -5.13201 0
M  V30 6074 H 574.001 -2.42143 -6.09674 0
M  V30 6075 H 573.918 -4.13713 -6.32754 0
M  V30 6076 H 575.186 -3.22868 -7.0949 0
M  V30 6077 N 579.415 0.9433 -1.26252 0
M  V30 6078 C 580.64 1.72898 -1.14547 0
M  V30 6079 C 581.065 1.85761 0.295743 0
M  V30 6080 O 580.423 1.3463 1.21427 0
M  V30 6081 C 580.471 3.11471 -1.8171 0
M  V30 6082 O 579.575 3.97336 -1.10445 0
M  V30 6083 H 578.916 0.530555 -0.399259 0
M  V30 6084 H 581.446 1.18159 -1.67032 0
M  V30 6085 H 581.456 3.61872 -1.88449 0
M  V30 6086 H 580.131 3.01425 -2.86558 0
M  V30 6087 H 578.708 3.55788 -1.11666 0
M  V30 6088 N 580.893 1.08022 1.14757 0
M  V30 6089 C 582.118 0.82895 1.90114 0
M  V30 6090 C 582.543 -0.612772 1.77839 0
M  V30 6091 O 581.901 -1.42895 1.11583 0
M  V30 6092 C 581.949 1.25062 3.38219 0
M  V30 6093 O 581.053 0.400119 4.10454 0
M  V30 6094 H 580.394 0.301412 0.591648 0
M  V30 6095 H 582.924 1.44062 1.45284 0
M  V30 6096 H 582.934 1.22977 3.89025 0
M  V30 6097 H 581.609 2.30067 3.46471 0
M  V30 6098 H 580.186 0.484052 3.69745 0
M  V30 6099 N 582.371 -1.3172 0.865308 0
M  V30 6100 C 583.62 -1.96145 0.470098 0
M  V30 6101 C 583.933 -1.69182 -0.981674 0
M  V30 6102 O 585.139 -2.27431 -1.48281 0
M  V30 6103 C 583.595 -3.51129 0.789732 0
M  V30 6104 C 583.203 -3.86938 2.25795 0
M  V30 6105 C 584.947 -4.2197 0.462765 0
M  V30 6106 C 582.854 -5.35012 2.52024 0
M  V30 6107 H 581.784 -0.734105 0.172065 0
M  V30 6108 H 584.435 -1.49959 1.05757 0
M  V30 6109 H 582.817 -3.95781 0.131571 0
M  V30 6110 H 583.991 -3.5326 2.95879 0
M  V30 6111 H 582.306 -3.29149 2.55049 0
M  V30 6112 H 584.903 -5.30904 0.636019 0
M  V30 6113 H 585.246 -4.12005 -0.59645 0
M  V30 6114 H 585.779 -3.82936 1.07727 0
M  V30 6115 H 582.518 -5.50008 3.56611 0
M  V30 6116 H 582.038 -5.70058 1.8653 0
M  V30 6117 H 583.717 -6.0222 2.36515 0
M  V30 6118 N 583.85 -0.624285 -1.44708 0
M  V30 6119 C 585.096 -0.126051 -2.02107 0
M  V30 6120 C 585.425 1.2496 -1.49048 0
M  V30 6121 O 584.68 1.84163 -0.662005 0
M  V30 6122 C 584.979 -0.0546353 -3.57358 0
M  V30 6123 C 584.644 -1.36815 -4.29642 0
M  V30 6124 C 583.307 -1.72792 -4.49106 0
M  V30 6125 C 585.659 -2.23549 -4.70824 0
M  V30 6126 C 582.986 -2.95222 -5.07012 0
M  V30 6127 C 585.339 -3.45243 -5.30085 0
M  V30 6128 C 584.003 -3.81452 -5.47769 0
M  V30 6129 H 583.273 -0.0461252 -0.739563 0
M  V30 6130 H 585.92 -0.809236 -1.73562 0
M  V30 6131 H 584.225 0.711891 -3.85278 0
M  V30 6132 H 585.922 0.347282 -3.99493 0
M  V30 6133 H 582.512 -1.07817 -4.14817 0
M  V30 6134 H 586.696 -1.9705 -4.55505 0
M  V30 6135 H 581.952 -3.23361 -5.18891 0
M  V30 6136 H 586.125 -4.12689 -5.60946 0
M  V30 6137 H 583.753 -4.76403 -5.92405 0
M  V30 6138 N 585.328 1.53329 -0.364422 0
M  V30 6139 C 586.605 1.93557 0.281962 0
M  V30 6140 C 586.985 1.29786 1.6649 0
M  V30 6141 O 586.333 0.456512 2.23893 0
M  V30 6142 C 586.543 3.47405 0.333331 0
M  V30 6143 C 587.891 4.20699 0.574231 0
M  V30 6144 O 588.915 3.53779 0.414588 0
M  V30 6145 O 587.774 5.39287 0.885002 0
M  V30 6146 H 584.868 0.809573 0.168881 0
M  V30 6147 H 587.414 1.64494 -0.417121 0
M  V30 6148 H 586.186 3.86091 -0.636326 0
M  V30 6149 H 585.809 3.82697 1.07836 0
M  V30 6150 N 586.806 0.0935595 1.57322 0
M  V30 6151 C 588.217 -0.435807 1.81542 0
M  V30 6152 C 588.568 -1.68263 1.00907 0
M  V30 6153 O 587.693 -2.15087 0.237983 0
M  V30 6154 C 588.288 -0.797436 3.29282 0
M  V30 6155 C 586.847 -1.27155 3.54272 0
M  V30 6156 C 585.994 -0.267455 2.76007 0
M  V30 6157 H 588.945 0.31902 1.5546 0
M  V30 6158 H 588.966 -1.6571 3.42521 0
M  V30 6159 H 588.478 0.110206 3.87943 0
M  V30 6160 H 586.579 -2.19696 3.00939 0
M  V30 6161 H 586.692 -1.23445 4.62923 0
M  V30 6162 H 585.056 -0.749282 2.43429 0
M  V30 6163 H 585.839 0.632839 3.37417 0
M  V30 6164 N 588.284 -1.56567 -0.180126 0
M  V30 6165 C 589.53 -1.81761 -0.899497 0
M  V30 6166 C 589.863 -0.670015 -1.82276 0
M  V30 6167 O 589.138 0.328575 -1.91705 0
M  V30 6168 C 589.421 -3.17296 -1.7028 0
M  V30 6169 C 589.274 -4.4257 -0.803255 0
M  V30 6170 C 590.593 -3.49678 -2.67233 0
M  V30 6171 H 587.712 -0.661192 -0.325567 0
M  V30 6172 H 590.354 -1.89272 -0.16612 0
M  V30 6173 H 588.504 -3.11023 -2.32802 0
M  V30 6174 H 590.176 -4.60902 -0.191585 0
M  V30 6175 H 588.419 -4.33658 -0.110796 0
M  V30 6176 H 589.09 -5.33935 -1.40064 0
M  V30 6177 H 591.566 -3.56347 -2.14839 0
M  V30 6178 H 590.442 -4.45605 -3.20511 0
M  V30 6179 H 590.703 -2.73932 -3.47007 0
M  V30 6180 N 589.762 0.448376 -1.51087 0
M  V30 6181 C 591.01 1.19635 -1.62886 0
M  V30 6182 C 591.331 1.91977 -0.342024 0
M  V30 6183 O 590.601 1.85094 0.641636 0
M  V30 6184 H 589.181 0.444598 -0.600285 0
M  V30 6185 H 591.843 0.515138 -1.87969 0
M  V30 6186 H 590.939 1.93194 -2.45117 0
M  V30 6187 N 591.24 1.41047 0.703093 0
M  V30 6188 C 592.203 1.42036 1.79884 0
M  V30 6189 C 593.203 0.312153 1.57741 0
M  V30 6190 O 594.393 0.571672 1.64553 0
M  V30 6191 C 591.525 1.22437 3.18154 0
M  V30 6192 H 592.718 2.39572 1.80403 0
M  V30 6193 H 590.271 1.27079 0.909977 0
M  V30 6194 H 591.006 0.257112 3.23279 0
M  V30 6195 H 590.791 2.02723 3.35627 0
M  V30 6196 H 592.281 1.25946 3.98155 0
M  V30 6197 N 592.718 -0.936591 1.26751 0
M  V30 6198 C 593.943 -1.72288 1.15462 0
M  V30 6199 C 594.368 -1.85915 -0.285887 0
M  V30 6200 O 593.726 -1.35272 -1.20711 0
M  V30 6201 C 593.774 -3.10503 1.83359 0
M  V30 6202 O 592.878 -3.96745 1.1255 0
M  V30 6203 H 592.219 -0.52843 0.402067 0
M  V30 6204 H 594.749 -1.17271 1.67656 0
M  V30 6205 H 594.759 -3.60867 1.90365 0
M  V30 6206 H 593.434 -2.99901 2.88153 0
M  V30 6207 H 592.011 -3.55191 1.13551 0
M  V30 6208 N 594.196 -1.08629 -1.14182 0
M  V30 6209 C 595.159 -0.722027 -2.1753 0
M  V30 6210 C 596.159 0.244305 -1.58933 0
M  V30 6211 O 597.349 0.0235545 -1.74184 0
M  V30 6212 C 594.481 -0.0663966 -3.40835 0
M  V30 6213 H 595.674 -1.63719 -2.51269 0
M  V30 6214 H 593.227 -0.884442 -1.28869 0
M  V30 6215 H 593.962 0.860389 -3.12678 0
M  V30 6216 H 593.747 -0.761598 -3.84632 0
M  V30 6217 H 595.237 0.173346 -4.1724 0
M  V30 6218 N 595.674 1.31259 -0.872281 0
M  V30 6219 C 596.899 2.0133 -0.498099 0
M  V30 6220 C 597.324 1.65031 0.902568 0
M  V30 6221 O 596.682 0.860164 1.59596 0
M  V30 6222 C 596.73 3.54411 -0.665205 0
M  V30 6223 O 595.834 4.11347 0.294473 0
M  V30 6224 H 595.175 0.633844 -0.197832 0
M  V30 6225 H 597.705 1.67402 -1.17633 0
M  V30 6226 H 597.715 4.04147 -0.559373 0
M  V30 6227 H 596.39 3.80171 -1.68651 0
M  V30 6228 H 594.967 3.72624 0.143403 0
M  V30 6229 N 597.152 0.631951 1.44375 0
M  V30 6230 C 598.563 0.219036 1.85411 0
M  V30 6231 C 598.914 -1.22974 1.52879 0
M  V30 6232 O 598.039 -1.93579 0.967266 0
M  V30 6233 C 598.634 0.39075 3.36539 0
M  V30 6234 C 597.193 0.0323351 3.76386 0
M  V30 6235 C 596.34 0.703744 2.68221 0
M  V30 6236 H 599.291 0.837056 1.3483 0
M  V30 6237 H 599.312 -0.370056 3.78696 0
M  V30 6238 H 598.824 1.44527 3.60185 0
M  V30 6239 H 596.925 -1.02042 3.58355 0
M  V30 6240 H 597.038 0.442969 4.77048 0
M  V30 6241 H 595.402 0.138974 2.54321 0
M  V30 6242 H 596.185 1.76088 2.947 0
M  V30 6243 N 598.631 -1.53133 0.372548 0
M  V30 6244 C 599.856 -2.0625 -0.218098 0
M  V30 6245 C 600.281 -1.24375 -1.41111 0
M  V30 6246 O 599.639 -0.264554 -1.79359 0
M  V30 6247 C 599.687 -3.55858 -0.582876 0
M  V30 6248 O 598.791 -3.76667 -1.67917 0
M  V30 6249 H 598.132 -0.663317 -0.030104 0
M  V30 6250 H 600.662 -1.97477 0.535169 0
M  V30 6251 H 600.672 -3.99007 -0.851925 0
M  V30 6252 H 599.347 -4.14892 0.289428 0
M  V30 6253 H 597.924 -3.45413 -1.40513 0
M  V30 6254 N 600.109 -0.101901 -1.5727 0
M  V30 6255 C 601.334 0.571759 -1.99363 0
M  V30 6256 C 601.759 1.60507 -0.980768 0
M  V30 6257 O 601.117 1.81231 0.0498517 0
M  V30 6258 C 601.165 1.18996 -3.404 0
M  V30 6259 O 600.269 2.30572 -3.41922 0
M  V30 6260 H 599.61 0.144449 -0.648098 0
M  V30 6261 H 602.14 -0.185325 -2.03759 0
M  V30 6262 H 602.15 1.52962 -3.78241 0
M  V30 6263 H 600.825 0.432984 -4.1364 0
M  V30 6264 H 599.402 1.98173 -3.15883 0
M  V30 6265 N 601.587 1.56661 0.17182 0
M  V30 6266 C 602.519 1.92934 1.2373 0
M  V30 6267 C 603.532 0.822385 1.40502 0
M  V30 6268 O 604.721 1.10083 1.40514 0
M  V30 6269 C 601.821 2.16651 2.60607 0
M  V30 6270 C 600.994 3.47878 2.6514 0
M  V30 6271 C 600.053 3.60429 3.83377 0
M  V30 6272 O 599.079 4.33051 3.69398 0
M  V30 6273 N 600.281 2.95241 4.99813 0
M  V30 6274 H 603.046 2.84931 0.929205 0
M  V30 6275 H 600.607 1.5781 0.361588 0
M  V30 6276 H 602.599 2.22312 3.38171 0
M  V30 6277 H 601.169 1.3104 2.83809 0
M  V30 6278 H 600.389 3.53879 1.73675 0
M  V30 6279 H 601.677 4.34232 2.6518 0
M  V30 6280 H 601.075 2.3611 5.14071 0
M  V30 6281 H 599.632 3.06499 5.75241 0
M  V30 6282 N 603.065 -0.440357 1.51323 0
M  V30 6283 C 604.476 -1.02032 1.56353 0
M  V30 6284 C 604.827 -1.92382 0.385197 0
M  V30 6285 O 603.952 -2.10583 -0.498373 0
M  V30 6286 C 604.547 -1.85723 2.83359 0
M  V30 6287 C 603.106 -2.38774 2.90971 0
M  V30 6288 C 602.253 -1.17908 2.50984 0
M  V30 6289 H 605.204 -0.221744 1.57143 0
M  V30 6290 H 605.225 -2.71141 2.66951 0
M  V30 6291 H 604.737 -1.19939 3.69102 0
M  V30 6292 H 602.838 -3.08021 2.09651 0
M  V30 6293 H 602.951 -2.71778 3.94555 0
M  V30 6294 H 601.315 -1.52347 2.04114 0
M  V30 6295 H 602.098 -0.537393 3.39068 0
M  V30 6296 N 604.543 -1.41418 -0.695603 0
M  V30 6297 C 605.768 -1.44329 -1.48942 0
M  V30 6298 C 606.193 -0.0501579 -1.88033 0
M  V30 6299 O 605.551 0.946598 -1.54626 0
M  V30 6300 C 605.599 -2.3578 -2.72837 0
M  V30 6301 O 604.703 -1.81482 -3.70322 0
M  V30 6302 H 604.044 -0.489838 -0.44828 0
M  V30 6303 H 606.574 -1.85878 -0.855014 0
M  V30 6304 H 606.584 -2.51654 -3.21145 0
M  V30 6305 H 605.259 -3.37005 -2.43722 0
M  V30 6306 H 603.836 -1.75058 -3.29255 0
M  V30 6307 N 606.021 0.929856 -1.27246 0
M  V30 6308 C 607.432 1.49223 -1.12203 0
M  V30 6309 C 607.783 1.93989 0.293731 0
M  V30 6310 O 606.908 1.80978 1.18642 0
M  V30 6311 C 607.503 2.71198 -2.0307 0
M  V30 6312 C 606.062 3.23666 -1.92139 0
M  V30 6313 C 605.209 1.96409 -1.95752 0
M  V30 6314 H 608.16 0.744181 -1.4017 0
M  V30 6315 H 608.181 3.45905 -1.58524 0
M  V30 6316 H 607.693 2.38585 -3.06102 0
M  V30 6317 H 605.794 3.61042 -0.920834 0
M  V30 6318 H 605.907 3.90006 -2.78267 0
M  V30 6319 H 604.271 2.12806 -1.39949 0
M  V30 6320 H 605.054 1.66113 -3.00436 0
M  V30 6321 N 607.499 1.09233 1.13605 0
M  V30 6322 C 608.724 0.849067 1.89224 0
M  V30 6323 C 609.149 -0.593875 1.78479 0
M  V30 6324 O 608.507 -1.41703 1.13092 0
M  V30 6325 C 608.555 1.28642 3.36873 0
M  V30 6326 O 607.659 0.44363 4.10007 0
M  V30 6327 H 607 0.30767 0.588417 0
M  V30 6328 H 609.53 1.45595 1.43748 0
M  V30 6329 H 609.54 1.27096 3.87699 0
M  V30 6330 H 608.215 2.33729 3.44011 0
M  V30 6331 H 606.792 0.523241 3.69211 0
M  V30 6332 N 608.977 -1.30795 0.87923 0
M  V30 6333 C 610.223 -1.96653 0.495519 0
M  V30 6334 C 610.556 -1.69282 -0.951703 0
M  V30 6335 O 609.831 -0.994374 -1.6716 0
M  V30 6336 C 610.114 -3.51898 0.764174 0
M  V30 6337 C 609.967 -3.88808 2.2616 0
M  V30 6338 C 611.286 -4.39462 0.236825 0
M  V30 6339 H 608.405 -0.7143 0.181507 0
M  V30 6340 H 611.047 -1.54765 1.10217 0
M  V30 6341 H 609.197 -3.87709 0.247841 0
M  V30 6342 H 610.869 -3.63051 2.8459 0
M  V30 6343 H 609.112 -3.37082 2.73053 0
M  V30 6344 H 609.783 -4.97086 2.4002 0
M  V30 6345 H 612.259 -4.10528 0.678683 0
M  V30 6346 H 611.135 -5.47018 0.454176 0
M  V30 6347 H 611.396 -4.33621 -0.861683 0
M  V30 6348 N 610.455 -0.639598 -1.44038 0
M  V30 6349 C 611.68 -0.153117 -2.06834 0
M  V30 6350 C 612.105 1.16676 -1.47541 0
M  V30 6351 O 611.463 1.71769 -0.580093 0
M  V30 6352 C 611.511 -0.0609169 -3.60549 0
M  V30 6353 O 610.615 0.98071 -4.00569 0
M  V30 6354 H 609.956 -0.0886402 -0.658057 0
M  V30 6355 H 612.486 -0.878674 -1.84771 0
M  V30 6356 H 612.496 0.126892 -4.07803 0
M  V30 6357 H 611.171 -1.0245 -4.03084 0
M  V30 6358 H 609.748 0.766789 -3.64931 0
M  V30 6359 N 611.933 1.52934 -0.380664 0
M  V30 6360 C 613.344 1.86457 0.0952684 0
M  V30 6361 C 613.695 1.3007 1.46889 0
M  V30 6362 O 612.82 0.628636 2.07068 0
M  V30 6363 C 613.415 3.38323 0.179648 0
M  V30 6364 C 611.974 3.71589 0.599858 0
M  V30 6365 C 611.121 2.76228 -0.243572 0
M  V30 6366 H 614.072 1.46966 -0.59888 0
M  V30 6367 H 614.093 3.67113 1.00042 0
M  V30 6368 H 613.605 3.79333 -0.820228 0
M  V30 6369 H 611.706 3.36144 1.60742 0
M  V30 6370 H 611.819 4.77715 0.364003 0
M  V30 6371 H 610.183 2.53045 0.289855 0
M  V30 6372 H 610.966 3.20074 -1.24127 0
M  V30 6373 N 613.412 0.11024 1.57214 0
M  V30 6374 C 614.637 -0.561179 1.99664 0
M  V30 6375 C 615.062 -1.59985 0.989266 0
M  V30 6376 O 614.42 -1.81255 -0.0402399 0
M  V30 6377 C 614.468 -1.17189 3.41027 0
M  V30 6378 O 613.572 -2.28755 3.4314 0
M  V30 6379 H 612.913 -0.14101 0.648855 0
M  V30 6380 H 615.443 0.196128 2.03658 0
M  V30 6381 H 615.453 -1.50954 3.79047 0
M  V30 6382 H 614.128 -0.411041 4.13864 0
M  V30 6383 H 612.705 -1.96495 3.16929 0
M  V30 6384 N 614.89 -1.56749 -0.16351 0
M  V30 6385 C 616.301 -1.72039 -0.725216 0
M  V30 6386 C 616.652 -0.72202 -1.82432 0
M  V30 6387 O 615.777 0.114942 -2.16095 0
M  V30 6388 C 616.372 -3.11932 -1.32227 0
M  V30 6389 C 614.931 -3.28879 -1.83072 0
M  V30 6390 C 614.078 -2.67984 -0.712716 0
M  V30 6391 H 617.029 -1.58579 0.0619772 0
M  V30 6392 H 617.05 -3.11015 -2.19202 0
M  V30 6393 H 616.562 -3.84572 -0.522103 0
M  V30 6394 H 614.663 -2.61209 -2.65708 0
M  V30 6395 H 614.776 -4.36688 -1.97079 0
M  V30 6396 H 613.14 -2.28005 -1.13515 0
M  V30 6397 H 613.923 -3.43216 0.0757361 0
M  V30 6398 N 616.368 0.432326 -1.51554 0
M  V30 6399 C 617.593 1.20824 -1.68571 0
M  V30 6400 C 618.018 1.84126 -0.384596 0
M  V30 6401 O 617.376 1.69025 0.655751 0
M  V30 6402 C 617.424 2.26429 -2.80646 0
M  V30 6403 O 616.528 3.32032 -2.44598 0
M  V30 6404 H 615.869 0.353765 -0.561913 0
M  V30 6405 H 618.399 0.509916 -1.98144 0
M  V30 6406 H 618.409 2.71133 -3.04878 0
M  V30 6407 H 617.084 1.79733 -3.75058 0
M  V30 6408 H 615.661 2.92769 -2.30956 0
M  V30 6409 N 617.846 1.41785 0.688094 0
M  V30 6410 C 619.257 1.3701 1.26828 0
M  V30 6411 C 619.608 0.056835 1.96118 0
M  V30 6412 O 618.733 -0.84475 1.99231 0
M  V30 6413 C 619.328 2.48168 2.30648 0
M  V30 6414 C 617.887 2.46766 2.84224 0
M  V30 6415 C 617.034 2.27633 1.58361 0
M  V30 6416 H 619.985 1.51192 0.482351 0
M  V30 6417 H 620.006 2.17655 3.121 0
M  V30 6418 H 619.518 3.43735 1.80188 0
M  V30 6419 H 617.619 1.54978 3.3884 0
M  V30 6420 H 617.732 3.43342 3.34145 0
M  V30 6421 H 616.096 1.75648 1.84445 0
M  V30 6422 H 616.879 3.25238 1.09887 0
M  V30 6423 N 619.324 -0.923095 1.27737 0
M  V30 6424 C 620.549 -1.71054 1.17283 0
M  V30 6425 C 620.974 -1.86208 -0.266153 0
M  V30 6426 O 620.332 -1.36545 -1.1927 0
M  V30 6427 C 620.38 -3.0854 1.86642 0
M  V30 6428 O 619.484 -3.95528 1.16752 0
M  V30 6429 H 618.825 -0.524136 0.407649 0
M  V30 6430 H 621.355 -1.15487 1.6889 0
M  V30 6431 H 621.365 -3.58828 1.94182 0
M  V30 6432 H 620.04 -2.96828 2.91317 0
M  V30 6433 H 618.617 -3.53967 1.17312 0
M  V30 6434 N 620.802 -1.09834 -1.13024 0
M  V30 6435 C 622.213 -0.855651 -1.65938 0
M  V30 6436 C 622.564 0.615159 -1.86307 0
M  V30 6437 O 621.689 1.47335 -1.58497 0
M  V30 6438 C 622.284 -1.5467 -3.01434 0
M  V30 6439 C 620.843 -1.35088 -3.51323 0
M  V30 6440 C 619.99 -1.6001 -2.26478 0
M  V30 6441 H 622.941 -1.25691 -0.968889 0
M  V30 6442 H 622.962 -0.982179 -3.67605 0
M  V30 6443 H 622.474 -2.61715 -2.86578 0
M  V30 6444 H 620.575 -0.30179 -3.71376 0
M  V30 6445 H 620.688 -2.0886 -4.31178 0
M  V30 6446 H 619.052 -1.02246 -2.33276 0
M  V30 6447 H 619.835 -2.68293 -2.14182 0
M  V30 6448 N 622.28 1.30327 -0.886154 0
M  V30 6449 C 623.505 2.0079 -0.519425 0
M  V30 6450 C 623.93 1.65979 0.885013 0
M  V30 6451 O 623.288 0.877043 1.58675 0
M  V30 6452 C 623.336 3.53686 -0.702758 0
M  V30 6453 O 622.44 4.11637 0.250828 0
M  V30 6454 H 621.781 0.63171 -0.204544 0
M  V30 6455 H 624.311 1.66145 -1.19402 0
M  V30 6456 H 624.321 4.03531 -0.602207 0
M  V30 6457 H 622.996 3.78361 -1.72673 0
M  V30 6458 H 621.573 3.72755 0.103873 0
M  V30 6459 N 623.758 0.647228 1.43697 0
M  V30 6460 C 624.721 -0.0385101 2.29168 0
M  V30 6461 C 625.721 -0.756487 1.41894 0
M  V30 6462 O 626.911 -0.598641 1.63591 0
M  V30 6463 C 624.043 -1.06524 3.23829 0
M  V30 6464 H 625.236 0.713445 2.9129 0
M  V30 6465 H 622.789 0.408153 1.50877 0
M  V30 6466 H 623.524 -1.84664 2.66589 0
M  V30 6467 H 623.309 -0.554147 3.88164 0
M  V30 6468 H 624.799 -1.54432 3.87996 0
M  V30 6469 N 625.236 -1.5273 0.388769 0
M  V30 6470 C 626.461 -2.0647 -0.19621 0
M  V30 6471 C 626.886 -1.25865 -1.39784 0
M  V30 6472 O 626.244 -0.283562 -1.79069 0
M  V30 6473 C 626.292 -3.56456 -0.5451 0
M  V30 6474 O 625.396 -3.78426 -1.63912 0
M  V30 6475 H 624.737 -0.663599 -0.023067 0
M  V30 6476 H 627.267 -1.96898 0.556084 0
M  V30 6477 H 627.277 -3.99888 -0.809557 0
M  V30 6478 H 625.952 -4.14561 0.333417 0
M  V30 6479 H 624.529 -3.46884 -1.36842 0
M  V30 6480 N 626.714 -0.118576 -1.57153 0
M  V30 6481 C 628.13 0.238014 -1.57815 0
M  V30 6482 C 628.33 1.66747 -1.13127 0
M  V30 6483 O 627.386 2.38867 -0.818462 0
M  V30 6484 C 628.699 0.00508207 -3.007 0
M  V30 6485 C 630.247 0.0710139 -3.12919 0
M  V30 6486 C 630.722 -0.13422 -4.57803 0
M  V30 6487 N 632.213 -0.0801755 -4.63131 0
M  V30 6488 C 632.948 -0.213885 -5.73001 0
M  V30 6489 N 632.444 -0.403742 -6.91623 0
M  V30 6490 N 634.237 -0.15349 -5.6189 0
M  V30 6491 H 626.388 -1.05226 -1.84503 0
M  V30 6492 H 628.651 -0.414318 -0.852669 0
M  V30 6493 H 628.357 -0.983125 -3.3768 0
M  V30 6494 H 628.231 0.73714 -3.69927 0
M  V30 6495 H 630.618 1.04975 -2.75798 0
M  V30 6496 H 630.699 -0.692918 -2.46236 0
M  V30 6497 H 630.343 -1.10992 -4.95624 0
M  V30 6498 H 630.273 0.649692 -5.22577 0
M  V30 6499 H 632.764 0.0630689 -3.77847 0
M  V30 6500 H 633.077 -0.496645 -7.71202 0
M  V30 6501 H 631.422 -0.43971 -6.93608 0
M  V30 6502 H 634.613 -0.00613174 -4.681 0
M  V30 6503 H 634.786 -0.261138 -6.47474 0
M  V30 6504 N 628.193 1.56834 0.155195 0
M  V30 6505 C 629.421 1.87049 0.884326 0
M  V30 6506 C 629.836 0.705839 1.7511 0
M  V30 6507 O 629.193 -0.324641 1.79589 0
M  V30 6508 C 629.244 3.1644 1.74781 0
M  V30 6509 O 628.965 4.28417 0.915978 0
M  V30 6510 C 630.466 3.60113 2.58522 0
M  V30 6511 H 627.686 0.620196 0.25612 0
M  V30 6512 H 630.23 2.03946 0.150445 0
M  V30 6513 H 628.385 3.01321 2.43484 0
M  V30 6514 H 628.799 5.02353 1.50803 0
M  V30 6515 H 630.273 4.53508 3.14698 0
M  V30 6516 H 630.75 2.85005 3.34169 0
M  V30 6517 H 631.356 3.77898 1.95124 0
M  V30 6518 N 629.671 -0.424282 1.51781 0
M  V30 6519 C 631.082 -1.00368 1.57427 0
M  V30 6520 C 631.433 -1.91962 0.40558 0
M  V30 6521 O 630.558 -2.111 -0.47601 0
M  V30 6522 C 631.153 -1.82707 2.85313 0
M  V30 6523 C 629.712 -2.35675 2.93487 0
M  V30 6524 C 628.859 -1.1524 2.5222 0
M  V30 6525 H 631.81 -0.205064 1.5737 0
M  V30 6526 H 631.831 -2.68294 2.69812 0
M  V30 6527 H 631.343 -1.16017 3.70353 0
M  V30 6528 H 629.444 -3.05781 2.12906 0
M  V30 6529 H 629.557 -2.67578 3.97415 0
M  V30 6530 H 627.921 -1.50174 2.05718 0
M  V30 6531 H 628.704 -0.5014 3.39619 0
M  V30 6532 N 631.149 -1.42148 -0.680565 0
M  V30 6533 C 632.377 -1.45696 -1.46902 0
M  V30 6534 C 632.792 -0.0665858 -1.88683 0
M  V30 6535 O 632.149 0.917436 -1.57764 0
M  V30 6536 C 632.2 -2.37898 -2.72188 0
M  V30 6537 O 631.921 -3.71526 -2.32163 0
M  V30 6538 C 633.422 -2.50407 -3.65802 0
M  V30 6539 H 630.642 -0.495729 -0.45221 0
M  V30 6540 H 633.186 -1.866 -0.836709 0
M  V30 6541 H 631.341 -2.00263 -3.31622 0
M  V30 6542 H 631.755 -4.20849 -3.13027 0
M  V30 6543 H 633.229 -3.19056 -4.50452 0
M  V30 6544 H 633.706 -1.5401 -4.11312 0
M  V30 6545 H 634.312 -2.8874 -3.12265 0
M  V30 6546 N 632.627 0.916307 -1.28225 0
M  V30 6547 C 634.038 1.48024 -1.13779 0
M  V30 6548 C 634.389 1.94289 0.273139 0
M  V30 6549 O 633.514 1.82226 1.16716 0
M  V30 6550 C 634.109 2.69029 -2.05935 0
M  V30 6551 C 632.668 3.2161 -1.95561 0
M  V30 6552 C 631.815 1.94321 -1.97825 0
M  V30 6553 H 634.766 0.729272 -1.40951 0
M  V30 6554 H 634.787 3.44204 -1.62184 0
M  V30 6555 H 634.299 2.35325 -3.08616 0
M  V30 6556 H 632.4 3.60045 -0.959076 0
M  V30 6557 H 632.513 3.87032 -2.82388 0
M  V30 6558 H 630.877 2.1131 -1.42198 0
M  V30 6559 H 631.66 1.62917 -3.0218 0
M  V30 6560 N 634.105 1.10431 1.1244 0
M  V30 6561 C 635.333 0.868872 1.87772 0
M  V30 6562 C 635.748 -0.580645 1.7965 0
M  V30 6563 O 635.105 -1.40031 1.17036 0
M  V30 6564 C 635.156 1.30855 3.36986 0
M  V30 6565 O 634.877 2.70123 3.44914 0
M  V30 6566 C 636.378 1.107 4.29256 0
M  V30 6567 H 633.598 0.311868 0.59412 0
M  V30 6568 H 636.142 1.46897 1.42273 0
M  V30 6569 H 634.297 0.752126 3.80029 0
M  V30 6570 H 634.711 2.88923 4.37748 0
M  V30 6571 H 636.185 1.46378 5.32238 0
M  V30 6572 H 636.662 0.0456228 4.39176 0
M  V30 6573 H 637.268 1.64988 3.91994 0
M  V30 6574 N 635.583 -1.29855 0.893053 0
M  V30 6575 C 636.994 -1.77946 0.564998 0
M  V30 6576 C 637.345 -1.73339 -0.919134 0
M  V30 6577 O 636.47 -1.3152 -1.71847 0
M  V30 6578 C 637.065 -3.23118 1.01883 0
M  V30 6579 C 635.624 -3.69013 0.742051 0
M  V30 6580 C 634.771 -2.50121 1.19727 0
M  V30 6581 H 637.722 -1.16611 1.07646 0
M  V30 6582 H 637.743 -3.78875 0.351249 0
M  V30 6583 H 637.255 -3.26439 2.09903 0
M  V30 6584 H 635.356 -3.71173 -0.325816 0
M  V30 6585 H 635.469 -4.60117 1.33527 0
M  V30 6586 H 633.833 -2.47128 0.616418 0
M  V30 6587 H 634.616 -2.56174 2.28538 0
M  V30 6588 N 637.061 -0.65484 -1.43351 0
M  V30 6589 C 638.289 -0.176685 -2.06144 0
M  V30 6590 C 638.704 1.15831 -1.49093 0
M  V30 6591 O 638.061 1.71542 -0.622868 0
M  V30 6592 C 638.112 -0.0813326 -3.61408 0
M  V30 6593 O 637.833 -1.36355 -4.1634 0
M  V30 6594 C 639.334 0.422706 -4.4128 0
M  V30 6595 H 636.554 -0.0906429 -0.66485 0
M  V30 6596 H 639.098 -0.895945 -1.83829 0
M  V30 6597 H 637.253 0.588496 -3.82904 0
M  V30 6598 H 637.667 -1.22381 -5.10023 0
M  V30 6599 H 639.141 0.438375 -5.50257 0
M  V30 6600 H 639.618 1.45432 -4.14423 0
M  V30 6601 H 640.224 -0.214687 -4.24758 0
M  V30 6602 N 638.539 1.52521 -0.396863 0
M  V30 6603 C 639.95 1.86547 0.0754868 0
M  V30 6604 C 640.301 1.31621 1.45501 0
M  V30 6605 O 639.426 0.650563 2.0639 0
M  V30 6606 C 640.021 3.38495 0.143754 0
M  V30 6607 C 638.58 3.72205 0.560413 0
M  V30 6608 C 637.727 2.75954 -0.272856 0
M  V30 6609 H 640.678 1.46323 -0.614434 0
M  V30 6610 H 640.699 3.68153 0.961425 0
M  V30 6611 H 640.211 3.78442 -0.860415 0
M  V30 6612 H 638.312 3.3783 1.57167 0
M  V30 6613 H 638.425 4.78074 0.313314 0
M  V30 6614 H 636.789 2.53339 0.263 0
M  V30 6615 H 637.572 3.1874 -1.27515 0
M  V30 6616 N 640.017 0.126909 1.57088 0
M  V30 6617 C 641.245 -0.53667 1.99819 0
M  V30 6618 C 641.66 -1.5972 1.00673 0
M  V30 6619 O 641.017 -1.825 0.000747365 0
M  V30 6620 C 641.068 -1.15563 3.42531 0
M  V30 6621 O 640.789 -0.137483 4.37884 0
M  V30 6622 C 642.29 -1.90176 4.00435 0
M  V30 6623 H 639.51 -0.141443 0.655923 0
M  V30 6624 H 642.054 0.215578 2.03361 0
M  V30 6625 H 640.209 -1.85861 3.39904 0
M  V30 6626 H 640.623 -0.588229 5.21191 0
M  V30 6627 H 642.097 -2.28801 5.02349 0
M  V30 6628 H 642.574 -2.78002 3.40017 0
M  V30 6629 H 643.18 -1.24623 4.06632 0
M  V30 6630 N 641.495 -1.56914 -0.146875 0
M  V30 6631 C 642.458 -1.97368 -1.16526 0
M  V30 6632 C 643.458 -0.860223 -1.35856 0
M  V30 6633 O 644.648 -1.12684 -1.32846 0
M  V30 6634 C 641.78 -2.28974 -2.52555 0
M  V30 6635 H 642.973 -2.88523 -0.818209 0
M  V30 6636 H 640.526 -1.5135 -0.390221 0
M  V30 6637 H 641.261 -1.40611 -2.92231 0
M  V30 6638 H 641.046 -3.10157 -2.39886 0
M  V30 6639 H 642.536 -2.61109 -3.25902 0
M  V30 6640 N 642.974 0.416227 -1.52004 0
M  V30 6641 C 644.199 1.19029 -1.69843 0
M  V30 6642 C 644.624 1.83708 -0.404103 0
M  V30 6643 O 643.982 1.69711 0.637787 0
M  V30 6644 C 644.03 2.23439 -2.83032 0
M  V30 6645 O 643.134 3.29419 -2.48106 0
M  V30 6646 H 642.475 0.347785 -0.565634 0
M  V30 6647 H 645.005 0.488871 -1.98674 0
M  V30 6648 H 645.015 2.67884 -3.07737 0
M  V30 6649 H 643.69 1.75745 -3.76944 0
M  V30 6650 H 642.267 2.90303 -2.34048 0
M  V30 6651 N 644.452 1.42507 0.673017 0
M  V30 6652 C 645.863 1.38347 1.25367 0
M  V30 6653 C 646.214 0.0776327 1.96046 0
M  V30 6654 O 645.339 -0.823571 2.00116 0
M  V30 6655 C 645.934 2.506 2.28002 0
M  V30 6656 C 644.493 2.49767 2.81591 0
M  V30 6657 C 643.64 2.293 1.55938 0
M  V30 6658 H 646.591 1.51695 0.466288 0
M  V30 6659 H 646.612 2.20953 3.09774 0
M  V30 6660 H 646.124 3.45627 1.76532 0
M  V30 6661 H 644.225 1.58563 3.37177 0
M  V30 6662 H 644.338 3.46867 3.30485 0
M  V30 6663 H 642.702 1.77594 1.82572 0
M  V30 6664 H 643.485 3.26385 1.06431 0
M  V30 6665 N 645.93 -0.909495 1.28709 0
M  V30 6666 C 647.158 -1.69272 1.18973 0
M  V30 6667 C 647.573 -1.87123 -0.251048 0
M  V30 6668 O 646.93 -1.40127 -1.16922 0
M  V30 6669 C 646.981 -3.08257 1.88839 0
M  V30 6670 O 646.702 -2.91228 3.27289 0
M  V30 6671 C 648.203 -4.02642 1.85457 0
M  V30 6672 H 645.423 -0.528999 0.412797 0
M  V30 6673 H 647.967 -1.13803 1.69909 0
M  V30 6674 H 646.122 -3.6053 1.41762 0
M  V30 6675 H 646.536 -3.79223 3.6234 0
M  V30 6676 H 648.01 -4.97613 2.38925 0
M  V30 6677 H 648.487 -4.31327 0.827893 0
M  V30 6678 H 649.093 -3.56298 2.32233 0
M  V30 6679 N 647.408 -1.11026 -1.11852 0
M  V30 6680 C 648.819 -0.873203 -1.65021 0
M  V30 6681 C 649.17 0.595364 -1.86949 0
M  V30 6682 O 648.295 1.45645 -1.60051 0
M  V30 6683 C 648.89 -1.57859 -2.99777 0
M  V30 6684 C 647.449 -1.38807 -3.49871 0
M  V30 6685 C 646.596 -1.62403 -2.24768 0
M  V30 6686 H 649.547 -1.26712 -0.955503 0
M  V30 6687 H 649.568 -1.02111 -3.66543 0
M  V30 6688 H 649.08 -2.6474 -2.83786 0
M  V30 6689 H 647.181 -0.341163 -3.71035 0
M  V30 6690 H 647.294 -2.13421 -4.28938 0
M  V30 6691 H 645.658 -1.04714 -2.32179 0
M  V30 6692 H 646.441 -2.70549 -2.11324 0
M  V30 6693 N 648.886 1.2938 -0.899927 0
M  V30 6694 C 650.114 1.99691 -0.541386 0
M  V30 6695 C 650.529 1.67355 0.873936 0
M  V30 6696 O 649.886 0.918728 1.57688 0
M  V30 6697 C 649.937 3.54168 -0.72438 0
M  V30 6698 O 649.658 3.85359 -2.08399 0
M  V30 6699 C 651.159 4.41746 -0.370819 0
M  V30 6700 H 648.379 0.638037 -0.207726 0
M  V30 6701 H 650.923 1.6491 -1.20934 0
M  V30 6702 H 649.078 3.87261 -0.103607 0
M  V30 6703 H 649.492 4.80032 -2.11352 0
M  V30 6704 H 650.966 5.49256 -0.549693 0
M  V30 6705 H 651.443 4.33712 0.692148 0
M  V30 6706 H 652.049 4.14125 -0.968543 0
M  V30 6707 N 650.364 0.662433 1.43002 0
M  V30 6708 C 651.294 -0.00979809 2.33498 0
M  V30 6709 C 652.275 -0.802329 1.49989 0
M  V30 6710 O 653.46 -0.761964 1.78627 0
M  V30 6711 C 650.59 -0.970446 3.33466 0
M  V30 6712 C 649.544 -0.287383 4.27034 0
M  V30 6713 C 648.87 -1.36012 5.17112 0
M  V30 6714 C 650.17 0.82595 5.15728 0
M  V30 6715 H 651.864 0.745959 2.89958 0
M  V30 6716 H 649.41 0.360172 1.39423 0
M  V30 6717 H 651.363 -1.44971 3.95679 0
M  V30 6718 H 650.087 -1.75748 2.75282 0
M  V30 6719 H 648.746 0.17152 3.66199 0
M  V30 6720 H 648.394 -2.13882 4.55262 0
M  V30 6721 H 648.094 -0.908276 5.80538 0
M  V30 6722 H 649.618 -1.84056 5.82199 0
M  V30 6723 H 651.032 0.42845 5.71697 0
M  V30 6724 H 649.429 1.20282 5.87922 0
M  V30 6725 H 650.499 1.68003 4.54866 0
M  V30 6726 N 651.842 -1.52309 0.404946 0
M  V30 6727 C 653.07 -2.06185 -0.171818 0
M  V30 6728 C 653.485 -1.27536 -1.39212 0
M  V30 6729 O 652.842 -0.326112 -1.79563 0
M  V30 6730 C 652.893 -3.57647 -0.526417 0
M  V30 6731 O 652.614 -4.3332 0.645417 0
M  V30 6732 C 654.115 -4.27925 -1.15736 0
M  V30 6733 H 651.335 -0.670632 -0.0222328 0
M  V30 6734 H 653.879 -1.96259 0.574692 0
M  V30 6735 H 652.034 -3.67595 -1.22282 0
M  V30 6736 H 652.448 -5.23328 0.35042 0
M  V30 6737 H 653.922 -5.35093 -1.35572 0
M  V30 6738 H 654.399 -3.84134 -2.12926 0
M  V30 6739 H 655.005 -4.22335 -0.501281 0
M  V30 6740 N 653.32 -0.135238 -1.57019 0
M  V30 6741 C 654.731 0.387521 -1.82634 0
M  V30 6742 C 655.082 1.65528 -1.05332 0
M  V30 6743 O 654.207 2.14381 -0.294926 0
M  V30 6744 C 654.802 0.709852 -3.3128 0
M  V30 6745 C 653.361 1.17718 -3.57518 0
M  V30 6746 C 652.508 0.194183 -2.76619 0
M  V30 6747 H 655.459 -0.360126 -1.5456 0
M  V30 6748 H 655.48 1.5657 -3.46794 0
M  V30 6749 H 654.992 -0.213024 -3.87515 0
M  V30 6750 H 653.093 2.1164 -3.06658 0
M  V30 6751 H 653.206 1.11128 -4.66034 0
M  V30 6752 H 651.57 0.684478 -2.4533 0
M  V30 6753 H 652.353 -0.722076 -3.3562 0
M  V30 6754 N 654.798 1.5699 0.138552 0
M  V30 6755 C 656.026 1.87976 0.864437 0
M  V30 6756 C 656.441 0.724372 1.74351 0
M  V30 6757 O 655.798 -0.305575 1.79924 0
M  V30 6758 C 655.849 3.18276 1.71414 0
M  V30 6759 O 655.57 4.29365 0.870487 0
M  V30 6760 C 657.071 3.62834 2.54688 0
M  V30 6761 H 654.291 0.622878 0.249528 0
M  V30 6762 H 656.835 2.04094 0.128805 0
M  V30 6763 H 654.99 3.03886 2.40274 0
M  V30 6764 H 655.404 5.03924 1.45466 0
M  V30 6765 H 656.878 4.5682 3.0987 0
M  V30 6766 H 657.355 2.88533 3.31127 0
M  V30 6767 H 657.961 3.79946 1.91105 0
M  V30 6768 N 656.276 -0.40816 1.52223 0
M  V30 6769 C 657.239 -1.48 1.7501 0
M  V30 6770 C 658.239 -1.48367 0.619996 0
M  V30 6771 O 659.429 -1.49874 0.887881 0
M  V30 6772 C 656.561 -2.87403 1.83336 0
M  V30 6773 H 657.754 -1.29086 2.70697 0
M  V30 6774 H 655.307 -0.638715 1.42654 0
M  V30 6775 H 656.042 -3.11686 0.895677 0
M  V30 6776 H 655.827 -2.8854 2.65494 0
M  V30 6777 H 657.317 -3.65103 2.02705 0
M  V30 6778 N 657.755 -1.42862 -0.66545 0
M  V30 6779 C 658.983 -1.47246 -1.45349 0
M  V30 6780 C 659.398 -0.0865944 -1.88601 0
M  V30 6781 O 658.755 0.900652 -1.58728 0
M  V30 6782 C 658.806 -2.40772 -2.6965 0
M  V30 6783 O 658.527 -3.73968 -2.2821 0
M  V30 6784 C 660.028 -2.54272 -3.63126 0
M  V30 6785 H 657.248 -0.500497 -0.446927 0
M  V30 6786 H 659.792 -1.87477 -0.816871 0
M  V30 6787 H 657.947 -2.0377 -3.29479 0
M  V30 6788 H 658.361 -4.24146 -3.08546 0
M  V30 6789 H 659.835 -3.23815 -4.47043 0
M  V30 6790 H 660.312 -1.58364 -4.09656 0
M  V30 6791 H 660.918 -2.92036 -3.09185 0
M  V30 6792 N 659.233 0.902656 -1.29189 0
M  V30 6793 C 660.644 1.46809 -1.15343 0
M  V30 6794 C 660.995 1.94568 0.252517 0
M  V30 6795 O 660.12 1.83454 1.14777 0
M  V30 6796 C 660.715 2.66829 -2.08776 0
M  V30 6797 C 659.274 3.19518 -1.98961 0
M  V30 6798 C 658.421 1.92212 -1.99874 0
M  V30 6799 H 661.372 0.714282 -1.41717 0
M  V30 6800 H 661.393 3.42465 -1.65826 0
M  V30 6801 H 660.905 2.32039 -3.11094 0
M  V30 6802 H 659.006 3.59008 -0.99721 0
M  V30 6803 H 659.119 3.84016 -2.86477 0
M  V30 6804 H 657.483 2.0979 -1.44431 0
M  V30 6805 H 658.266 1.59702 -3.03891 0
M  V30 6806 N 660.711 1.11618 1.11262 0
M  V30 6807 C 661.939 0.888739 1.8684 0
M  V30 6808 C 662.354 -0.561558 1.80255 0
M  V30 6809 O 661.711 -1.38782 1.18515 0
M  V30 6810 C 661.762 1.34422 3.35579 0
M  V30 6811 O 661.483 2.73766 3.42029 0
M  V30 6812 C 662.984 1.15246 4.28058 0
M  V30 6813 H 660.204 0.318152 0.590779 0
M  V30 6814 H 662.748 1.48398 1.40707 0
M  V30 6815 H 660.903 0.79239 3.7921 0
M  V30 6816 H 661.317 2.9355 4.34659 0
M  V30 6817 H 662.791 1.52015 5.30656 0
M  V30 6818 H 663.268 0.0922007 4.39103 0
M  V30 6819 H 663.874 1.69136 3.90222 0
M  V30 6820 N 662.189 -1.289 0.906776 0
M  V30 6821 C 663.6 -1.77336 0.58384 0
M  V30 6822 C 663.951 -1.74304 -0.900697 0
M  V30 6823 O 663.076 -1.33335 -1.70443 0
M  V30 6824 C 663.671 -3.22019 1.05304 0
M  V30 6825 C 662.23 -3.68205 0.781148 0
M  V30 6826 C 661.377 -2.48837 1.22373 0
M  V30 6827 H 664.328 -1.15462 1.08877 0
M  V30 6828 H 664.349 -3.78481 0.391414 0
M  V30 6829 H 663.861 -3.24194 2.13353 0
M  V30 6830 H 661.962 -3.71497 -0.28643 0
M  V30 6831 H 662.075 -4.58675 1.384 0
M  V30 6832 H 660.439 -2.46461 0.642594 0
M  V30 6833 H 661.222 -2.53736 2.31242 0
M  V30 6834 N 663.667 -0.670007 -1.42649 0
M  V30 6835 C 664.895 -0.19854 -2.05945 0
M  V30 6836 C 665.31 1.14243 -1.50313 0
M  V30 6837 O 664.667 1.70872 -0.641027 0
M  V30 6838 C 664.718 -0.11966 -3.61302 0
M  V30 6839 O 664.439 -1.40764 -4.1487 0
M  V30 6840 C 665.94 0.375878 -4.41704 0
M  V30 6841 H 663.16 -0.0976894 -0.663851 0
M  V30 6842 H 665.704 -0.915392 -1.82868 0
M  V30 6843 H 663.859 0.547851 -3.83507 0
M  V30 6844 H 664.273 -1.27784 -5.08696 0
M  V30 6845 H 665.747 0.379988 -5.50691 0
M  V30 6846 H 666.224 1.41028 -4.15942 0
M  V30 6847 H 666.83 -0.259727 -4.24506 0
M  V30 6848 N 665.145 1.52092 -0.413018 0
M  V30 6849 C 666.108 2.25706 0.398687 0
M  V30 6850 C 667.108 1.28221 0.970368 0
M  V30 6851 O 668.298 1.52131 0.848635 0
M  V30 6852 C 665.43 3.03029 1.5616 0
M  V30 6853 H 666.623 2.98888 -0.246131 0
M  V30 6854 H 664.176 1.5542 -0.165622 0
M  V30 6855 H 664.911 2.34205 2.24317 0
M  V30 6856 H 664.696 3.74606 1.15812 0
M  V30 6857 H 666.186 3.58857 2.13569 0
M  V30 6858 N 666.623 0.143563 1.56945 0
M  V30 6859 C 667.848 -0.518701 2.00809 0
M  V30 6860 C 668.273 -1.5785 1.02298 0
M  V30 6861 O 667.631 -1.813 -0.0017839 0
M  V30 6862 C 667.679 -1.09929 3.43436 0
M  V30 6863 O 666.783 -2.21425 3.47915 0
M  V30 6864 H 666.124 -0.127215 0.6517 0
M  V30 6865 H 668.654 0.239283 2.03196 0
M  V30 6866 H 668.664 -1.4288 3.82164 0
M  V30 6867 H 667.339 -0.323162 4.14643 0
M  V30 6868 H 665.916 -1.89728 3.21026 0
M  V30 6869 N 668.101 -1.57061 -0.130224 0
M  V30 6870 C 669.512 -1.73539 -0.68856 0
M  V30 6871 C 669.863 -0.760554 -1.80859 0
M  V30 6872 O 668.988 0.0690796 -2.1629 0
M  V30 6873 C 669.583 -3.14666 -1.25581 0
M  V30 6874 C 668.142 -3.32689 -1.76055 0
M  V30 6875 C 667.289 -2.69436 -0.655712 0
M  V30 6876 H 670.24 -1.58412 0.0956002 0
M  V30 6877 H 670.261 -3.15595 -2.12556 0
M  V30 6878 H 669.773 -3.85593 -0.440412 0
M  V30 6879 H 667.874 -2.66786 -2.60108 0
M  V30 6880 H 667.987 -4.4077 -1.87772 0
M  V30 6881 H 666.351 -2.30362 -1.08654 0
M  V30 6882 H 667.134 -3.42979 0.14852 0
M  V30 6883 N 669.579 0.400081 -1.52437 0
M  V30 6884 C 670.807 1.16768 -1.70801 0
M  V30 6885 C 671.222 1.84036 -0.421462 0
M  V30 6886 O 670.579 1.72242 0.603228 0
M  V30 6887 C 670.63 2.22403 -2.8499 0
M  V30 6888 O 670.351 1.57879 -4.08663 0
M  V30 6889 C 671.852 3.11974 -3.1494 0
M  V30 6890 H 669.072 0.350533 -0.57216 0
M  V30 6891 H 671.616 0.469534 -1.99037 0
M  V30 6892 H 669.771 2.87871 -2.59247 0
M  V30 6893 H 670.185 2.27982 -4.7236 0
M  V30 6894 H 671.659 3.82148 -3.9833 0
M  V30 6895 H 672.136 3.74858 -2.28863 0
M  V30 6896 H 672.742 2.52165 -3.42481 0
M  V30 6897 N 671.057 1.43213 0.657864 0
M  V30 6898 C 672.468 1.39669 1.23893 0
M  V30 6899 C 672.819 0.0984217 1.95953 0
M  V30 6900 O 671.944 -0.8023 2.00978 0
M  V30 6901 C 672.539 2.53004 2.25332 0
M  V30 6902 C 671.098 2.5274 2.78926 0
M  V30 6903 C 670.245 2.30941 1.53497 0
M  V30 6904 H 673.196 1.52181 0.450172 0
M  V30 6905 H 673.217 2.24226 3.07413 0
M  V30 6906 H 672.729 3.4748 1.72856 0
M  V30 6907 H 670.83 1.6213 3.35477 0
M  V30 6908 H 670.943 3.50352 3.26787 0
M  V30 6909 H 669.307 1.7952 1.80678 0
M  V30 6910 H 670.09 3.27496 1.02963 0
M  V30 6911 N 672.536 -0.895792 1.29666 0
M  V30 6912 C 673.761 -1.68528 1.20885 0
M  V30 6913 C 674.186 -1.8673 -0.226595 0
M  V30 6914 O 673.544 -1.39044 -1.16347 0
M  V30 6915 C 673.592 -3.04512 1.93144 0
M  V30 6916 O 672.696 -3.92963 1.25115 0
M  V30 6917 H 672.037 -0.515371 0.418675 0
M  V30 6918 H 674.567 -1.11878 1.71302 0
M  V30 6919 H 674.577 -3.54628 2.0175 0
M  V30 6920 H 673.252 -2.90582 2.97548 0
M  V30 6921 H 671.829 -3.51399 1.24794 0
M  V30 6922 N 674.014 -1.12206 -1.10668 0
M  V30 6923 C 675.425 -0.890657 -1.64086 0
M  V30 6924 C 675.776 0.575502 -1.8757 0
M  V30 6925 O 674.901 1.4394 -1.61587 0
M  V30 6926 C 675.496 -1.61029 -2.98085 0
M  V30 6927 C 674.055 -1.4251 -3.48379 0
M  V30 6928 C 673.202 -1.64778 -2.23033 0
M  V30 6929 H 676.153 -1.27718 -0.94201 0
M  V30 6930 H 676.174 -1.05993 -3.65439 0
M  V30 6931 H 675.686 -2.67735 -2.80962 0
M  V30 6932 H 673.787 -0.380497 -3.70652 0
M  V30 6933 H 673.9 -2.17959 -4.26651 0
M  V30 6934 H 672.264 -1.07171 -2.31055 0
M  V30 6935 H 673.047 -2.72776 -2.08443 0
M  V30 6936 N 675.492 1.28418 -0.913599 0
M  V30 6937 C 676.72 1.99106 -0.562536 0
M  V30 6938 C 677.135 1.68273 0.856137 0
M  V30 6939 O 676.492 0.935401 1.56705 0
M  V30 6940 C 676.543 3.5338 -0.761903 0
M  V30 6941 O 676.264 3.83127 -2.12475 0
M  V30 6942 C 677.765 4.41328 -0.417651 0
M  V30 6943 H 674.985 0.635798 -0.214481 0
M  V30 6944 H 677.529 1.63618 -1.22676 0
M  V30 6945 H 675.684 3.8713 -0.144676 0
M  V30 6946 H 676.098 4.77763 -2.16431 0
M  V30 6947 H 677.572 5.48642 -0.607919 0
M  V30 6948 H 678.049 4.34422 0.646108 0
M  V30 6949 H 678.655 4.13074 -1.01241 0
M  V30 6950 N 676.97 0.677563 1.42291 0
M  V30 6951 C 677.933 0.0101085 2.29198 0
M  V30 6952 C 678.933 -0.726219 1.43467 0
M  V30 6953 O 680.123 -0.563807 1.64824 0
M  V30 6954 C 677.255 -0.996316 3.26016 0
M  V30 6955 H 678.448 0.775071 2.89711 0
M  V30 6956 H 676.001 0.440065 1.49977 0
M  V30 6957 H 676.736 -1.78967 2.70446 0
M  V30 6958 H 676.521 -0.471687 3.89253 0
M  V30 6959 H 678.011 -1.46167 3.91184 0
M  V30 6960 N 678.448 -1.51871 0.421078 0
M  V30 6961 C 679.411 -2.25914 -0.386712 0
M  V30 6962 C 680.411 -1.28733 -0.963555 0
M  V30 6963 O 681.601 -1.52579 -0.840556 0
M  V30 6964 C 678.733 -3.03853 -1.54551 0
M  V30 6965 H 679.926 -2.98754 0.261978 0
M  V30 6966 H 677.479 -1.5533 0.173862 0
M  V30 6967 H 678.214 -2.35392 -2.23072 0
M  V30 6968 H 677.999 -3.75215 -1.13824 0
M  V30 6969 H 679.489 -3.59984 -2.11663 0
M  V30 6970 N 679.926 -0.151884 -1.56866 0
M  V30 6971 C 681.151 0.508044 -2.01081 0
M  V30 6972 C 681.576 1.57306 -1.03134 0
M  V30 6973 O 680.934 1.81298 -0.0078309 0
M  V30 6974 C 680.982 1.08106 -3.44014 0
M  V30 6975 O 680.086 2.19577 -3.49084 0
M  V30 6976 H 679.427 0.123757 -0.652365 0
M  V30 6977 H 681.957 -0.250055 -2.03066 0
M  V30 6978 H 681.967 1.40851 -3.82916 0
M  V30 6979 H 680.642 0.301168 -4.14808 0
M  V30 6980 H 679.219 1.88023 -3.22027 0
M  V30 6981 N 681.404 1.57128 0.121893 0
M  V30 6982 C 682.652 1.84335 0.828548 0
M  V30 6983 C 682.973 0.736632 1.80551 0
M  V30 6984 O 682.243 -0.23962 1.94429 0
M  V30 6985 H 680.823 0.680108 0.30897 0
M  V30 6986 H 683.485 1.9459 0.109906 0
M  V30 6987 H 682.581 2.80152 1.37554 0
M  V30 6988 N 682.882 -0.391992 1.52647 0
M  V30 6989 C 683.845 -1.46135 1.7657 0
M  V30 6990 C 684.845 -1.47701 0.635698 0
M  V30 6991 O 686.035 -1.48924 0.903728 0
M  V30 6992 C 683.167 -2.85443 1.86374 0
M  V30 6993 H 684.36 -1.26208 2.72051 0
M  V30 6994 H 681.913 -0.623549 1.43323 0
M  V30 6995 H 682.648 -3.10718 0.928685 0
M  V30 6996 H 682.433 -2.85708 2.68539 0
M  V30 6997 H 683.923 -3.62933 2.06566 0
M  V30 6998 N 684.36 -1.4356 -0.65026 0
M  V30 6999 C 685.776 -1.27025 -0.966269 0
M  V30 7000 C 685.976 -0.192117 -2.00582 0
M  V30 7001 O 685.032 0.428459 -2.48838 0
M  V30 7002 C 686.345 -2.63556 -1.44772 0
M  V30 7003 C 687.893 -2.71111 -1.56421 0
M  V30 7004 C 688.368 -4.08067 -2.07956 0
M  V30 7005 N 689.859 -4.10146 -2.15254 0
M  V30 7006 C 690.594 -5.12952 -2.56258 0
M  V30 7007 N 690.09 -6.26129 -2.96537 0
M  V30 7008 N 691.883 -5.00306 -2.56224 0
M  V30 7009 H 684.034 -2.12367 0.0375758 0
M  V30 7010 H 686.297 -0.946894 -0.0457782 0
M  V30 7011 H 686.003 -3.43429 -0.758271 0
M  V30 7012 H 685.877 -2.89152 -2.42221 0
M  V30 7013 H 688.264 -1.91569 -2.24467 0
M  V30 7014 H 688.345 -2.49277 -0.573967 0
M  V30 7015 H 687.989 -4.88077 -1.40511 0
M  V30 7016 H 687.919 -4.27266 -3.07817 0
M  V30 7017 H 690.41 -3.28453 -1.86887 0
M  V30 7018 H 690.723 -7.00403 -3.26582 0
M  V30 7019 H 689.068 -6.29597 -2.94334 0
M  V30 7020 H 692.259 -4.10952 -2.24135 0
M  V30 7021 H 692.432 -5.80553 -2.87857 0
M  V30 7022 N 685.838 0.888903 -1.30139 0
M  V30 7023 C 687.078 1.65456 -1.20015 0
M  V30 7024 C 687.442 1.90467 0.242148 0
M  V30 7025 O 688.643 2.6472 0.466561 0
M  V30 7026 C 686.914 2.96071 -2.00191 0
M  V30 7027 S 688.473 3.87055 -2.06721 0
M  V30 7028 H 685.291 0.567927 -0.427761 0
M  V30 7029 H 687.893 1.05539 -1.64565 0
M  V30 7030 H 686.597 2.7559 -3.04103 0
M  V30 7031 H 686.128 3.61023 -1.56288 0
M  V30 7032 H 688.143 4.81676 -1.19174 0
M  V30 7033 N 687.317 1.12792 1.10072 0
M  V30 7034 C 688.545 0.908506 1.85886 0
M  V30 7035 C 688.96 -0.542408 1.80841 0
M  V30 7036 O 688.317 -1.37517 1.1998 0
M  V30 7037 C 688.368 1.37973 3.34134 0
M  V30 7038 O 688.089 2.77378 3.39106 0
M  V30 7039 C 689.59 1.1978 4.26811 0
M  V30 7040 H 686.81 0.3244 0.587372 0
M  V30 7041 H 689.354 1.49882 1.39125 0
M  V30 7042 H 687.509 0.832566 3.78348 0
M  V30 7043 H 687.923 2.98144 4.31521 0
M  V30 7044 H 689.397 1.57635 5.29014 0
M  V30 7045 H 689.874 0.138768 4.38981 0
M  V30 7046 H 690.48 1.73266 3.88406 0
M  V30 7047 N 688.795 -1.27931 0.920396 0
M  V30 7048 C 689.758 -2.25345 0.41858 0
M  V30 7049 C 690.758 -1.54116 -0.458798 0
M  V30 7050 O 691.948 -1.72235 -0.260912 0
M  V30 7051 C 689.08 -3.38556 -0.399104 0
M  V30 7052 H 690.273 -2.71251 1.27918 0
M  V30 7053 H 687.826 -1.39728 0.700406 0
M  V30 7054 H 688.561 -2.98021 -1.27882 0
M  V30 7055 H 688.346 -3.91426 0.229863 0
M  V30 7056 H 689.836 -4.10976 -0.740817 0
M  V30 7057 N 690.273 -0.685099 -1.4193 0
M  V30 7058 C 691.498 -0.218842 -2.06242 0
M  V30 7059 C 691.923 1.11923 -1.51178 0
M  V30 7060 O 691.281 1.69837 -0.634446 0
M  V30 7061 C 691.329 -0.175592 -3.60172 0
M  V30 7062 O 690.433 0.852776 -4.03487 0
M  V30 7063 H 689.774 -0.109531 -0.654904 0
M  V30 7064 H 692.304 -0.937013 -1.81882 0
M  V30 7065 H 692.314 -0.00291151 -4.08 0
M  V30 7066 H 690.989 -1.15222 -3.99621 0
M  V30 7067 H 689.566 0.650301 -3.67186 0
M  V30 7068 N 691.751 1.51645 -0.429126 0
M  V30 7069 C 692.981 2.06133 0.138793 0
M  V30 7070 C 693.389 1.29735 1.37716 0
M  V30 7071 O 692.732 0.347955 1.80375 0
M  V30 7072 C 692.794 3.55504 0.534493 0
M  V30 7073 C 692.458 4.53098 -0.595917 0
M  V30 7074 C 693.455 4.98815 -1.46558 0
M  V30 7075 C 691.14 4.96296 -0.774309 0
M  V30 7076 C 693.134 5.86394 -2.4984 0
M  V30 7077 C 690.821 5.83667 -1.81042 0
M  V30 7078 C 691.819 6.28613 -2.67086 0
M  V30 7079 O 691.507 7.14251 -3.68919 0
M  V30 7080 H 691.239 0.675833 0.0150263 0
M  V30 7081 H 693.793 1.96301 -0.604584 0
M  V30 7082 H 692.023 3.63092 1.33045 0
M  V30 7083 H 693.712 3.92545 1.03262 0
M  V30 7084 H 694.478 4.66143 -1.33925 0
M  V30 7085 H 690.357 4.60859 -0.114178 0
M  V30 7086 H 693.901 6.21398 -3.17034 0
M  V30 7087 H 689.798 6.15753 -1.93698 0
M  V30 7088 H 690.566 7.3241 -3.65402 0
M  V30 7089 N 693.229 0.160201 1.56784 0
M  V30 7090 C 694.161 -0.80564 2.14574 0
M  V30 7091 C 695.174 -1.20154 1.09849 0
M  V30 7092 O 696.363 -1.14333 1.37078 0
M  V30 7093 C 693.463 -2.09434 2.6644 0
M  V30 7094 C 692.636 -1.86375 3.95706 0
M  V30 7095 C 691.695 -2.99358 4.32749 0
M  V30 7096 O 690.721 -2.70475 5.00831 0
M  V30 7097 N 691.923 -4.26867 3.93402 0
M  V30 7098 H 694.688 -0.311644 2.98075 0
M  V30 7099 H 692.249 -0.0229465 1.61884 0
M  V30 7100 H 694.241 -2.84091 2.88226 0
M  V30 7101 H 692.811 -2.50057 1.8759 0
M  V30 7102 H 692.031 -0.956821 3.82412 0
M  V30 7103 H 693.319 -1.68322 4.80151 0
M  V30 7104 H 692.717 -4.53197 3.38569 0
M  V30 7105 H 691.274 -4.98263 4.20211 0
M  V30 7106 N 694.707 -1.5719 -0.113559 0
M  V30 7107 C 695.953 -1.85412 -0.821597 0
M  V30 7108 C 696.286 -0.746722 -1.7927 0
M  V30 7109 O 695.561 0.246971 -1.92926 0
M  V30 7110 C 695.844 -3.24233 -1.56669 0
M  V30 7111 C 695.697 -4.45578 -0.614823 0
M  V30 7112 C 697.016 -3.60697 -2.52161 0
M  V30 7113 H 694.135 -0.674406 -0.29723 0
M  V30 7114 H 696.777 -1.89807 -0.085694 0
M  V30 7115 H 694.927 -3.20617 -2.19401 0
M  V30 7116 H 696.599 -4.613 0.00407137 0
M  V30 7117 H 694.842 -4.33738 0.0732332 0
M  V30 7118 H 695.513 -5.39395 -1.17292 0
M  V30 7119 H 697.989 -3.65139 -1.99532 0
M  V30 7120 H 696.865 -4.58798 -3.01323 0
M  V30 7121 H 697.126 -2.88403 -3.35076 0
M  V30 7122 N 696.185 0.383891 -1.52853 0
M  V30 7123 C 697.133 1.48965 -1.7864 0
M  V30 7124 C 698.127 1.56242 -0.654577 0
M  V30 7125 O 699.333 1.59347 -0.83716 0
M  V30 7126 H 695.708 0.495892 -0.565328 0
M  V30 7127 H 697.679 1.24411 -2.71228 0
M  V30 7128 C 696.428 2.86036 -1.97683 0
M  V30 7129 H 695.751 2.81188 -2.84206 0
M  V30 7130 H 697.191 3.62632 -2.19713 0
M  V30 7131 C 695.65 3.28428 -0.750776 0
M  V30 7132 O 696.18 4.0164 0.0693491 0
M  V30 7133 N 694.386 2.84765 -0.579427 0
M  V30 7134 H 693.933 2.25353 -1.24795 0
M  V30 7135 H 693.891 3.13486 0.239544 0
M  V30 7136 N 697.663 1.43903 0.642637 0
M  V30 7137 C 698.888 1.49758 1.43483 0
M  V30 7138 C 699.313 0.119911 1.87717 0
M  V30 7139 O 698.671 -0.888558 1.58033 0
M  V30 7140 C 698.719 2.45744 2.63898 0
M  V30 7141 O 697.823 1.95101 3.63331 0
M  V30 7142 H 697.164 0.506138 0.429791 0
M  V30 7143 H 699.694 1.88923 0.785438 0
M  V30 7144 H 699.704 2.63399 3.11584 0
M  V30 7145 H 698.379 3.45818 2.31046 0
M  V30 7146 H 696.956 1.87158 3.22531 0
M  V30 7147 N 699.141 -0.881989 1.30609 0
M  V30 7148 C 700.418 -1.61563 1.10258 0
M  V30 7149 C 700.798 -2.08228 -0.347053 0
M  V30 7150 O 700.146 -1.85151 -1.33908 0
M  V30 7151 C 700.356 -2.78287 2.10612 0
M  V30 7152 C 701.704 -3.48545 2.4249 0
M  V30 7153 O 702.728 -2.88479 2.08945 0
M  V30 7154 O 701.587 -4.56873 2.99883 0
M  V30 7155 H 698.681 -0.710238 0.423663 0
M  V30 7156 H 701.227 -0.928503 1.42045 0
M  V30 7157 H 699.999 -2.41131 3.08174 0
M  V30 7158 H 699.622 -3.54695 1.79659 0
M  V30 7159 N 700.619 -1.13374 -1.09472 0
M  V30 7160 C 701.865 -0.906459 -1.82085 0
M  V30 7161 C 702.22 0.5614 -1.84027 0
M  V30 7162 O 701.513 1.41012 -1.29716 0
M  V30 7163 C 701.707 -1.42759 -3.2765 0
M  V30 7164 C 701.536 -2.94459 -3.39888 0
M  V30 7165 C 700.306 -3.62798 -3.51718 0
M  V30 7166 C 702.504 -3.92398 -3.32457 0
M  V30 7167 N 700.486 -5.02516 -3.52635 0
M  V30 7168 C 701.857 -5.18304 -3.40237 0
M  V30 7169 C 703.912 -3.84671 -3.16122 0
M  V30 7170 C 702.615 -6.37386 -3.33364 0
M  V30 7171 C 704.641 -5.03287 -3.10574 0
M  V30 7172 C 704.003 -6.28055 -3.18945 0
M  V30 7173 H 700.102 -0.385097 -0.680606 0
M  V30 7174 H 702.686 -1.44187 -1.30836 0
M  V30 7175 H 700.857 -0.919102 -3.77369 0
M  V30 7176 H 702.589 -1.14136 -3.88272 0
M  V30 7177 H 699.344 -3.13317 -3.55147 0
M  V30 7178 H 699.768 -5.75421 -3.56679 0
M  V30 7179 H 704.41 -2.89094 -3.0852 0
M  V30 7180 H 702.128 -7.33219 -3.3973 0
M  V30 7181 H 705.714 -4.99047 -2.9907 0
M  V30 7182 H 704.594 -7.18299 -3.14668 0
M  V30 7183 N 702.098 1.27442 -0.927168 0
M  V30 7184 C 703.346 1.94007 -0.566203 0
M  V30 7185 C 703.667 1.7323 0.895345 0
M  V30 7186 O 702.937 1.07973 1.63459 0
M  V30 7187 H 701.517 0.717917 -0.206409 0
M  V30 7188 H 704.179 1.55161 -1.17945 0
M  V30 7189 H 703.275 3.02401 -0.772028 0
M  V30 7190 N 703.576 0.692616 1.41565 0
M  V30 7191 C 704.524 0.0139952 2.32596 0
M  V30 7192 C 705.518 -0.771691 1.50802 0
M  V30 7193 O 706.724 -0.677646 1.66757 0
M  V30 7194 H 703.099 -0.0142745 0.751865 0
M  V30 7195 H 705.07 0.798851 2.87508 0
M  V30 7196 C 703.819 -0.910602 3.35564 0
M  V30 7197 H 703.142 -0.315446 3.98554 0
M  V30 7198 H 704.582 -1.3538 4.01806 0
M  V30 7199 C 703.041 -2.02539 2.6922 0
M  V30 7200 O 703.571 -3.11386 2.53775 0
M  V30 7201 N 701.777 -1.80227 2.27962 0
M  V30 7202 H 701.324 -0.917054 2.40724 0
M  V30 7203 H 701.282 -2.55001 1.83907 0
M  V30 7204 N 705.054 -1.51416 0.437162 0
M  V30 7205 C 706.302 -2.01687 -0.129108 0
M  V30 7206 C 706.623 -1.32329 -1.43227 0
M  V30 7207 O 705.893 -0.457796 -1.90476 0
M  V30 7208 H 704.473 -0.745277 -0.0507023 0
M  V30 7209 H 707.135 -1.86075 0.579828 0
M  V30 7210 H 706.231 -3.10605 -0.305141 0
M  V30 7211 N 706.532 -0.168513 -1.56696 0
M  V30 7212 C 707.779 0.477158 -1.96798 0
M  V30 7213 C 708.107 1.63442 -1.05437 0
M  V30 7214 O 707.362 1.95503 -0.0878903 0
M  V30 7215 C 707.661 1.00441 -3.42996 0
M  V30 7216 C 707.327 -0.0366556 -4.50885 0
M  V30 7217 C 705.989 -0.322785 -4.80116 0
M  V30 7218 C 708.341 -0.743447 -5.1587 0
M  V30 7219 C 705.669 -1.32114 -5.71632 0
M  V30 7220 C 708.021 -1.73077 -6.08463 0
M  V30 7221 C 706.685 -2.02437 -6.36062 0
M  V30 7222 H 705.955 0.174604 -0.720135 0
M  V30 7223 H 708.602 -0.259884 -1.89728 0
M  V30 7224 H 706.907 1.81922 -3.47004 0
M  V30 7225 H 708.604 1.51294 -3.71364 0
M  V30 7226 H 705.194 0.196532 -4.28149 0
M  V30 7227 H 709.378 -0.535602 -4.93401 0
M  V30 7228 H 704.634 -1.55482 -5.913 0
M  V30 7229 H 708.808 -2.28382 -6.57886 0
M  V30 7230 H 706.435 -2.79946 -7.06777 0
M  V30 7231 N 708.01 1.57248 0.105221 0
M  V30 7232 C 709.238 1.89768 0.82437 0
M  V30 7233 C 709.653 0.761192 1.72775 0
M  V30 7234 O 709.01 -0.267342 1.80531 0
M  V30 7235 C 709.061 3.2184 1.64625 0
M  V30 7236 O 708.782 4.31115 0.779217 0
M  V30 7237 C 710.283 3.68155 2.46935 0
M  V30 7238 H 707.503 0.628031 0.236259 0
M  V30 7239 H 710.047 2.04321 0.085485 0
M  V30 7240 H 708.202 3.08915 2.33775 0
M  V30 7241 H 708.616 5.06897 1.34745 0
M  V30 7242 H 710.09 4.6329 3.00111 0
M  V30 7243 H 710.567 2.95492 3.24932 0
M  V30 7244 H 711.173 3.83914 1.83002 0
M  V30 7245 N 709.488 -0.375779 1.53054 0
M  V30 7246 C 710.734 -1.12114 1.68992 0
M  V30 7247 C 711.067 -1.8926 0.435238 0
M  V30 7248 O 710.342 -1.86044 -0.567278 0
M  V30 7249 C 710.625 -2.08867 2.93337 0
M  V30 7250 C 710.478 -1.35397 4.28938 0
M  V30 7251 C 711.797 -3.09124 3.13257 0
M  V30 7252 H 708.916 -0.406207 0.614951 0
M  V30 7253 H 711.558 -0.403054 1.85676 0
M  V30 7254 H 709.708 -2.70102 2.79244 0
M  V30 7255 H 711.38 -0.770242 4.54824 0
M  V30 7256 H 709.623 -0.655801 4.28814 0
M  V30 7257 H 710.294 -2.06161 5.12056 0
M  V30 7258 H 712.77 -2.57987 3.26469 0
M  V30 7259 H 711.646 -3.74054 4.01715 0
M  V30 7260 H 711.907 -3.78729 2.28072 0
M  V30 7261 N 710.966 -1.44241 -0.634997 0
M  V30 7262 C 712.194 -1.50296 -1.42193 0
M  V30 7263 C 712.609 -0.12658 -1.88375 0
M  V30 7264 O 711.966 0.86678 -1.60603 0
M  V30 7265 C 712.017 -2.46437 -2.64482 0
M  V30 7266 O 711.738 -3.78724 -2.20226 0
M  V30 7267 C 713.239 -2.61918 -3.57651 0
M  V30 7268 H 710.459 -0.509865 -0.43621 0
M  V30 7269 H 713.003 -1.89167 -0.776921 0
M  V30 7270 H 711.158 -2.10712 -3.25083 0
M  V30 7271 H 711.572 -4.30595 -2.9948 0
M  V30 7272 H 713.046 -3.33225 -4.40074 0
M  V30 7273 H 713.523 -1.67017 -4.06204 0
M  V30 7274 H 714.129 -2.98528 -3.02921 0
M  V30 7275 N 712.444 0.87505 -1.31075 0
M  V30 7276 C 713.69 1.63009 -1.20647 0
M  V30 7277 C 714.023 1.9276 0.236045 0
M  V30 7278 O 713.298 1.55559 1.16754 0
M  V30 7279 C 713.581 2.96357 -2.0456 0
M  V30 7280 C 713.434 2.73516 -3.57084 0
M  V30 7281 C 714.753 3.974 -1.89107 0
M  V30 7282 H 711.872 0.591518 -0.439631 0
M  V30 7283 H 714.514 1.0119 -1.60812 0
M  V30 7284 H 712.664 3.49119 -1.70435 0
M  V30 7285 H 714.336 2.27465 -4.01319 0
M  V30 7286 H 712.579 2.0784 -3.80769 0
M  V30 7287 H 713.25 3.68377 -4.11099 0
M  V30 7288 H 715.726 3.5383 -2.18961 0
M  V30 7289 H 714.602 4.88596 -2.5013 0
M  V30 7290 H 714.863 4.33794 -0.85296 0
M  V30 7291 N 713.922 1.13953 1.08869 0
M  V30 7292 C 714.885 0.824991 2.13838 0
M  V30 7293 C 715.885 -0.168198 1.59918 0
M  V30 7294 O 717.075 0.0595778 1.74098 0
M  V30 7295 C 714.207 0.228938 3.4013 0
M  V30 7296 H 715.4 1.75521 2.43171 0
M  V30 7297 H 712.953 0.94492 1.24503 0
M  V30 7298 H 713.688 -0.710227 3.16427 0
M  V30 7299 H 713.473 0.944243 3.80561 0
M  V30 7300 H 714.963 0.0259223 4.17592 0
M  V30 7301 N 715.4 -1.26948 0.933913 0
M  V30 7302 C 716.646 -1.94374 0.57848 0
M  V30 7303 C 716.979 -1.73166 -0.879048 0
M  V30 7304 O 716.254 -1.06438 -1.62792 0
M  V30 7305 C 716.537 -3.4834 0.912739 0
M  V30 7306 C 716.39 -3.78866 2.42448 0
M  V30 7307 C 717.709 -4.38062 0.423003 0
M  V30 7308 H 714.828 -0.705959 0.211639 0
M  V30 7309 H 717.47 -1.49951 1.16682 0
M  V30 7310 H 715.62 -3.86309 0.412058 0
M  V30 7311 H 717.292 -3.50654 2.99733 0
M  V30 7312 H 715.535 -3.25198 2.87104 0
M  V30 7313 H 716.206 -4.86458 2.60887 0
M  V30 7314 H 718.682 -4.0728 0.852191 0
M  V30 7315 H 717.558 -5.44599 0.685776 0
M  V30 7316 H 717.819 -4.36886 -0.676994 0
M  V30 7317 N 716.879 -0.700114 -1.41195 0
M  V30 7318 C 718.107 -0.242179 -2.05478 0
M  V30 7319 C 718.522 1.11029 -1.52702 0
M  V30 7320 O 717.879 1.69473 -0.677127 0
M  V30 7321 C 717.93 -0.196271 -3.60967 0
M  V30 7322 O 717.651 -1.49532 -4.11791 0
M  V30 7323 C 719.152 0.282102 -4.42401 0
M  V30 7324 H 716.372 -0.111749 -0.661629 0
M  V30 7325 H 718.916 -0.953975 -1.80885 0
M  V30 7326 H 717.071 0.46638 -3.84582 0
M  V30 7327 H 717.485 -1.38545 -5.05871 0
M  V30 7328 H 718.959 0.263093 -5.51373 0
M  V30 7329 H 719.436 1.32174 -4.1884 0
M  V30 7330 H 720.042 -0.349712 -4.2386 0
M  V30 7331 N 718.357 1.51182 -0.445186 0
M  V30 7332 C 719.305 2.29531 0.376597 0
M  V30 7333 C 720.299 1.35711 1.01385 0
M  V30 7334 O 721.505 1.53018 0.947922 0
M  V30 7335 H 717.88 0.738803 0.140267 0
M  V30 7336 H 719.851 2.96838 -0.304958 0
M  V30 7337 C 718.6 3.1552 1.4609 0
M  V30 7338 H 717.923 3.87605 0.979912 0
M  V30 7339 H 719.363 3.73384 2.009 0
M  V30 7340 C 717.822 2.31406 2.44852 0
M  V30 7341 O 718.352 1.97912 3.49562 0
M  V30 7342 N 716.558 1.94478 2.15932 0
M  V30 7343 H 716.105 2.21917 1.30808 0
M  V30 7344 H 716.063 1.38498 2.82251 0
M  V30 7345 N 719.835 0.176821 1.56605 0
M  V30 7346 C 721.06 -0.47599 2.01864 0
M  V30 7347 C 721.485 -1.55645 1.05623 0
M  V30 7348 O 720.843 -1.81263 0.0366729 0
M  V30 7349 C 720.891 -1.02619 3.4569 0
M  V30 7350 O 719.995 -2.13996 3.52533 0
M  V30 7351 H 719.336 -0.113363 0.654251 0
M  V30 7352 H 721.866 0.28233 2.02643 0
M  V30 7353 H 721.876 -1.34742 3.85109 0
M  V30 7354 H 720.551 -0.235138 4.15235 0
M  V30 7355 H 719.128 -1.82876 3.24978 0
M  V30 7356 N 721.313 -1.57302 -0.09688 0
M  V30 7357 C 722.561 -1.8563 -0.799117 0
M  V30 7358 C 722.882 -0.765263 -1.79356 0
M  V30 7359 O 722.152 0.208657 -1.94786 0
M  V30 7360 H 720.732 -0.684937 -0.298111 0
M  V30 7361 H 723.394 -1.9474 -0.0789341 0
M  V30 7362 H 722.49 -2.82305 -1.3308 0
M  V30 7363 N 722.791 0.367657 -1.53252 0
M  V30 7364 C 724.016 1.13566 -1.73544 0
M  V30 7365 C 724.441 1.82329 -0.462344 0
M  V30 7366 O 723.799 1.71655 0.583472 0
M  V30 7367 C 723.847 2.14322 -2.89997 0
M  V30 7368 O 722.951 3.21359 -2.58461 0
M  V30 7369 H 722.292 0.329614 -0.576412 0
M  V30 7370 H 724.822 0.425417 -2.00128 0
M  V30 7371 H 724.832 2.57958 -3.16104 0
M  V30 7372 H 723.507 1.63664 -3.82344 0
M  V30 7373 H 722.084 2.8271 -2.43165 0
M  V30 7374 N 724.269 1.44576 0.627338 0
M  V30 7375 C 725.515 1.47777 1.38888 0
M  V30 7376 C 725.848 0.111406 1.9388 0
M  V30 7377 O 725.123 -0.87149 1.73883 0
M  V30 7378 C 725.406 2.54119 2.55138 0
M  V30 7379 C 725.259 4.00128 2.0547 0
M  V30 7380 C 726.578 2.56929 3.57317 0
M  V30 7381 H 723.697 0.538048 0.50366 0
M  V30 7382 H 726.339 1.76277 0.708978 0
M  V30 7383 H 724.489 2.29948 3.13139 0
M  V30 7384 H 726.161 4.35444 1.5227 0
M  V30 7385 H 724.404 4.11724 1.36623 0
M  V30 7386 H 725.075 4.7019 2.89181 0
M  V30 7387 H 727.551 2.78536 3.09122 0
M  V30 7388 H 726.427 3.33234 4.36173 0
M  V30 7389 H 726.688 1.6127 4.11636 0
M  V30 7390 N 725.747 -0.868086 1.31537 0
M  V30 7391 C 726.71 -1.95703 1.19302 0
M  V30 7392 C 727.71 -1.60355 0.119612 0
M  V30 7393 O 728.9 -1.70247 0.36902 0
M  V30 7394 C 726.032 -3.30599 0.831684 0
M  V30 7395 H 727.225 -2.07982 2.16064 0
M  V30 7396 H 724.778 -1.05661 1.15176 0
M  V30 7397 H 725.513 -3.2402 -0.134694 0
M  V30 7398 H 725.298 -3.57629 1.60761 0
M  V30 7399 H 726.788 -4.10439 0.770026 0
M  V30 7400 N 727.225 -1.14528 -1.08264 0
M  V30 7401 C 728.453 -0.937964 -1.84418 0
M  V30 7402 C 728.868 0.51357 -1.81681 0
M  V30 7403 O 728.225 1.35591 -1.22153 0
M  V30 7404 C 728.276 -1.43272 -3.31897 0
M  V30 7405 O 727.997 -2.82738 -3.34651 0
M  V30 7406 C 729.498 -1.26555 -4.24851 0
M  V30 7407 H 726.718 -0.333704 -0.582136 0
M  V30 7408 H 729.262 -1.52076 -1.36723 0
M  V30 7409 H 727.417 -0.892653 -3.76975 0
M  V30 7410 H 727.831 -3.04971 -4.26724 0
M  V30 7411 H 729.305 -1.66031 -5.26439 0
M  V30 7412 H 729.782 -0.208589 -4.38704 0
M  V30 7413 H 730.388 -1.79423 -3.856 0
M  V30 7414 N 728.703 1.26451 -0.940633 0
M  V30 7415 C 729.65 2.264 -0.448497 0
M  V30 7416 C 730.62 1.5866 0.491546 0
M  V30 7417 O 731.805 1.86389 0.407874 0
M  V30 7418 C 728.945 3.43956 0.280715 0
M  V30 7419 C 728.058 4.26374 -0.694937 0
M  V30 7420 C 727.193 5.31171 0.0554186 0
M  V30 7421 C 726.232 6.05266 -0.912091 0
M  V30 7422 N 725.369 7.01833 -0.193524 0
M  V30 7423 H 730.209 2.67869 -1.30576 0
M  V30 7424 H 727.746 1.31707 -0.655112 0
M  V30 7425 H 729.704 4.10941 0.71994 0
M  V30 7426 H 728.334 3.03403 1.10212 0
M  V30 7427 H 727.386 3.59183 -1.25267 0
M  V30 7428 H 728.698 4.77748 -1.43382 0
M  V30 7429 H 727.852 6.04166 0.553951 0
M  V30 7430 H 726.591 4.80634 0.827183 0
M  V30 7431 H 725.596 5.31099 -1.42175 0
M  V30 7432 H 726.821 6.57893 -1.68385 0
M  V30 7433 H 724.767 6.53607 0.559758 0
M  V30 7434 H 724.684 7.50957 -0.871744 0
M  V30 7435 H 725.952 7.78983 0.283932 0
M  V30 7436 N 730.181 0.707592 1.40822 0
M  V30 7437 C 731.409 0.253073 2.05346 0
M  V30 7438 C 731.824 -1.10218 1.53289 0
M  V30 7439 O 731.181 -1.69112 0.686105 0
M  V30 7440 C 731.232 0.215411 3.60858 0
M  V30 7441 O 730.953 1.51714 4.10992 0
M  V30 7442 C 732.454 -0.258636 4.42545 0
M  V30 7443 H 729.674 0.115256 0.661027 0
M  V30 7444 H 732.218 0.963555 1.80377 0
M  V30 7445 H 730.373 -0.445978 3.84824 0
M  V30 7446 H 730.787 1.41226 5.05129 0
M  V30 7447 H 732.261 -0.233849 5.51504 0
M  V30 7448 H 732.738 -1.2995 4.19535 0
M  V30 7449 H 733.344 0.372186 4.23668 0
M  V30 7450 N 731.66 -1.50943 0.453197 0
M  V30 7451 C 732.906 -2.03153 -0.100277 0
M  V30 7452 C 733.261 -1.33032 -1.38997 0
M  V30 7453 O 732.554 -0.441423 -1.86446 0
M  V30 7454 C 732.748 -3.55603 -0.357944 0
M  V30 7455 C 732.577 -4.40495 0.905223 0
M  V30 7456 C 731.347 -4.84247 1.44337 0
M  V30 7457 C 733.545 -4.81931 1.79575 0
M  V30 7458 N 731.527 -5.53403 2.65742 0
M  V30 7459 C 732.898 -5.50314 2.85577 0
M  V30 7460 C 734.953 -4.63903 1.80828 0
M  V30 7461 C 733.656 -6.02581 3.92797 0
M  V30 7462 C 735.682 -5.17097 2.86993 0
M  V30 7463 C 735.044 -5.8544 3.91713 0
M  V30 7464 H 731.143 -0.781995 0.00287755 0
M  V30 7465 H 733.727 -1.84651 0.617411 0
M  V30 7466 H 731.898 -3.74087 -1.04467 0
M  V30 7467 H 733.63 -3.9447 -0.904175 0
M  V30 7468 H 730.385 -4.63029 0.995045 0
M  V30 7469 H 730.809 -5.92598 3.27348 0
M  V30 7470 H 735.451 -4.10512 1.0119 0
M  V30 7471 H 733.169 -6.55018 4.73262 0
M  V30 7472 H 736.755 -5.0499 2.88923 0
M  V30 7473 H 735.635 -6.25861 4.72512 0
M  V30 7474 N 733.138 -0.185124 -1.56509 0
M  V30 7475 C 734.366 0.462139 -2.01673 0
M  V30 7476 C 734.781 1.55873 -1.06532 0
M  V30 7477 O 734.138 1.82371 -0.0684805 0
M  V30 7478 C 734.189 1.0277 -3.46584 0
M  V30 7479 O 733.91 -0.0251296 -4.38093 0
M  V30 7480 C 735.411 1.75183 -4.07217 0
M  V30 7481 H 732.631 0.117001 -0.660721 0
M  V30 7482 H 735.175 -0.290905 -2.0242 0
M  V30 7483 H 733.33 1.73118 -3.46568 0
M  V30 7484 H 733.744 0.394387 -5.23015 0
M  V30 7485 H 735.218 2.09999 -5.10494 0
M  V30 7486 H 735.695 2.6519 -3.50101 0
M  V30 7487 H 736.301 1.09445 -4.10977 0
M  V30 7488 N 734.616 1.57351 0.0885366 0
M  V30 7489 C 735.862 1.86696 0.791996 0
M  V30 7490 C 736.195 0.775148 1.78059 0
M  V30 7491 O 735.47 -0.216247 1.93294 0
M  V30 7492 C 735.753 3.26684 1.51491 0
M  V30 7493 C 735.606 4.465 0.543858 0
M  V30 7494 C 736.925 3.64664 2.46391 0
M  V30 7495 H 734.044 0.679049 0.286463 0
M  V30 7496 H 736.686 1.89919 0.0554866 0
M  V30 7497 H 734.836 3.24067 2.14273 0
M  V30 7498 H 736.508 4.61235 -0.0774597 0
M  V30 7499 H 734.751 4.33567 -0.142228 0
M  V30 7500 H 735.422 5.41192 1.08696 0
M  V30 7501 H 737.898 3.68267 1.93698 0
M  V30 7502 H 736.774 4.63534 2.93986 0
M  V30 7503 H 737.035 2.93698 3.30445 0
M  V30 7504 N 736.094 -0.359525 1.53444 0
M  V30 7505 C 737.319 -1.12644 1.74144 0
M  V30 7506 C 737.744 -1.82082 0.472007 0
M  V30 7507 O 737.102 -1.71962 -0.57436 0
M  V30 7508 C 737.15 -2.12781 2.9113 0
M  V30 7509 O 736.254 -3.19984 2.60162 0
M  V30 7510 H 735.595 -0.326553 0.578152 0
M  V30 7511 H 738.125 -0.414798 2.00351 0
M  V30 7512 H 738.135 -2.56278 3.17467 0
M  V30 7513 H 736.81 -1.61634 3.83207 0
M  V30 7514 H 735.387 -2.81417 2.44661 0
M  V30 7515 N 737.572 -1.44907 -0.619662 0
M  V30 7516 C 738.818 -1.49504 -1.37914 0
M  V30 7517 C 739.173 -0.130158 -1.91959 0
M  V30 7518 O 738.466 0.856263 -1.71402 0
M  V30 7519 C 738.66 -2.50002 -2.55409 0
M  V30 7520 C 738.489 -3.96128 -2.12867 0
M  V30 7521 C 737.259 -4.64204 -1.99606 0
M  V30 7522 C 739.457 -4.85014 -1.71074 0
M  V30 7523 N 737.439 -5.95104 -1.50748 0
M  V30 7524 C 738.81 -6.05447 -1.33544 0
M  V30 7525 C 740.865 -4.71979 -1.58557 0
M  V30 7526 C 739.568 -7.1429 -0.847484 0
M  V30 7527 C 741.594 -5.80858 -1.11165 0
M  V30 7528 C 740.956 -7.00439 -0.745932 0
M  V30 7529 H 737.055 -0.60207 -0.499034 0
M  V30 7530 H 739.639 -1.81305 -0.70968 0
M  V30 7531 H 737.81 -2.20172 -3.19967 0
M  V30 7532 H 739.542 -2.44823 -3.22248 0
M  V30 7533 H 736.297 -4.19182 -2.20417 0
M  V30 7534 H 736.721 -6.64676 -1.28585 0
M  V30 7535 H 741.363 -3.79953 -1.85461 0
M  V30 7536 H 739.081 -8.06116 -0.565974 0
M  V30 7537 H 742.667 -5.72803 -1.01923 0
M  V30 7538 H 741.547 -7.83255 -0.384848 0
M  V30 7539 N 739.05 0.861098 -1.31996 0
M  V30 7540 C 740.278 1.6474 -1.25173 0
M  V30 7541 C 740.693 1.87926 0.181425 0
M  V30 7542 O 740.05 1.4437 1.1164 0
M  V30 7543 C 740.101 3.01036 -2.0015 0
M  V30 7544 O 739.822 2.7888 -3.37872 0
M  V30 7545 C 741.323 3.95481 -2.00273 0
M  V30 7546 H 738.543 0.513314 -0.432146 0
M  V30 7547 H 741.087 1.07419 -1.74016 0
M  V30 7548 H 739.242 3.55021 -1.55046 0
M  V30 7549 H 739.656 3.65514 -3.76165 0
M  V30 7550 H 741.13 4.88403 -2.57229 0
M  V30 7551 H 741.607 4.27957 -0.987407 0
M  V30 7552 H 742.213 3.47433 -2.45296 0
M  V30 7553 N 740.528 1.15101 1.07655 0
M  V30 7554 C 741.775 0.923974 1.80191 0
M  V30 7555 C 742.103 -0.549065 1.86589 0
M  V30 7556 O 741.358 -1.42307 1.3434 0
M  V30 7557 C 741.657 1.47954 3.25337 0
M  V30 7558 C 741.323 2.97253 3.39044 0
M  V30 7559 C 739.985 3.38012 3.42493 0
M  V30 7560 C 742.337 3.93219 3.42094 0
M  V30 7561 C 739.665 4.73384 3.4659 0
M  V30 7562 C 742.017 5.28458 3.47728 0
M  V30 7563 C 740.681 5.68717 3.49453 0
M  V30 7564 H 739.951 0.338106 0.659367 0
M  V30 7565 H 742.598 1.43594 1.26701 0
M  V30 7566 H 740.903 0.888691 3.81588 0
M  V30 7567 H 742.6 1.27972 3.80032 0
M  V30 7568 H 739.19 2.64746 3.37057 0
M  V30 7569 H 743.374 3.62805 3.38654 0
M  V30 7570 H 738.63 5.03925 3.46222 0
M  V30 7571 H 742.804 6.02618 3.49034 0
M  V30 7572 H 740.431 6.73596 3.5238 0
M  V30 7573 N 742.006 -1.2595 0.947325 0
M  V30 7574 C 743.254 -1.93081 0.596996 0
M  V30 7575 C 743.575 -1.74632 -0.867672 0
M  V30 7576 O 742.845 -1.1056 -1.6172 0
M  V30 7577 H 741.425 -0.714542 0.217805 0
M  V30 7578 H 744.087 -1.53265 1.20398 0
M  V30 7579 H 743.183 -3.01134 0.82004 0
M  V30 7580 N 743.484 -0.715051 -1.40445 0
M  V30 7581 C 744.732 -0.253826 -2.005 0
M  V30 7582 C 745.053 1.15681 -1.5698 0
M  V30 7583 O 744.323 1.78414 -0.809027 0
M  V30 7584 H 742.903 -0.0908537 -0.741454 0
M  V30 7585 H 745.565 -0.920561 -1.7179 0
M  V30 7586 H 744.661 -0.286499 -3.10782 0
M  V30 7587 N 744.962 1.50701 -0.461195 0
M  V30 7588 C 745.91 2.29918 0.352231 0
M  V30 7589 C 746.904 1.36778 0.999403 0
M  V30 7590 O 748.11 1.54015 0.931639 0
M  V30 7591 H 744.485 0.740249 0.132423 0
M  V30 7592 H 746.456 2.96497 -0.336424 0
M  V30 7593 C 745.205 3.17052 1.42736 0
M  V30 7594 H 744.528 3.88623 0.938747 0
M  V30 7595 H 745.968 3.75493 1.96928 0
M  V30 7596 C 744.427 2.3399 2.42384 0
M  V30 7597 O 744.957 2.01608 3.47444 0
M  V30 7598 N 743.163 1.96758 2.13857 0
M  V30 7599 H 742.71 2.23292 1.28447 0
M  V30 7600 H 742.668 1.41484 2.80766 0
M  V30 7601 N 746.441 0.193421 1.56409 0
M  V30 7602 C 747.373 -0.759944 2.16235 0
M  V30 7603 C 748.386 -1.17797 1.12373 0
M  V30 7604 O 749.575 -1.11399 1.39472 0
M  V30 7605 C 746.675 -2.03735 2.70823 0
M  V30 7606 C 745.848 -1.77939 3.9957 0
M  V30 7607 C 744.907 -2.90111 4.39001 0
M  V30 7608 O 743.933 -2.59791 5.06456 0
M  V30 7609 N 745.135 -4.18426 4.02368 0
M  V30 7610 H 747.9 -0.248348 2.98669 0
M  V30 7611 H 745.461 0.0113966 1.61896 0
M  V30 7612 H 747.453 -2.77914 2.94187 0
M  V30 7613 H 746.023 -2.46022 1.92852 0
M  V30 7614 H 745.243 -0.875491 3.84355 0
M  V30 7615 H 746.531 -1.58099 4.83614 0
M  V30 7616 H 745.929 -4.45913 3.48106 0
M  V30 7617 H 744.486 -4.89237 4.30686 0
M  V30 7618 N 747.919 -1.57396 -0.0801906 0
M  V30 7619 C 749.147 -1.91055 -0.794075 0
M  V30 7620 C 749.562 -0.788583 -1.71542 0
M  V30 7621 O 748.919 0.238587 -1.80934 0
M  V30 7622 C 748.97 -3.24418 -1.59484 0
M  V30 7623 O 748.691 -4.323 -0.710532 0
M  V30 7624 C 750.192 -3.72037 -2.41046 0
M  V30 7625 H 747.412 -0.63171 -0.226238 0
M  V30 7626 H 749.956 -2.04431 -0.0529685 0
M  V30 7627 H 748.111 -3.12595 -2.2883 0
M  V30 7628 H 748.525 -5.08976 -1.26663 0
M  V30 7629 H 749.999 -4.68006 -2.92702 0
M  V30 7630 H 750.476 -3.00624 -3.2019 0
M  V30 7631 H 751.082 -3.86777 -1.76871 0
M  V30 7632 N 749.397 0.351382 -1.53633 0
M  V30 7633 C 750.646 1.08988 -1.69719 0
M  V30 7634 C 750.959 1.90043 -0.462948 0
M  V30 7635 O 752.165 2.66769 -0.504613 0
M  V30 7636 C 750.621 1.98691 -3.00083 0
M  V30 7637 C 750.229 1.22881 -4.30818 0
M  V30 7638 C 751.973 2.72446 -3.25536 0
M  V30 7639 C 749.88 2.11568 -5.52262 0
M  V30 7640 H 748.81 0.410588 -0.632403 0
M  V30 7641 H 751.461 0.349886 -1.80133 0
M  V30 7642 H 749.843 2.76478 -2.83506 0
M  V30 7643 H 751.017 0.500582 -4.58073 0
M  V30 7644 H 749.332 0.60928 -4.11918 0
M  V30 7645 H 751.929 3.39055 -4.13456 0
M  V30 7646 H 752.272 3.38588 -2.42206 0
M  V30 7647 H 752.805 2.01735 -3.42852 0
M  V30 7648 H 749.544 1.4998 -6.38111 0
M  V30 7649 H 749.064 2.82201 -5.29266 0
M  V30 7650 H 750.743 2.70802 -5.87601 0
M  V30 7651 N 750.875 1.45233 0.611969 0
M  V30 7652 C 752.103 1.52539 1.39784 0
M  V30 7653 C 752.518 0.156533 1.8815 0
M  V30 7654 O 751.875 -0.84112 1.61961 0
M  V30 7655 C 751.926 2.50614 2.60528 0
M  V30 7656 O 751.647 3.8218 2.14173 0
M  V30 7657 C 753.148 2.67574 3.53439 0
M  V30 7658 H 750.368 0.51674 0.428043 0
M  V30 7659 H 752.912 1.90379 0.746727 0
M  V30 7660 H 751.067 2.15858 3.2169 0
M  V30 7661 H 751.481 4.35305 2.92592 0
M  V30 7662 H 752.955 3.40184 4.34717 0
M  V30 7663 H 753.432 1.73458 4.03496 0
M  V30 7664 H 754.038 3.0331 2.98133 0
M  V30 7665 N 752.353 -0.854086 1.3245 0
M  V30 7666 C 753.301 -1.98411 1.21391 0
M  V30 7667 C 754.295 -1.68984 0.118586 0
M  V30 7668 O 755.501 -1.77784 0.281549 0
M  V30 7669 H 751.876 -0.651077 0.376301 0
M  V30 7670 H 753.847 -2.04867 2.16961 0
M  V30 7671 C 752.596 -3.34345 0.954407 0
M  V30 7672 H 751.919 -3.57518 1.78944 0
M  V30 7673 H 753.359 -4.13959 0.917269 0
M  V30 7674 C 751.818 -3.35151 -0.342838 0
M  V30 7675 O 752.348 -3.78174 -1.35452 0
M  V30 7676 N 750.554 -2.88298 -0.365012 0
M  V30 7677 H 750.101 -2.53481 0.4588 0
M  V30 7678 H 750.059 -2.8922 -1.23284 0
M  V30 7679 N 753.831 -1.1567 -1.07043 0
M  V30 7680 C 755.056 -0.957946 -1.83952 0
M  V30 7681 C 755.481 0.488807 -1.81638 0
M  V30 7682 O 754.839 1.34869 -1.21162 0
M  V30 7683 C 754.887 -1.48064 -3.288 0
M  V30 7684 O 753.991 -0.681921 -4.06723 0
M  V30 7685 H 753.332 -0.341453 -0.569479 0
M  V30 7686 H 755.862 -1.53728 -1.35015 0
M  V30 7687 H 755.872 -1.49484 -3.7963 0
M  V30 7688 H 754.547 -2.53388 -3.29799 0
M  V30 7689 H 753.124 -0.737612 -3.65532 0
M  V30 7690 N 755.309 1.25446 -0.953992 0
M  V30 7691 C 756.555 1.93756 -0.618888 0
M  V30 7692 C 756.91 1.73344 0.83484 0
M  V30 7693 O 756.203 1.06753 1.59105 0
M  V30 7694 C 756.397 3.45555 -0.912496 0
M  V30 7695 C 756.226 3.8073 -2.39321 0
M  V30 7696 C 754.996 4.02819 -3.05065 0
M  V30 7697 C 757.194 3.88286 -3.37251 0
M  V30 7698 N 755.176 4.24981 -4.43017 0
M  V30 7699 C 756.547 4.1513 -4.60507 0
M  V30 7700 C 758.602 3.70965 -3.32099 0
M  V30 7701 C 757.305 4.26454 -5.79249 0
M  V30 7702 C 759.331 3.83528 -4.50178 0
M  V30 7703 C 758.693 4.10783 -5.72221 0
M  V30 7704 H 754.792 0.731271 -0.277069 0
M  V30 7705 H 757.376 1.5125 -1.22604 0
M  V30 7706 H 755.547 3.86959 -0.334284 0
M  V30 7707 H 757.279 4.01117 -0.537362 0
M  V30 7708 H 754.034 3.9868 -2.55639 0
M  V30 7709 H 754.458 4.4007 -5.14459 0
M  V30 7710 H 759.1 3.4891 -2.38791 0
M  V30 7711 H 756.818 4.47325 -6.72998 0
M  V30 7712 H 760.404 3.71513 -4.47738 0
M  V30 7713 H 759.284 4.20285 -6.62065 0
M  V30 7714 N 756.787 0.722489 1.40064 0
M  V30 7715 C 757.735 0.063329 2.32514 0
M  V30 7716 C 758.729 -0.73953 1.52405 0
M  V30 7717 O 759.935 -0.642122 1.68157 0
M  V30 7718 H 756.31 0.00167692 0.751998 0
M  V30 7719 H 758.281 0.859656 2.85749 0
M  V30 7720 C 757.03 -0.839219 3.3742 0
M  V30 7721 H 756.353 -0.230836 3.99133 0
M  V30 7722 H 757.793 -1.26827 4.04587 0
M  V30 7723 C 756.252 -1.96783 2.73456 0
M  V30 7724 O 756.782 -3.05933 2.60323 0
M  V30 7725 N 754.988 -1.75351 2.31734 0
M  V30 7726 H 754.535 -0.865787 2.42615 0
M  V30 7727 H 754.493 -2.51043 1.89275 0
M  V30 7728 N 758.265 -1.50454 0.469181 0
M  V30 7729 C 759.228 -2.2703 -0.314643 0
M  V30 7730 C 760.228 -1.31734 -0.922111 0
M  V30 7731 O 761.418 -1.55176 -0.791588 0
M  V30 7732 C 758.55 -3.08616 -1.44806 0
M  V30 7733 H 759.743 -2.97769 0.356892 0
M  V30 7734 H 757.296 -1.54698 0.223191 0
M  V30 7735 H 758.031 -2.42369 -2.1547 0
M  V30 7736 H 757.816 -3.78647 -1.01829 0
M  V30 7737 H 759.306 -3.66536 -2.00103 0
M  V30 7738 N 759.743 -0.201713 -1.56304 0
M  V30 7739 C 760.706 0.702811 -2.18159 0
M  V30 7740 C 761.706 1.13619 -1.13787 0
M  V30 7741 O 762.896 1.0482 -1.39134 0
M  V30 7742 C 760.028 1.96032 -2.78898 0
M  V30 7743 H 761.221 0.163836 -2.99452 0
M  V30 7744 H 758.774 0.04791 -1.56227 0
M  V30 7745 H 759.509 2.54165 -2.01421 0
M  V30 7746 H 759.294 1.65824 -3.55309 0
M  V30 7747 H 760.784 2.60519 -3.26373 0
M  V30 7748 N 761.222 1.57436 0.0718424 0
M  V30 7749 C 762.468 1.87525 0.772149 0
M  V30 7750 C 762.801 0.79399 1.77227 0
M  V30 7751 O 762.076 -0.195733 1.93513 0
M  V30 7752 C 762.359 3.28272 1.48018 0
M  V30 7753 C 762.212 4.47052 0.49647 0
M  V30 7754 C 763.531 3.67256 2.42509 0
M  V30 7755 H 760.65 0.682049 0.279245 0
M  V30 7756 H 763.292 1.89967 0.03534 0
M  V30 7757 H 761.442 3.26321 2.10824 0
M  V30 7758 H 763.114 4.61127 -0.126375 0
M  V30 7759 H 761.357 4.33392 -0.188205 0
M  V30 7760 H 762.028 5.42315 1.02949 0
M  V30 7761 H 764.504 3.70301 1.89781 0
M  V30 7762 H 763.38 4.66626 2.89053 0
M  V30 7763 H 763.641 2.97186 3.27312 0
M  V30 7764 N 762.7 -0.34323 1.53817 0
M  V30 7765 C 763.928 -1.10348 1.75017 0
M  V30 7766 C 764.343 -1.82345 0.489475 0
M  V30 7767 O 763.7 -1.74362 -0.538886 0
M  V30 7768 C 763.751 -2.11672 2.93048 0
M  V30 7769 O 763.472 -1.42603 4.14241 0
M  V30 7770 C 764.973 -3.0007 3.26301 0
M  V30 7771 H 762.193 -0.329056 0.584776 0
M  V30 7772 H 764.737 -0.395339 2.00642 0
M  V30 7773 H 762.892 -2.78051 2.69753 0
M  V30 7774 H 763.306 -2.10294 4.80496 0
M  V30 7775 H 764.78 -3.67101 4.12239 0
M  V30 7776 H 765.257 -3.66105 2.42618 0
M  V30 7777 H 765.863 -2.3928 3.51604 0
M  V30 7778 N 764.178 -1.45556 -0.604258 0
M  V30 7779 C 765.11 -1.50494 -1.72871 0
M  V30 7780 C 766.123 -0.395368 -1.57926 0
M  V30 7781 O 767.312 -0.662603 -1.65746 0
M  V30 7782 C 764.412 -1.34874 -3.10906 0
M  V30 7783 C 763.585 -2.59564 -3.52058 0
M  V30 7784 C 762.644 -2.38453 -4.6907 0
M  V30 7785 O 761.67 -3.12082 -4.76018 0
M  V30 7786 N 762.872 -1.43229 -5.62553 0
M  V30 7787 H 765.637 -2.4744 -1.69097 0
M  V30 7788 H 763.198 -1.41338 -0.789636 0
M  V30 7789 H 765.19 -1.18556 -3.86945 0
M  V30 7790 H 763.76 -0.461913 -3.09168 0
M  V30 7791 H 762.98 -2.90974 -2.65946 0
M  V30 7792 H 764.268 -3.42441 -3.76313 0
M  V30 7793 H 763.666 -0.824714 -5.59656 0
M  V30 7794 H 762.223 -1.32882 -6.38111 0
M  V30 7795 N 765.656 0.84705 -1.32902 0
M  V30 7796 C 766.604 1.97765 -1.22441 0
M  V30 7797 C 767.598 1.68919 -0.127546 0
M  V30 7798 O 768.804 1.77633 -0.290973 0
M  V30 7799 H 765.179 0.649072 -0.379748 0
M  V30 7800 H 767.15 2.03713 -2.18044 0
M  V30 7801 C 765.899 3.33834 -0.972125 0
M  V30 7802 H 765.222 3.56564 -1.80837 0
M  V30 7803 H 766.662 4.13467 -0.939209 0
M  V30 7804 C 765.121 3.35328 0.325059 0
M  V30 7805 O 765.651 3.78887 1.33445 0
M  V30 7806 N 763.857 2.88488 0.349718 0
M  V30 7807 H 763.404 2.53234 -0.472236 0
M  V30 7808 H 763.362 2.8987 1.21748 0
M  V30 7809 N 767.134 1.16236 1.06428 0
M  V30 7810 C 768.382 0.941171 1.78847 0
M  V30 7811 C 768.703 -0.53248 1.87589 0
M  V30 7812 O 767.973 -1.38686 1.38358 0
M  V30 7813 H 766.553 0.345228 0.66244 0
M  V30 7814 H 769.215 1.46479 1.28569 0
M  V30 7815 H 768.311 1.35871 2.80972 0
M  V30 7816 N 768.612 -1.24939 0.960631 0
M  V30 7817 C 769.544 -2.24879 0.442937 0
M  V30 7818 C 770.557 -1.56615 -0.444464 0
M  V30 7819 O 771.746 -1.76715 -0.251776 0
M  V30 7820 C 768.846 -3.36757 -0.380537 0
M  V30 7821 C 768.019 -4.34587 0.495283 0
M  V30 7822 C 767.078 -5.25502 -0.270995 0
M  V30 7823 O 766.104 -5.68227 0.332661 0
M  V30 7824 N 767.306 -5.59077 -1.56249 0
M  V30 7825 H 770.071 -2.69932 1.30218 0
M  V30 7826 H 767.632 -1.38907 0.83166 0
M  V30 7827 H 769.624 -3.94542 -0.90103 0
M  V30 7828 H 768.194 -2.91045 -1.14067 0
M  V30 7829 H 767.414 -3.75593 1.19682 0
M  V30 7830 H 768.702 -4.96925 1.09285 0
M  V30 7831 H 768.1 -5.2628 -2.07476 0
M  V30 7832 H 766.657 -6.19421 -2.02882 0
M  V30 7833 N 770.09 -0.729906 -1.39679 0
M  V30 7834 C 771.315 -0.284345 -2.05442 0
M  V30 7835 C 771.74 1.07056 -1.54663 0
M  V30 7836 O 771.098 1.67732 -0.688157 0
M  V30 7837 C 771.146 -0.290089 -3.59431 0
M  V30 7838 O 770.25 0.723978 -4.05995 0
M  V30 7839 H 769.591 -0.130311 -0.651088 0
M  V30 7840 H 772.121 -0.994403 -1.78809 0
M  V30 7841 H 772.131 -0.132712 -4.07784 0
M  V30 7842 H 770.806 -1.27877 -3.95753 0
M  V30 7843 H 769.383 0.533154 -3.69069 0
M  V30 7844 N 771.568 1.50203 -0.477153 0
M  V30 7845 C 772.814 2.02658 0.0758507 0
M  V30 7846 C 773.147 1.358 1.38824 0
M  V30 7847 O 772.422 0.485696 1.88338 0
M  V30 7848 C 772.705 3.59208 0.253339 0
M  V30 7849 C 772.558 4.36629 -1.0805 0
M  V30 7850 C 773.877 4.28469 1.00509 0
M  V30 7851 H 770.996 0.736538 0.0260921 0
M  V30 7852 H 773.638 1.79464 -0.623925 0
M  V30 7853 H 771.788 3.79101 0.849378 0
M  V30 7854 H 773.46 4.28292 -1.71358 0
M  V30 7855 H 771.703 4.0013 -1.67566 0
M  V30 7856 H 772.374 5.44449 -0.909883 0
M  V30 7857 H 774.85 4.13087 0.499818 0
M  V30 7858 H 773.726 5.37804 1.09808 0
M  V30 7859 H 773.987 3.92057 2.04314 0
M  V30 7860 N 773.046 0.209999 1.56195 0
M  V30 7861 C 774.274 -0.429996 2.02382 0
M  V30 7862 C 774.689 -1.54159 1.08998 0
M  V30 7863 O 774.046 -1.82239 0.0974856 0
M  V30 7864 C 774.097 -0.972433 3.48175 0
M  V30 7865 O 773.818 0.0948231 4.37997 0
M  V30 7866 C 775.319 -1.68683 4.09952 0
M  V30 7867 H 772.539 -0.106475 0.662498 0
M  V30 7868 H 775.083 0.323072 2.01932 0
M  V30 7869 H 773.238 -1.67582 3.49278 0
M  V30 7870 H 773.652 -0.31113 5.23576 0
M  V30 7871 H 775.126 -2.01851 5.13771 0
M  V30 7872 H 775.603 -2.59587 3.54276 0
M  V30 7873 H 776.209 -1.02893 4.12666 0
M  V30 7874 N 774.524 -1.57472 -0.0634922 0
M  V30 7875 C 775.487 -2.03268 -1.059 0
M  V30 7876 C 776.487 -0.931028 -1.31105 0
M  V30 7877 O 777.677 -1.19567 -1.26686 0
M  V30 7878 C 774.809 -2.42039 -2.40062 0
M  V30 7879 H 776.002 -2.92454 -0.664119 0
M  V30 7880 H 773.555 -1.53206 -0.309444 0
M  V30 7881 H 774.29 -1.55904 -2.84367 0
M  V30 7882 H 774.075 -3.22437 -2.23108 0
M  V30 7883 H 775.565 -2.78017 -3.11603 0
M  V30 7884 N 776.003 0.335068 -1.53997 0
M  V30 7885 C 777.419 0.678704 -1.4445 0
M  V30 7886 C 777.619 1.92106 -0.608078 0
M  V30 7887 O 776.675 2.52292 -0.102373 0
M  V30 7888 C 777.988 0.863435 -2.88037 0
M  V30 7889 C 779.536 0.961513 -2.97866 0
M  V30 7890 C 780.011 1.1785 -4.42578 0
M  V30 7891 N 781.502 1.2455 -4.46141 0
M  V30 7892 C 782.237 1.43106 -5.55255 0
M  V30 7893 N 781.733 1.5878 -6.74359 0
M  V30 7894 N 783.526 1.45722 -5.42883 0
M  V30 7895 H 775.677 -0.481656 -2.06867 0
M  V30 7896 H 777.94 -0.153615 -0.935471 0
M  V30 7897 H 777.646 0.0219511 -3.51693 0
M  V30 7898 H 777.52 1.76268 -3.33481 0
M  V30 7899 H 779.907 1.79351 -2.34344 0
M  V30 7900 H 779.988 0.0389862 -2.5577 0
M  V30 7901 H 779.632 0.351397 -5.06683 0
M  V30 7902 H 779.562 2.11472 -4.82273 0
M  V30 7903 H 782.053 1.13928 -3.60318 0
M  V30 7904 H 782.366 1.72599 -7.53279 0
M  V30 7905 H 780.711 1.559 -6.77289 0
M  V30 7906 H 783.902 1.33065 -4.48789 0
M  V30 7907 H 784.075 1.59841 -6.27977 0
M  V30 7908 N 777.481 1.45874 0.596531 0
M  V30 7909 C 778.429 1.55739 1.72766 0
M  V30 7910 C 779.423 0.426666 1.63939 0
M  V30 7911 O 780.629 0.60301 1.69599 0
M  V30 7912 H 777.004 0.489386 0.570968 0
M  V30 7913 H 778.975 2.50871 1.61575 0
M  V30 7914 C 777.724 1.55174 3.11153 0
M  V30 7915 H 777.047 2.41511 3.1861 0
M  V30 7916 H 778.487 1.66133 3.90097 0
M  V30 7917 C 776.946 0.278001 3.35751 0
M  V30 7918 O 777.476 -0.637557 3.96608 0
M  V30 7919 N 775.682 0.170227 2.90101 0
M  V30 7920 H 775.229 0.916159 2.40758 0
M  V30 7921 H 775.187 -0.68117 3.06932 0
M  V30 7922 N 778.959 -0.83999 1.33349 0
M  V30 7923 C 779.892 -1.95415 1.17848 0
M  V30 7924 C 780.87 -1.6243 0.0742296 0
M  V30 7925 O 782.054 -1.87014 0.23626 0
M  V30 7926 C 779.181 -3.28938 0.807295 0
M  V30 7927 C 778.227 -3.80895 1.91888 0
M  V30 7928 S 779.06 -4.02709 3.52967 0
M  V30 7929 C 780.216 -5.39185 3.17853 0
M  V30 7930 H 780.449 -2.08265 2.12162 0
M  V30 7931 H 777.982 -0.993643 1.18178 0
M  V30 7932 H 779.94 -4.06093 0.599914 0
M  V30 7933 H 778.601 -3.13881 -0.117234 0
M  V30 7934 H 777.794 -4.77508 1.6125 0
M  V30 7935 H 777.396 -3.10633 2.08286 0
M  V30 7936 H 779.688 -6.21978 2.68608 0
M  V30 7937 H 780.631 -5.74795 4.13542 0
M  V30 7938 H 781.039 -5.03885 2.5448 0
M  V30 7939 N 780.437 -1.16799 -1.0581 0
M  V30 7940 C 781.662 -0.977402 -1.82925 0
M  V30 7941 C 782.087 0.469514 -1.82146 0
M  V30 7942 O 781.445 1.33576 -1.22585 0
M  V30 7943 C 781.493 -1.51543 -3.27211 0
M  V30 7944 O 780.597 -0.725021 -4.05977 0
M  V30 7945 H 779.938 -0.347474 -0.565825 0
M  V30 7946 H 782.468 -1.55151 -1.33376 0
M  V30 7947 H 782.478 -1.53502 -3.78023 0
M  V30 7948 H 781.153 -2.56872 -3.27093 0
M  V30 7949 H 779.73 -0.77634 -3.64729 0
M  V30 7950 N 781.915 1.24427 -0.967243 0
M  V30 7951 C 783.145 1.96256 -0.64554 0
M  V30 7952 C 783.553 1.71959 0.789098 0
M  V30 7953 O 782.896 0.999913 1.54102 0
M  V30 7954 C 782.958 3.49553 -0.839798 0
M  V30 7955 C 782.622 3.97548 -2.25399 0
M  V30 7956 C 783.619 4.07257 -3.23168 0
M  V30 7957 C 781.304 4.30884 -2.58156 0
M  V30 7958 C 783.298 4.49635 -4.51782 0
M  V30 7959 C 780.985 4.72946 -3.86996 0
M  V30 7960 C 781.983 4.82286 -4.83621 0
M  V30 7961 O 781.671 5.23409 -6.10162 0
M  V30 7962 H 781.403 0.632002 -0.239895 0
M  V30 7963 H 783.957 1.59224 -1.29757 0
M  V30 7964 H 782.187 3.86479 -0.130603 0
M  V30 7965 H 783.876 4.02591 -0.517249 0
M  V30 7966 H 784.642 3.8172 -2.9919 0
M  V30 7967 H 780.521 4.22833 -1.83666 0
M  V30 7968 H 784.065 4.5684 -5.27203 0
M  V30 7969 H 779.962 4.9793 -4.10775 0
M  V30 7970 H 780.73 5.4156 -6.13722 0
M  V30 7971 N 783.393 0.737304 1.3929 0
M  V30 7972 C 784.341 0.0879867 2.32434 0
M  V30 7973 C 785.335 -0.723324 1.53181 0
M  V30 7974 O 786.541 -0.624251 1.68829 0
M  V30 7975 H 782.916 0.00965277 0.751938 0
M  V30 7976 H 784.887 0.889915 2.84821 0
M  V30 7977 C 783.636 -0.803384 3.38291 0
M  V30 7978 H 782.959 -0.18849 3.99355 0
M  V30 7979 H 784.399 -1.22528 4.0591 0
M  V30 7980 C 782.858 -1.93872 2.75527 0
M  V30 7981 O 783.388 -3.03154 2.63553 0
M  V30 7982 N 781.594 -1.72883 2.3358 0
M  V30 7983 H 781.141 -0.840005 2.43519 0
M  V30 7984 H 781.099 -2.49021 1.91927 0
M  V30 7985 N 784.871 -1.49948 0.485112 0
M  V30 7986 C 785.819 -2.30449 -0.315609 0
M  V30 7987 C 786.813 -1.38351 -0.977516 0
M  V30 7988 O 788.019 -1.55477 -0.907019 0
M  V30 7989 H 784.394 -0.742262 -0.120629 0
M  V30 7990 H 786.365 -2.95925 0.383552 0
M  V30 7991 C 785.114 -3.19283 -1.37673 0
M  V30 7992 H 784.437 -3.90067 -0.876801 0
M  V30 7993 H 785.877 -3.78579 -1.90929 0
M  V30 7994 C 784.336 -2.37817 -2.38631 0
M  V30 7995 O 784.866 -2.0711 -3.44192 0
M  V30 7996 N 783.072 -2.00135 -2.107 0
M  V30 7997 H 782.619 -2.25307 -1.24878 0
M  V30 7998 H 782.577 -1.45933 -2.7848 0
M  V30 7999 N 786.349 -0.21828 -1.56081 0
M  V30 8000 C 787.595 0.414921 -1.9851 0
M  V30 8001 C 787.928 1.59648 -1.10573 0
M  V30 8002 O 787.203 1.93818 -0.162695 0
M  V30 8003 C 787.486 0.852647 -3.4986 0
M  V30 8004 C 787.339 -0.33232 -4.48571 0
M  V30 8005 C 788.658 1.70998 -4.05521 0
M  V30 8006 H 785.777 0.149344 -0.72171 0
M  V30 8007 H 788.419 -0.313858 -1.8739 0
M  V30 8008 H 786.569 1.47362 -3.59467 0
M  V30 8009 H 788.241 -0.970418 -4.50977 0
M  V30 8010 H 786.484 -0.980302 -4.22578 0
M  V30 8011 H 787.155 0.0168407 -5.51997 0
M  V30 8012 H 789.631 1.18606 -3.98838 0
M  V30 8013 H 788.507 1.98517 -5.11744 0
M  V30 8014 H 788.768 2.67219 -3.52202 0
M  V30 8015 N 787.827 1.57504 0.0551401 0
M  V30 8016 C 789.076 1.87237 0.750009 0
M  V30 8017 C 789.389 0.813268 1.77891 0
M  V30 8018 O 790.595 0.99898 2.52453 0
M  V30 8019 C 789.051 3.32187 1.38491 0
M  V30 8020 C 788.659 4.46267 0.393707 0
M  V30 8021 C 790.403 3.71101 2.06117 0
M  V30 8022 C 788.31 5.82265 1.03547 0
M  V30 8023 H 787.24 0.698524 0.283866 0
M  V30 8024 H 789.891 1.835 0.00365997 0
M  V30 8025 H 788.273 3.30588 2.18008 0
M  V30 8026 H 789.447 4.59289 -0.372865 0
M  V30 8027 H 787.762 4.16015 -0.17902 0
M  V30 8028 H 790.359 4.70012 2.54937 0
M  V30 8029 H 790.702 3.01751 2.86796 0
M  V30 8030 H 791.235 3.74762 1.33409 0
M  V30 8031 H 787.974 6.54949 0.268644 0
M  V30 8032 H 787.494 5.73012 1.7725 0
M  V30 8033 H 789.173 6.28148 1.55047 0
M  V30 8034 N 789.305 -0.326896 1.54172 0
M  V30 8035 C 790.237 -1.42319 1.79661 0
M  V30 8036 C 791.25 -1.47989 0.678456 0
M  V30 8037 O 792.439 -1.50773 0.955503 0
M  V30 8038 C 789.539 -2.80876 1.89636 0
M  V30 8039 C 788.712 -2.98449 3.19761 0
M  V30 8040 C 787.771 -4.17347 3.2048 0
M  V30 8041 O 786.797 -4.10667 3.94134 0
M  V30 8042 N 787.999 -5.26717 2.44027 0
M  V30 8043 H 790.764 -1.20819 2.74268 0
M  V30 8044 H 788.325 -0.516866 1.53428 0
M  V30 8045 H 790.317 -3.58619 1.87549 0
M  V30 8046 H 788.887 -2.95442 1.02141 0
M  V30 8047 H 788.107 -2.08035 3.34836 0
M  V30 8048 H 789.395 -3.07083 4.05681 0
M  V30 8049 H 788.793 -5.35019 1.8377 0
M  V30 8050 H 787.35 -6.02891 2.47721 0
M  V30 8051 N 790.784 -1.46188 -0.588786 0
M  V30 8052 C 792.195 -1.45421 -1.17088 0
M  V30 8053 C 792.546 -0.191801 -1.9526 0
M  V30 8054 O 791.671 0.705497 -2.04577 0
M  V30 8055 C 792.266 -2.63467 -2.13004 0
M  V30 8056 C 790.825 -2.6576 -2.6655 0
M  V30 8057 C 789.972 -2.38002 -1.42304 0
M  V30 8058 H 792.923 -1.54156 -0.377052 0
M  V30 8059 H 792.944 -2.38638 -2.96365 0
M  V30 8060 H 792.456 -3.55331 -1.56081 0
M  V30 8061 H 790.557 -1.77952 -3.27359 0
M  V30 8062 H 790.67 -3.65545 -3.09699 0
M  V30 8063 H 789.034 -1.87936 -1.71907 0
M  V30 8064 H 789.817 -3.32035 -0.872209 0
M  V30 8065 N 792.262 0.832906 -1.33792 0
M  V30 8066 C 793.51 1.58539 -1.25338 0
M  V30 8067 C 793.831 1.94175 0.179204 0
M  V30 8068 O 793.101 1.61458 1.10941 0
M  V30 8069 H 791.681 0.58784 -0.460926 0
M  V30 8070 H 794.343 0.995064 -1.67584 0
M  V30 8071 H 793.439 2.51268 -1.85123 0
M  V30 8072 N 793.74 1.17359 1.05189 0
M  V30 8073 C 794.672 0.848078 2.12933 0
M  V30 8074 C 795.685 -0.149521 1.62112 0
M  V30 8075 O 796.874 0.0767797 1.78335 0
M  V30 8076 C 793.974 0.243889 3.38021 0
M  V30 8077 C 793.147 1.28436 4.18118 0
M  V30 8078 C 792.206 0.697926 5.21551 0
M  V30 8079 O 791.232 1.36973 5.52473 0
M  V30 8080 N 792.434 -0.510024 5.78255 0
M  V30 8081 H 795.199 1.7754 2.41453 0
M  V30 8082 H 792.76 1.07244 1.21286 0
M  V30 8083 H 794.752 -0.161727 4.04377 0
M  V30 8084 H 793.322 -0.58722 3.07035 0
M  V30 8085 H 792.542 1.86573 3.47252 0
M  V30 8086 H 793.83 1.98617 4.68432 0
M  V30 8087 H 793.228 -1.07378 5.55416 0
M  V30 8088 H 791.785 -0.857705 6.46132 0
M  V30 8089 N 795.218 -1.23913 0.973828 0
M  V30 8090 C 796.166 -2.27141 0.50098 0
M  V30 8091 C 797.16 -1.63623 -0.438631 0
M  V30 8092 O 798.366 -1.77253 -0.313247 0
M  V30 8093 H 794.741 -0.73817 0.14356 0
M  V30 8094 H 796.712 -2.64392 1.38346 0
M  V30 8095 C 795.461 -3.47195 -0.187377 0
M  V30 8096 H 794.784 -3.96318 0.526535 0
M  V30 8097 H 796.224 -4.21252 -0.481962 0
M  V30 8098 C 794.683 -3.05678 -1.41642 0
M  V30 8099 O 795.213 -3.1338 -2.51309 0
M  V30 8100 N 793.419 -2.60661 -1.28469 0
M  V30 8101 H 792.966 -2.54594 -0.39238 0
M  V30 8102 H 792.924 -2.33249 -2.10813 0
M  V30 8103 N 796.696 -0.74468 -1.38897 0
M  V30 8104 C 797.924 -0.307428 -2.04603 0
M  V30 8105 C 798.339 1.06115 -1.56157 0
M  V30 8106 O 797.696 1.67233 -0.730701 0
M  V30 8107 C 797.747 -0.31101 -3.6016 0
M  V30 8108 O 797.468 -1.62557 -4.06825 0
M  V30 8109 C 798.969 0.141213 -4.43075 0
M  V30 8110 H 796.189 -0.132741 -0.657739 0
M  V30 8111 H 798.733 -1.01104 -1.77759 0
M  V30 8112 H 796.888 0.343792 -3.85872 0
M  V30 8113 H 797.302 -1.54569 -5.01207 0
M  V30 8114 H 798.776 0.0875449 -5.51931 0
M  V30 8115 H 799.253 1.18782 -4.22833 0
M  V30 8116 H 799.859 -0.484383 -4.22533 0
M  V30 8117 N 798.174 1.49689 -0.493057 0
M  V30 8118 C 799.402 2.06836 0.0513141 0
M  V30 8119 C 799.817 1.35436 1.31539 0
M  V30 8120 O 799.174 0.430248 1.77356 0
M  V30 8121 C 799.225 3.60107 0.317003 0
M  V30 8122 O 798.946 4.2882 -0.896957 0
M  V30 8123 C 800.447 4.33945 0.905902 0
M  V30 8124 H 797.667 0.670787 -0.0169048 0
M  V30 8125 H 800.211 1.92574 -0.688139 0
M  V30 8126 H 798.366 3.74099 1.00642 0
M  V30 8127 H 798.78 5.20395 -0.654939 0
M  V30 8128 H 800.254 5.42087 1.04144 0
M  V30 8129 H 800.731 3.95895 1.90168 0
M  V30 8130 H 801.337 4.2454 0.254195 0
M  V30 8131 N 799.652 0.226554 1.55963 0
M  V30 8132 C 800.899 -0.403789 1.98433 0
M  V30 8133 C 801.227 -1.59416 1.1143 0
M  V30 8134 O 800.482 -1.95042 0.160389 0
M  V30 8135 C 800.781 -0.87642 3.46488 0
M  V30 8136 C 800.447 0.203973 4.50438 0
M  V30 8137 C 799.109 0.500754 4.78587 0
M  V30 8138 C 801.461 0.934396 5.12756 0
M  V30 8139 C 798.789 1.53239 5.66334 0
M  V30 8140 C 801.141 1.9554 6.0162 0
M  V30 8141 C 799.805 2.25905 6.28111 0
M  V30 8142 H 799.075 -0.147757 0.726119 0
M  V30 8143 H 801.722 0.330121 1.88633 0
M  V30 8144 H 800.027 -1.68918 3.53517 0
M  V30 8145 H 801.724 -1.37407 3.76723 0
M  V30 8146 H 798.314 -0.0374917 4.28584 0
M  V30 8147 H 802.498 0.718355 4.91074 0
M  V30 8148 H 797.754 1.77321 5.85122 0
M  V30 8149 H 801.928 2.52642 6.48957 0
M  V30 8150 H 799.555 3.05985 6.959 0
M  V30 8151 N 801.13 -1.57531 -0.0467866 0
M  V30 8152 C 802.378 -1.88078 -0.739656 0
M  V30 8153 C 802.699 -0.821936 -1.76831 0
M  V30 8154 O 801.969 0.146582 -1.95351 0
M  V30 8155 H 800.549 -0.694075 -0.276169 0
M  V30 8156 H 803.211 -1.94893 -0.0169391 0
M  V30 8157 H 802.307 -2.86396 -1.24031 0
M  V30 8158 N 802.608 0.318715 -1.54344 0
M  V30 8159 C 803.855 1.05608 -1.72781 0
M  V30 8160 C 804.183 1.87854 -0.504083 0
M  V30 8161 O 803.438 1.88826 0.51414 0
M  V30 8162 C 803.737 2.00514 -2.95853 0
M  V30 8163 C 803.403 1.34385 -4.30409 0
M  V30 8164 C 802.065 1.16081 -4.66989 0
M  V30 8165 C 804.417 0.869627 -5.13894 0
M  V30 8166 C 801.745 0.490114 -5.84649 0
M  V30 8167 C 804.097 0.212735 -6.32242 0
M  V30 8168 C 802.761 0.0175882 -6.67498 0
M  V30 8169 H 802.031 0.386449 -0.632249 0
M  V30 8170 H 804.678 0.332729 -1.88587 0
M  V30 8171 H 802.983 2.79317 -2.74753 0
M  V30 8172 H 804.68 2.57605 -3.07312 0
M  V30 8173 H 801.27 1.49634 -4.01631 0
M  V30 8174 H 805.454 0.998809 -4.86146 0
M  V30 8175 H 800.71 0.327767 -6.10521 0
M  V30 8176 H 804.884 -0.162699 -6.9621 0
M  V30 8177 H 802.511 -0.504137 -7.58527 0
M  V30 8178 N 804.086 1.46499 0.581025 0
M  V30 8179 C 805.018 1.53225 1.70455 0
M  V30 8180 C 806.031 0.420443 1.57277 0
M  V30 8181 O 807.22 0.688888 1.64671 0
M  V30 8182 C 804.32 1.39803 3.08721 0
M  V30 8183 C 803.493 2.65132 3.47884 0
M  V30 8184 C 802.552 2.45886 4.65217 0
M  V30 8185 O 801.578 3.19615 4.70993 0
M  V30 8186 N 802.78 1.5216 5.60203 0
M  V30 8187 H 805.545 2.50098 1.65139 0
M  V30 8188 H 803.106 1.42576 0.76705 0
M  V30 8189 H 805.098 1.24697 3.8501 0
M  V30 8190 H 803.668 0.51104 3.08394 0
M  V30 8191 H 802.888 2.95169 2.61284 0
M  V30 8192 H 804.176 3.48385 3.70817 0
M  V30 8193 H 803.574 0.913646 5.58273 0
M  V30 8194 H 802.131 1.43017 6.35916 0
M  V30 8195 N 805.565 -0.825799 1.34232 0
M  V30 8196 C 806.528 -1.91808 1.25468 0
M  V30 8197 C 807.528 -1.59893 0.170567 0
M  V30 8198 O 808.718 -1.68986 0.422996 0
M  V30 8199 C 805.85 -3.27786 0.93644 0
M  V30 8200 H 807.043 -2.01003 2.22571 0
M  V30 8201 H 804.596 -1.01944 1.18479 0
M  V30 8202 H 805.331 -3.24285 -0.0315408 0
M  V30 8203 H 805.116 -3.52333 1.72057 0
M  V30 8204 H 806.606 -4.07782 0.900214 0
M  V30 8205 N 807.043 -1.17915 -1.04565 0
M  V30 8206 C 808.268 -0.996749 -1.81878 0
M  V30 8207 C 808.693 0.450169 -1.82634 0
M  V30 8208 O 808.051 1.32268 -1.23995 0
M  V30 8209 C 808.099 -1.55005 -3.25585 0
M  V30 8210 O 807.203 -0.76804 -4.05185 0
M  V30 8211 H 806.544 -0.353456 -0.562108 0
M  V30 8212 H 809.074 -1.56557 -1.31723 0
M  V30 8213 H 809.084 -1.57503 -3.76373 0
M  V30 8214 H 807.759 -2.60327 -3.2435 0
M  V30 8215 H 806.336 -0.81498 -3.63885 0
M  V30 8216 N 808.521 1.23394 -0.980386 0
M  V30 8217 C 809.751 1.9556 -0.666319 0
M  V30 8218 C 810.159 1.72786 0.770815 0
M  V30 8219 O 809.502 1.0162 1.53033 0
M  V30 8220 C 809.564 3.48643 -0.876825 0
M  V30 8221 C 809.228 3.95135 -2.29602 0
M  V30 8222 C 810.225 4.03806 -3.2747 0
M  V30 8223 C 807.91 4.28122 -2.62711 0
M  V30 8224 C 809.904 4.44818 -4.56526 0
M  V30 8225 C 807.591 4.68814 -3.9199 0
M  V30 8226 C 808.589 4.77129 -4.88709 0
M  V30 8227 O 808.277 5.16908 -6.15679 0
M  V30 8228 H 808.009 0.629422 -0.246585 0
M  V30 8229 H 810.563 1.57839 -1.31438 0
M  V30 8230 H 808.793 3.86319 -0.171587 0
M  V30 8231 H 810.482 4.0202 -0.55992 0
M  V30 8232 H 811.248 3.78526 -3.03222 0
M  V30 8233 H 807.127 4.20861 -1.8814 0
M  V30 8234 H 810.671 4.51223 -5.32018 0
M  V30 8235 H 806.568 4.93545 -4.16033 0
M  V30 8236 H 807.336 5.3502 -6.19432 0
M  V30 8237 N 809.999 0.752036 1.385 0
M  V30 8238 C 811.227 0.318274 2.04437 0
M  V30 8239 C 811.642 -1.05285 1.56718 0
M  V30 8240 O 810.999 -1.66844 0.73956 0
M  V30 8241 C 811.05 0.330106 3.5999 0
M  V30 8242 O 810.771 1.64712 4.05957 0
M  V30 8243 C 812.272 -0.117713 4.43144 0
M  V30 8244 H 809.492 0.136228 0.657026 0
M  V30 8245 H 812.036 1.02045 1.7722 0
M  V30 8246 H 810.191 -0.323323 3.86048 0
M  V30 8247 H 810.605 1.57225 5.0038 0
M  V30 8248 H 812.079 -0.0582735 5.51969 0
M  V30 8249 H 812.556 -1.16538 4.23457 0
M  V30 8250 H 813.162 0.506784 4.2227 0
M  V30 8251 N 811.477 -1.49425 0.500989 0
M  V30 8252 C 812.725 -2.02053 -0.0434495 0
M  V30 8253 C 813.046 -1.38285 -1.37486 0
M  V30 8254 O 812.316 -0.538171 -1.88363 0
M  V30 8255 H 810.896 -0.746757 -0.0190469 0
M  V30 8256 H 813.558 -1.83449 0.658227 0
M  V30 8257 H 812.654 -3.11619 -0.173129 0
M  V30 8258 N 812.955 -0.234822 -1.55841 0
M  V30 8259 C 814.18 0.400741 -2.03492 0
M  V30 8260 C 814.605 1.51618 -1.11327 0
M  V30 8261 O 813.963 1.81002 -0.103922 0
M  V30 8262 C 814.011 0.897184 -3.49261 0
M  V30 8263 O 813.115 2.00764 -3.60233 0
M  V30 8264 H 812.456 0.0890023 -0.658008 0
M  V30 8265 H 814.986 -0.357345 -2.01455 0
M  V30 8266 H 814.996 1.20356 -3.89844 0
M  V30 8267 H 813.671 0.0808639 -4.15821 0
M  V30 8268 H 812.248 1.70689 -3.31541 0
M  V30 8269 N 814.433 1.57553 0.0384317 0
M  V30 8270 C 815.381 2.07021 1.06043 0
M  V30 8271 C 816.375 0.982078 1.38028 0
M  V30 8272 O 817.581 1.16702 1.37042 0
M  V30 8273 H 813.956 0.660522 0.359464 0
M  V30 8274 H 815.927 2.91944 0.617339 0
M  V30 8275 C 814.676 2.55734 2.35574 0
M  V30 8276 H 813.999 3.39074 2.11822 0
M  V30 8277 H 815.439 2.94066 3.05452 0
M  V30 8278 C 813.898 1.45449 3.03885 0
M  V30 8279 O 814.428 0.815402 3.93337 0
M  V30 8280 N 812.634 1.19134 2.65058 0
M  V30 8281 H 812.181 1.71288 1.92401 0
M  V30 8282 H 812.139 0.455554 3.11082 0
M  V30 8283 N 815.911 -0.310526 1.54511 0
M  V30 8284 C 816.874 -1.3657 1.84068 0
M  V30 8285 C 817.874 -1.44123 0.713097 0
M  V30 8286 O 819.064 -1.43924 0.981399 0
M  V30 8287 C 816.196 -2.75162 2.01243 0
M  V30 8288 H 817.389 -1.1161 2.78358 0
M  V30 8289 H 814.942 -0.546699 1.46427 0
M  V30 8290 H 815.677 -3.05359 1.09208 0
M  V30 8291 H 815.462 -2.71071 2.83307 0
M  V30 8292 H 816.952 -3.51473 2.25514 0
M  V30 8293 N 817.389 -1.46805 -0.573248 0
M  V30 8294 C 818.352 -1.57655 -1.66366 0
M  V30 8295 C 819.352 -0.452905 -1.5429 0
M  V30 8296 O 820.542 -0.717502 -1.58737 0
M  V30 8297 C 817.674 -1.50584 -3.05839 0
M  V30 8298 H 818.867 -2.54842 -1.581 0
M  V30 8299 H 816.42 -1.34756 -0.791868 0
M  V30 8300 H 817.155 -0.547127 -3.19651 0
M  V30 8301 H 816.94 -2.32118 -3.16012 0
M  V30 8302 H 818.43 -1.61282 -3.85199 0
M  V30 8303 N 818.867 0.818669 -1.34668 0
M  V30 8304 C 820.278 1.39177 -1.24446 0
M  V30 8305 C 820.629 1.9578 0.128268 0
M  V30 8306 O 819.754 1.90382 1.02877 0
M  V30 8307 C 820.349 2.53012 -2.25323 0
M  V30 8308 C 818.908 3.06218 -2.18878 0
M  V30 8309 C 818.055 1.79112 -2.11694 0
M  V30 8310 H 821.006 0.622709 -1.45973 0
M  V30 8311 H 821.027 3.31226 -1.8727 0
M  V30 8312 H 820.539 2.11784 -3.25221 0
M  V30 8313 H 818.64 3.51939 -1.22351 0
M  V30 8314 H 818.753 3.65019 -3.10319 0
M  V30 8315 H 817.117 2.0018 -1.57481 0
M  V30 8316 H 817.9 1.40053 -3.13433 0
M  V30 8317 N 820.346 1.18468 1.03938 0
M  V30 8318 C 821.574 1.00576 1.80809 0
M  V30 8319 C 821.989 -0.445786 1.83462 0
M  V30 8320 O 821.346 -1.30964 1.27101 0
M  V30 8321 C 821.397 1.55491 3.26351 0
M  V30 8322 O 821.118 2.94963 3.23926 0
M  V30 8323 C 822.619 1.42236 4.19862 0
M  V30 8324 H 819.839 0.35508 0.56935 0
M  V30 8325 H 822.383 1.57046 1.30984 0
M  V30 8326 H 820.538 1.03195 3.73403 0
M  V30 8327 H 820.952 3.20598 4.15111 0
M  V30 8328 H 822.426 1.85455 5.19914 0
M  V30 8329 H 822.903 0.371267 4.37628 0
M  V30 8330 H 823.509 1.9361 3.78675 0
M  V30 8331 N 821.824 -1.22873 0.986916 0
M  V30 8332 C 823.07 -1.91746 0.660401 0
M  V30 8333 C 823.403 -1.76738 -0.804812 0
M  V30 8334 O 822.678 -1.13246 -1.58131 0
M  V30 8335 C 822.961 -3.44156 1.05966 0
M  V30 8336 C 822.814 -3.68242 2.58298 0
M  V30 8337 C 824.133 -4.35874 0.60842 0
M  V30 8338 H 821.252 -0.696347 0.241391 0
M  V30 8339 H 823.894 -1.44867 1.22937 0
M  V30 8340 H 822.044 -3.84213 0.575534 0
M  V30 8341 H 823.716 -3.37626 3.14335 0
M  V30 8342 H 821.959 -3.12728 3.00638 0
M  V30 8343 H 822.63 -4.74956 2.81285 0
M  V30 8344 H 825.106 -4.03299 1.02417 0
M  V30 8345 H 823.982 -5.41201 0.916142 0
M  V30 8346 H 824.243 -4.39364 -0.491086 0
M  V30 8347 N 823.302 -0.75937 -1.38099 0
M  V30 8348 C 824.265 -0.14372 -2.28749 0
M  V30 8349 C 825.265 0.641338 -1.47457 0
M  V30 8350 O 826.455 0.466751 -1.67831 0
M  V30 8351 C 823.587 0.804545 -3.3127 0
M  V30 8352 H 824.78 -0.942663 -2.847 0
M  V30 8353 H 822.333 -0.526757 -1.47156 0
M  V30 8354 H 823.068 1.62895 -2.80421 0
M  V30 8355 H 822.853 0.243939 -3.9134 0
M  V30 8356 H 824.343 1.23111 -3.99041 0
M  V30 8357 N 824.78 1.49157 -0.508906 0
M  V30 8358 C 826.02 2.04376 0.0310623 0
M  V30 8359 C 826.384 1.37946 1.33547 0
M  V30 8360 O 827.585 1.83931 1.96017 0
M  V30 8361 C 825.856 3.56985 0.172191 0
M  V30 8362 S 827.415 4.33728 0.665267 0
M  V30 8363 H 824.233 0.710997 -0.00199266 0
M  V30 8364 H 826.835 1.83119 -0.684674 0
M  V30 8365 H 825.539 4.02874 -0.78234 0
M  V30 8366 H 825.07 3.82661 0.912933 0
M  V30 8367 H 827.085 4.56992 1.9332 0
M  V30 8368 N 826.258 0.243083 1.55714 0
M  V30 8369 C 827.221 -0.644723 2.19945 0
M  V30 8370 C 828.221 -1.10562 1.16759 0
M  V30 8371 O 829.411 -1.01095 1.41865 0
M  V30 8372 C 826.543 -1.88569 2.83997 0
M  V30 8373 H 827.736 -0.0843839 2.99781 0
M  V30 8374 H 825.289 -0.00647246 1.56299 0
M  V30 8375 H 826.024 -2.48736 2.08089 0
M  V30 8376 H 825.809 -1.56345 3.59581 0
M  V30 8377 H 827.299 -2.51774 3.33166 0
M  V30 8378 N 827.736 -1.57571 -0.0300757 0
M  V30 8379 C 828.699 -2.05468 -1.01565 0
M  V30 8380 C 829.699 -0.958628 -1.29101 0
M  V30 8381 O 830.889 -1.22228 -1.24121 0
M  V30 8382 C 828.021 -2.47077 -2.34874 0
M  V30 8383 H 829.214 -2.93797 -0.601936 0
M  V30 8384 H 826.767 -1.53828 -0.276878 0
M  V30 8385 H 827.502 -1.61901 -2.80996 0
M  V30 8386 H 827.287 -3.27097 -2.16218 0
M  V30 8387 H 828.777 -2.84564 -3.05635 0
M  V30 8388 N 829.214 0.302327 -1.54673 0
M  V30 8389 C 830.439 1.06103 -1.78205 0
M  V30 8390 C 830.864 1.80204 -0.53926 0
M  V30 8391 O 830.222 1.73975 0.510142 0
M  V30 8392 C 830.27 2.01829 -2.98827 0
M  V30 8393 O 829.374 3.10108 -2.71858 0
M  V30 8394 H 828.715 0.30487 -0.589873 0
M  V30 8395 H 831.245 0.340153 -2.01753 0
M  V30 8396 H 831.255 2.44319 -3.2676 0
M  V30 8397 H 829.93 1.473 -3.88942 0
M  V30 8398 H 828.507 2.72142 -2.54937 0
M  V30 8399 O 830.731 1.55155 0.448226 0
M  V30 8400 H 831.422 1.59293 1.10206 0
M  V30 END ATOM
M  V30 BEGIN BOND
M  V30 END BOND
M  V30 END CTAB
M  END
$$$$
