drugbank_target|P23381 Tryptophan--tRNA ligase, cytoplasmic (DB00150; DB01831; DB04537)
 OpenBabel12092119273D

  0  0  0     0  0            999 V3000
M  V30 BEGIN CTAB
M  V30 COUNTS 10219 10872 0 0 0
M  V30 BEGIN ATOM
M  V30 1 H -2.588 8.49073 -0.0679273 0
M  V30 2 O -1.492 9.37262 0.0843559 0
M  V30 3 P 0 8.791 0 0
M  V30 4 O 1.422 9.31096 0.027933 0
M  V30 5 O -0.36 7.77869 -1.04071 0
M  V30 6 O -0.323 8.09533 1.41463 0
M  V30 7 C -0.483 9.0349 2.53943 0
M  V30 8 C 0.057 8.35226 3.79016 0
M  V30 9 O -0.999 7.57992 4.15078 0
M  V30 10 C 1.275 7.45087 3.67298 0
M  V30 11 O 2.013 7.27796 4.85194 0
M  V30 12 C 0.606 6.17323 3.12027 0
M  V30 13 O 1.405 5.04231 3.47188 0
M  V30 14 C -0.731 6.19961 3.81809 0
M  V30 15 H -0.699 5.58218 4.73051 0
M  V30 16 H 0.484 6.21726 2.02589 0
M  V30 17 H 1.968 7.86112 2.9231 0
M  V30 18 H 0.274 9.11627 4.55076 0
M  V30 19 H 0.084 9.9573 2.34194 0
M  V30 20 H -1.546 9.2792 2.67832 0
M  V30 21 H 1.093 4.67702 4.28772 0
M  V30 22 P 2.95057 7.39546 4.75277 0
M  V30 23 O 4.37257 7.81777 5.05738 0
M  V30 24 O 2.59057 7.1065 3.32998 0
M  V30 25 O 2.62757 6.04542 5.56673 0
M  V30 26 C 2.46757 6.22772 7.02095 0
M  V30 27 C 3.00757 4.97725 7.70406 0
M  V30 28 O 1.95157 4.13256 7.58987 0
M  V30 29 C 4.22557 4.28231 7.11815 0
M  V30 30 O 4.96357 3.49945 8.01648 0
M  V30 31 C 3.55657 3.5063 5.96244 0
M  V30 32 O 4.35557 2.36482 5.64681 0
M  V30 33 C 2.21957 3.15122 6.56374 0
M  V30 34 H 2.25157 2.13853 6.99751 0
M  V30 35 H 3.43457 4.13501 5.06559 0
M  V30 36 H 4.91857 5.03285 6.70911 0
M  V30 37 H 3.22457 5.20877 8.75697 0
M  V30 38 H 3.03457 7.11046 7.35349 0
M  V30 39 H 1.40457 6.35815 7.26986 0
M  V30 40 H 4.04357 1.61644 6.13565 0
M  V30 41 P 5.90114 3.65191 7.99657 0
M  V30 42 O 7.32314 3.8425 8.48115 0
M  V30 43 O 5.54114 4.17805 6.64342 0
M  V30 44 O 5.57814 2.07613 7.95143 0
M  V30 45 C 5.41814 1.44328 9.27336 0
M  V30 46 C 5.95814 0.0220036 9.17197 0
M  V30 47 O 4.90214 -0.626867 8.61923 0
M  V30 48 C 7.17614 -0.24586 8.30336 0
M  V30 49 O 7.91414 -1.39011 8.63583 0
M  V30 50 C 6.50714 -0.273849 6.91158 0
M  V30 51 O 7.30614 -1.06348 6.02892 0
M  V30 52 C 5.17014 -0.897649 7.22545 0
M  V30 53 H 5.20214 -1.9841 7.04286 0
M  V30 54 H 6.38514 0.739928 6.497 0
M  V30 55 H 7.86914 0.60668 8.36503 0
M  V30 56 H 6.17514 -0.352479 10.1829 0
M  V30 57 H 5.98514 2.00611 10.0304 0
M  V30 58 H 4.35514 1.41843 9.55327 0
M  V30 59 H 6.99414 -1.95734 6.03555 0
M  V30 60 P 8.85171 -1.25109 8.70152 0
M  V30 61 O 10.2737 -1.35274 9.21221 0
M  V30 62 O 8.49171 -0.0769065 7.84762 0
M  V30 63 O 8.52871 -2.55232 7.81161 0
M  V30 64 C 8.36871 -3.79939 8.58154 0
M  V30 65 C 8.90871 -4.94023 7.72785 0
M  V30 66 O 7.85271 -5.18726 6.91205 0
M  V30 67 C 10.1267 -4.69597 6.85231 0
M  V30 68 O 10.8647 -5.83832 6.51337 0
M  V30 69 C 9.45771 -3.96706 5.66633 0
M  V30 70 O 10.2567 -4.15414 4.49689 0
M  V30 71 C 8.12071 -4.66153 5.59313 0
M  V30 72 H 8.15271 -5.47679 4.85214 0
M  V30 73 H 9.33571 -2.89008 5.86566 0
M  V30 74 H 10.8197 -4.0121 7.36511 0
M  V30 75 H 9.12571 -5.80182 8.37584 0
M  V30 76 H 8.93571 -3.73517 9.52265 0
M  V30 77 H 7.30571 -3.97163 8.80359 0
M  V30 78 H 9.94471 -4.90969 4.01921 0
M  V30 79 P 11.8023 -5.75688 6.64379 0
M  V30 80 O 13.2243 -6.11849 7.01846 0
M  V30 81 O 11.4423 -4.30744 6.56026 0
M  V30 82 O 11.4793 -6.37042 5.19165 0
M  V30 83 C 11.3193 -7.83578 5.16515 0
M  V30 84 C 11.8593 -8.33398 3.83019 0
M  V30 85 O 10.8033 -8.10074 3.01034 0
M  V30 86 C 13.0773 -7.65514 3.2257 0
M  V30 87 O 13.8153 -8.4329 2.32297 0
M  V30 88 C 12.4083 -6.40075 2.62207 0
M  V30 89 O 13.2073 -5.92589 1.53712 0
M  V30 90 C 11.0713 -6.9454 2.18503 0
M  V30 91 H 11.1033 -7.23063 1.12091 0
M  V30 92 H 12.2863 -5.6025 3.37201 0
M  V30 93 H 13.7703 -7.35707 4.02681 0
M  V30 94 H 12.0763 -9.40912 3.9095 0
M  V30 95 H 11.8863 -8.29056 5.99158 0
M  V30 96 H 10.2563 -8.10073 5.25882 0
M  V30 97 H 12.8953 -6.30324 0.726794 0
M  V30 98 P 14.7528 -8.4349 2.47671 0
M  V30 99 O 16.1748 -8.94167 2.5964 0
M  V30 100 O 14.3928 -7.1704 3.19006 0
M  V30 101 O 14.4298 -8.16596 0.923387 0
M  V30 102 C 14.2698 -9.38437 0.108857 0
M  V30 103 C 14.8098 -9.08175 -1.28353 0
M  V30 104 O 13.7538 -8.44229 -1.84713 0
M  V30 105 C 16.0278 -8.18386 -1.42505 0
M  V30 106 O 16.7659 -8.3501 -2.60497 0
M  V30 107 C 15.3588 -6.80225 -1.25468 0
M  V30 108 O 16.1578 -5.81621 -1.91066 0
M  V30 109 C 14.0218 -7.02416 -1.9168 0
M  V30 110 H 14.0538 -6.6888 -2.96621 0
M  V30 111 H 15.2368 -6.53617 -0.192223 0
M  V30 112 H 16.7208 -8.36622 -0.589963 0
M  V30 113 H 15.0268 -10.0291 -1.79807 0
M  V30 114 H 14.8368 -10.2138 0.558219 0
M  V30 115 H 13.2068 -9.6579 0.0444202 0
M  V30 116 H 15.8458 -5.69556 -2.79637 0
M  V30 117 P 17.7034 -8.4349 -2.47671 0
M  V30 118 O 19.1244 -8.92689 -2.65029 0
M  V30 119 O 17.3434 -7.7568 -1.19296 0
M  V30 120 O 17.3804 -7.36886 -3.63805 0
M  V30 121 C 17.2194 -7.95433 -4.98253 0
M  V30 122 C 17.7604 -6.94612 -5.98974 0
M  V30 123 O 16.7054 -6.10277 -6.11744 0
M  V30 124 C 18.9784 -6.11426 -5.62335 0
M  V30 125 O 19.7164 -5.6162 -6.70584 0
M  V30 126 C 18.3104 -5.04409 -4.73308 0
M  V30 127 O 19.1084 -3.86404 -4.74719 0
M  V30 128 C 16.9724 -4.8728 -5.41006 0
M  V30 129 N 15.9294 -4.65812 -4.42377 0
M  V30 130 C 16.0984 -5.09132 -3.15382 0
M  V30 131 N 15.0714 -4.84021 -2.3716 0
M  V30 132 C 14.1864 -4.18386 -3.20441 0
M  V30 133 C 12.9194 -3.6275 -2.94905 0
M  V30 134 N 12.3204 -3.65794 -1.73372 0
M  V30 135 N 12.3544 -3.05008 -4.05243 0
M  V30 136 C 12.9564 -2.98348 -5.28159 0
M  V30 137 N 14.1334 -3.48171 -5.56333 0
M  V30 138 C 14.7084 -4.06869 -4.47212 0
M  V30 139 H 17.0044 -4.02278 -6.11074 0
M  V30 140 H 18.1874 -5.39013 -3.70026 0
M  V30 141 H 19.6704 -6.71916 -5.01943 0
M  V30 142 H 17.9764 -7.45796 -6.94223 0
M  V30 143 H 17.7864 -8.89416 -5.05237 0
M  V30 144 H 16.1564 -8.14876 -5.18409 0
M  V30 145 H 12.4204 -2.47853 -6.07807 0
M  V30 146 H 16.9984 -5.59989 -2.81362 0
M  V30 147 H 11.3904 -3.23218 -1.60782 0
M  V30 148 H 12.7944 -4.10523 -0.937856 0
M  V30 149 H 18.7964 -3.27906 -5.43085 0
M  V30 150 P 20.654 -5.75688 -6.64379 0
M  V30 151 O 22.076 -6.07627 -7.05504 0
M  V30 152 O 20.294 -5.88047 -5.19722 0
M  V30 153 O 20.331 -4.2322 -7.04443 0
M  V30 154 C 20.171 -3.99743 -8.4911 0
M  V30 155 C 20.711 -2.60516 -8.79425 0
M  V30 156 O 19.655 -1.82684 -8.4467 0
M  V30 157 C 21.929 -2.10343 -8.03628 0
M  V30 158 O 22.667 -1.09919 -8.67766 0
M  V30 159 C 21.26 -1.68446 -6.70876 0
M  V30 160 O 22.059 -0.678137 -6.08433 0
M  V30 161 C 19.923 -1.17436 -7.18567 0
M  V30 162 H 19.955 -0.0804732 -7.31656 0
M  V30 163 H 21.138 -2.54037 -6.02537 0
M  V30 164 H 22.622 -2.93881 -7.85526 0
M  V30 165 H 20.928 -2.53065 -9.86973 0
M  V30 166 H 20.738 -4.75072 -9.05887 0
M  V30 167 H 19.108 -4.05244 -8.76668 0
M  V30 168 H 21.747 0.177647 -6.34251 0
M  V30 169 P 23.6046 -1.25109 -8.70152 0
M  V30 170 O 25.0266 -1.29744 -9.22016 0
M  V30 171 O 23.2446 -2.13714 -7.55141 0
M  V30 172 O 23.2816 0.248149 -8.21425 0
M  V30 173 C 23.1216 1.22779 -9.30434 0
M  V30 174 C 23.6616 2.56293 -8.80664 0
M  V30 175 O 22.6056 3.02979 -8.09349 0
M  V30 176 C 24.8796 2.57523 -7.89775 0
M  V30 177 O 25.6176 3.7668 -7.89438 0
M  V30 178 C 24.2106 2.20997 -6.55446 0
M  V30 179 O 25.0096 2.71895 -5.48509 0
M  V30 180 C 22.8736 2.89693 -6.67988 0
M  V30 181 H 22.9056 3.88793 -6.19859 0
M  V30 182 H 24.0886 1.12046 -6.44229 0
M  V30 183 H 25.5726 1.7746 -8.19711 0
M  V30 184 H 23.8786 3.20706 -9.67112 0
M  V30 185 H 23.6886 0.901032 -10.1892 0
M  V30 186 H 22.0586 1.33049 -9.56592 0
M  V30 187 H 24.6976 3.57847 -5.23962 0
M  V30 188 P 26.5551 3.65191 -7.99657 0
M  V30 189 O 27.9771 3.89332 -8.45794 0
M  V30 190 O 26.1951 2.28472 -7.50807 0
M  V30 191 O 26.2321 4.64972 -6.77611 0
M  V30 192 C 26.0721 6.06319 -7.16352 0
M  V30 193 C 26.6121 6.91731 -6.02299 0
M  V30 194 O 25.5561 6.92449 -5.17064 0
M  V30 195 C 27.8301 6.43627 -5.25174 0
M  V30 196 O 28.5681 7.43686 -4.60469 0
M  V30 197 C 27.1611 5.40275 -4.31916 0
M  V30 198 O 27.9601 5.25279 -3.14438 0
M  V30 199 C 25.8241 6.04847 -4.05327 0
M  V30 200 H 25.8561 6.62195 -3.11261 0
M  V30 201 H 27.0391 4.42556 -4.81383 0
M  V30 202 H 28.5231 5.92458 -5.93643 0
M  V30 203 H 26.8291 7.92655 -6.402 0
M  V30 204 H 26.6391 6.26671 -8.0846 0
M  V30 205 H 25.0091 6.29101 -7.32804 0
M  V30 206 H 27.6481 5.84315 -2.47318 0
M  V30 207 P 29.5057 7.39546 -4.75277 0
M  V30 208 O 30.9277 7.84798 -5.01039 0
M  V30 209 O 29.1457 5.9812 -5.08098 0
M  V30 210 O 29.1827 7.57503 -3.1866 0
M  V30 211 C 29.0227 8.97357 -2.74833 0
M  V30 212 C 29.5627 9.07548 -1.32709 0
M  V30 213 O 28.5067 8.62072 -0.606159 0
M  V30 214 C 30.7807 8.25383 -0.938334 0
M  V30 215 O 31.5187 8.74577 0.146954 0
M  V30 216 C 30.1117 6.8802 -0.712559 0
M  V30 217 O 30.9107 6.1189 0.194655 0
M  V30 218 C 28.7747 7.27966 -0.139777 0
M  V30 219 H 28.8067 7.25354 0.961601 0
M  V30 220 H 29.9897 6.32557 -1.65702 0
M  V30 221 H 31.4737 8.19355 -1.79097 0
M  V30 222 H 29.7797 10.1294 -1.10029 0
M  V30 223 H 29.5897 9.64276 -3.41316 0
M  V30 224 H 27.9597 9.25417 -2.76357 0
M  V30 225 H 30.5987 6.25267 1.07847 0
M  V30 226 P 32.4563 8.791 -9.96115e-15 0
M  V30 227 O 33.8783 9.31096 0.027933 0
M  V30 228 O 32.0963 7.77869 -1.04071 0
M  V30 229 O 32.1333 8.09533 1.41463 0
M  V30 230 C 31.9733 9.0349 2.53943 0
M  V30 231 C 32.5133 8.35226 3.79016 0
M  V30 232 O 31.4573 7.57992 4.15078 0
M  V30 233 C 33.7313 7.45087 3.67298 0
M  V30 234 O 34.4693 7.27796 4.85194 0
M  V30 235 C 33.0623 6.17323 3.12027 0
M  V30 236 O 33.8613 5.04231 3.47188 0
M  V30 237 C 31.7253 6.19961 3.81809 0
M  V30 238 H 31.7573 5.58218 4.73051 0
M  V30 239 H 32.9403 6.21726 2.02589 0
M  V30 240 H 34.4243 7.86112 2.9231 0
M  V30 241 H 32.7303 9.11627 4.55076 0
M  V30 242 H 32.5403 9.9573 2.34194 0
M  V30 243 H 30.9103 9.2792 2.67832 0
M  V30 244 H 33.5493 4.67702 4.28772 0
M  V30 245 P 35.4068 7.39546 4.75277 0
M  V30 246 O 36.8288 7.81777 5.05738 0
M  V30 247 O 35.0468 7.1065 3.32998 0
M  V30 248 O 35.0838 6.04542 5.56673 0
M  V30 249 C 34.9238 6.22772 7.02095 0
M  V30 250 C 35.4638 4.97725 7.70406 0
M  V30 251 O 34.4078 4.13256 7.58987 0
M  V30 252 C 36.6818 4.28231 7.11815 0
M  V30 253 O 37.4198 3.49945 8.01648 0
M  V30 254 C 36.0128 3.5063 5.96244 0
M  V30 255 O 36.8118 2.36482 5.64681 0
M  V30 256 C 34.6758 3.15122 6.56374 0
M  V30 257 H 34.7078 2.13853 6.99751 0
M  V30 258 H 35.8908 4.13501 5.06559 0
M  V30 259 H 37.3748 5.03285 6.70911 0
M  V30 260 H 35.6808 5.20877 8.75697 0
M  V30 261 H 35.4908 7.11046 7.35349 0
M  V30 262 H 33.8608 6.35815 7.26986 0
M  V30 263 H 36.4998 1.61644 6.13565 0
M  V30 264 P 38.3574 3.65191 7.99657 0
M  V30 265 O 39.7794 3.8425 8.48115 0
M  V30 266 O 37.9974 4.17805 6.64342 0
M  V30 267 O 38.0344 2.07613 7.95143 0
M  V30 268 C 37.8744 1.44328 9.27336 0
M  V30 269 C 38.4144 0.0220036 9.17197 0
M  V30 270 O 37.3584 -0.626867 8.61923 0
M  V30 271 C 39.6324 -0.24586 8.30336 0
M  V30 272 O 40.3704 -1.39011 8.63583 0
M  V30 273 C 38.9634 -0.273849 6.91158 0
M  V30 274 O 39.7624 -1.06348 6.02892 0
M  V30 275 C 37.6264 -0.897649 7.22545 0
M  V30 276 H 37.6584 -1.9841 7.04286 0
M  V30 277 H 38.8414 0.739928 6.497 0
M  V30 278 H 40.3254 0.60668 8.36503 0
M  V30 279 H 38.6314 -0.352479 10.1829 0
M  V30 280 H 38.4414 2.00611 10.0304 0
M  V30 281 H 36.8114 1.41843 9.55327 0
M  V30 282 H 39.4504 -1.95734 6.03555 0
M  V30 283 P 41.308 -1.25109 8.70152 0
M  V30 284 O 42.73 -1.35274 9.21221 0
M  V30 285 O 40.948 -0.0769065 7.84762 0
M  V30 286 O 40.985 -2.55232 7.81161 0
M  V30 287 C 40.825 -3.79939 8.58154 0
M  V30 288 C 41.365 -4.94023 7.72785 0
M  V30 289 O 40.309 -5.18726 6.91205 0
M  V30 290 C 42.583 -4.69597 6.85231 0
M  V30 291 O 43.321 -5.83832 6.51337 0
M  V30 292 C 41.914 -3.96706 5.66633 0
M  V30 293 O 42.713 -4.15414 4.49689 0
M  V30 294 C 40.577 -4.66153 5.59313 0
M  V30 295 H 40.609 -5.47679 4.85214 0
M  V30 296 H 41.792 -2.89008 5.86566 0
M  V30 297 H 43.276 -4.0121 7.36511 0
M  V30 298 H 41.582 -5.80182 8.37584 0
M  V30 299 H 41.392 -3.73517 9.52265 0
M  V30 300 H 39.762 -3.97163 8.80359 0
M  V30 301 H 42.401 -4.90969 4.01921 0
M  V30 302 P 44.2585 -5.75688 6.64379 0
M  V30 303 O 45.6805 -6.11849 7.01846 0
M  V30 304 O 43.8985 -4.30744 6.56026 0
M  V30 305 O 43.9355 -6.37042 5.19165 0
M  V30 306 C 43.7755 -7.83578 5.16515 0
M  V30 307 C 44.3155 -8.33398 3.83019 0
M  V30 308 O 43.2595 -8.10074 3.01034 0
M  V30 309 C 45.5335 -7.65514 3.2257 0
M  V30 310 O 46.2715 -8.4329 2.32297 0
M  V30 311 C 44.8645 -6.40075 2.62207 0
M  V30 312 O 45.6635 -5.92589 1.53712 0
M  V30 313 C 43.5275 -6.9454 2.18503 0
M  V30 314 H 43.5595 -7.23063 1.12091 0
M  V30 315 H 44.7425 -5.6025 3.37201 0
M  V30 316 H 46.2265 -7.35707 4.02681 0
M  V30 317 H 44.5325 -9.40912 3.9095 0
M  V30 318 H 44.3425 -8.29056 5.99158 0
M  V30 319 H 42.7125 -8.10073 5.25882 0
M  V30 320 H 45.3515 -6.30324 0.726794 0
M  V30 321 P 47.2091 -8.4349 2.47671 0
M  V30 322 O 48.6301 -8.94263 2.59668 0
M  V30 323 O 46.8491 -7.1704 3.19006 0
M  V30 324 O 46.8861 -8.16596 0.923387 0
M  V30 325 C 46.7251 -9.38537 0.108869 0
M  V30 326 C 47.2661 -9.08175 -1.28353 0
M  V30 327 O 46.2111 -8.44131 -1.84692 0
M  V30 328 C 48.4841 -8.18386 -1.42505 0
M  V30 329 O 49.2221 -8.3501 -2.60497 0
M  V30 330 C 47.8161 -6.80225 -1.25468 0
M  V30 331 O 48.6141 -5.81716 -1.90454 0
M  V30 332 C 46.4781 -7.02416 -1.9168 0
M  V30 333 N 45.4351 -6.31033 -1.20314 0
M  V30 334 C 45.6041 -5.98817 0.0994088 0
M  V30 335 N 44.5771 -5.35403 0.621694 0
M  V30 336 C 43.6921 -5.25212 -0.43376 0
M  V30 337 C 42.4251 -4.64602 -0.519722 0
M  V30 338 N 41.8261 -4.01457 0.519136 0
M  V30 339 N 41.8601 -4.7568 -1.76013 0
M  V30 340 C 42.4621 -5.3653 -2.83017 0
M  V30 341 N 43.6391 -5.93676 -2.79782 0
M  V30 342 C 44.2141 -5.84061 -1.56249 0
M  V30 343 H 46.5101 -6.68789 -2.9658 0
M  V30 344 H 47.6931 -6.53498 -0.198729 0
M  V30 345 H 49.1761 -8.36622 -0.589963 0
M  V30 346 H 47.4821 -10.0273 -1.8081 0
M  V30 347 H 47.2921 -10.2138 0.558219 0
M  V30 348 H 45.6621 -9.6579 0.0444202 0
M  V30 349 H 41.9261 -5.37113 -3.77321 0
M  V30 350 H 46.5041 -6.23209 0.660562 0
M  V30 351 H 40.8961 -3.58834 0.394862 0
M  V30 352 H 42.3001 -3.96059 1.43048 0
M  V30 353 H 48.3021 -5.69466 -2.79593 0
M  V30 354 P 50.1597 -8.4349 -2.47671 0
M  V30 355 O 51.5817 -8.92593 -2.65 0
M  V30 356 O 49.7997 -7.7568 -1.19296 0
M  V30 357 O 49.8367 -7.36886 -3.63805 0
M  V30 358 C 49.6767 -7.95349 -4.982 0
M  V30 359 C 50.2167 -6.94612 -5.98974 0
M  V30 360 O 49.1607 -6.10347 -6.11815 0
M  V30 361 C 51.4347 -6.11426 -5.62335 0
M  V30 362 O 52.1727 -5.6162 -6.70584 0
M  V30 363 C 50.7657 -5.04409 -4.73308 0
M  V30 364 O 51.5647 -3.85992 -4.75183 0
M  V30 365 C 49.4287 -4.8728 -5.41006 0
M  V30 366 H 49.4607 -4.02333 -6.11157 0
M  V30 367 H 50.6437 -5.39466 -3.69543 0
M  V30 368 H 52.1277 -6.71916 -5.01943 0
M  V30 369 H 50.4337 -7.4649 -6.93477 0
M  V30 370 H 50.2437 -8.89416 -5.05237 0
M  V30 371 H 48.6137 -8.14876 -5.18409 0
M  V30 372 H 51.2527 -3.27957 -5.4317 0
M  V30 373 P 53.1103 -5.75688 -6.64379 0
M  V30 374 O 54.5323 -6.07627 -7.05504 0
M  V30 375 O 52.7503 -5.88047 -5.19722 0
M  V30 376 O 52.7873 -4.2322 -7.04443 0
M  V30 377 C 52.6273 -3.99743 -8.4911 0
M  V30 378 C 53.1673 -2.60516 -8.79425 0
M  V30 379 O 52.1113 -1.82684 -8.4467 0
M  V30 380 C 54.3853 -2.10343 -8.03628 0
M  V30 381 O 55.1233 -1.09919 -8.67766 0
M  V30 382 C 53.7163 -1.68446 -6.70876 0
M  V30 383 O 54.5153 -0.678137 -6.08433 0
M  V30 384 C 52.3793 -1.17436 -7.18567 0
M  V30 385 H 52.4113 -0.0804732 -7.31656 0
M  V30 386 H 53.5943 -2.54037 -6.02537 0
M  V30 387 H 55.0783 -2.93881 -7.85526 0
M  V30 388 H 53.3843 -2.53065 -9.86973 0
M  V30 389 H 53.1943 -4.75072 -9.05887 0
M  V30 390 H 51.5643 -4.05244 -8.76668 0
M  V30 391 H 54.2033 0.177647 -6.34251 0
M  V30 392 P 56.0608 -1.25109 -8.70152 0
M  V30 393 O 57.4828 -1.29772 -9.22214 0
M  V30 394 O 55.7008 -2.13714 -7.55141 0
M  V30 395 O 55.7378 0.248149 -8.21425 0
M  V30 396 C 55.5778 1.22779 -9.30434 0
M  V30 397 C 56.1178 2.56265 -8.80568 0
M  V30 398 O 55.0628 3.02979 -8.09349 0
M  V30 399 C 57.3358 2.57523 -7.89775 0
M  V30 400 O 58.0738 3.7668 -7.89438 0
M  V30 401 C 56.6678 2.20997 -6.55446 0
M  V30 402 O 57.4658 2.71851 -5.48419 0
M  V30 403 C 55.3298 2.89693 -6.67988 0
M  V30 404 N 54.2868 2.08895 -6.07487 0
M  V30 405 C 54.3488 0.760559 -6.14209 0
M  V30 406 N 53.3038 0.200108 -5.52538 0
M  V30 407 C 52.5698 1.22692 -5.09742 0
M  V30 408 C 51.2638 1.24782 -4.48775 0
M  V30 409 O 50.5308 0.290617 -4.19294 0
M  V30 410 N 50.8338 2.50468 -4.22428 0
M  V30 411 C 51.5828 3.67142 -4.51974 0
M  V30 412 N 50.9858 4.85096 -4.14091 0
M  V30 413 N 52.7358 3.67821 -5.12831 0
M  V30 414 C 53.1928 2.43698 -5.4105 0
M  V30 415 H 55.3618 3.88793 -6.19859 0
M  V30 416 H 56.5448 1.12029 -6.4413 0
M  V30 417 H 58.0298 1.78279 -8.19533 0
M  V30 418 H 56.3348 3.20706 -9.67112 0
M  V30 419 H 56.1448 0.901032 -10.1892 0
M  V30 420 H 54.5138 1.33049 -9.56592 0
M  V30 421 H 49.9378 2.61953 -3.79465 0
M  V30 422 H 55.1448 0.200439 -6.63497 0
M  V30 423 H 50.0748 4.8334 -3.66367 0
M  V30 424 H 51.4508 5.7474 -4.33841 0
M  V30 425 H 57.1548 3.5779 -5.23879 0
M  V30 426 P 59.0114 3.65191 -7.99657 0
M  V30 427 O 60.4334 3.89332 -8.45794 0
M  V30 428 O 58.6514 2.28472 -7.50807 0
M  V30 429 O 58.6884 4.64972 -6.77611 0
M  V30 430 C 58.5284 6.06319 -7.16352 0
M  V30 431 C 59.0684 6.91731 -6.02299 0
M  V30 432 O 58.0124 6.92449 -5.17064 0
M  V30 433 C 60.2864 6.43627 -5.25174 0
M  V30 434 O 61.0244 7.43686 -4.60469 0
M  V30 435 C 59.6174 5.40275 -4.31916 0
M  V30 436 O 60.4164 5.25279 -3.14438 0
M  V30 437 C 58.2804 6.04847 -4.05327 0
M  V30 438 H 58.3124 6.62195 -3.11261 0
M  V30 439 H 59.4954 4.42556 -4.81383 0
M  V30 440 H 60.9794 5.92458 -5.93643 0
M  V30 441 H 59.2854 7.92655 -6.402 0
M  V30 442 H 59.0954 6.26671 -8.0846 0
M  V30 443 H 57.4654 6.29101 -7.32804 0
M  V30 444 H 60.1044 5.84315 -2.47318 0
M  V30 445 P 61.962 7.39546 -4.75277 0
M  V30 446 O 63.384 7.84798 -5.01039 0
M  V30 447 O 61.602 5.9812 -5.08098 0
M  V30 448 O 61.639 7.57503 -3.1866 0
M  V30 449 C 61.479 8.97357 -2.74833 0
M  V30 450 C 62.019 9.07548 -1.32709 0
M  V30 451 O 60.963 8.62072 -0.606159 0
M  V30 452 C 63.237 8.25383 -0.938334 0
M  V30 453 O 63.975 8.74577 0.146954 0
M  V30 454 C 62.568 6.8802 -0.712559 0
M  V30 455 O 63.367 6.1189 0.194655 0
M  V30 456 C 61.231 7.27966 -0.139777 0
M  V30 457 H 61.263 7.25354 0.961601 0
M  V30 458 H 62.446 6.32557 -1.65702 0
M  V30 459 H 63.93 8.19355 -1.79097 0
M  V30 460 H 62.236 10.1294 -1.10029 0
M  V30 461 H 62.046 9.64276 -3.41316 0
M  V30 462 H 60.416 9.25417 -2.76357 0
M  V30 463 H 63.055 6.25267 1.07847 0
M  V30 464 P 64.9125 8.791 -3.55383e-14 0
M  V30 465 O 66.3345 9.31096 0.027933 0
M  V30 466 O 64.5525 7.77869 -1.04071 0
M  V30 467 O 64.5895 8.09533 1.41463 0
M  V30 468 C 64.4295 9.0349 2.53943 0
M  V30 469 C 64.9695 8.35226 3.79016 0
M  V30 470 O 63.9135 7.57992 4.15078 0
M  V30 471 C 66.1875 7.45087 3.67298 0
M  V30 472 O 66.9255 7.27796 4.85194 0
M  V30 473 C 65.5185 6.17323 3.12027 0
M  V30 474 O 66.3175 5.04231 3.47188 0
M  V30 475 C 64.1815 6.19961 3.81809 0
M  V30 476 H 64.2135 5.58218 4.73051 0
M  V30 477 H 65.3965 6.21726 2.02589 0
M  V30 478 H 66.8805 7.86112 2.9231 0
M  V30 479 H 65.1865 9.11627 4.55076 0
M  V30 480 H 64.9965 9.9573 2.34194 0
M  V30 481 H 63.3665 9.2792 2.67832 0
M  V30 482 H 66.0055 4.67702 4.28772 0
M  V30 483 P 67.8631 7.39546 4.75277 0
M  V30 484 O 69.2841 7.81861 5.05793 0
M  V30 485 O 67.5031 7.1065 3.32998 0
M  V30 486 O 67.5401 6.04542 5.56673 0
M  V30 487 C 67.3791 6.22839 7.02169 0
M  V30 488 C 67.9201 4.97725 7.70406 0
M  V30 489 O 66.8651 4.13208 7.58899 0
M  V30 490 C 69.1381 4.28231 7.11815 0
M  V30 491 O 69.8761 3.49945 8.01648 0
M  V30 492 C 68.4701 3.5063 5.96244 0
M  V30 493 O 69.2681 2.37008 5.64352 0
M  V30 494 C 67.1321 3.15122 6.56374 0
M  V30 495 N 66.0891 3.22311 5.55692 0
M  V30 496 C 66.2581 3.99655 4.46046 0
M  V30 497 N 65.2311 3.97599 3.63918 0
M  V30 498 C 64.3461 3.11159 4.25334 0
M  V30 499 C 63.0791 2.64972 3.85157 0
M  V30 500 N 62.5141 1.78482 4.74759 0
M  V30 501 C 63.1161 1.37463 5.90819 0
M  V30 502 N 64.2931 1.7733 6.31889 0
M  V30 503 C 64.8681 2.64393 5.43725 0
M  V30 504 H 68.3471 4.12931 5.06895 0
M  V30 505 H 69.8301 5.03285 6.70911 0
M  V30 506 H 68.1361 5.20001 8.76217 0
M  V30 507 H 67.9461 7.11046 7.35349 0
M  V30 508 H 66.3161 6.35815 7.26986 0
M  V30 509 H 67.1581 4.58037 4.27732 0
M  V30 510 H 68.9561 1.61619 6.13468 0
M  V30 511 P 70.8137 3.65191 7.99657 0
M  V30 512 O 72.2357 3.8425 8.48115 0
M  V30 513 O 70.4537 4.17805 6.64342 0
M  V30 514 O 70.4907 2.07613 7.95143 0
M  V30 515 C 70.3307 1.44328 9.27336 0
M  V30 516 C 70.8707 0.0220036 9.17197 0
M  V30 517 O 69.8147 -0.626867 8.61923 0
M  V30 518 C 72.0887 -0.24586 8.30336 0
M  V30 519 O 72.8267 -1.39011 8.63583 0
M  V30 520 C 71.4197 -0.273849 6.91158 0
M  V30 521 O 72.2187 -1.06348 6.02892 0
M  V30 522 C 70.0827 -0.897649 7.22545 0
M  V30 523 H 70.1147 -1.9841 7.04286 0
M  V30 524 H 71.2977 0.739928 6.497 0
M  V30 525 H 72.7817 0.60668 8.36503 0
M  V30 526 H 71.0877 -0.352479 10.1829 0
M  V30 527 H 70.8977 2.00611 10.0304 0
M  V30 528 H 69.2677 1.41843 9.55327 0
M  V30 529 H 71.9067 -1.95734 6.03555 0
M  V30 530 P 73.7642 -1.25109 8.70152 0
M  V30 531 O 75.1862 -1.35274 9.21221 0
M  V30 532 O 73.4042 -0.0769065 7.84762 0
M  V30 533 O 73.4412 -2.55232 7.81161 0
M  V30 534 C 73.2812 -3.79939 8.58154 0
M  V30 535 C 73.8212 -4.94023 7.72785 0
M  V30 536 O 72.7652 -5.18726 6.91205 0
M  V30 537 C 75.0392 -4.69597 6.85231 0
M  V30 538 O 75.7772 -5.83832 6.51337 0
M  V30 539 C 74.3702 -3.96706 5.66633 0
M  V30 540 O 75.1692 -4.15414 4.49689 0
M  V30 541 C 73.0332 -4.66153 5.59313 0
M  V30 542 H 73.0652 -5.47679 4.85214 0
M  V30 543 H 74.2482 -2.89008 5.86566 0
M  V30 544 H 75.7322 -4.0121 7.36511 0
M  V30 545 H 74.0382 -5.80182 8.37584 0
M  V30 546 H 73.8482 -3.73517 9.52265 0
M  V30 547 H 72.2182 -3.97163 8.80359 0
M  V30 548 H 74.8572 -4.90969 4.01921 0
M  V30 549 P 76.7148 -5.75688 6.64379 0
M  V30 550 O 78.1368 -6.11849 7.01846 0
M  V30 551 O 76.3548 -4.30744 6.56026 0
M  V30 552 O 76.3918 -6.37042 5.19165 0
M  V30 553 C 76.2318 -7.83578 5.16515 0
M  V30 554 C 76.7718 -8.33398 3.83019 0
M  V30 555 O 75.7158 -8.10074 3.01034 0
M  V30 556 C 77.9898 -7.65514 3.2257 0
M  V30 557 O 78.7278 -8.4329 2.32297 0
M  V30 558 C 77.3208 -6.40075 2.62207 0
M  V30 559 O 78.1198 -5.92589 1.53712 0
M  V30 560 C 75.9838 -6.9454 2.18503 0
M  V30 561 H 76.0158 -7.23063 1.12091 0
M  V30 562 H 77.1988 -5.6025 3.37201 0
M  V30 563 H 78.6828 -7.35707 4.02681 0
M  V30 564 H 76.9888 -9.40912 3.9095 0
M  V30 565 H 76.7988 -8.29056 5.99158 0
M  V30 566 H 75.1688 -8.10073 5.25882 0
M  V30 567 H 77.8078 -6.30324 0.726794 0
M  V30 568 P 79.6654 -8.4349 2.47671 0
M  V30 569 O 81.0864 -8.94263 2.59668 0
M  V30 570 O 79.3054 -7.1704 3.19006 0
M  V30 571 O 79.3424 -8.16596 0.923387 0
M  V30 572 C 79.1814 -9.38537 0.108869 0
M  V30 573 C 79.7224 -9.08175 -1.28353 0
M  V30 574 O 78.6674 -8.44131 -1.84692 0
M  V30 575 C 80.9404 -8.18386 -1.42505 0
M  V30 576 O 81.6784 -8.3501 -2.60497 0
M  V30 577 C 80.2724 -6.80225 -1.25468 0
M  V30 578 O 81.0704 -5.81716 -1.90454 0
M  V30 579 C 78.9344 -7.02416 -1.9168 0
M  V30 580 N 77.8914 -6.31033 -1.20314 0
M  V30 581 C 78.0604 -5.98817 0.0994088 0
M  V30 582 N 77.0334 -5.35403 0.621694 0
M  V30 583 C 76.1484 -5.25212 -0.43376 0
M  V30 584 C 74.8814 -4.64602 -0.519722 0
M  V30 585 N 74.2824 -4.01457 0.519136 0
M  V30 586 N 74.3164 -4.7568 -1.76013 0
M  V30 587 C 74.9184 -5.3653 -2.83017 0
M  V30 588 N 76.0954 -5.93676 -2.79782 0
M  V30 589 C 76.6704 -5.84061 -1.56249 0
M  V30 590 H 78.9664 -6.68789 -2.9658 0
M  V30 591 H 80.1494 -6.53498 -0.198729 0
M  V30 592 H 81.6324 -8.36622 -0.589963 0
M  V30 593 H 79.9384 -10.0273 -1.8081 0
M  V30 594 H 79.7484 -10.2138 0.558219 0
M  V30 595 H 78.1184 -9.6579 0.0444202 0
M  V30 596 H 74.3824 -5.37113 -3.77321 0
M  V30 597 H 78.9604 -6.23209 0.660562 0
M  V30 598 H 73.3524 -3.58834 0.394862 0
M  V30 599 H 74.7564 -3.96059 1.43048 0
M  V30 600 H 80.7584 -5.69466 -2.79593 0
M  V30 601 P 82.616 -8.4349 -2.47671 0
M  V30 602 O 84.038 -8.92785 -2.65057 0
M  V30 603 O 82.256 -7.7568 -1.19296 0
M  V30 604 O 82.293 -7.36886 -3.63805 0
M  V30 605 C 82.133 -7.95349 -4.982 0
M  V30 606 C 82.673 -6.94537 -5.98908 0
M  V30 607 O 81.618 -6.10347 -6.11815 0
M  V30 608 C 83.891 -6.11426 -5.62335 0
M  V30 609 O 84.629 -5.6162 -6.70584 0
M  V30 610 C 83.223 -5.04409 -4.73308 0
M  V30 611 O 84.021 -3.85929 -4.75106 0
M  V30 612 C 81.885 -4.8728 -5.41006 0
M  V30 613 N 80.842 -4.65812 -4.42377 0
M  V30 614 C 80.904 -5.27109 -3.24335 0
M  V30 615 N 79.859 -4.94293 -2.47735 0
M  V30 616 C 79.125 -4.1271 -3.23359 0
M  V30 617 C 77.819 -3.56384 -2.99934 0
M  V30 618 O 77.086 -3.69331 -2.00616 0
M  V30 619 N 77.389 -2.80206 -4.03316 0
M  V30 620 C 78.138 -2.58614 -5.2172 0
M  V30 621 N 77.541 -1.75154 -6.13278 0
M  V30 622 N 79.291 -3.13689 -5.47619 0
M  V30 623 C 79.748 -3.90921 -4.46436 0
M  V30 624 H 81.917 -4.02333 -6.11157 0
M  V30 625 H 83.1 -5.39383 -3.69487 0
M  V30 626 H 84.585 -6.71414 -5.02615 0
M  V30 627 H 82.89 -7.4649 -6.93477 0
M  V30 628 H 82.7 -8.89416 -5.05237 0
M  V30 629 H 81.069 -8.14876 -5.18409 0
M  V30 630 H 76.493 -2.36355 -3.95916 0
M  V30 631 H 81.7 -5.95212 -2.93859 0
M  V30 632 H 76.63 -1.32473 -5.91856 0
M  V30 633 H 78.006 -1.5588 -7.03026 0
M  V30 634 H 83.71 -3.27906 -5.43085 0
M  V30 635 P 85.5665 -5.75688 -6.64379 0
M  V30 636 O 86.9885 -6.07627 -7.05504 0
M  V30 637 O 85.2065 -5.88047 -5.19722 0
M  V30 638 O 85.2435 -4.2322 -7.04443 0
M  V30 639 C 85.0835 -3.99743 -8.4911 0
M  V30 640 C 85.6235 -2.60516 -8.79425 0
M  V30 641 O 84.5675 -1.82684 -8.4467 0
M  V30 642 C 86.8415 -2.10343 -8.03628 0
M  V30 643 O 87.5795 -1.09919 -8.67766 0
M  V30 644 C 86.1725 -1.68446 -6.70876 0
M  V30 645 O 86.9715 -0.678137 -6.08433 0
M  V30 646 C 84.8355 -1.17436 -7.18567 0
M  V30 647 H 84.8675 -0.0804732 -7.31656 0
M  V30 648 H 86.0505 -2.54037 -6.02537 0
M  V30 649 H 87.5345 -2.93881 -7.85526 0
M  V30 650 H 85.8405 -2.53065 -9.86973 0
M  V30 651 H 85.6505 -4.75072 -9.05887 0
M  V30 652 H 84.0205 -4.05244 -8.76668 0
M  V30 653 H 86.6595 0.177647 -6.34251 0
M  V30 654 P 88.5171 -1.25109 -8.70152 0
M  V30 655 O 89.9381 -1.29758 -9.22115 0
M  V30 656 O 88.1571 -2.13714 -7.55141 0
M  V30 657 O 88.1941 0.248149 -8.21425 0
M  V30 658 C 88.0331 1.22792 -9.30533 0
M  V30 659 C 88.5741 2.56293 -8.80664 0
M  V30 660 O 87.5191 3.02944 -8.09255 0
M  V30 661 C 89.7921 2.57523 -7.89775 0
M  V30 662 O 90.5301 3.7668 -7.89438 0
M  V30 663 C 89.1241 2.20997 -6.55446 0
M  V30 664 O 89.9221 2.71302 -5.48691 0
M  V30 665 C 87.7861 2.89693 -6.67988 0
M  V30 666 N 86.7431 2.08895 -6.07487 0
M  V30 667 C 86.9121 0.753809 -5.94137 0
M  V30 668 N 85.8851 0.146592 -5.38801 0
M  V30 669 C 85.0001 1.1768 -5.13693 0
M  V30 670 C 83.7331 1.17563 -4.52477 0
M  V30 671 N 83.1341 0.057481 -4.04759 0
M  V30 672 N 83.1681 2.41918 -4.45789 0
M  V30 673 C 83.7701 3.56493 -4.90792 0
M  V30 674 N 84.9471 3.61423 -5.47817 0
M  V30 675 C 85.5221 2.37779 -5.5588 0
M  V30 676 H 87.8181 3.8874 -6.19774 0
M  V30 677 H 89.0011 1.12673 -6.44018 0
M  V30 678 H 90.4841 1.7746 -8.19711 0
M  V30 679 H 88.7901 3.21673 -9.66791 0
M  V30 680 H 88.6001 0.901032 -10.1892 0
M  V30 681 H 86.9701 1.33049 -9.56592 0
M  V30 682 H 83.2341 4.49919 -4.77947 0
M  V30 683 H 87.8121 0.233081 -6.26266 0
M  V30 684 H 82.2041 0.119831 -3.60801 0
M  V30 685 H 83.6081 -0.852272 -4.12385 0
M  V30 686 H 89.6101 3.5779 -5.23879 0
M  V30 687 P 91.4677 3.65191 -7.99657 0
M  V30 688 O 92.8897 3.89332 -8.45794 0
M  V30 689 O 91.1077 2.28472 -7.50807 0
M  V30 690 O 91.1447 4.64972 -6.77611 0
M  V30 691 C 90.9847 6.06319 -7.16352 0
M  V30 692 C 91.5247 6.91731 -6.02299 0
M  V30 693 O 90.4687 6.92449 -5.17064 0
M  V30 694 C 92.7427 6.43627 -5.25174 0
M  V30 695 O 93.4807 7.43686 -4.60469 0
M  V30 696 C 92.0737 5.40275 -4.31916 0
M  V30 697 O 92.8727 5.25279 -3.14438 0
M  V30 698 C 90.7367 6.04847 -4.05327 0
M  V30 699 H 90.7687 6.62195 -3.11261 0
M  V30 700 H 91.9517 4.42556 -4.81383 0
M  V30 701 H 93.4357 5.92458 -5.93643 0
M  V30 702 H 91.7417 7.92655 -6.402 0
M  V30 703 H 91.5517 6.26671 -8.0846 0
M  V30 704 H 89.9217 6.29101 -7.32804 0
M  V30 705 H 92.5607 5.84315 -2.47318 0
M  V30 706 P 94.4182 7.39546 -4.75277 0
M  V30 707 O 95.8402 7.84798 -5.01039 0
M  V30 708 O 94.0582 5.9812 -5.08098 0
M  V30 709 O 94.0952 7.57503 -3.1866 0
M  V30 710 C 93.9352 8.97357 -2.74833 0
M  V30 711 C 94.4752 9.07548 -1.32709 0
M  V30 712 O 93.4192 8.62072 -0.606159 0
M  V30 713 C 95.6932 8.25383 -0.938334 0
M  V30 714 O 96.4312 8.74577 0.146954 0
M  V30 715 C 95.0242 6.8802 -0.712559 0
M  V30 716 O 95.8232 6.1189 0.194655 0
M  V30 717 C 93.6872 7.27966 -0.139777 0
M  V30 718 H 93.7192 7.25354 0.961601 0
M  V30 719 H 94.9022 6.32557 -1.65702 0
M  V30 720 H 96.3862 8.19355 -1.79097 0
M  V30 721 H 94.6922 10.1294 -1.10029 0
M  V30 722 H 94.5022 9.64276 -3.41316 0
M  V30 723 H 92.8722 9.25417 -2.76357 0
M  V30 724 H 95.5112 6.25267 1.07847 0
M  V30 725 P 97.3688 8.791 -6.89233e-14 0
M  V30 726 O 98.7908 9.31096 0.027933 0
M  V30 727 O 97.0088 7.77869 -1.04071 0
M  V30 728 O 97.0458 8.09533 1.41463 0
M  V30 729 C 96.8858 9.0349 2.53943 0
M  V30 730 C 97.4258 8.35226 3.79016 0
M  V30 731 O 96.3698 7.57992 4.15078 0
M  V30 732 C 98.6438 7.45087 3.67298 0
M  V30 733 O 99.3818 7.27796 4.85194 0
M  V30 734 C 97.9748 6.17323 3.12027 0
M  V30 735 O 98.7738 5.04231 3.47188 0
M  V30 736 C 96.6378 6.19961 3.81809 0
M  V30 737 H 96.6698 5.58218 4.73051 0
M  V30 738 H 97.8528 6.21726 2.02589 0
M  V30 739 H 99.3368 7.86112 2.9231 0
M  V30 740 H 97.6428 9.11627 4.55076 0
M  V30 741 H 97.4528 9.9573 2.34194 0
M  V30 742 H 95.8228 9.2792 2.67832 0
M  V30 743 H 98.4618 4.67702 4.28772 0
M  V30 744 P 100.319 7.39546 4.75277 0
M  V30 745 O 101.741 7.81777 5.05738 0
M  V30 746 O 99.9594 7.1065 3.32998 0
M  V30 747 O 99.9964 6.04542 5.56673 0
M  V30 748 C 99.8364 6.22772 7.02095 0
M  V30 749 C 100.376 4.97725 7.70406 0
M  V30 750 O 99.3204 4.13256 7.58987 0
M  V30 751 C 101.594 4.28231 7.11815 0
M  V30 752 O 102.332 3.49945 8.01648 0
M  V30 753 C 100.925 3.5063 5.96244 0
M  V30 754 O 101.724 2.36482 5.64681 0
M  V30 755 C 99.5884 3.15122 6.56374 0
M  V30 756 H 99.6204 2.13853 6.99751 0
M  V30 757 H 100.803 4.13501 5.06559 0
M  V30 758 H 102.287 5.03285 6.70911 0
M  V30 759 H 100.593 5.20877 8.75697 0
M  V30 760 H 100.403 7.11046 7.35349 0
M  V30 761 H 98.7734 6.35815 7.26986 0
M  V30 762 H 101.412 1.61644 6.13565 0
M  V30 763 P 103.27 3.65191 7.99657 0
M  V30 764 O 104.692 3.8425 8.48115 0
M  V30 765 O 102.91 4.17805 6.64342 0
M  V30 766 O 102.947 2.07613 7.95143 0
M  V30 767 C 102.787 1.44328 9.27336 0
M  V30 768 C 103.327 0.0220036 9.17197 0
M  V30 769 O 102.271 -0.626867 8.61923 0
M  V30 770 C 104.545 -0.24586 8.30336 0
M  V30 771 O 105.283 -1.39011 8.63583 0
M  V30 772 C 103.876 -0.273849 6.91158 0
M  V30 773 O 104.675 -1.06348 6.02892 0
M  V30 774 C 102.539 -0.897649 7.22545 0
M  V30 775 H 102.571 -1.9841 7.04286 0
M  V30 776 H 103.754 0.739928 6.497 0
M  V30 777 H 105.238 0.60668 8.36503 0
M  V30 778 H 103.544 -0.352479 10.1829 0
M  V30 779 H 103.354 2.00611 10.0304 0
M  V30 780 H 101.724 1.41843 9.55327 0
M  V30 781 H 104.363 -1.95734 6.03555 0
M  V30 782 P 106.221 -1.25109 8.70152 0
M  V30 783 O 107.643 -1.35274 9.21221 0
M  V30 784 O 105.861 -0.0769065 7.84762 0
M  V30 785 O 105.898 -2.55232 7.81161 0
M  V30 786 C 105.738 -3.79939 8.58154 0
M  V30 787 C 106.278 -4.94023 7.72785 0
M  V30 788 O 105.222 -5.18726 6.91205 0
M  V30 789 C 107.496 -4.69597 6.85231 0
M  V30 790 O 108.234 -5.83832 6.51337 0
M  V30 791 C 106.827 -3.96706 5.66633 0
M  V30 792 O 107.626 -4.15414 4.49689 0
M  V30 793 C 105.49 -4.66153 5.59313 0
M  V30 794 H 105.522 -5.47679 4.85214 0
M  V30 795 H 106.705 -2.89008 5.86566 0
M  V30 796 H 108.189 -4.0121 7.36511 0
M  V30 797 H 106.495 -5.80182 8.37584 0
M  V30 798 H 106.305 -3.73517 9.52265 0
M  V30 799 H 104.675 -3.97163 8.80359 0
M  V30 800 H 107.314 -4.90969 4.01921 0
M  V30 801 P 109.171 -5.75688 6.64379 0
M  V30 802 O 110.593 -6.11849 7.01846 0
M  V30 803 O 108.811 -4.30744 6.56026 0
M  V30 804 O 108.848 -6.37042 5.19165 0
M  V30 805 C 108.688 -7.83578 5.16515 0
M  V30 806 C 109.228 -8.33398 3.83019 0
M  V30 807 O 108.172 -8.10074 3.01034 0
M  V30 808 C 110.446 -7.65514 3.2257 0
M  V30 809 O 111.184 -8.4329 2.32297 0
M  V30 810 C 109.777 -6.40075 2.62207 0
M  V30 811 O 110.576 -5.92589 1.53712 0
M  V30 812 C 108.44 -6.9454 2.18503 0
M  V30 813 H 108.472 -7.23063 1.12091 0
M  V30 814 H 109.655 -5.6025 3.37201 0
M  V30 815 H 111.139 -7.35707 4.02681 0
M  V30 816 H 109.445 -9.40912 3.9095 0
M  V30 817 H 109.255 -8.29056 5.99158 0
M  V30 818 H 107.625 -8.10073 5.25882 0
M  V30 819 H 110.264 -6.30324 0.726794 0
M  V30 820 P 112.122 -8.4349 2.47671 0
M  V30 821 O 113.543 -8.94263 2.59668 0
M  V30 822 O 111.762 -7.1704 3.19006 0
M  V30 823 O 111.799 -8.16596 0.923387 0
M  V30 824 C 111.638 -9.38537 0.108869 0
M  V30 825 C 112.179 -9.08175 -1.28353 0
M  V30 826 O 111.124 -8.44131 -1.84692 0
M  V30 827 C 113.397 -8.18386 -1.42505 0
M  V30 828 O 114.135 -8.3501 -2.60497 0
M  V30 829 C 112.729 -6.80225 -1.25468 0
M  V30 830 O 113.527 -5.81716 -1.90454 0
M  V30 831 C 111.391 -7.02416 -1.9168 0
M  V30 832 N 110.348 -6.31033 -1.20314 0
M  V30 833 C 110.517 -5.98817 0.0994088 0
M  V30 834 N 109.49 -5.35403 0.621694 0
M  V30 835 C 108.605 -5.25212 -0.43376 0
M  V30 836 C 107.338 -4.64602 -0.519722 0
M  V30 837 N 106.739 -4.01457 0.519136 0
M  V30 838 N 106.773 -4.7568 -1.76013 0
M  V30 839 C 107.375 -5.3653 -2.83017 0
M  V30 840 N 108.552 -5.93676 -2.79782 0
M  V30 841 C 109.127 -5.84061 -1.56249 0
M  V30 842 H 111.423 -6.68789 -2.9658 0
M  V30 843 H 112.606 -6.53498 -0.198729 0
M  V30 844 H 114.089 -8.36622 -0.589963 0
M  V30 845 H 112.395 -10.0273 -1.8081 0
M  V30 846 H 112.205 -10.2138 0.558219 0
M  V30 847 H 110.575 -9.6579 0.0444202 0
M  V30 848 H 106.839 -5.37113 -3.77321 0
M  V30 849 H 111.417 -6.23209 0.660562 0
M  V30 850 H 105.809 -3.58834 0.394862 0
M  V30 851 H 107.213 -3.96059 1.43048 0
M  V30 852 H 113.215 -5.69466 -2.79593 0
M  V30 853 P 115.072 -8.4349 -2.47671 0
M  V30 854 O 116.494 -8.92593 -2.65 0
M  V30 855 O 114.712 -7.7568 -1.19296 0
M  V30 856 O 114.749 -7.36886 -3.63805 0
M  V30 857 C 114.589 -7.95349 -4.982 0
M  V30 858 C 115.129 -6.94612 -5.98974 0
M  V30 859 O 114.073 -6.10347 -6.11815 0
M  V30 860 C 116.347 -6.11426 -5.62335 0
M  V30 861 O 117.085 -5.6162 -6.70584 0
M  V30 862 C 115.678 -5.04409 -4.73308 0
M  V30 863 O 116.477 -3.85992 -4.75183 0
M  V30 864 C 114.341 -4.8728 -5.41006 0
M  V30 865 H 114.373 -4.02333 -6.11157 0
M  V30 866 H 115.556 -5.39466 -3.69543 0
M  V30 867 H 117.04 -6.71916 -5.01943 0
M  V30 868 H 115.346 -7.4649 -6.93477 0
M  V30 869 H 115.156 -8.89416 -5.05237 0
M  V30 870 H 113.526 -8.14876 -5.18409 0
M  V30 871 H 116.165 -3.27957 -5.4317 0
M  V30 872 P 118.023 -5.75688 -6.64379 0
M  V30 873 O 119.445 -6.07627 -7.05504 0
M  V30 874 O 117.663 -5.88047 -5.19722 0
M  V30 875 O 117.7 -4.2322 -7.04443 0
M  V30 876 C 117.54 -3.99743 -8.4911 0
M  V30 877 C 118.08 -2.60516 -8.79425 0
M  V30 878 O 117.024 -1.82684 -8.4467 0
M  V30 879 C 119.298 -2.10343 -8.03628 0
M  V30 880 O 120.036 -1.09919 -8.67766 0
M  V30 881 C 118.629 -1.68446 -6.70876 0
M  V30 882 O 119.428 -0.678137 -6.08433 0
M  V30 883 C 117.292 -1.17436 -7.18567 0
M  V30 884 H 117.324 -0.0804732 -7.31656 0
M  V30 885 H 118.507 -2.54037 -6.02537 0
M  V30 886 H 119.991 -2.93881 -7.85526 0
M  V30 887 H 118.297 -2.53065 -9.86973 0
M  V30 888 H 118.107 -4.75072 -9.05887 0
M  V30 889 H 116.477 -4.05244 -8.76668 0
M  V30 890 H 119.116 0.177647 -6.34251 0
M  V30 891 P 120.973 -1.25109 -8.70152 0
M  V30 892 O 122.395 -1.29744 -9.22016 0
M  V30 893 O 120.613 -2.13714 -7.55141 0
M  V30 894 O 120.65 0.248149 -8.21425 0
M  V30 895 C 120.49 1.22779 -9.30434 0
M  V30 896 C 121.03 2.56293 -8.80664 0
M  V30 897 O 119.974 3.02979 -8.09349 0
M  V30 898 C 122.248 2.57523 -7.89775 0
M  V30 899 O 122.986 3.7668 -7.89438 0
M  V30 900 C 121.579 2.20997 -6.55446 0
M  V30 901 O 122.378 2.71895 -5.48509 0
M  V30 902 C 120.242 2.89693 -6.67988 0
M  V30 903 H 120.274 3.88793 -6.19859 0
M  V30 904 H 121.457 1.12046 -6.44229 0
M  V30 905 H 122.941 1.7746 -8.19711 0
M  V30 906 H 121.247 3.20706 -9.67112 0
M  V30 907 H 121.057 0.901032 -10.1892 0
M  V30 908 H 119.427 1.33049 -9.56592 0
M  V30 909 H 122.066 3.57847 -5.23962 0
M  V30 910 P 123.924 3.65191 -7.99657 0
M  V30 911 O 125.346 3.89332 -8.45794 0
M  V30 912 O 123.564 2.28472 -7.50807 0
M  V30 913 O 123.601 4.64972 -6.77611 0
M  V30 914 C 123.441 6.06319 -7.16352 0
M  V30 915 C 123.981 6.91731 -6.02299 0
M  V30 916 O 122.925 6.92449 -5.17064 0
M  V30 917 C 125.199 6.43627 -5.25174 0
M  V30 918 O 125.937 7.43686 -4.60469 0
M  V30 919 C 124.53 5.40275 -4.31916 0
M  V30 920 O 125.329 5.25279 -3.14438 0
M  V30 921 C 123.193 6.04847 -4.05327 0
M  V30 922 H 123.225 6.62195 -3.11261 0
M  V30 923 H 124.408 4.42556 -4.81383 0
M  V30 924 H 125.892 5.92458 -5.93643 0
M  V30 925 H 124.198 7.92655 -6.402 0
M  V30 926 H 124.008 6.26671 -8.0846 0
M  V30 927 H 122.378 6.29101 -7.32804 0
M  V30 928 H 125.017 5.84315 -2.47318 0
M  V30 929 P 126.875 7.39546 -4.75277 0
M  V30 930 O 128.297 7.84798 -5.01039 0
M  V30 931 O 126.515 5.9812 -5.08098 0
M  V30 932 O 126.552 7.57503 -3.1866 0
M  V30 933 C 126.392 8.97357 -2.74833 0
M  V30 934 C 126.932 9.07548 -1.32709 0
M  V30 935 O 125.876 8.62072 -0.606159 0
M  V30 936 C 128.15 8.25383 -0.938334 0
M  V30 937 O 128.888 8.74577 0.146954 0
M  V30 938 C 127.481 6.8802 -0.712559 0
M  V30 939 O 128.28 6.1189 0.194655 0
M  V30 940 C 126.144 7.27966 -0.139777 0
M  V30 941 H 126.176 7.25354 0.961601 0
M  V30 942 H 127.359 6.32557 -1.65702 0
M  V30 943 H 128.843 8.19355 -1.79097 0
M  V30 944 H 127.149 10.1294 -1.10029 0
M  V30 945 H 126.959 9.64276 -3.41316 0
M  V30 946 H 125.329 9.25417 -2.76357 0
M  V30 947 H 127.968 6.25267 1.07847 0
M  V30 948 P 129.825 8.791 -1.02308e-13 0
M  V30 949 O 131.247 9.31096 0.027933 0
M  V30 950 O 129.465 7.77869 -1.04071 0
M  V30 951 O 129.502 8.09533 1.41463 0
M  V30 952 C 129.342 9.0349 2.53943 0
M  V30 953 C 129.882 8.35226 3.79016 0
M  V30 954 O 128.826 7.57992 4.15078 0
M  V30 955 C 131.1 7.45087 3.67298 0
M  V30 956 O 131.838 7.27796 4.85194 0
M  V30 957 C 130.431 6.17323 3.12027 0
M  V30 958 O 131.23 5.04231 3.47188 0
M  V30 959 C 129.094 6.19961 3.81809 0
M  V30 960 H 129.126 5.58218 4.73051 0
M  V30 961 H 130.309 6.21726 2.02589 0
M  V30 962 H 131.793 7.86112 2.9231 0
M  V30 963 H 130.099 9.11627 4.55076 0
M  V30 964 H 129.909 9.9573 2.34194 0
M  V30 965 H 128.279 9.2792 2.67832 0
M  V30 966 H 130.918 4.67702 4.28772 0
M  V30 967 P 132.776 7.39546 4.75277 0
M  V30 968 O 134.198 7.81777 5.05738 0
M  V30 969 O 132.416 7.1065 3.32998 0
M  V30 970 O 132.453 6.04542 5.56673 0
M  V30 971 C 132.293 6.22772 7.02095 0
M  V30 972 C 132.833 4.97725 7.70406 0
M  V30 973 O 131.777 4.13256 7.58987 0
M  V30 974 C 134.051 4.28231 7.11815 0
M  V30 975 O 134.789 3.49945 8.01648 0
M  V30 976 C 133.382 3.5063 5.96244 0
M  V30 977 O 134.181 2.36482 5.64681 0
M  V30 978 C 132.045 3.15122 6.56374 0
M  V30 979 H 132.077 2.13853 6.99751 0
M  V30 980 H 133.26 4.13501 5.06559 0
M  V30 981 H 134.744 5.03285 6.70911 0
M  V30 982 H 133.05 5.20877 8.75697 0
M  V30 983 H 132.86 7.11046 7.35349 0
M  V30 984 H 131.23 6.35815 7.26986 0
M  V30 985 H 133.869 1.61644 6.13565 0
M  V30 986 P 135.726 3.65191 7.99657 0
M  V30 987 O 137.148 3.8425 8.48115 0
M  V30 988 O 135.366 4.17805 6.64342 0
M  V30 989 O 135.403 2.07613 7.95143 0
M  V30 990 C 135.243 1.44328 9.27336 0
M  V30 991 C 135.783 0.0220036 9.17197 0
M  V30 992 O 134.727 -0.626867 8.61923 0
M  V30 993 C 137.001 -0.24586 8.30336 0
M  V30 994 O 137.739 -1.39011 8.63583 0
M  V30 995 C 136.332 -0.273849 6.91158 0
M  V30 996 O 137.131 -1.06348 6.02892 0
M  V30 997 C 134.995 -0.897649 7.22545 0
M  V30 998 H 135.027 -1.9841 7.04286 0
M  V30 999 H 136.21 0.739928 6.497 0
M  V30 1000 H 137.694 0.60668 8.36503 0
M  V30 1001 H 136 -0.352479 10.1829 0
M  V30 1002 H 135.81 2.00611 10.0304 0
M  V30 1003 H 134.18 1.41843 9.55327 0
M  V30 1004 H 136.819 -1.95734 6.03555 0
M  V30 1005 P 138.677 -1.25109 8.70152 0
M  V30 1006 O 140.099 -1.35274 9.21221 0
M  V30 1007 O 138.317 -0.0769065 7.84762 0
M  V30 1008 O 138.354 -2.55232 7.81161 0
M  V30 1009 C 138.194 -3.79939 8.58154 0
M  V30 1010 C 138.734 -4.94023 7.72785 0
M  V30 1011 O 137.678 -5.18726 6.91205 0
M  V30 1012 C 139.952 -4.69597 6.85231 0
M  V30 1013 O 140.69 -5.83832 6.51337 0
M  V30 1014 C 139.283 -3.96706 5.66633 0
M  V30 1015 O 140.082 -4.15414 4.49689 0
M  V30 1016 C 137.946 -4.66153 5.59313 0
M  V30 1017 H 137.978 -5.47679 4.85214 0
M  V30 1018 H 139.161 -2.89008 5.86566 0
M  V30 1019 H 140.645 -4.0121 7.36511 0
M  V30 1020 H 138.951 -5.80182 8.37584 0
M  V30 1021 H 138.761 -3.73517 9.52265 0
M  V30 1022 H 137.131 -3.97163 8.80359 0
M  V30 1023 H 139.77 -4.90969 4.01921 0
M  V30 1024 P 141.627 -5.75688 6.64379 0
M  V30 1025 O 143.049 -6.11849 7.01846 0
M  V30 1026 O 141.267 -4.30744 6.56026 0
M  V30 1027 O 141.304 -6.37042 5.19165 0
M  V30 1028 C 141.144 -7.83578 5.16515 0
M  V30 1029 C 141.684 -8.33398 3.83019 0
M  V30 1030 O 140.628 -8.10074 3.01034 0
M  V30 1031 C 142.902 -7.65514 3.2257 0
M  V30 1032 O 143.64 -8.4329 2.32297 0
M  V30 1033 C 142.233 -6.40075 2.62207 0
M  V30 1034 O 143.032 -5.92589 1.53712 0
M  V30 1035 C 140.896 -6.9454 2.18503 0
M  V30 1036 H 140.928 -7.23063 1.12091 0
M  V30 1037 H 142.111 -5.6025 3.37201 0
M  V30 1038 H 143.595 -7.35707 4.02681 0
M  V30 1039 H 141.901 -9.40912 3.9095 0
M  V30 1040 H 141.711 -8.29056 5.99158 0
M  V30 1041 H 140.081 -8.10073 5.25882 0
M  V30 1042 H 142.72 -6.30324 0.726794 0
M  V30 1043 P 144.578 -8.4349 2.47671 0
M  V30 1044 O 145.979 -8.98227 2.65696 0
M  V30 1045 O 144.2 -7.20409 3.23964 0
M  V30 1046 O 144.255 -8.16496 0.923275 0
M  V30 1047 C 144.095 -9.38437 0.108857 0
M  V30 1048 C 144.635 -9.08076 -1.28339 0
M  V30 1049 O 143.579 -8.44131 -1.84692 0
M  V30 1050 C 145.852 -8.18386 -1.42505 0
M  V30 1051 O 146.591 -8.3501 -2.60497 0
M  V30 1052 C 145.185 -6.80225 -1.25468 0
M  V30 1053 O 145.983 -5.81526 -1.91035 0
M  V30 1054 C 143.847 -7.02416 -1.9168 0
M  V30 1055 N 142.804 -6.31033 -1.20314 0
M  V30 1056 C 141.769 -5.77149 -1.928 0
M  V30 1057 O 141.808 -5.8521 -3.17729 0
M  V30 1058 N 140.757 -5.15445 -1.27997 0
M  V30 1059 C 140.805 -5.04472 0.0534726 0
M  V30 1060 C 141.901 -5.55244 0.808522 0
M  V30 1061 C 142.867 -6.18542 0.13981 0
M  V30 1062 H 143.879 -6.68789 -2.9658 0
M  V30 1063 H 145.062 -6.53498 -0.198729 0
M  V30 1064 H 146.546 -8.36663 -0.5984 0
M  V30 1065 H 144.852 -10.0273 -1.8081 0
M  V30 1066 H 144.661 -10.2138 0.558219 0
M  V30 1067 H 143.031 -9.6569 0.0444156 0
M  V30 1068 H 141.949 -5.43017 1.88792 0
M  V30 1069 H 143.713 -6.60539 0.686773 0
M  V30 1070 H 145.767 -5.79638 -2.8315 0
M  V30 1071 P 147.528 -8.4349 -2.47671 0
M  V30 1072 O 148.95 -8.92593 -2.65 0
M  V30 1073 O 147.168 -7.7568 -1.19296 0
M  V30 1074 O 147.205 -7.36886 -3.63805 0
M  V30 1075 C 147.045 -7.95349 -4.982 0
M  V30 1076 C 147.585 -6.94612 -5.98974 0
M  V30 1077 O 146.529 -6.10347 -6.11815 0
M  V30 1078 C 148.803 -6.11426 -5.62335 0
M  V30 1079 O 149.541 -5.6162 -6.70584 0
M  V30 1080 C 148.134 -5.04409 -4.73308 0
M  V30 1081 O 148.933 -3.85992 -4.75183 0
M  V30 1082 C 146.797 -4.8728 -5.41006 0
M  V30 1083 H 146.829 -4.02333 -6.11157 0
M  V30 1084 H 148.012 -5.39466 -3.69543 0
M  V30 1085 H 149.496 -6.71916 -5.01943 0
M  V30 1086 H 147.802 -7.4649 -6.93477 0
M  V30 1087 H 147.612 -8.89416 -5.05237 0
M  V30 1088 H 145.982 -8.14876 -5.18409 0
M  V30 1089 H 148.621 -3.27957 -5.4317 0
M  V30 1090 P 150.479 -5.75688 -6.64379 0
M  V30 1091 O 151.9 -6.07692 -7.0558 0
M  V30 1092 O 150.119 -5.88047 -5.19722 0
M  V30 1093 O 150.156 -4.2322 -7.04443 0
M  V30 1094 C 149.995 -3.99785 -8.49201 0
M  V30 1095 C 150.536 -2.60516 -8.79425 0
M  V30 1096 O 149.481 -1.82663 -8.44573 0
M  V30 1097 C 151.754 -2.10343 -8.03628 0
M  V30 1098 O 152.492 -1.09919 -8.67766 0
M  V30 1099 C 151.086 -1.68446 -6.70876 0
M  V30 1100 O 151.884 -0.684109 -6.08265 0
M  V30 1101 C 149.748 -1.17436 -7.18567 0
M  V30 1102 N 148.705 -1.52699 -6.23988 0
M  V30 1103 C 148.874 -2.578 -5.40574 0
M  V30 1104 N 147.847 -2.78966 -4.61193 0
M  V30 1105 C 146.962 -1.78725 -4.95769 0
M  V30 1106 C 145.695 -1.45727 -4.44207 0
M  V30 1107 N 145.096 -2.13994 -3.43613 0
M  V30 1108 N 145.13 -0.374977 -5.05812 0
M  V30 1109 C 145.732 0.345585 -6.05615 0
M  V30 1110 N 146.909 0.0787651 -6.56253 0
M  V30 1111 C 147.484 -1.00499 -5.96189 0
M  V30 1112 H 149.78 -0.0804622 -7.31556 0
M  V30 1113 H 150.963 -2.53396 -6.02698 0
M  V30 1114 H 152.446 -2.93881 -7.85526 0
M  V30 1115 H 150.752 -2.52078 -9.87225 0
M  V30 1116 H 150.562 -4.75072 -9.05887 0
M  V30 1117 H 148.932 -4.05244 -8.76668 0
M  V30 1118 H 145.196 1.20098 -6.4532 0
M  V30 1119 H 149.774 -3.18977 -5.3945 0
M  V30 1120 H 144.166 -1.84983 -3.10004 0
M  V30 1121 H 145.57 -2.9465 -3.00843 0
M  V30 1122 H 151.572 0.177619 -6.34151 0
M  V30 1123 P 153.43 -1.25109 -8.70152 0
M  V30 1124 O 154.851 -1.29758 -9.22115 0
M  V30 1125 O 153.07 -2.13714 -7.55141 0
M  V30 1126 O 153.107 0.248149 -8.21425 0
M  V30 1127 C 152.946 1.22792 -9.30533 0
M  V30 1128 C 153.487 2.56293 -8.80664 0
M  V30 1129 O 152.432 3.02944 -8.09255 0
M  V30 1130 C 154.705 2.57523 -7.89775 0
M  V30 1131 O 155.443 3.7668 -7.89438 0
M  V30 1132 C 154.037 2.20997 -6.55446 0
M  V30 1133 O 154.835 2.71302 -5.48691 0
M  V30 1134 C 152.699 2.89693 -6.67988 0
M  V30 1135 N 151.656 2.08895 -6.07487 0
M  V30 1136 C 151.825 0.753809 -5.94137 0
M  V30 1137 N 150.798 0.146592 -5.38801 0
M  V30 1138 C 149.913 1.1768 -5.13693 0
M  V30 1139 C 148.646 1.17563 -4.52477 0
M  V30 1140 N 148.047 0.057481 -4.04759 0
M  V30 1141 N 148.081 2.41918 -4.45789 0
M  V30 1142 C 148.683 3.56493 -4.90792 0
M  V30 1143 N 149.86 3.61423 -5.47817 0
M  V30 1144 C 150.435 2.37779 -5.5588 0
M  V30 1145 H 152.731 3.8874 -6.19774 0
M  V30 1146 H 153.914 1.12673 -6.44018 0
M  V30 1147 H 155.397 1.7746 -8.19711 0
M  V30 1148 H 153.703 3.21673 -9.66791 0
M  V30 1149 H 153.513 0.901032 -10.1892 0
M  V30 1150 H 151.883 1.33049 -9.56592 0
M  V30 1151 H 148.147 4.49919 -4.77947 0
M  V30 1152 H 152.725 0.233081 -6.26266 0
M  V30 1153 H 147.117 0.119831 -3.60801 0
M  V30 1154 H 148.521 -0.852272 -4.12385 0
M  V30 1155 H 154.523 3.5779 -5.23879 0
M  V30 1156 P 156.38 3.65191 -7.99657 0
M  V30 1157 O 157.801 3.89374 -8.45885 0
M  V30 1158 O 156.02 2.28472 -7.50807 0
M  V30 1159 O 156.057 4.64972 -6.77611 0
M  V30 1160 C 155.896 6.06383 -7.16428 0
M  V30 1161 C 156.437 6.91731 -6.02299 0
M  V30 1162 O 155.382 6.92369 -5.17005 0
M  V30 1163 C 157.655 6.43627 -5.25174 0
M  V30 1164 O 158.393 7.43686 -4.60469 0
M  V30 1165 C 156.987 5.40275 -4.31916 0
M  V30 1166 O 157.785 5.24878 -3.14911 0
M  V30 1167 C 155.649 6.04847 -4.05327 0
M  V30 1168 N 154.606 5.04166 -3.98114 0
M  V30 1169 C 154.775 3.84629 -4.59066 0
M  V30 1170 N 153.748 3.0363 -4.45343 0
M  V30 1171 C 152.863 3.76722 -3.68523 0
M  V30 1172 C 151.596 3.43528 -3.17088 0
M  V30 1173 N 150.997 2.23665 -3.37397 0
M  V30 1174 N 151.031 4.44526 -2.44231 0
M  V30 1175 C 151.633 5.65243 -2.20146 0
M  V30 1176 N 152.81 6.00221 -2.65453 0
M  V30 1177 C 153.385 5.00564 -3.39083 0
M  V30 1178 H 155.681 6.62104 -3.11218 0
M  V30 1179 H 156.864 4.42969 -4.80867 0
M  V30 1180 H 158.347 5.92458 -5.93643 0
M  V30 1181 H 156.653 7.93295 -6.39407 0
M  V30 1182 H 156.463 6.26671 -8.0846 0
M  V30 1183 H 154.833 6.29101 -7.32804 0
M  V30 1184 H 151.097 6.36894 -1.5883 0
M  V30 1185 H 155.675 3.58193 -5.14248 0
M  V30 1186 H 150.067 2.05145 -2.97047 0
M  V30 1187 H 151.471 1.51255 -3.92998 0
M  V30 1188 H 157.473 5.84223 -2.47279 0
M  V30 1189 P 159.331 7.39546 -4.75277 0
M  V30 1190 O 160.753 7.84966 -5.01146 0
M  V30 1191 O 158.971 5.9812 -5.08098 0
M  V30 1192 O 159.008 7.57503 -3.1866 0
M  V30 1193 C 158.848 8.97357 -2.74833 0
M  V30 1194 C 159.388 9.0745 -1.32694 0
M  V30 1195 O 158.333 8.62072 -0.606159 0
M  V30 1196 C 160.606 8.25383 -0.938334 0
M  V30 1197 O 161.344 8.74577 0.146954 0
M  V30 1198 C 159.938 6.8802 -0.712559 0
M  V30 1199 O 160.736 6.11791 0.194623 0
M  V30 1200 C 158.6 7.27966 -0.139777 0
M  V30 1201 N 157.557 6.39368 -0.623421 0
M  V30 1202 C 157.619 5.90299 -1.85969 0
M  V30 1203 N 156.574 5.10919 -2.1133 0
M  V30 1204 C 155.84 5.14646 -1.0015 0
M  V30 1205 C 154.534 4.60057 -0.729219 0
M  V30 1206 O 153.801 3.93476 -1.47746 0
M  V30 1207 N 154.104 4.88302 0.523505 0
M  V30 1208 C 154.853 5.63646 1.46207 0
M  V30 1209 N 154.256 5.78186 2.69239 0
M  V30 1210 N 156.006 6.19285 1.21544 0
M  V30 1211 C 156.463 5.93392 -0.0308487 0
M  V30 1212 H 158.632 7.25354 0.961601 0
M  V30 1213 H 159.815 6.3246 -1.65676 0
M  V30 1214 H 161.3 8.19533 -1.78278 0
M  V30 1215 H 159.605 10.1294 -1.10029 0
M  V30 1216 H 159.415 9.64276 -3.41316 0
M  V30 1217 H 157.784 9.25417 -2.76357 0
M  V30 1218 H 153.208 4.53993 0.806451 0
M  V30 1219 H 158.415 6.11865 -2.57394 0
M  V30 1220 H 153.345 5.34046 2.87467 0
M  V30 1221 H 154.721 6.33391 3.42578 0
M  V30 1222 H 160.425 6.25169 1.0783 0
M  V30 1223 P 162.281 8.791 -1.35693e-13 0
M  V30 1224 O 163.703 9.31096 0.027933 0
M  V30 1225 O 161.921 7.77869 -1.04071 0
M  V30 1226 O 161.958 8.09533 1.41463 0
M  V30 1227 C 161.798 9.0349 2.53943 0
M  V30 1228 C 162.338 8.35226 3.79016 0
M  V30 1229 O 161.282 7.57992 4.15078 0
M  V30 1230 C 163.556 7.45087 3.67298 0
M  V30 1231 O 164.294 7.27796 4.85194 0
M  V30 1232 C 162.887 6.17323 3.12027 0
M  V30 1233 O 163.686 5.04231 3.47188 0
M  V30 1234 C 161.55 6.19961 3.81809 0
M  V30 1235 H 161.582 5.58218 4.73051 0
M  V30 1236 H 162.765 6.21726 2.02589 0
M  V30 1237 H 164.249 7.86112 2.9231 0
M  V30 1238 H 162.555 9.11627 4.55076 0
M  V30 1239 H 162.365 9.9573 2.34194 0
M  V30 1240 H 160.735 9.2792 2.67832 0
M  V30 1241 H 163.374 4.67702 4.28772 0
M  V30 1242 P 165.232 7.39546 4.75277 0
M  V30 1243 O 166.654 7.81777 5.05738 0
M  V30 1244 O 164.872 7.1065 3.32998 0
M  V30 1245 O 164.909 6.04542 5.56673 0
M  V30 1246 C 164.749 6.22772 7.02095 0
M  V30 1247 C 165.289 4.97725 7.70406 0
M  V30 1248 O 164.233 4.13256 7.58987 0
M  V30 1249 C 166.507 4.28231 7.11815 0
M  V30 1250 O 167.245 3.49945 8.01648 0
M  V30 1251 C 165.838 3.5063 5.96244 0
M  V30 1252 O 166.637 2.36482 5.64681 0
M  V30 1253 C 164.501 3.15122 6.56374 0
M  V30 1254 H 164.533 2.13853 6.99751 0
M  V30 1255 H 165.716 4.13501 5.06559 0
M  V30 1256 H 167.2 5.03285 6.70911 0
M  V30 1257 H 165.506 5.20877 8.75697 0
M  V30 1258 H 165.316 7.11046 7.35349 0
M  V30 1259 H 163.686 6.35815 7.26986 0
M  V30 1260 H 166.325 1.61644 6.13565 0
M  V30 1261 P 168.182 3.65191 7.99657 0
M  V30 1262 O 169.583 3.90823 8.51272 0
M  V30 1263 O 167.804 4.23191 6.66972 0
M  V30 1264 O 167.859 2.07587 7.95046 0
M  V30 1265 C 167.699 1.44328 9.27336 0
M  V30 1266 C 168.239 0.0220012 9.17097 0
M  V30 1267 O 167.183 -0.626794 8.61824 0
M  V30 1268 C 169.456 -0.24586 8.30336 0
M  V30 1269 O 170.195 -1.39011 8.63583 0
M  V30 1270 C 168.789 -0.273849 6.91158 0
M  V30 1271 O 169.587 -1.06331 6.02794 0
M  V30 1272 C 167.451 -0.897649 7.22545 0
M  V30 1273 N 166.408 -0.292839 6.41732 0
M  V30 1274 C 165.373 -1.08701 5.98712 0
M  V30 1275 O 165.412 -2.31211 6.24471 0
M  V30 1276 N 164.361 -0.533391 5.28415 0
M  V30 1277 C 164.409 0.770866 4.98576 0
M  V30 1278 C 165.505 1.59049 5.38086 0
M  V30 1279 C 166.471 1.01866 6.10256 0
M  V30 1280 H 167.483 -1.98383 7.04189 0
M  V30 1281 H 168.666 0.733318 6.49674 0
M  V30 1282 H 170.15 0.598386 8.36663 0
M  V30 1283 H 168.456 -0.362662 10.1825 0
M  V30 1284 H 168.265 2.00611 10.0304 0
M  V30 1285 H 166.635 1.41828 9.55228 0
M  V30 1286 H 165.553 2.6415 5.10622 0
M  V30 1287 H 167.317 1.61983 6.44042 0
M  V30 1288 H 169.371 -1.97777 6.14035 0
M  V30 1289 P 171.133 -1.25109 8.70152 0
M  V30 1290 O 172.555 -1.35274 9.21221 0
M  V30 1291 O 170.773 -0.0769065 7.84762 0
M  V30 1292 O 170.81 -2.55232 7.81161 0
M  V30 1293 C 170.65 -3.79939 8.58154 0
M  V30 1294 C 171.19 -4.94023 7.72785 0
M  V30 1295 O 170.134 -5.18726 6.91205 0
M  V30 1296 C 172.408 -4.69597 6.85231 0
M  V30 1297 O 173.146 -5.83832 6.51337 0
M  V30 1298 C 171.739 -3.96706 5.66633 0
M  V30 1299 O 172.538 -4.15414 4.49689 0
M  V30 1300 C 170.402 -4.66153 5.59313 0
M  V30 1301 H 170.434 -5.47679 4.85214 0
M  V30 1302 H 171.617 -2.89008 5.86566 0
M  V30 1303 H 173.101 -4.0121 7.36511 0
M  V30 1304 H 171.407 -5.80182 8.37584 0
M  V30 1305 H 171.217 -3.73517 9.52265 0
M  V30 1306 H 169.587 -3.97163 8.80359 0
M  V30 1307 H 172.226 -4.90969 4.01921 0
M  V30 1308 P 174.084 -5.75688 6.64379 0
M  V30 1309 O 175.505 -6.11915 7.01921 0
M  V30 1310 O 173.724 -4.30744 6.56026 0
M  V30 1311 O 173.761 -6.37042 5.19165 0
M  V30 1312 C 173.6 -7.83662 5.1657 0
M  V30 1313 C 174.141 -8.33398 3.83019 0
M  V30 1314 O 173.086 -8.0998 3.00999 0
M  V30 1315 C 175.359 -7.65514 3.2257 0
M  V30 1316 O 176.097 -8.4329 2.32297 0
M  V30 1317 C 174.691 -6.40075 2.62207 0
M  V30 1318 O 175.489 -5.92338 1.5428 0
M  V30 1319 C 173.353 -6.9454 2.18503 0
M  V30 1320 N 172.31 -5.95905 2.39948 0
M  V30 1321 C 172.479 -4.98383 3.32108 0
M  V30 1322 N 171.452 -4.16798 3.41761 0
M  V30 1323 C 170.567 -4.65287 2.47461 0
M  V30 1324 C 169.3 -4.18946 2.07461 0
M  V30 1325 N 168.701 -3.09661 2.60717 0
M  V30 1326 N 168.735 -4.95327 1.09101 0
M  V30 1327 C 169.337 -6.04369 0.519812 0
M  V30 1328 N 170.514 -6.50694 0.855982 0
M  V30 1329 C 171.089 -5.75818 1.84322 0
M  V30 1330 H 173.385 -7.22964 1.12076 0
M  V30 1331 H 174.568 -5.60502 3.36589 0
M  V30 1332 H 176.051 -7.35707 4.02681 0
M  V30 1333 H 174.357 -9.41302 3.90009 0
M  V30 1334 H 174.167 -8.29056 5.99158 0
M  V30 1335 H 172.537 -8.10073 5.25882 0
M  V30 1336 H 168.801 -6.55843 -0.270373 0
M  V30 1337 H 173.379 -4.88564 3.92502 0
M  V30 1338 H 167.771 -2.80523 2.27218 0
M  V30 1339 H 169.175 -2.55848 3.34465 0
M  V30 1340 H 175.177 -6.30224 0.72668 0
M  V30 1341 P 177.034 -8.4349 2.47671 0
M  V30 1342 O 178.456 -8.94167 2.5964 0
M  V30 1343 O 176.674 -7.1704 3.19006 0
M  V30 1344 O 176.711 -8.16596 0.923387 0
M  V30 1345 C 176.551 -9.38437 0.108857 0
M  V30 1346 C 177.091 -9.08175 -1.28353 0
M  V30 1347 O 176.035 -8.44229 -1.84713 0
M  V30 1348 C 178.309 -8.18386 -1.42505 0
M  V30 1349 O 179.047 -8.3501 -2.60497 0
M  V30 1350 C 177.64 -6.80225 -1.25468 0
M  V30 1351 O 178.439 -5.81621 -1.91066 0
M  V30 1352 C 176.303 -7.02416 -1.9168 0
M  V30 1353 H 176.335 -6.6888 -2.96621 0
M  V30 1354 H 177.518 -6.53617 -0.192223 0
M  V30 1355 H 179.002 -8.36622 -0.589963 0
M  V30 1356 H 177.308 -10.0291 -1.79807 0
M  V30 1357 H 177.118 -10.2138 0.558219 0
M  V30 1358 H 175.488 -9.6579 0.0444202 0
M  V30 1359 H 178.127 -5.69556 -2.79637 0
M  V30 1360 P 179.985 -8.4349 -2.47671 0
M  V30 1361 O 181.386 -8.99283 -2.62101 0
M  V30 1362 O 179.607 -7.81195 -1.16947 0
M  V30 1363 O 179.662 -7.36797 -3.63761 0
M  V30 1364 C 179.502 -7.95349 -4.982 0
M  V30 1365 C 180.042 -6.94537 -5.98908 0
M  V30 1366 O 178.986 -6.10277 -6.11744 0
M  V30 1367 C 181.259 -6.11426 -5.62335 0
M  V30 1368 O 181.998 -5.6162 -6.70584 0
M  V30 1369 C 180.592 -5.04409 -4.73308 0
M  V30 1370 O 181.39 -3.85929 -4.75106 0
M  V30 1371 C 179.254 -4.8728 -5.41006 0
M  V30 1372 N 178.211 -4.65812 -4.42377 0
M  V30 1373 C 177.176 -3.81293 -4.74224 0
M  V30 1374 O 177.215 -3.20533 -5.83679 0
M  V30 1375 N 176.164 -3.6442 -3.86349 0
M  V30 1376 C 176.212 -4.2728 -2.6824 0
M  V30 1377 N 175.202 -4.09866 -1.83822 0
M  V30 1378 C 177.308 -5.10813 -2.3217 0
M  V30 1379 C 178.274 -5.27909 -3.22647 0
M  V30 1380 H 179.286 -4.02278 -6.11074 0
M  V30 1381 H 180.469 -5.39013 -3.70026 0
M  V30 1382 H 181.953 -6.71494 -5.02675 0
M  V30 1383 H 180.259 -7.45796 -6.94223 0
M  V30 1384 H 180.068 -8.89416 -5.05237 0
M  V30 1385 H 178.438 -8.14791 -5.18355 0
M  V30 1386 H 177.356 -5.58884 -1.34755 0
M  V30 1387 H 179.12 -5.92811 -2.9934 0
M  V30 1388 H 174.412 -3.49095 -2.10018 0
M  V30 1389 H 175.207 -4.56846 -0.924167 0
M  V30 1390 H 181.174 -3.3454 -5.51577 0
M  V30 1391 P 182.935 -5.75688 -6.64379 0
M  V30 1392 O 184.357 -6.07627 -7.05504 0
M  V30 1393 O 182.575 -5.88047 -5.19722 0
M  V30 1394 O 182.612 -4.2322 -7.04443 0
M  V30 1395 C 182.452 -3.99743 -8.4911 0
M  V30 1396 C 182.992 -2.60516 -8.79425 0
M  V30 1397 O 181.936 -1.82684 -8.4467 0
M  V30 1398 C 184.21 -2.10343 -8.03628 0
M  V30 1399 O 184.948 -1.09919 -8.67766 0
M  V30 1400 C 183.541 -1.68446 -6.70876 0
M  V30 1401 O 184.34 -0.678137 -6.08433 0
M  V30 1402 C 182.204 -1.17436 -7.18567 0
M  V30 1403 H 182.236 -0.0804732 -7.31656 0
M  V30 1404 H 183.419 -2.54037 -6.02537 0
M  V30 1405 H 184.903 -2.93881 -7.85526 0
M  V30 1406 H 183.209 -2.53065 -9.86973 0
M  V30 1407 H 183.019 -4.75072 -9.05887 0
M  V30 1408 H 181.389 -4.05244 -8.76668 0
M  V30 1409 H 184.028 0.177647 -6.34251 0
M  V30 1410 P 185.886 -1.25109 -8.70152 0
M  V30 1411 O 187.308 -1.29744 -9.22016 0
M  V30 1412 O 185.526 -2.13714 -7.55141 0
M  V30 1413 O 185.563 0.248149 -8.21425 0
M  V30 1414 C 185.403 1.22779 -9.30434 0
M  V30 1415 C 185.943 2.56293 -8.80664 0
M  V30 1416 O 184.887 3.02979 -8.09349 0
M  V30 1417 C 187.161 2.57523 -7.89775 0
M  V30 1418 O 187.899 3.7668 -7.89438 0
M  V30 1419 C 186.492 2.20997 -6.55446 0
M  V30 1420 O 187.291 2.71895 -5.48509 0
M  V30 1421 C 185.155 2.89693 -6.67988 0
M  V30 1422 H 185.187 3.88793 -6.19859 0
M  V30 1423 H 186.37 1.12046 -6.44229 0
M  V30 1424 H 187.854 1.7746 -8.19711 0
M  V30 1425 H 186.16 3.20706 -9.67112 0
M  V30 1426 H 185.97 0.901032 -10.1892 0
M  V30 1427 H 184.34 1.33049 -9.56592 0
M  V30 1428 H 186.979 3.57847 -5.23962 0
M  V30 1429 P 188.836 3.65191 -7.99657 0
M  V30 1430 O 190.258 3.89416 -8.45976 0
M  V30 1431 O 188.476 2.28472 -7.50807 0
M  V30 1432 O 188.513 4.64972 -6.77611 0
M  V30 1433 C 188.353 6.06319 -7.16352 0
M  V30 1434 C 188.893 6.91655 -6.02234 0
M  V30 1435 O 187.838 6.92449 -5.17064 0
M  V30 1436 C 190.111 6.43627 -5.25174 0
M  V30 1437 O 190.849 7.43686 -4.60469 0
M  V30 1438 C 189.443 5.40275 -4.31916 0
M  V30 1439 O 190.241 5.25193 -3.14386 0
M  V30 1440 C 188.105 6.04847 -4.05327 0
M  V30 1441 N 187.062 5.04166 -3.98114 0
M  V30 1442 C 187.124 3.96049 -4.75587 0
M  V30 1443 N 186.079 3.15559 -4.54006 0
M  V30 1444 C 185.345 3.78802 -3.62491 0
M  V30 1445 C 184.039 3.476 -3.10071 0
M  V30 1446 O 183.306 2.51136 -3.37021 0
M  V30 1447 N 183.609 4.39088 -2.19956 0
M  V30 1448 C 184.358 5.53215 -1.81733 0
M  V30 1449 N 183.761 6.31963 -0.860928 0
M  V30 1450 N 185.511 5.86688 -2.32562 0
M  V30 1451 C 185.968 4.97525 -3.23407 0
M  V30 1452 H 188.137 6.62195 -3.11261 0
M  V30 1453 H 189.32 4.42488 -4.8131 0
M  V30 1454 H 190.805 5.93051 -5.9305 0
M  V30 1455 H 189.11 7.92655 -6.402 0
M  V30 1456 H 188.92 6.26671 -8.0846 0
M  V30 1457 H 187.289 6.29101 -7.32804 0
M  V30 1458 H 182.713 4.25523 -1.77604 0
M  V30 1459 H 187.92 3.75576 -5.47333 0
M  V30 1460 H 182.85 6.04684 -0.468946 0
M  V30 1461 H 184.226 7.18054 -0.542422 0
M  V30 1462 H 189.93 5.84223 -2.47279 0
M  V30 1463 P 191.787 7.39546 -4.75277 0
M  V30 1464 O 193.209 7.84798 -5.01039 0
M  V30 1465 O 191.427 5.9812 -5.08098 0
M  V30 1466 O 191.464 7.57503 -3.1866 0
M  V30 1467 C 191.304 8.97357 -2.74833 0
M  V30 1468 C 191.844 9.07548 -1.32709 0
M  V30 1469 O 190.788 8.62072 -0.606159 0
M  V30 1470 C 193.062 8.25383 -0.938334 0
M  V30 1471 O 193.8 8.74577 0.146954 0
M  V30 1472 C 192.393 6.8802 -0.712559 0
M  V30 1473 O 193.192 6.1189 0.194655 0
M  V30 1474 C 191.056 7.27966 -0.139777 0
M  V30 1475 H 191.088 7.25354 0.961601 0
M  V30 1476 H 192.271 6.32557 -1.65702 0
M  V30 1477 H 193.755 8.19355 -1.79097 0
M  V30 1478 H 192.061 10.1294 -1.10029 0
M  V30 1479 H 191.871 9.64276 -3.41316 0
M  V30 1480 H 190.241 9.25417 -2.76357 0
M  V30 1481 H 192.88 6.25267 1.07847 0
M  V30 1482 P 194.738 8.791 1.12009e-13 0
M  V30 1483 O 196.16 9.31096 0.027933 0
M  V30 1484 O 194.378 7.77869 -1.04071 0
M  V30 1485 O 194.415 8.09533 1.41463 0
M  V30 1486 C 194.255 9.0349 2.53943 0
M  V30 1487 C 194.795 8.35226 3.79016 0
M  V30 1488 O 193.739 7.57992 4.15078 0
M  V30 1489 C 196.013 7.45087 3.67298 0
M  V30 1490 O 196.751 7.27796 4.85194 0
M  V30 1491 C 195.344 6.17323 3.12027 0
M  V30 1492 O 196.143 5.04231 3.47188 0
M  V30 1493 C 194.007 6.19961 3.81809 0
M  V30 1494 H 194.039 5.58218 4.73051 0
M  V30 1495 H 195.222 6.21726 2.02589 0
M  V30 1496 H 196.706 7.86112 2.9231 0
M  V30 1497 H 195.012 9.11627 4.55076 0
M  V30 1498 H 194.822 9.9573 2.34194 0
M  V30 1499 H 193.192 9.2792 2.67832 0
M  V30 1500 H 195.831 4.67702 4.28772 0
M  V30 1501 P 197.688 7.39546 4.75277 0
M  V30 1502 O 199.109 7.81861 5.05793 0
M  V30 1503 O 197.328 7.1065 3.32998 0
M  V30 1504 O 197.365 6.04542 5.56673 0
M  V30 1505 C 197.204 6.22839 7.02169 0
M  V30 1506 C 197.745 4.97725 7.70406 0
M  V30 1507 O 196.69 4.13208 7.58899 0
M  V30 1508 C 198.963 4.28231 7.11815 0
M  V30 1509 O 199.701 3.49945 8.01648 0
M  V30 1510 C 198.295 3.5063 5.96244 0
M  V30 1511 O 199.093 2.37008 5.64352 0
M  V30 1512 C 196.957 3.15122 6.56374 0
M  V30 1513 N 195.914 3.22311 5.55692 0
M  V30 1514 C 196.083 3.99655 4.46046 0
M  V30 1515 N 195.056 3.97599 3.63918 0
M  V30 1516 C 194.171 3.11159 4.25334 0
M  V30 1517 C 192.904 2.64972 3.85157 0
M  V30 1518 N 192.305 3.02132 2.69405 0
M  V30 1519 N 192.339 1.78482 4.74759 0
M  V30 1520 C 192.941 1.37463 5.90819 0
M  V30 1521 N 194.118 1.7733 6.31889 0
M  V30 1522 C 194.693 2.64393 5.43725 0
M  V30 1523 H 196.989 2.13823 6.99656 0
M  V30 1524 H 198.172 4.12931 5.06895 0
M  V30 1525 H 199.655 5.03285 6.70911 0
M  V30 1526 H 197.961 5.20001 8.76217 0
M  V30 1527 H 197.771 7.11046 7.35349 0
M  V30 1528 H 196.141 6.35815 7.26986 0
M  V30 1529 H 192.405 0.66574 6.53015 0
M  V30 1530 H 196.983 4.58037 4.27732 0
M  V30 1531 H 191.375 2.64828 2.45331 0
M  V30 1532 H 192.779 3.67472 2.05644 0
M  V30 1533 H 198.781 1.61619 6.13468 0
M  V30 1534 P 200.639 3.65191 7.99657 0
M  V30 1535 O 202.061 3.8425 8.48115 0
M  V30 1536 O 200.279 4.17805 6.64342 0
M  V30 1537 O 200.316 2.07613 7.95143 0
M  V30 1538 C 200.156 1.44328 9.27336 0
M  V30 1539 C 200.696 0.0220036 9.17197 0
M  V30 1540 O 199.64 -0.626867 8.61923 0
M  V30 1541 C 201.914 -0.24586 8.30336 0
M  V30 1542 O 202.652 -1.39011 8.63583 0
M  V30 1543 C 201.245 -0.273849 6.91158 0
M  V30 1544 O 202.044 -1.06348 6.02892 0
M  V30 1545 C 199.908 -0.897649 7.22545 0
M  V30 1546 H 199.94 -1.9841 7.04286 0
M  V30 1547 H 201.123 0.739928 6.497 0
M  V30 1548 H 202.607 0.60668 8.36503 0
M  V30 1549 H 200.913 -0.352479 10.1829 0
M  V30 1550 H 200.723 2.00611 10.0304 0
M  V30 1551 H 199.093 1.41843 9.55327 0
M  V30 1552 H 201.732 -1.95734 6.03555 0
M  V30 1553 P 203.589 -1.25109 8.70152 0
M  V30 1554 O 205.011 -1.35274 9.21221 0
M  V30 1555 O 203.229 -0.0769065 7.84762 0
M  V30 1556 O 203.266 -2.55232 7.81161 0
M  V30 1557 C 203.106 -3.79939 8.58154 0
M  V30 1558 C 203.646 -4.94023 7.72785 0
M  V30 1559 O 202.59 -5.18726 6.91205 0
M  V30 1560 C 204.864 -4.69597 6.85231 0
M  V30 1561 O 205.602 -5.83832 6.51337 0
M  V30 1562 C 204.195 -3.96706 5.66633 0
M  V30 1563 O 204.994 -4.15414 4.49689 0
M  V30 1564 C 202.858 -4.66153 5.59313 0
M  V30 1565 H 202.89 -5.47679 4.85214 0
M  V30 1566 H 204.073 -2.89008 5.86566 0
M  V30 1567 H 205.557 -4.0121 7.36511 0
M  V30 1568 H 203.863 -5.80182 8.37584 0
M  V30 1569 H 203.673 -3.73517 9.52265 0
M  V30 1570 H 202.043 -3.97163 8.80359 0
M  V30 1571 H 204.682 -4.90969 4.01921 0
M  V30 1572 P 206.54 -5.75688 6.64379 0
M  V30 1573 O 207.962 -6.11849 7.01846 0
M  V30 1574 O 206.18 -4.30744 6.56026 0
M  V30 1575 O 206.217 -6.37042 5.19165 0
M  V30 1576 C 206.057 -7.83578 5.16515 0
M  V30 1577 C 206.597 -8.33398 3.83019 0
M  V30 1578 O 205.541 -8.10074 3.01034 0
M  V30 1579 C 207.815 -7.65514 3.2257 0
M  V30 1580 O 208.553 -8.4329 2.32297 0
M  V30 1581 C 207.146 -6.40075 2.62207 0
M  V30 1582 O 207.945 -5.92589 1.53712 0
M  V30 1583 C 205.809 -6.9454 2.18503 0
M  V30 1584 H 205.841 -7.23063 1.12091 0
M  V30 1585 H 207.024 -5.6025 3.37201 0
M  V30 1586 H 208.508 -7.35707 4.02681 0
M  V30 1587 H 206.814 -9.40912 3.9095 0
M  V30 1588 H 206.624 -8.29056 5.99158 0
M  V30 1589 H 204.994 -8.10073 5.25882 0
M  V30 1590 H 207.633 -6.30324 0.726794 0
M  V30 1591 P 209.49 -8.4349 2.47671 0
M  V30 1592 O 210.912 -8.94167 2.5964 0
M  V30 1593 O 209.13 -7.1704 3.19006 0
M  V30 1594 O 209.167 -8.16596 0.923387 0
M  V30 1595 C 209.007 -9.38437 0.108857 0
M  V30 1596 C 209.547 -9.08175 -1.28353 0
M  V30 1597 O 208.491 -8.44229 -1.84713 0
M  V30 1598 C 210.765 -8.18386 -1.42505 0
M  V30 1599 O 211.503 -8.3501 -2.60497 0
M  V30 1600 C 210.096 -6.80225 -1.25468 0
M  V30 1601 O 210.895 -5.81621 -1.91066 0
M  V30 1602 C 208.759 -7.02416 -1.9168 0
M  V30 1603 H 208.791 -6.6888 -2.96621 0
M  V30 1604 H 209.974 -6.53617 -0.192223 0
M  V30 1605 H 211.458 -8.36622 -0.589963 0
M  V30 1606 H 209.764 -10.0291 -1.79807 0
M  V30 1607 H 209.574 -10.2138 0.558219 0
M  V30 1608 H 207.944 -9.6579 0.0444202 0
M  V30 1609 H 210.583 -5.69556 -2.79637 0
M  V30 1610 P 212.441 -8.4349 -2.47671 0
M  V30 1611 O 213.863 -8.92593 -2.65 0
M  V30 1612 O 212.081 -7.7568 -1.19296 0
M  V30 1613 O 212.118 -7.36886 -3.63805 0
M  V30 1614 C 211.958 -7.95349 -4.982 0
M  V30 1615 C 212.498 -6.94612 -5.98974 0
M  V30 1616 O 211.442 -6.10347 -6.11815 0
M  V30 1617 C 213.716 -6.11426 -5.62335 0
M  V30 1618 O 214.454 -5.6162 -6.70584 0
M  V30 1619 C 213.047 -5.04409 -4.73308 0
M  V30 1620 O 213.846 -3.85992 -4.75183 0
M  V30 1621 C 211.71 -4.8728 -5.41006 0
M  V30 1622 H 211.742 -4.02333 -6.11157 0
M  V30 1623 H 212.925 -5.39466 -3.69543 0
M  V30 1624 H 214.409 -6.71916 -5.01943 0
M  V30 1625 H 212.715 -7.4649 -6.93477 0
M  V30 1626 H 212.525 -8.89416 -5.05237 0
M  V30 1627 H 210.895 -8.14876 -5.18409 0
M  V30 1628 H 213.534 -3.27957 -5.4317 0
M  V30 1629 P 215.392 -5.75688 -6.64379 0
M  V30 1630 O 216.814 -6.07758 -7.05656 0
M  V30 1631 O 215.032 -5.88047 -5.19722 0
M  V30 1632 O 215.069 -4.2322 -7.04443 0
M  V30 1633 C 214.909 -3.99743 -8.4911 0
M  V30 1634 C 215.449 -2.60487 -8.79329 0
M  V30 1635 O 214.394 -1.82684 -8.4467 0
M  V30 1636 C 216.667 -2.10343 -8.03628 0
M  V30 1637 O 217.405 -1.09919 -8.67766 0
M  V30 1638 C 215.999 -1.68446 -6.70876 0
M  V30 1639 O 216.797 -0.678026 -6.08333 0
M  V30 1640 C 214.661 -1.17436 -7.18567 0
M  V30 1641 N 213.618 -1.52699 -6.23988 0
M  V30 1642 C 213.68 -2.68084 -5.57824 0
M  V30 1643 N 212.635 -2.8189 -4.75643 0
M  V30 1644 C 211.901 -1.72373 -4.95155 0
M  V30 1645 C 210.595 -1.37653 -4.44996 0
M  V30 1646 O 209.862 -2.02239 -3.68445 0
M  V30 1647 N 210.165 -0.17675 -4.90782 0
M  V30 1648 C 210.914 0.645036 -5.78716 0
M  V30 1649 N 210.317 1.84214 -6.10618 0
M  V30 1650 N 212.067 0.321732 -6.30279 0
M  V30 1651 C 212.524 -0.87502 -5.86913 0
M  V30 1652 H 214.693 -0.0804732 -7.31656 0
M  V30 1653 H 215.876 -2.53998 -6.02444 0
M  V30 1654 H 217.361 -2.93095 -7.8582 0
M  V30 1655 H 215.666 -2.53065 -9.86973 0
M  V30 1656 H 215.476 -4.75072 -9.05887 0
M  V30 1657 H 213.845 -4.05244 -8.76668 0
M  V30 1658 H 209.269 0.152143 -4.60849 0
M  V30 1659 H 214.476 -3.41852 -5.69006 0
M  V30 1660 H 209.406 2.08538 -5.69521 0
M  V30 1661 H 210.782 2.4895 -6.75698 0
M  V30 1662 H 216.486 0.177619 -6.34151 0
M  V30 1663 P 218.342 -1.25109 -8.70152 0
M  V30 1664 O 219.764 -1.29744 -9.22016 0
M  V30 1665 O 217.982 -2.13714 -7.55141 0
M  V30 1666 O 218.019 0.248149 -8.21425 0
M  V30 1667 C 217.859 1.22779 -9.30434 0
M  V30 1668 C 218.399 2.56293 -8.80664 0
M  V30 1669 O 217.343 3.02979 -8.09349 0
M  V30 1670 C 219.617 2.57523 -7.89775 0
M  V30 1671 O 220.355 3.7668 -7.89438 0
M  V30 1672 C 218.948 2.20997 -6.55446 0
M  V30 1673 O 219.747 2.71895 -5.48509 0
M  V30 1674 C 217.611 2.89693 -6.67988 0
M  V30 1675 H 217.643 3.88793 -6.19859 0
M  V30 1676 H 218.826 1.12046 -6.44229 0
M  V30 1677 H 220.31 1.7746 -8.19711 0
M  V30 1678 H 218.616 3.20706 -9.67112 0
M  V30 1679 H 218.426 0.901032 -10.1892 0
M  V30 1680 H 216.796 1.33049 -9.56592 0
M  V30 1681 H 219.435 3.57847 -5.23962 0
M  V30 1682 P 221.293 3.65191 -7.99657 0
M  V30 1683 O 222.715 3.89332 -8.45794 0
M  V30 1684 O 220.933 2.28472 -7.50807 0
M  V30 1685 O 220.97 4.64972 -6.77611 0
M  V30 1686 C 220.81 6.06319 -7.16352 0
M  V30 1687 C 221.35 6.91731 -6.02299 0
M  V30 1688 O 220.294 6.92449 -5.17064 0
M  V30 1689 C 222.568 6.43627 -5.25174 0
M  V30 1690 O 223.306 7.43686 -4.60469 0
M  V30 1691 C 221.899 5.40275 -4.31916 0
M  V30 1692 O 222.698 5.25279 -3.14438 0
M  V30 1693 C 220.562 6.04847 -4.05327 0
M  V30 1694 H 220.594 6.62195 -3.11261 0
M  V30 1695 H 221.777 4.42556 -4.81383 0
M  V30 1696 H 223.261 5.92458 -5.93643 0
M  V30 1697 H 221.567 7.92655 -6.402 0
M  V30 1698 H 221.377 6.26671 -8.0846 0
M  V30 1699 H 219.747 6.29101 -7.32804 0
M  V30 1700 H 222.386 5.84315 -2.47318 0
M  V30 1701 P 224.243 7.39546 -4.75277 0
M  V30 1702 O 225.664 7.84882 -5.01092 0
M  V30 1703 O 223.883 5.9812 -5.08098 0
M  V30 1704 O 223.92 7.57503 -3.1866 0
M  V30 1705 C 223.759 8.97452 -2.74862 0
M  V30 1706 C 224.3 9.07548 -1.32709 0
M  V30 1707 O 223.245 8.61972 -0.606089 0
M  V30 1708 C 225.518 8.25383 -0.938334 0
M  V30 1709 O 226.256 8.74577 0.146954 0
M  V30 1710 C 224.85 6.8802 -0.712559 0
M  V30 1711 O 225.648 6.1181 0.188505 0
M  V30 1712 C 223.512 7.27966 -0.139777 0
M  V30 1713 N 222.469 6.39368 -0.623421 0
M  V30 1714 C 222.638 5.71761 -1.78245 0
M  V30 1715 N 221.611 4.962 -2.10491 0
M  V30 1716 C 220.726 5.16158 -1.0635 0
M  V30 1717 C 219.459 4.60425 -0.810266 0
M  V30 1718 N 218.86 3.7057 -1.62914 0
M  V30 1719 N 218.894 5.06 0.348685 0
M  V30 1720 C 219.496 5.94532 1.20395 0
M  V30 1721 N 220.673 6.48452 1.01191 0
M  V30 1722 C 221.248 6.04423 -0.146291 0
M  V30 1723 H 223.544 7.25255 0.961469 0
M  V30 1724 H 224.727 6.32625 -1.65044 0
M  V30 1725 H 226.21 8.19355 -1.79097 0
M  V30 1726 H 224.516 10.1305 -1.09016 0
M  V30 1727 H 224.326 9.64276 -3.41316 0
M  V30 1728 H 222.696 9.25417 -2.76357 0
M  V30 1729 H 218.96 6.21659 2.10714 0
M  V30 1730 H 223.538 5.79354 -2.38959 0
M  V30 1731 H 217.93 3.33174 -1.38982 0
M  V30 1732 H 219.334 3.39714 -2.48836 0
M  V30 1733 H 225.336 6.25169 1.0783 0
M  V30 1734 P 227.194 8.791 4.22174e-13 0
M  V30 1735 O 228.616 9.31096 0.027933 0
M  V30 1736 O 226.834 7.77869 -1.04071 0
M  V30 1737 O 226.871 8.09533 1.41463 0
M  V30 1738 C 226.711 9.0349 2.53943 0
M  V30 1739 C 227.251 8.35226 3.79016 0
M  V30 1740 O 226.195 7.57992 4.15078 0
M  V30 1741 C 228.469 7.45087 3.67298 0
M  V30 1742 O 229.207 7.27796 4.85194 0
M  V30 1743 C 227.8 6.17323 3.12027 0
M  V30 1744 O 228.599 5.04231 3.47188 0
M  V30 1745 C 226.463 6.19961 3.81809 0
M  V30 1746 H 226.495 5.58218 4.73051 0
M  V30 1747 H 227.678 6.21726 2.02589 0
M  V30 1748 H 229.162 7.86112 2.9231 0
M  V30 1749 H 227.468 9.11627 4.55076 0
M  V30 1750 H 227.278 9.9573 2.34194 0
M  V30 1751 H 225.648 9.2792 2.67832 0
M  V30 1752 H 228.287 4.67702 4.28772 0
M  V30 1753 P 230.144 7.39546 4.75277 0
M  V30 1754 O 231.566 7.81777 5.05738 0
M  V30 1755 O 229.784 7.1065 3.32998 0
M  V30 1756 O 229.821 6.04542 5.56673 0
M  V30 1757 C 229.661 6.22772 7.02095 0
M  V30 1758 C 230.201 4.97725 7.70406 0
M  V30 1759 O 229.145 4.13256 7.58987 0
M  V30 1760 C 231.419 4.28231 7.11815 0
M  V30 1761 O 232.157 3.49945 8.01648 0
M  V30 1762 C 230.75 3.5063 5.96244 0
M  V30 1763 O 231.549 2.36482 5.64681 0
M  V30 1764 C 229.413 3.15122 6.56374 0
M  V30 1765 H 229.445 2.13853 6.99751 0
M  V30 1766 H 230.628 4.13501 5.06559 0
M  V30 1767 H 232.112 5.03285 6.70911 0
M  V30 1768 H 230.418 5.20877 8.75697 0
M  V30 1769 H 230.228 7.11046 7.35349 0
M  V30 1770 H 228.598 6.35815 7.26986 0
M  V30 1771 H 231.237 1.61644 6.13565 0
M  V30 1772 P 233.095 3.65191 7.99657 0
M  V30 1773 O 234.516 3.84292 8.48206 0
M  V30 1774 O 232.735 4.17805 6.64342 0
M  V30 1775 O 232.772 2.07613 7.95143 0
M  V30 1776 C 232.611 1.44344 9.27435 0
M  V30 1777 C 233.152 0.0220036 9.17197 0
M  V30 1778 O 232.097 -0.626794 8.61824 0
M  V30 1779 C 234.37 -0.24586 8.30336 0
M  V30 1780 O 235.108 -1.39011 8.63583 0
M  V30 1781 C 233.702 -0.273849 6.91158 0
M  V30 1782 O 234.5 -1.05728 6.029 0
M  V30 1783 C 232.364 -0.897649 7.22545 0
M  V30 1784 N 231.321 -0.292839 6.41732 0
M  V30 1785 C 231.49 0.950603 5.91308 0
M  V30 1786 N 230.463 1.37732 5.21105 0
M  V30 1787 C 229.578 0.318109 5.26039 0
M  V30 1788 C 228.311 0.146766 4.6727 0
M  V30 1789 N 227.712 1.08519 3.89983 0
M  V30 1790 N 227.746 -1.06525 4.95887 0
M  V30 1791 C 228.348 -2.0378 5.71347 0
M  V30 1792 N 229.525 -1.92445 6.27451 0
M  V30 1793 C 230.1 -0.715382 6.00353 0
M  V30 1794 H 232.396 -1.98383 7.04189 0
M  V30 1795 H 233.579 0.733318 6.49674 0
M  V30 1796 H 235.062 0.60668 8.36503 0
M  V30 1797 H 233.368 -0.362662 10.1825 0
M  V30 1798 H 233.178 2.00611 10.0304 0
M  V30 1799 H 231.548 1.41843 9.55327 0
M  V30 1800 H 227.812 -2.97041 5.85344 0
M  V30 1801 H 232.39 1.54076 6.07465 0
M  V30 1802 H 226.782 0.901517 3.49562 0
M  V30 1803 H 228.186 1.97957 3.71669 0
M  V30 1804 H 234.188 -1.95704 6.0346 0
M  V30 1805 P 236.046 -1.25109 8.70152 0
M  V30 1806 O 237.468 -1.35274 9.21221 0
M  V30 1807 O 235.686 -0.0769065 7.84762 0
M  V30 1808 O 235.723 -2.55232 7.81161 0
M  V30 1809 C 235.563 -3.79939 8.58154 0
M  V30 1810 C 236.103 -4.94023 7.72785 0
M  V30 1811 O 235.047 -5.18726 6.91205 0
M  V30 1812 C 237.321 -4.69597 6.85231 0
M  V30 1813 O 238.059 -5.83832 6.51337 0
M  V30 1814 C 236.652 -3.96706 5.66633 0
M  V30 1815 O 237.451 -4.15414 4.49689 0
M  V30 1816 C 235.315 -4.66153 5.59313 0
M  V30 1817 H 235.347 -5.47679 4.85214 0
M  V30 1818 H 236.53 -2.89008 5.86566 0
M  V30 1819 H 238.014 -4.0121 7.36511 0
M  V30 1820 H 236.32 -5.80182 8.37584 0
M  V30 1821 H 236.13 -3.73517 9.52265 0
M  V30 1822 H 234.5 -3.97163 8.80359 0
M  V30 1823 H 237.139 -4.90969 4.01921 0
M  V30 1824 P 238.996 -5.75688 6.64379 0
M  V30 1825 O 240.418 -6.11849 7.01846 0
M  V30 1826 O 238.636 -4.30744 6.56026 0
M  V30 1827 O 238.673 -6.37042 5.19165 0
M  V30 1828 C 238.513 -7.83578 5.16515 0
M  V30 1829 C 239.053 -8.33398 3.83019 0
M  V30 1830 O 237.997 -8.10074 3.01034 0
M  V30 1831 C 240.271 -7.65514 3.2257 0
M  V30 1832 O 241.009 -8.4329 2.32297 0
M  V30 1833 C 239.602 -6.40075 2.62207 0
M  V30 1834 O 240.401 -5.92589 1.53712 0
M  V30 1835 C 238.265 -6.9454 2.18503 0
M  V30 1836 H 238.297 -7.23063 1.12091 0
M  V30 1837 H 239.48 -5.6025 3.37201 0
M  V30 1838 H 240.964 -7.35707 4.02681 0
M  V30 1839 H 239.27 -9.40912 3.9095 0
M  V30 1840 H 239.08 -8.29056 5.99158 0
M  V30 1841 H 237.45 -8.10073 5.25882 0
M  V30 1842 H 240.089 -6.30324 0.726794 0
M  V30 1843 P 241.947 -8.4349 2.47671 0
M  V30 1844 O 243.369 -8.94167 2.5964 0
M  V30 1845 O 241.587 -7.1704 3.19006 0
M  V30 1846 O 241.624 -8.16596 0.923387 0
M  V30 1847 C 241.464 -9.38437 0.108857 0
M  V30 1848 C 242.004 -9.08175 -1.28353 0
M  V30 1849 O 240.948 -8.44229 -1.84713 0
M  V30 1850 C 243.222 -8.18386 -1.42505 0
M  V30 1851 O 243.96 -8.3501 -2.60497 0
M  V30 1852 C 242.553 -6.80225 -1.25468 0
M  V30 1853 O 243.352 -5.81621 -1.91066 0
M  V30 1854 C 241.216 -7.02416 -1.9168 0
M  V30 1855 H 241.248 -6.6888 -2.96621 0
M  V30 1856 H 242.431 -6.53617 -0.192223 0
M  V30 1857 H 243.915 -8.36622 -0.589963 0
M  V30 1858 H 242.221 -10.0291 -1.79807 0
M  V30 1859 H 242.031 -10.2138 0.558219 0
M  V30 1860 H 240.401 -9.6579 0.0444202 0
M  V30 1861 H 243.04 -5.69556 -2.79637 0
M  V30 1862 P 244.897 -8.4349 -2.47671 0
M  V30 1863 O 246.319 -8.92593 -2.65 0
M  V30 1864 O 244.537 -7.7568 -1.19296 0
M  V30 1865 O 244.574 -7.36886 -3.63805 0
M  V30 1866 C 244.414 -7.95349 -4.982 0
M  V30 1867 C 244.954 -6.94612 -5.98974 0
M  V30 1868 O 243.898 -6.10347 -6.11815 0
M  V30 1869 C 246.172 -6.11426 -5.62335 0
M  V30 1870 O 246.91 -5.6162 -6.70584 0
M  V30 1871 C 245.503 -5.04409 -4.73308 0
M  V30 1872 O 246.302 -3.85992 -4.75183 0
M  V30 1873 C 244.166 -4.8728 -5.41006 0
M  V30 1874 H 244.198 -4.02333 -6.11157 0
M  V30 1875 H 245.381 -5.39466 -3.69543 0
M  V30 1876 H 246.865 -6.71916 -5.01943 0
M  V30 1877 H 245.171 -7.4649 -6.93477 0
M  V30 1878 H 244.981 -8.89416 -5.05237 0
M  V30 1879 H 243.351 -8.14876 -5.18409 0
M  V30 1880 H 245.99 -3.27957 -5.4317 0
M  V30 1881 P 247.848 -5.75688 -6.64379 0
M  V30 1882 O 249.27 -6.07627 -7.05504 0
M  V30 1883 O 247.488 -5.88047 -5.19722 0
M  V30 1884 O 247.525 -4.2322 -7.04443 0
M  V30 1885 C 247.365 -3.99743 -8.4911 0
M  V30 1886 C 247.905 -2.60516 -8.79425 0
M  V30 1887 O 246.849 -1.82684 -8.4467 0
M  V30 1888 C 249.123 -2.10343 -8.03628 0
M  V30 1889 O 249.861 -1.09919 -8.67766 0
M  V30 1890 C 248.454 -1.68446 -6.70876 0
M  V30 1891 O 249.253 -0.678137 -6.08433 0
M  V30 1892 C 247.117 -1.17436 -7.18567 0
M  V30 1893 H 247.149 -0.0804732 -7.31656 0
M  V30 1894 H 248.332 -2.54037 -6.02537 0
M  V30 1895 H 249.816 -2.93881 -7.85526 0
M  V30 1896 H 248.122 -2.53065 -9.86973 0
M  V30 1897 H 247.932 -4.75072 -9.05887 0
M  V30 1898 H 246.302 -4.05244 -8.76668 0
M  V30 1899 H 248.941 0.177647 -6.34251 0
M  V30 1900 P 250.798 -1.25109 -8.70152 0
M  V30 1901 O 252.22 -1.29744 -9.22016 0
M  V30 1902 O 250.438 -2.13714 -7.55141 0
M  V30 1903 O 250.475 0.248149 -8.21425 0
M  V30 1904 C 250.315 1.22779 -9.30434 0
M  V30 1905 C 250.855 2.56293 -8.80664 0
M  V30 1906 O 249.799 3.02979 -8.09349 0
M  V30 1907 C 252.073 2.57523 -7.89775 0
M  V30 1908 O 252.811 3.7668 -7.89438 0
M  V30 1909 C 251.404 2.20997 -6.55446 0
M  V30 1910 O 252.203 2.71895 -5.48509 0
M  V30 1911 C 250.067 2.89693 -6.67988 0
M  V30 1912 H 250.099 3.88793 -6.19859 0
M  V30 1913 H 251.282 1.12046 -6.44229 0
M  V30 1914 H 252.766 1.7746 -8.19711 0
M  V30 1915 H 251.072 3.20706 -9.67112 0
M  V30 1916 H 250.882 0.901032 -10.1892 0
M  V30 1917 H 249.252 1.33049 -9.56592 0
M  V30 1918 H 251.891 3.57847 -5.23962 0
M  V30 1919 P 253.749 3.65191 -7.99657 0
M  V30 1920 O 255.171 3.89332 -8.45794 0
M  V30 1921 O 253.389 2.28472 -7.50807 0
M  V30 1922 O 253.426 4.64972 -6.77611 0
M  V30 1923 C 253.266 6.06319 -7.16352 0
M  V30 1924 C 253.806 6.91731 -6.02299 0
M  V30 1925 O 252.75 6.92449 -5.17064 0
M  V30 1926 C 255.024 6.43627 -5.25174 0
M  V30 1927 O 255.762 7.43686 -4.60469 0
M  V30 1928 C 254.355 5.40275 -4.31916 0
M  V30 1929 O 255.154 5.25279 -3.14438 0
M  V30 1930 C 253.018 6.04847 -4.05327 0
M  V30 1931 H 253.05 6.62195 -3.11261 0
M  V30 1932 H 254.233 4.42556 -4.81383 0
M  V30 1933 H 255.717 5.92458 -5.93643 0
M  V30 1934 H 254.023 7.92655 -6.402 0
M  V30 1935 H 253.833 6.26671 -8.0846 0
M  V30 1936 H 252.203 6.29101 -7.32804 0
M  V30 1937 H 254.842 5.84315 -2.47318 0
M  V30 1938 P 256.7 7.39546 -4.75277 0
M  V30 1939 O 258.122 7.84798 -5.01039 0
M  V30 1940 O 256.34 5.9812 -5.08098 0
M  V30 1941 O 256.377 7.57503 -3.1866 0
M  V30 1942 C 256.217 8.97357 -2.74833 0
M  V30 1943 C 256.757 9.07548 -1.32709 0
M  V30 1944 O 255.701 8.62072 -0.606159 0
M  V30 1945 C 257.975 8.25383 -0.938334 0
M  V30 1946 O 258.713 8.74577 0.146954 0
M  V30 1947 C 257.306 6.8802 -0.712559 0
M  V30 1948 O 258.105 6.1189 0.194655 0
M  V30 1949 C 255.969 7.27966 -0.139777 0
M  V30 1950 H 256.001 7.25354 0.961601 0
M  V30 1951 H 257.184 6.32557 -1.65702 0
M  V30 1952 H 258.668 8.19355 -1.79097 0
M  V30 1953 H 256.974 10.1294 -1.10029 0
M  V30 1954 H 256.784 9.64276 -3.41316 0
M  V30 1955 H 255.154 9.25417 -2.76357 0
M  V30 1956 H 257.793 6.25267 1.07847 0
M  V30 1957 P 259.65 8.791 7.3234e-13 0
M  V30 1958 O 261.072 9.31096 0.027933 0
M  V30 1959 O 259.29 7.77869 -1.04071 0
M  V30 1960 O 259.327 8.09533 1.41463 0
M  V30 1961 C 259.167 9.0349 2.53943 0
M  V30 1962 C 259.707 8.35226 3.79016 0
M  V30 1963 O 258.651 7.57992 4.15078 0
M  V30 1964 C 260.925 7.45087 3.67298 0
M  V30 1965 O 261.663 7.27796 4.85194 0
M  V30 1966 C 260.256 6.17323 3.12027 0
M  V30 1967 O 261.055 5.04231 3.47188 0
M  V30 1968 C 258.919 6.19961 3.81809 0
M  V30 1969 H 258.951 5.58218 4.73051 0
M  V30 1970 H 260.134 6.21726 2.02589 0
M  V30 1971 H 261.618 7.86112 2.9231 0
M  V30 1972 H 259.924 9.11627 4.55076 0
M  V30 1973 H 259.734 9.9573 2.34194 0
M  V30 1974 H 258.104 9.2792 2.67832 0
M  V30 1975 H 260.743 4.67702 4.28772 0
M  V30 1976 P 262.601 7.39546 4.75277 0
M  V30 1977 O 264.023 7.81777 5.05738 0
M  V30 1978 O 262.241 7.1065 3.32998 0
M  V30 1979 O 262.278 6.04542 5.56673 0
M  V30 1980 C 262.118 6.22772 7.02095 0
M  V30 1981 C 262.658 4.97725 7.70406 0
M  V30 1982 O 261.602 4.13256 7.58987 0
M  V30 1983 C 263.876 4.28231 7.11815 0
M  V30 1984 O 264.614 3.49945 8.01648 0
M  V30 1985 C 263.207 3.5063 5.96244 0
M  V30 1986 O 264.006 2.36482 5.64681 0
M  V30 1987 C 261.87 3.15122 6.56374 0
M  V30 1988 H 261.902 2.13853 6.99751 0
M  V30 1989 H 263.085 4.13501 5.06559 0
M  V30 1990 H 264.569 5.03285 6.70911 0
M  V30 1991 H 262.875 5.20877 8.75697 0
M  V30 1992 H 262.685 7.11046 7.35349 0
M  V30 1993 H 261.055 6.35815 7.26986 0
M  V30 1994 H 263.694 1.61644 6.13565 0
M  V30 1995 P 265.551 3.65191 7.99657 0
M  V30 1996 O 266.973 3.8425 8.48115 0
M  V30 1997 O 265.191 4.17805 6.64342 0
M  V30 1998 O 265.228 2.07613 7.95143 0
M  V30 1999 C 265.068 1.44328 9.27336 0
M  V30 2000 C 265.608 0.0220036 9.17197 0
M  V30 2001 O 264.552 -0.626867 8.61923 0
M  V30 2002 C 266.826 -0.24586 8.30336 0
M  V30 2003 O 267.564 -1.39011 8.63583 0
M  V30 2004 C 266.157 -0.273849 6.91158 0
M  V30 2005 O 266.956 -1.06348 6.02892 0
M  V30 2006 C 264.82 -0.897649 7.22545 0
M  V30 2007 H 264.852 -1.9841 7.04286 0
M  V30 2008 H 266.035 0.739928 6.497 0
M  V30 2009 H 267.519 0.60668 8.36503 0
M  V30 2010 H 265.825 -0.352479 10.1829 0
M  V30 2011 H 265.635 2.00611 10.0304 0
M  V30 2012 H 264.005 1.41843 9.55327 0
M  V30 2013 H 266.644 -1.95734 6.03555 0
M  V30 2014 P 268.502 -1.25109 8.70152 0
M  V30 2015 O 269.924 -1.35274 9.21221 0
M  V30 2016 O 268.142 -0.0769065 7.84762 0
M  V30 2017 O 268.179 -2.55232 7.81161 0
M  V30 2018 C 268.019 -3.79939 8.58154 0
M  V30 2019 C 268.559 -4.94023 7.72785 0
M  V30 2020 O 267.503 -5.18726 6.91205 0
M  V30 2021 C 269.777 -4.69597 6.85231 0
M  V30 2022 O 270.515 -5.83832 6.51337 0
M  V30 2023 C 269.108 -3.96706 5.66633 0
M  V30 2024 O 269.907 -4.15414 4.49689 0
M  V30 2025 C 267.771 -4.66153 5.59313 0
M  V30 2026 H 267.803 -5.47679 4.85214 0
M  V30 2027 H 268.986 -2.89008 5.86566 0
M  V30 2028 H 270.47 -4.0121 7.36511 0
M  V30 2029 H 268.776 -5.80182 8.37584 0
M  V30 2030 H 268.586 -3.73517 9.52265 0
M  V30 2031 H 266.956 -3.97163 8.80359 0
M  V30 2032 H 269.595 -4.90969 4.01921 0
M  V30 2033 P 271.452 -5.75688 6.64379 0
M  V30 2034 O 272.874 -6.11849 7.01846 0
M  V30 2035 O 271.092 -4.30744 6.56026 0
M  V30 2036 O 271.129 -6.37042 5.19165 0
M  V30 2037 C 270.969 -7.83578 5.16515 0
M  V30 2038 C 271.509 -8.33398 3.83019 0
M  V30 2039 O 270.453 -8.10074 3.01034 0
M  V30 2040 C 272.727 -7.65514 3.2257 0
M  V30 2041 O 273.465 -8.4329 2.32297 0
M  V30 2042 C 272.058 -6.40075 2.62207 0
M  V30 2043 O 272.857 -5.92589 1.53712 0
M  V30 2044 C 270.721 -6.9454 2.18503 0
M  V30 2045 H 270.753 -7.23063 1.12091 0
M  V30 2046 H 271.936 -5.6025 3.37201 0
M  V30 2047 H 273.42 -7.35707 4.02681 0
M  V30 2048 H 271.726 -9.40912 3.9095 0
M  V30 2049 H 271.536 -8.29056 5.99158 0
M  V30 2050 H 269.906 -8.10073 5.25882 0
M  V30 2051 H 272.545 -6.30324 0.726794 0
M  V30 2052 P 274.403 -8.4349 2.47671 0
M  V30 2053 O 275.825 -8.94167 2.5964 0
M  V30 2054 O 274.043 -7.1704 3.19006 0
M  V30 2055 O 274.08 -8.16596 0.923387 0
M  V30 2056 C 273.92 -9.38437 0.108857 0
M  V30 2057 C 274.46 -9.08175 -1.28353 0
M  V30 2058 O 273.404 -8.44229 -1.84713 0
M  V30 2059 C 275.678 -8.18386 -1.42505 0
M  V30 2060 O 276.416 -8.3501 -2.60497 0
M  V30 2061 C 275.009 -6.80225 -1.25468 0
M  V30 2062 O 275.808 -5.81621 -1.91066 0
M  V30 2063 C 273.672 -7.02416 -1.9168 0
M  V30 2064 H 273.704 -6.6888 -2.96621 0
M  V30 2065 H 274.887 -6.53617 -0.192223 0
M  V30 2066 H 276.371 -8.36622 -0.589963 0
M  V30 2067 H 274.677 -10.0291 -1.79807 0
M  V30 2068 H 274.487 -10.2138 0.558219 0
M  V30 2069 H 272.857 -9.6579 0.0444202 0
M  V30 2070 H 275.496 -5.69556 -2.79637 0
M  V30 2071 P 277.354 -8.4349 -2.47671 0
M  V30 2072 O 278.775 -8.92689 -2.65029 0
M  V30 2073 O 276.994 -7.7568 -1.19296 0
M  V30 2074 O 277.031 -7.36886 -3.63805 0
M  V30 2075 C 276.87 -7.95433 -4.98253 0
M  V30 2076 C 277.411 -6.94612 -5.98974 0
M  V30 2077 O 276.356 -6.10277 -6.11744 0
M  V30 2078 C 278.629 -6.11426 -5.62335 0
M  V30 2079 O 279.367 -5.6162 -6.70584 0
M  V30 2080 C 277.961 -5.04409 -4.73308 0
M  V30 2081 O 278.759 -3.86404 -4.74719 0
M  V30 2082 C 276.623 -4.8728 -5.41006 0
M  V30 2083 N 275.58 -4.65812 -4.42377 0
M  V30 2084 C 275.749 -5.09132 -3.15382 0
M  V30 2085 N 274.722 -4.84021 -2.3716 0
M  V30 2086 C 273.837 -4.18386 -3.20441 0
M  V30 2087 C 272.57 -3.6275 -2.94905 0
M  V30 2088 N 271.971 -3.65794 -1.73372 0
M  V30 2089 N 272.005 -3.05008 -4.05243 0
M  V30 2090 C 272.607 -2.98348 -5.28159 0
M  V30 2091 N 273.784 -3.48171 -5.56333 0
M  V30 2092 C 274.359 -4.06869 -4.47212 0
M  V30 2093 H 276.655 -4.02278 -6.11074 0
M  V30 2094 H 277.838 -5.39013 -3.70026 0
M  V30 2095 H 279.321 -6.71916 -5.01943 0
M  V30 2096 H 277.627 -7.45796 -6.94223 0
M  V30 2097 H 277.437 -8.89416 -5.05237 0
M  V30 2098 H 275.807 -8.14876 -5.18409 0
M  V30 2099 H 272.071 -2.47853 -6.07807 0
M  V30 2100 H 276.649 -5.59989 -2.81362 0
M  V30 2101 H 271.041 -3.23218 -1.60782 0
M  V30 2102 H 272.445 -4.10523 -0.937856 0
M  V30 2103 H 278.447 -3.27906 -5.43085 0
M  V30 2104 P 280.304 -5.75688 -6.64379 0
M  V30 2105 O 281.726 -6.07627 -7.05504 0
M  V30 2106 O 279.944 -5.88047 -5.19722 0
M  V30 2107 O 279.981 -4.2322 -7.04443 0
M  V30 2108 C 279.821 -3.99743 -8.4911 0
M  V30 2109 C 280.361 -2.60516 -8.79425 0
M  V30 2110 O 279.305 -1.82684 -8.4467 0
M  V30 2111 C 281.579 -2.10343 -8.03628 0
M  V30 2112 O 282.317 -1.09919 -8.67766 0
M  V30 2113 C 280.91 -1.68446 -6.70876 0
M  V30 2114 O 281.709 -0.678137 -6.08433 0
M  V30 2115 C 279.573 -1.17436 -7.18567 0
M  V30 2116 H 279.605 -0.0804732 -7.31656 0
M  V30 2117 H 280.788 -2.54037 -6.02537 0
M  V30 2118 H 282.272 -2.93881 -7.85526 0
M  V30 2119 H 280.578 -2.53065 -9.86973 0
M  V30 2120 H 280.388 -4.75072 -9.05887 0
M  V30 2121 H 278.758 -4.05244 -8.76668 0
M  V30 2122 H 281.397 0.177647 -6.34251 0
M  V30 2123 P 283.255 -1.25109 -8.70152 0
M  V30 2124 O 284.677 -1.29772 -9.22214 0
M  V30 2125 O 282.895 -2.13714 -7.55141 0
M  V30 2126 O 282.932 0.248149 -8.21425 0
M  V30 2127 C 282.772 1.22779 -9.30434 0
M  V30 2128 C 283.312 2.56265 -8.80568 0
M  V30 2129 O 282.257 3.02979 -8.09349 0
M  V30 2130 C 284.53 2.57523 -7.89775 0
M  V30 2131 O 285.268 3.7668 -7.89438 0
M  V30 2132 C 283.862 2.20997 -6.55446 0
M  V30 2133 O 284.66 2.71851 -5.48419 0
M  V30 2134 C 282.524 2.89693 -6.67988 0
M  V30 2135 N 281.481 2.08895 -6.07487 0
M  V30 2136 C 281.543 0.760559 -6.14209 0
M  V30 2137 N 280.498 0.200108 -5.52538 0
M  V30 2138 C 279.764 1.22692 -5.09742 0
M  V30 2139 C 278.458 1.24782 -4.48775 0
M  V30 2140 O 277.725 0.290617 -4.19294 0
M  V30 2141 N 278.028 2.50468 -4.22428 0
M  V30 2142 C 278.777 3.67142 -4.51974 0
M  V30 2143 N 278.18 4.85096 -4.14091 0
M  V30 2144 N 279.93 3.67821 -5.12831 0
M  V30 2145 C 280.387 2.43698 -5.4105 0
M  V30 2146 H 282.556 3.88793 -6.19859 0
M  V30 2147 H 283.739 1.12029 -6.4413 0
M  V30 2148 H 285.224 1.78279 -8.19533 0
M  V30 2149 H 283.529 3.20706 -9.67112 0
M  V30 2150 H 283.339 0.901032 -10.1892 0
M  V30 2151 H 281.708 1.33049 -9.56592 0
M  V30 2152 H 277.132 2.61953 -3.79465 0
M  V30 2153 H 282.339 0.200439 -6.63497 0
M  V30 2154 H 277.269 4.8334 -3.66367 0
M  V30 2155 H 278.645 5.7474 -4.33841 0
M  V30 2156 H 284.349 3.5779 -5.23879 0
M  V30 2157 P 286.205 3.65191 -7.99657 0
M  V30 2158 O 287.627 3.89332 -8.45794 0
M  V30 2159 O 285.845 2.28472 -7.50807 0
M  V30 2160 O 285.882 4.64972 -6.77611 0
M  V30 2161 C 285.722 6.06319 -7.16352 0
M  V30 2162 C 286.262 6.91731 -6.02299 0
M  V30 2163 O 285.206 6.92449 -5.17064 0
M  V30 2164 C 287.48 6.43627 -5.25174 0
M  V30 2165 O 288.218 7.43686 -4.60469 0
M  V30 2166 C 286.811 5.40275 -4.31916 0
M  V30 2167 O 287.61 5.25279 -3.14438 0
M  V30 2168 C 285.474 6.04847 -4.05327 0
M  V30 2169 H 285.506 6.62195 -3.11261 0
M  V30 2170 H 286.689 4.42556 -4.81383 0
M  V30 2171 H 288.173 5.92458 -5.93643 0
M  V30 2172 H 286.479 7.92655 -6.402 0
M  V30 2173 H 286.289 6.26671 -8.0846 0
M  V30 2174 H 284.659 6.29101 -7.32804 0
M  V30 2175 H 287.298 5.84315 -2.47318 0
M  V30 2176 P 289.156 7.39546 -4.75277 0
M  V30 2177 O 290.578 7.84798 -5.01039 0
M  V30 2178 O 288.796 5.9812 -5.08098 0
M  V30 2179 O 288.833 7.57503 -3.1866 0
M  V30 2180 C 288.673 8.97357 -2.74833 0
M  V30 2181 C 289.213 9.07548 -1.32709 0
M  V30 2182 O 288.157 8.62072 -0.606159 0
M  V30 2183 C 290.431 8.25383 -0.938334 0
M  V30 2184 O 291.169 8.74577 0.146954 0
M  V30 2185 C 289.762 6.8802 -0.712559 0
M  V30 2186 O 290.561 6.1189 0.194655 0
M  V30 2187 C 288.425 7.27966 -0.139777 0
M  V30 2188 H 288.457 7.25354 0.961601 0
M  V30 2189 H 289.64 6.32557 -1.65702 0
M  V30 2190 H 291.124 8.19355 -1.79097 0
M  V30 2191 H 289.43 10.1294 -1.10029 0
M  V30 2192 H 289.24 9.64276 -3.41316 0
M  V30 2193 H 287.61 9.25417 -2.76357 0
M  V30 2194 H 290.249 6.25267 1.07847 0
M  V30 2195 P 292.106 8.791 1.04251e-12 0
M  V30 2196 O 293.507 9.36698 -0.018734 0
M  V30 2197 O 291.728 7.82499 -1.07878 0
M  V30 2198 O 291.783 8.09434 1.41446 0
M  V30 2199 C 291.623 9.0349 2.53943 0
M  V30 2200 C 292.163 8.35135 3.78975 0
M  V30 2201 O 291.107 7.57904 4.1503 0
M  V30 2202 C 293.38 7.45087 3.67298 0
M  V30 2203 O 294.119 7.27796 4.85194 0
M  V30 2204 C 292.713 6.17323 3.12027 0
M  V30 2205 O 293.511 5.04149 3.47132 0
M  V30 2206 C 291.375 6.19961 3.81809 0
M  V30 2207 N 290.332 5.71575 2.93223 0
M  V30 2208 C 289.297 4.99452 3.47592 0
M  V30 2209 O 289.336 4.7199 4.69732 0
M  V30 2210 N 288.285 4.58505 2.6803 0
M  V30 2211 C 288.333 4.85544 1.36995 0
M  V30 2212 C 289.429 5.55532 0.788532 0
M  V30 2213 C 290.395 5.97426 1.60849 0
M  V30 2214 H 291.407 5.58142 4.72986 0
M  V30 2215 H 292.59 6.21428 2.0318 0
M  V30 2216 H 294.074 7.85913 2.93131 0
M  V30 2217 H 292.38 9.11171 4.55987 0
M  V30 2218 H 292.189 9.9573 2.34194 0
M  V30 2219 H 290.559 9.27824 2.67805 0
M  V30 2220 H 289.477 5.7421 -0.281588 0
M  V30 2221 H 291.241 6.53132 1.202 0
M  V30 2222 H 293.295 4.76386 4.34983 0
M  V30 2223 P 295.057 7.39546 4.75277 0
M  V30 2224 O 296.479 7.81777 5.05738 0
M  V30 2225 O 294.697 7.1065 3.32998 0
M  V30 2226 O 294.734 6.04542 5.56673 0
M  V30 2227 C 294.574 6.22772 7.02095 0
M  V30 2228 C 295.114 4.97725 7.70406 0
M  V30 2229 O 294.058 4.13256 7.58987 0
M  V30 2230 C 296.332 4.28231 7.11815 0
M  V30 2231 O 297.07 3.49945 8.01648 0
M  V30 2232 C 295.663 3.5063 5.96244 0
M  V30 2233 O 296.462 2.36482 5.64681 0
M  V30 2234 C 294.326 3.15122 6.56374 0
M  V30 2235 H 294.358 2.13853 6.99751 0
M  V30 2236 H 295.541 4.13501 5.06559 0
M  V30 2237 H 297.025 5.03285 6.70911 0
M  V30 2238 H 295.331 5.20877 8.75697 0
M  V30 2239 H 295.141 7.11046 7.35349 0
M  V30 2240 H 293.511 6.35815 7.26986 0
M  V30 2241 H 296.15 1.61644 6.13565 0
M  V30 2242 P 298.008 3.65191 7.99657 0
M  V30 2243 O 299.43 3.8425 8.48115 0
M  V30 2244 O 297.648 4.17805 6.64342 0
M  V30 2245 O 297.685 2.07613 7.95143 0
M  V30 2246 C 297.525 1.44328 9.27336 0
M  V30 2247 C 298.065 0.0220036 9.17197 0
M  V30 2248 O 297.009 -0.626867 8.61923 0
M  V30 2249 C 299.283 -0.24586 8.30336 0
M  V30 2250 O 300.021 -1.39011 8.63583 0
M  V30 2251 C 298.614 -0.273849 6.91158 0
M  V30 2252 O 299.413 -1.06348 6.02892 0
M  V30 2253 C 297.277 -0.897649 7.22545 0
M  V30 2254 H 297.309 -1.9841 7.04286 0
M  V30 2255 H 298.492 0.739928 6.497 0
M  V30 2256 H 299.976 0.60668 8.36503 0
M  V30 2257 H 298.282 -0.352479 10.1829 0
M  V30 2258 H 298.092 2.00611 10.0304 0
M  V30 2259 H 296.462 1.41843 9.55327 0
M  V30 2260 H 299.101 -1.95734 6.03555 0
M  V30 2261 P 300.958 -1.25109 8.70152 0
M  V30 2262 O 302.38 -1.35274 9.21221 0
M  V30 2263 O 300.598 -0.0769065 7.84762 0
M  V30 2264 O 300.635 -2.55232 7.81161 0
M  V30 2265 C 300.475 -3.79939 8.58154 0
M  V30 2266 C 301.015 -4.94023 7.72785 0
M  V30 2267 O 299.959 -5.18726 6.91205 0
M  V30 2268 C 302.233 -4.69597 6.85231 0
M  V30 2269 O 302.971 -5.83832 6.51337 0
M  V30 2270 C 301.564 -3.96706 5.66633 0
M  V30 2271 O 302.363 -4.15414 4.49689 0
M  V30 2272 C 300.227 -4.66153 5.59313 0
M  V30 2273 H 300.259 -5.47679 4.85214 0
M  V30 2274 H 301.442 -2.89008 5.86566 0
M  V30 2275 H 302.926 -4.0121 7.36511 0
M  V30 2276 H 301.232 -5.80182 8.37584 0
M  V30 2277 H 301.042 -3.73517 9.52265 0
M  V30 2278 H 299.412 -3.97163 8.80359 0
M  V30 2279 H 302.051 -4.90969 4.01921 0
M  V30 2280 P 303.909 -5.75688 6.64379 0
M  V30 2281 O 305.331 -6.11849 7.01846 0
M  V30 2282 O 303.549 -4.30744 6.56026 0
M  V30 2283 O 303.586 -6.37042 5.19165 0
M  V30 2284 C 303.426 -7.83578 5.16515 0
M  V30 2285 C 303.966 -8.33398 3.83019 0
M  V30 2286 O 302.91 -8.10074 3.01034 0
M  V30 2287 C 305.184 -7.65514 3.2257 0
M  V30 2288 O 305.922 -8.4329 2.32297 0
M  V30 2289 C 304.515 -6.40075 2.62207 0
M  V30 2290 O 305.314 -5.92589 1.53712 0
M  V30 2291 C 303.178 -6.9454 2.18503 0
M  V30 2292 H 303.21 -7.23063 1.12091 0
M  V30 2293 H 304.393 -5.6025 3.37201 0
M  V30 2294 H 305.877 -7.35707 4.02681 0
M  V30 2295 H 304.183 -9.40912 3.9095 0
M  V30 2296 H 303.993 -8.29056 5.99158 0
M  V30 2297 H 302.363 -8.10073 5.25882 0
M  V30 2298 H 305.002 -6.30324 0.726794 0
M  V30 2299 P 306.859 -8.4349 2.47671 0
M  V30 2300 O 308.281 -8.94167 2.5964 0
M  V30 2301 O 306.499 -7.1704 3.19006 0
M  V30 2302 O 306.536 -8.16596 0.923387 0
M  V30 2303 C 306.376 -9.38437 0.108857 0
M  V30 2304 C 306.916 -9.08175 -1.28353 0
M  V30 2305 O 305.86 -8.44229 -1.84713 0
M  V30 2306 C 308.134 -8.18386 -1.42505 0
M  V30 2307 O 308.872 -8.3501 -2.60497 0
M  V30 2308 C 307.465 -6.80225 -1.25468 0
M  V30 2309 O 308.264 -5.81621 -1.91066 0
M  V30 2310 C 306.128 -7.02416 -1.9168 0
M  V30 2311 H 306.16 -6.6888 -2.96621 0
M  V30 2312 H 307.343 -6.53617 -0.192223 0
M  V30 2313 H 308.827 -8.36622 -0.589963 0
M  V30 2314 H 307.133 -10.0291 -1.79807 0
M  V30 2315 H 306.943 -10.2138 0.558219 0
M  V30 2316 H 305.313 -9.6579 0.0444202 0
M  V30 2317 H 307.952 -5.69556 -2.79637 0
M  V30 2318 P 309.81 -8.4349 -2.47671 0
M  V30 2319 O 311.231 -8.92689 -2.65029 0
M  V30 2320 O 309.45 -7.7568 -1.19296 0
M  V30 2321 O 309.487 -7.36886 -3.63805 0
M  V30 2322 C 309.326 -7.95433 -4.98253 0
M  V30 2323 C 309.867 -6.94612 -5.98974 0
M  V30 2324 O 308.812 -6.10277 -6.11744 0
M  V30 2325 C 311.085 -6.11426 -5.62335 0
M  V30 2326 O 311.823 -5.6162 -6.70584 0
M  V30 2327 C 310.417 -5.04409 -4.73308 0
M  V30 2328 O 311.215 -3.86404 -4.74719 0
M  V30 2329 C 309.079 -4.8728 -5.41006 0
M  V30 2330 N 308.036 -4.65812 -4.42377 0
M  V30 2331 C 308.205 -5.09132 -3.15382 0
M  V30 2332 N 307.178 -4.84021 -2.3716 0
M  V30 2333 C 306.293 -4.18386 -3.20441 0
M  V30 2334 C 305.026 -3.6275 -2.94905 0
M  V30 2335 N 304.461 -3.05008 -4.05243 0
M  V30 2336 C 305.063 -2.98348 -5.28159 0
M  V30 2337 N 306.24 -3.48171 -5.56333 0
M  V30 2338 C 306.815 -4.06869 -4.47212 0
M  V30 2339 H 310.294 -5.39013 -3.70026 0
M  V30 2340 H 311.777 -6.71916 -5.01943 0
M  V30 2341 H 310.083 -7.45796 -6.94223 0
M  V30 2342 H 309.893 -8.89416 -5.05237 0
M  V30 2343 H 308.263 -8.14876 -5.18409 0
M  V30 2344 H 309.105 -5.59989 -2.81362 0
M  V30 2345 H 310.903 -3.27906 -5.43085 0
M  V30 2346 P 312.76 -5.75688 -6.64379 0
M  V30 2347 O 314.182 -6.07627 -7.05504 0
M  V30 2348 O 312.4 -5.88047 -5.19722 0
M  V30 2349 O 312.437 -4.2322 -7.04443 0
M  V30 2350 C 312.277 -3.99743 -8.4911 0
M  V30 2351 C 312.817 -2.60516 -8.79425 0
M  V30 2352 O 311.761 -1.82684 -8.4467 0
M  V30 2353 C 314.035 -2.10343 -8.03628 0
M  V30 2354 O 314.773 -1.09919 -8.67766 0
M  V30 2355 C 313.366 -1.68446 -6.70876 0
M  V30 2356 O 314.165 -0.678137 -6.08433 0
M  V30 2357 C 312.029 -1.17436 -7.18567 0
M  V30 2358 H 312.061 -0.0804732 -7.31656 0
M  V30 2359 H 313.244 -2.54037 -6.02537 0
M  V30 2360 H 314.728 -2.93881 -7.85526 0
M  V30 2361 H 313.034 -2.53065 -9.86973 0
M  V30 2362 H 312.844 -4.75072 -9.05887 0
M  V30 2363 H 311.214 -4.05244 -8.76668 0
M  V30 2364 H 313.853 0.177647 -6.34251 0
M  V30 2365 P 315.711 -1.25109 -8.70152 0
M  V30 2366 O 317.133 -1.29772 -9.22214 0
M  V30 2367 O 315.351 -2.13714 -7.55141 0
M  V30 2368 O 315.388 0.248149 -8.21425 0
M  V30 2369 C 315.228 1.22779 -9.30434 0
M  V30 2370 C 315.768 2.56265 -8.80568 0
M  V30 2371 O 314.713 3.02979 -8.09349 0
M  V30 2372 C 316.986 2.57523 -7.89775 0
M  V30 2373 O 317.724 3.7668 -7.89438 0
M  V30 2374 C 316.318 2.20997 -6.55446 0
M  V30 2375 O 317.116 2.71851 -5.48419 0
M  V30 2376 C 314.98 2.89693 -6.67988 0
M  V30 2377 N 313.937 2.08895 -6.07487 0
M  V30 2378 C 313.999 0.760559 -6.14209 0
M  V30 2379 N 312.954 0.200108 -5.52538 0
M  V30 2380 C 312.22 1.22692 -5.09742 0
M  V30 2381 C 310.914 1.24782 -4.48775 0
M  V30 2382 O 310.181 0.290617 -4.19294 0
M  V30 2383 N 310.484 2.50468 -4.22428 0
M  V30 2384 C 311.233 3.67142 -4.51974 0
M  V30 2385 N 310.636 4.85096 -4.14091 0
M  V30 2386 N 312.386 3.67821 -5.12831 0
M  V30 2387 C 312.843 2.43698 -5.4105 0
M  V30 2388 H 315.012 3.88793 -6.19859 0
M  V30 2389 H 316.195 1.12029 -6.4413 0
M  V30 2390 H 317.68 1.78279 -8.19533 0
M  V30 2391 H 315.985 3.20706 -9.67112 0
M  V30 2392 H 315.795 0.901032 -10.1892 0
M  V30 2393 H 314.164 1.33049 -9.56592 0
M  V30 2394 H 309.588 2.61953 -3.79465 0
M  V30 2395 H 314.795 0.200439 -6.63497 0
M  V30 2396 H 309.725 4.8334 -3.66367 0
M  V30 2397 H 311.101 5.7474 -4.33841 0
M  V30 2398 H 316.805 3.5779 -5.23879 0
M  V30 2399 P 318.662 3.65191 -7.99657 0
M  V30 2400 O 320.084 3.89332 -8.45794 0
M  V30 2401 O 318.302 2.28472 -7.50807 0
M  V30 2402 O 318.339 4.64972 -6.77611 0
M  V30 2403 C 318.179 6.06319 -7.16352 0
M  V30 2404 C 318.719 6.91731 -6.02299 0
M  V30 2405 O 317.663 6.92449 -5.17064 0
M  V30 2406 C 319.937 6.43627 -5.25174 0
M  V30 2407 O 320.675 7.43686 -4.60469 0
M  V30 2408 C 319.268 5.40275 -4.31916 0
M  V30 2409 O 320.067 5.25279 -3.14438 0
M  V30 2410 C 317.931 6.04847 -4.05327 0
M  V30 2411 H 317.963 6.62195 -3.11261 0
M  V30 2412 H 319.146 4.42556 -4.81383 0
M  V30 2413 H 320.63 5.92458 -5.93643 0
M  V30 2414 H 318.936 7.92655 -6.402 0
M  V30 2415 H 318.746 6.26671 -8.0846 0
M  V30 2416 H 317.116 6.29101 -7.32804 0
M  V30 2417 H 319.755 5.84315 -2.47318 0
M  V30 2418 P 321.612 7.39546 -4.75277 0
M  V30 2419 O 323.034 7.84798 -5.01039 0
M  V30 2420 O 321.252 5.9812 -5.08098 0
M  V30 2421 O 321.289 7.57503 -3.1866 0
M  V30 2422 C 321.129 8.97357 -2.74833 0
M  V30 2423 C 321.669 9.07548 -1.32709 0
M  V30 2424 O 320.613 8.62072 -0.606159 0
M  V30 2425 C 322.887 8.25383 -0.938334 0
M  V30 2426 O 323.625 8.74577 0.146954 0
M  V30 2427 C 322.218 6.8802 -0.712559 0
M  V30 2428 O 323.017 6.1189 0.194655 0
M  V30 2429 C 320.881 7.27966 -0.139777 0
M  V30 2430 H 320.913 7.25354 0.961601 0
M  V30 2431 H 322.096 6.32557 -1.65702 0
M  V30 2432 H 323.58 8.19355 -1.79097 0
M  V30 2433 H 321.886 10.1294 -1.10029 0
M  V30 2434 H 321.696 9.64276 -3.41316 0
M  V30 2435 H 320.066 9.25417 -2.76357 0
M  V30 2436 H 322.705 6.25267 1.07847 0
M  V30 2437 P 324.563 8.791 1.35267e-12 0
M  V30 2438 O 325.985 9.31096 0.027933 0
M  V30 2439 O 324.203 7.77869 -1.04071 0
M  V30 2440 O 324.24 8.09533 1.41463 0
M  V30 2441 C 324.08 9.0349 2.53943 0
M  V30 2442 C 324.62 8.35226 3.79016 0
M  V30 2443 O 323.564 7.57992 4.15078 0
M  V30 2444 C 325.838 7.45087 3.67298 0
M  V30 2445 O 326.576 7.27796 4.85194 0
M  V30 2446 C 325.169 6.17323 3.12027 0
M  V30 2447 O 325.968 5.04231 3.47188 0
M  V30 2448 C 323.832 6.19961 3.81809 0
M  V30 2449 H 323.864 5.58218 4.73051 0
M  V30 2450 H 325.047 6.21726 2.02589 0
M  V30 2451 H 326.531 7.86112 2.9231 0
M  V30 2452 H 324.837 9.11627 4.55076 0
M  V30 2453 H 324.647 9.9573 2.34194 0
M  V30 2454 H 323.017 9.2792 2.67832 0
M  V30 2455 H 325.656 4.67702 4.28772 0
M  V30 2456 P 327.513 7.39546 4.75277 0
M  V30 2457 O 328.935 7.81777 5.05738 0
M  V30 2458 O 327.153 7.1065 3.32998 0
M  V30 2459 O 327.19 6.04542 5.56673 0
M  V30 2460 C 327.03 6.22772 7.02095 0
M  V30 2461 C 327.57 4.97725 7.70406 0
M  V30 2462 O 326.514 4.13256 7.58987 0
M  V30 2463 C 328.788 4.28231 7.11815 0
M  V30 2464 O 329.526 3.49945 8.01648 0
M  V30 2465 C 328.119 3.5063 5.96244 0
M  V30 2466 O 328.918 2.36482 5.64681 0
M  V30 2467 C 326.782 3.15122 6.56374 0
M  V30 2468 H 326.814 2.13853 6.99751 0
M  V30 2469 H 327.997 4.13501 5.06559 0
M  V30 2470 H 329.481 5.03285 6.70911 0
M  V30 2471 H 327.787 5.20877 8.75697 0
M  V30 2472 H 327.597 7.11046 7.35349 0
M  V30 2473 H 325.967 6.35815 7.26986 0
M  V30 2474 H 328.606 1.61644 6.13565 0
M  V30 2475 P 330.464 3.65191 7.99657 0
M  V30 2476 O 331.886 3.8425 8.48115 0
M  V30 2477 O 330.104 4.17805 6.64342 0
M  V30 2478 O 330.141 2.07613 7.95143 0
M  V30 2479 C 329.981 1.44328 9.27336 0
M  V30 2480 C 330.521 0.0220036 9.17197 0
M  V30 2481 O 329.465 -0.626867 8.61923 0
M  V30 2482 C 331.739 -0.24586 8.30336 0
M  V30 2483 O 332.477 -1.39011 8.63583 0
M  V30 2484 C 331.07 -0.273849 6.91158 0
M  V30 2485 O 331.869 -1.06348 6.02892 0
M  V30 2486 C 329.733 -0.897649 7.22545 0
M  V30 2487 H 329.765 -1.9841 7.04286 0
M  V30 2488 H 330.948 0.739928 6.497 0
M  V30 2489 H 332.432 0.60668 8.36503 0
M  V30 2490 H 330.738 -0.352479 10.1829 0
M  V30 2491 H 330.548 2.00611 10.0304 0
M  V30 2492 H 328.918 1.41843 9.55327 0
M  V30 2493 H 331.557 -1.95734 6.03555 0
M  V30 2494 P 333.414 -1.25109 8.70152 0
M  V30 2495 O 334.836 -1.35274 9.21221 0
M  V30 2496 O 333.054 -0.0769065 7.84762 0
M  V30 2497 O 333.091 -2.55232 7.81161 0
M  V30 2498 C 332.931 -3.79939 8.58154 0
M  V30 2499 C 333.471 -4.94023 7.72785 0
M  V30 2500 O 332.415 -5.18726 6.91205 0
M  V30 2501 C 334.689 -4.69597 6.85231 0
M  V30 2502 O 335.427 -5.83832 6.51337 0
M  V30 2503 C 334.02 -3.96706 5.66633 0
M  V30 2504 O 334.819 -4.15414 4.49689 0
M  V30 2505 C 332.683 -4.66153 5.59313 0
M  V30 2506 H 332.715 -5.47679 4.85214 0
M  V30 2507 H 333.898 -2.89008 5.86566 0
M  V30 2508 H 335.382 -4.0121 7.36511 0
M  V30 2509 H 333.688 -5.80182 8.37584 0
M  V30 2510 H 333.498 -3.73517 9.52265 0
M  V30 2511 H 331.868 -3.97163 8.80359 0
M  V30 2512 H 334.507 -4.90969 4.01921 0
M  V30 2513 P 336.365 -5.75688 6.64379 0
M  V30 2514 O 337.787 -6.11849 7.01846 0
M  V30 2515 O 336.005 -4.30744 6.56026 0
M  V30 2516 O 336.042 -6.37042 5.19165 0
M  V30 2517 C 335.882 -7.83578 5.16515 0
M  V30 2518 C 336.422 -8.33398 3.83019 0
M  V30 2519 O 335.366 -8.10074 3.01034 0
M  V30 2520 C 337.64 -7.65514 3.2257 0
M  V30 2521 O 338.378 -8.4329 2.32297 0
M  V30 2522 C 336.971 -6.40075 2.62207 0
M  V30 2523 O 337.77 -5.92589 1.53712 0
M  V30 2524 C 335.634 -6.9454 2.18503 0
M  V30 2525 H 335.666 -7.23063 1.12091 0
M  V30 2526 H 336.849 -5.6025 3.37201 0
M  V30 2527 H 338.333 -7.35707 4.02681 0
M  V30 2528 H 336.639 -9.40912 3.9095 0
M  V30 2529 H 336.449 -8.29056 5.99158 0
M  V30 2530 H 334.819 -8.10073 5.25882 0
M  V30 2531 H 337.458 -6.30324 0.726794 0
M  V30 2532 P 339.316 -8.4349 2.47671 0
M  V30 2533 O 340.738 -8.94167 2.5964 0
M  V30 2534 O 338.956 -7.1704 3.19006 0
M  V30 2535 O 338.993 -8.16596 0.923387 0
M  V30 2536 C 338.833 -9.38437 0.108857 0
M  V30 2537 C 339.373 -9.08175 -1.28353 0
M  V30 2538 O 338.317 -8.44229 -1.84713 0
M  V30 2539 C 340.591 -8.18386 -1.42505 0
M  V30 2540 O 341.329 -8.3501 -2.60497 0
M  V30 2541 C 339.922 -6.80225 -1.25468 0
M  V30 2542 O 340.721 -5.81621 -1.91066 0
M  V30 2543 C 338.585 -7.02416 -1.9168 0
M  V30 2544 H 338.617 -6.6888 -2.96621 0
M  V30 2545 H 339.8 -6.53617 -0.192223 0
M  V30 2546 H 341.284 -8.36622 -0.589963 0
M  V30 2547 H 339.59 -10.0291 -1.79807 0
M  V30 2548 H 339.4 -10.2138 0.558219 0
M  V30 2549 H 337.77 -9.6579 0.0444202 0
M  V30 2550 H 340.409 -5.69556 -2.79637 0
M  V30 2551 P 342.266 -8.4349 -2.47671 0
M  V30 2552 O 343.688 -8.92593 -2.65 0
M  V30 2553 O 341.906 -7.7568 -1.19296 0
M  V30 2554 O 341.943 -7.36886 -3.63805 0
M  V30 2555 C 341.783 -7.95349 -4.982 0
M  V30 2556 C 342.323 -6.94612 -5.98974 0
M  V30 2557 O 341.267 -6.10347 -6.11815 0
M  V30 2558 C 343.541 -6.11426 -5.62335 0
M  V30 2559 O 344.279 -5.6162 -6.70584 0
M  V30 2560 C 342.872 -5.04409 -4.73308 0
M  V30 2561 O 343.671 -3.85992 -4.75183 0
M  V30 2562 C 341.535 -4.8728 -5.41006 0
M  V30 2563 H 341.567 -4.02333 -6.11157 0
M  V30 2564 H 342.75 -5.39466 -3.69543 0
M  V30 2565 H 344.234 -6.71916 -5.01943 0
M  V30 2566 H 342.54 -7.4649 -6.93477 0
M  V30 2567 H 342.35 -8.89416 -5.05237 0
M  V30 2568 H 340.72 -8.14876 -5.18409 0
M  V30 2569 H 343.359 -3.27957 -5.4317 0
M  V30 2570 P 345.217 -5.75688 -6.64379 0
M  V30 2571 O 346.639 -6.07627 -7.05504 0
M  V30 2572 O 344.857 -5.88047 -5.19722 0
M  V30 2573 O 344.894 -4.2322 -7.04443 0
M  V30 2574 C 344.734 -3.99743 -8.4911 0
M  V30 2575 C 345.274 -2.60516 -8.79425 0
M  V30 2576 O 344.218 -1.82684 -8.4467 0
M  V30 2577 C 346.492 -2.10343 -8.03628 0
M  V30 2578 O 347.23 -1.09919 -8.67766 0
M  V30 2579 C 345.823 -1.68446 -6.70876 0
M  V30 2580 O 346.622 -0.678137 -6.08433 0
M  V30 2581 C 344.486 -1.17436 -7.18567 0
M  V30 2582 H 344.518 -0.0804732 -7.31656 0
M  V30 2583 H 345.701 -2.54037 -6.02537 0
M  V30 2584 H 347.185 -2.93881 -7.85526 0
M  V30 2585 H 345.491 -2.53065 -9.86973 0
M  V30 2586 H 345.301 -4.75072 -9.05887 0
M  V30 2587 H 343.671 -4.05244 -8.76668 0
M  V30 2588 H 346.31 0.177647 -6.34251 0
M  V30 2589 P 348.167 -1.25109 -8.70152 0
M  V30 2590 O 349.588 -1.29758 -9.22115 0
M  V30 2591 O 347.807 -2.13714 -7.55141 0
M  V30 2592 O 347.844 0.248149 -8.21425 0
M  V30 2593 C 347.683 1.22792 -9.30533 0
M  V30 2594 C 348.224 2.56293 -8.80664 0
M  V30 2595 O 347.169 3.02944 -8.09255 0
M  V30 2596 C 349.442 2.57523 -7.89775 0
M  V30 2597 O 350.18 3.7668 -7.89438 0
M  V30 2598 C 348.774 2.20997 -6.55446 0
M  V30 2599 O 349.572 2.71302 -5.48691 0
M  V30 2600 C 347.436 2.89693 -6.67988 0
M  V30 2601 N 346.393 2.08895 -6.07487 0
M  V30 2602 C 346.562 0.753809 -5.94137 0
M  V30 2603 N 345.535 0.146592 -5.38801 0
M  V30 2604 C 344.65 1.1768 -5.13693 0
M  V30 2605 C 343.383 1.17563 -4.52477 0
M  V30 2606 N 342.818 2.41918 -4.45789 0
M  V30 2607 C 343.42 3.56493 -4.90792 0
M  V30 2608 N 344.597 3.61423 -5.47817 0
M  V30 2609 C 345.172 2.37779 -5.5588 0
M  V30 2610 H 348.651 1.12673 -6.44018 0
M  V30 2611 H 350.134 1.7746 -8.19711 0
M  V30 2612 H 348.44 3.21673 -9.66791 0
M  V30 2613 H 348.25 0.901032 -10.1892 0
M  V30 2614 H 346.62 1.33049 -9.56592 0
M  V30 2615 H 347.462 0.233081 -6.26266 0
M  V30 2616 H 349.26 3.5779 -5.23879 0
M  V30 2617 P 351.118 3.65191 -7.99657 0
M  V30 2618 O 352.54 3.89332 -8.45794 0
M  V30 2619 O 350.758 2.28472 -7.50807 0
M  V30 2620 O 350.795 4.64972 -6.77611 0
M  V30 2621 C 350.635 6.06319 -7.16352 0
M  V30 2622 C 351.175 6.91731 -6.02299 0
M  V30 2623 O 350.119 6.92449 -5.17064 0
M  V30 2624 C 352.393 6.43627 -5.25174 0
M  V30 2625 O 353.131 7.43686 -4.60469 0
M  V30 2626 C 351.724 5.40275 -4.31916 0
M  V30 2627 O 352.523 5.25279 -3.14438 0
M  V30 2628 C 350.387 6.04847 -4.05327 0
M  V30 2629 H 350.419 6.62195 -3.11261 0
M  V30 2630 H 351.602 4.42556 -4.81383 0
M  V30 2631 H 353.086 5.92458 -5.93643 0
M  V30 2632 H 351.392 7.92655 -6.402 0
M  V30 2633 H 351.202 6.26671 -8.0846 0
M  V30 2634 H 349.572 6.29101 -7.32804 0
M  V30 2635 H 352.211 5.84315 -2.47318 0
M  V30 2636 P 354.068 7.39546 -4.75277 0
M  V30 2637 O 355.49 7.84798 -5.01039 0
M  V30 2638 O 353.708 5.9812 -5.08098 0
M  V30 2639 O 353.745 7.57503 -3.1866 0
M  V30 2640 C 353.585 8.97357 -2.74833 0
M  V30 2641 C 354.125 9.07548 -1.32709 0
M  V30 2642 O 353.069 8.62072 -0.606159 0
M  V30 2643 C 355.343 8.25383 -0.938334 0
M  V30 2644 O 356.081 8.74577 0.146954 0
M  V30 2645 C 354.674 6.8802 -0.712559 0
M  V30 2646 O 355.473 6.1189 0.194655 0
M  V30 2647 C 353.337 7.27966 -0.139777 0
M  V30 2648 H 353.369 7.25354 0.961601 0
M  V30 2649 H 354.552 6.32557 -1.65702 0
M  V30 2650 H 356.036 8.19355 -1.79097 0
M  V30 2651 H 354.342 10.1294 -1.10029 0
M  V30 2652 H 354.152 9.64276 -3.41316 0
M  V30 2653 H 352.522 9.25417 -2.76357 0
M  V30 2654 H 355.161 6.25267 1.07847 0
M  V30 2655 P 357.019 8.791 1.66284e-12 0
M  V30 2656 O 358.44 9.31196 0.027936 0
M  V30 2657 O 356.659 7.77869 -1.04071 0
M  V30 2658 O 356.696 8.09533 1.41463 0
M  V30 2659 C 356.535 9.03587 2.5397 0
M  V30 2660 C 357.076 8.35226 3.79016 0
M  V30 2661 O 356.021 7.57904 4.1503 0
M  V30 2662 C 358.294 7.45087 3.67298 0
M  V30 2663 O 359.032 7.27796 4.85194 0
M  V30 2664 C 357.626 6.17323 3.12027 0
M  V30 2665 O 358.424 5.04496 3.46627 0
M  V30 2666 C 356.288 6.19961 3.81809 0
M  V30 2667 N 355.245 5.71575 2.93223 0
M  V30 2668 C 355.414 5.77362 1.59168 0
M  V30 2669 N 354.387 5.3123 0.911893 0
M  V30 2670 C 353.502 4.91717 1.89588 0
M  V30 2671 C 352.235 4.3114 1.8076 0
M  V30 2672 N 351.67 4.06823 3.02898 0
M  V30 2673 C 352.272 4.35062 4.22711 0
M  V30 2674 N 353.449 4.90805 4.35707 0
M  V30 2675 C 354.024 5.16382 3.14469 0
M  V30 2676 H 357.503 6.21428 2.0318 0
M  V30 2677 H 358.986 7.86112 2.9231 0
M  V30 2678 H 357.292 9.11171 4.55987 0
M  V30 2679 H 357.102 9.9573 2.34194 0
M  V30 2680 H 355.472 9.2792 2.67832 0
M  V30 2681 H 356.314 6.16575 1.12198 0
M  V30 2682 H 358.112 4.67628 4.28704 0
M  V30 2683 P 359.97 7.39546 4.75277 0
M  V30 2684 O 361.391 7.81861 5.05793 0
M  V30 2685 O 359.61 7.1065 3.32998 0
M  V30 2686 O 359.647 6.04542 5.56673 0
M  V30 2687 C 359.486 6.22839 7.02169 0
M  V30 2688 C 360.027 4.97725 7.70406 0
M  V30 2689 O 358.972 4.13208 7.58899 0
M  V30 2690 C 361.245 4.28231 7.11815 0
M  V30 2691 O 361.983 3.49945 8.01648 0
M  V30 2692 C 360.577 3.5063 5.96244 0
M  V30 2693 O 361.375 2.37008 5.64352 0
M  V30 2694 C 359.239 3.15122 6.56374 0
M  V30 2695 N 358.196 3.22311 5.55692 0
M  V30 2696 C 358.365 3.99655 4.46046 0
M  V30 2697 N 357.338 3.97599 3.63918 0
M  V30 2698 C 356.453 3.11159 4.25334 0
M  V30 2699 C 355.186 2.64972 3.85157 0
M  V30 2700 N 354.587 3.02132 2.69405 0
M  V30 2701 N 354.621 1.78482 4.74759 0
M  V30 2702 C 355.223 1.37463 5.90819 0
M  V30 2703 N 356.4 1.7733 6.31889 0
M  V30 2704 C 356.975 2.64393 5.43725 0
M  V30 2705 H 359.271 2.13823 6.99656 0
M  V30 2706 H 360.454 4.12931 5.06895 0
M  V30 2707 H 361.937 5.03285 6.70911 0
M  V30 2708 H 360.243 5.20001 8.76217 0
M  V30 2709 H 360.053 7.11046 7.35349 0
M  V30 2710 H 358.423 6.35815 7.26986 0
M  V30 2711 H 354.687 0.66574 6.53015 0
M  V30 2712 H 359.265 4.58037 4.27732 0
M  V30 2713 H 353.657 2.64828 2.45331 0
M  V30 2714 H 355.061 3.67472 2.05644 0
M  V30 2715 H 361.063 1.61619 6.13468 0
M  V30 2716 P 362.92 3.65191 7.99657 0
M  V30 2717 O 364.342 3.8425 8.48115 0
M  V30 2718 O 362.56 4.17805 6.64342 0
M  V30 2719 O 362.597 2.07613 7.95143 0
M  V30 2720 C 362.437 1.44328 9.27336 0
M  V30 2721 C 362.977 0.0220036 9.17197 0
M  V30 2722 O 361.921 -0.626867 8.61923 0
M  V30 2723 C 364.195 -0.24586 8.30336 0
M  V30 2724 O 364.933 -1.39011 8.63583 0
M  V30 2725 C 363.526 -0.273849 6.91158 0
M  V30 2726 O 364.325 -1.06348 6.02892 0
M  V30 2727 C 362.189 -0.897649 7.22545 0
M  V30 2728 H 362.221 -1.9841 7.04286 0
M  V30 2729 H 363.404 0.739928 6.497 0
M  V30 2730 H 364.888 0.60668 8.36503 0
M  V30 2731 H 363.194 -0.352479 10.1829 0
M  V30 2732 H 363.004 2.00611 10.0304 0
M  V30 2733 H 361.374 1.41843 9.55327 0
M  V30 2734 H 364.013 -1.95734 6.03555 0
M  V30 2735 P 365.871 -1.25109 8.70152 0
M  V30 2736 O 367.293 -1.35303 9.21419 0
M  V30 2737 O 365.511 -0.0769065 7.84762 0
M  V30 2738 O 365.548 -2.55232 7.81161 0
M  V30 2739 C 365.388 -3.79939 8.58154 0
M  V30 2740 C 365.928 -4.93969 7.72701 0
M  V30 2741 O 364.873 -5.18726 6.91205 0
M  V30 2742 C 367.146 -4.69597 6.85231 0
M  V30 2743 O 367.884 -5.83832 6.51337 0
M  V30 2744 C 366.478 -3.96706 5.66633 0
M  V30 2745 O 367.276 -4.15346 4.49615 0
M  V30 2746 C 365.14 -4.66153 5.59313 0
M  V30 2747 N 364.097 -3.71582 5.24027 0
M  V30 2748 C 364.159 -2.46018 5.67902 0
M  V30 2749 N 363.114 -1.74868 5.24518 0
M  V30 2750 C 362.38 -2.61333 4.54528 0
M  V30 2751 C 361.074 -2.46162 3.95441 0
M  V30 2752 O 360.341 -1.46013 3.94122 0
M  V30 2753 N 360.644 -3.59334 3.34752 0
M  V30 2754 C 361.393 -4.79605 3.3023 0
M  V30 2755 N 360.796 -5.82109 2.6065 0
M  V30 2756 N 362.546 -4.97402 3.8843 0
M  V30 2757 C 363.003 -3.86258 4.50476 0
M  V30 2758 H 365.172 -5.47679 4.85214 0
M  V30 2759 H 366.355 -2.88964 5.86476 0
M  V30 2760 H 367.84 -4.01947 7.36109 0
M  V30 2761 H 366.145 -5.80182 8.37584 0
M  V30 2762 H 365.955 -3.73517 9.52265 0
M  V30 2763 H 364.324 -3.97163 8.80359 0
M  V30 2764 H 359.748 -3.5825 2.90294 0
M  V30 2765 H 364.955 -2.06161 6.30974 0
M  V30 2766 H 359.885 -5.66979 2.15354 0
M  V30 2767 H 361.261 -6.73686 2.54344 0
M  V30 2768 H 366.965 -4.90891 4.01857 0
M  V30 2769 P 368.821 -5.75688 6.64379 0
M  V30 2770 O 370.243 -6.11849 7.01846 0
M  V30 2771 O 368.461 -4.30744 6.56026 0
M  V30 2772 O 368.498 -6.37042 5.19165 0
M  V30 2773 C 368.338 -7.83578 5.16515 0
M  V30 2774 C 368.878 -8.33398 3.83019 0
M  V30 2775 O 367.822 -8.10074 3.01034 0
M  V30 2776 C 370.096 -7.65514 3.2257 0
M  V30 2777 O 370.834 -8.4329 2.32297 0
M  V30 2778 C 369.427 -6.40075 2.62207 0
M  V30 2779 O 370.226 -5.92589 1.53712 0
M  V30 2780 C 368.09 -6.9454 2.18503 0
M  V30 2781 H 368.122 -7.23063 1.12091 0
M  V30 2782 H 369.305 -5.6025 3.37201 0
M  V30 2783 H 370.789 -7.35707 4.02681 0
M  V30 2784 H 369.095 -9.40912 3.9095 0
M  V30 2785 H 368.905 -8.29056 5.99158 0
M  V30 2786 H 367.275 -8.10073 5.25882 0
M  V30 2787 H 369.914 -6.30324 0.726794 0
M  V30 2788 P 371.772 -8.4349 2.47671 0
M  V30 2789 O 373.193 -8.94263 2.59668 0
M  V30 2790 O 371.412 -7.1704 3.19006 0
M  V30 2791 O 371.449 -8.16596 0.923387 0
M  V30 2792 C 371.288 -9.38537 0.108869 0
M  V30 2793 C 371.829 -9.08175 -1.28353 0
M  V30 2794 O 370.774 -8.44131 -1.84692 0
M  V30 2795 C 373.047 -8.18386 -1.42505 0
M  V30 2796 O 373.785 -8.3501 -2.60497 0
M  V30 2797 C 372.379 -6.80225 -1.25468 0
M  V30 2798 O 373.177 -5.81716 -1.90454 0
M  V30 2799 C 371.041 -7.02416 -1.9168 0
M  V30 2800 N 369.998 -6.31033 -1.20314 0
M  V30 2801 C 370.167 -5.98817 0.0994088 0
M  V30 2802 N 369.14 -5.35403 0.621694 0
M  V30 2803 C 368.255 -5.25212 -0.43376 0
M  V30 2804 C 366.988 -4.64602 -0.519722 0
M  V30 2805 N 366.423 -4.7568 -1.76013 0
M  V30 2806 C 367.025 -5.3653 -2.83017 0
M  V30 2807 N 368.202 -5.93676 -2.79782 0
M  V30 2808 C 368.777 -5.84061 -1.56249 0
M  V30 2809 H 372.256 -6.53498 -0.198729 0
M  V30 2810 H 373.739 -8.36622 -0.589963 0
M  V30 2811 H 372.045 -10.0273 -1.8081 0
M  V30 2812 H 371.855 -10.2138 0.558219 0
M  V30 2813 H 370.225 -9.6579 0.0444202 0
M  V30 2814 H 371.067 -6.23209 0.660562 0
M  V30 2815 H 372.865 -5.69466 -2.79593 0
M  V30 2816 P 374.722 -8.4349 -2.47671 0
M  V30 2817 O 376.144 -8.92593 -2.65 0
M  V30 2818 O 374.362 -7.7568 -1.19296 0
M  V30 2819 O 374.399 -7.36886 -3.63805 0
M  V30 2820 C 374.239 -7.95349 -4.982 0
M  V30 2821 C 374.779 -6.94612 -5.98974 0
M  V30 2822 O 373.723 -6.10347 -6.11815 0
M  V30 2823 C 375.997 -6.11426 -5.62335 0
M  V30 2824 O 376.735 -5.6162 -6.70584 0
M  V30 2825 C 375.328 -5.04409 -4.73308 0
M  V30 2826 O 376.127 -3.85992 -4.75183 0
M  V30 2827 C 373.991 -4.8728 -5.41006 0
M  V30 2828 H 374.023 -4.02333 -6.11157 0
M  V30 2829 H 375.206 -5.39466 -3.69543 0
M  V30 2830 H 376.69 -6.71916 -5.01943 0
M  V30 2831 H 374.996 -7.4649 -6.93477 0
M  V30 2832 H 374.806 -8.89416 -5.05237 0
M  V30 2833 H 373.176 -8.14876 -5.18409 0
M  V30 2834 H 375.815 -3.27957 -5.4317 0
M  V30 2835 P 377.673 -5.75688 -6.64379 0
M  V30 2836 O 379.095 -6.07627 -7.05504 0
M  V30 2837 O 377.313 -5.88047 -5.19722 0
M  V30 2838 O 377.35 -4.2322 -7.04443 0
M  V30 2839 C 377.19 -3.99743 -8.4911 0
M  V30 2840 C 377.73 -2.60516 -8.79425 0
M  V30 2841 O 376.674 -1.82684 -8.4467 0
M  V30 2842 C 378.948 -2.10343 -8.03628 0
M  V30 2843 O 379.686 -1.09919 -8.67766 0
M  V30 2844 C 378.279 -1.68446 -6.70876 0
M  V30 2845 O 379.078 -0.678137 -6.08433 0
M  V30 2846 C 376.942 -1.17436 -7.18567 0
M  V30 2847 H 376.974 -0.0804732 -7.31656 0
M  V30 2848 H 378.157 -2.54037 -6.02537 0
M  V30 2849 H 379.641 -2.93881 -7.85526 0
M  V30 2850 H 377.947 -2.53065 -9.86973 0
M  V30 2851 H 377.757 -4.75072 -9.05887 0
M  V30 2852 H 376.127 -4.05244 -8.76668 0
M  V30 2853 H 378.766 0.177647 -6.34251 0
M  V30 2854 P 380.624 -1.25109 -8.70152 0
M  V30 2855 O 382.046 -1.29744 -9.22016 0
M  V30 2856 O 380.264 -2.13714 -7.55141 0
M  V30 2857 O 380.301 0.248149 -8.21425 0
M  V30 2858 C 380.141 1.22779 -9.30434 0
M  V30 2859 C 380.681 2.56293 -8.80664 0
M  V30 2860 O 379.625 3.02979 -8.09349 0
M  V30 2861 C 381.899 2.57523 -7.89775 0
M  V30 2862 O 382.637 3.7668 -7.89438 0
M  V30 2863 C 381.23 2.20997 -6.55446 0
M  V30 2864 O 382.029 2.71895 -5.48509 0
M  V30 2865 C 379.893 2.89693 -6.67988 0
M  V30 2866 H 379.925 3.88793 -6.19859 0
M  V30 2867 H 381.108 1.12046 -6.44229 0
M  V30 2868 H 382.592 1.7746 -8.19711 0
M  V30 2869 H 380.898 3.20706 -9.67112 0
M  V30 2870 H 380.708 0.901032 -10.1892 0
M  V30 2871 H 379.078 1.33049 -9.56592 0
M  V30 2872 H 381.717 3.57847 -5.23962 0
M  V30 2873 P 383.574 3.65191 -7.99657 0
M  V30 2874 O 384.996 3.89332 -8.45794 0
M  V30 2875 O 383.214 2.28472 -7.50807 0
M  V30 2876 O 383.251 4.64972 -6.77611 0
M  V30 2877 C 383.091 6.06319 -7.16352 0
M  V30 2878 C 383.631 6.91731 -6.02299 0
M  V30 2879 O 382.575 6.92449 -5.17064 0
M  V30 2880 C 384.849 6.43627 -5.25174 0
M  V30 2881 O 385.587 7.43686 -4.60469 0
M  V30 2882 C 384.18 5.40275 -4.31916 0
M  V30 2883 O 384.979 5.25279 -3.14438 0
M  V30 2884 C 382.843 6.04847 -4.05327 0
M  V30 2885 H 382.875 6.62195 -3.11261 0
M  V30 2886 H 384.058 4.42556 -4.81383 0
M  V30 2887 H 385.542 5.92458 -5.93643 0
M  V30 2888 H 383.848 7.92655 -6.402 0
M  V30 2889 H 383.658 6.26671 -8.0846 0
M  V30 2890 H 382.028 6.29101 -7.32804 0
M  V30 2891 H 384.667 5.84315 -2.47318 0
M  V30 2892 P 386.525 7.39546 -4.75277 0
M  V30 2893 O 387.947 7.84798 -5.01039 0
M  V30 2894 O 386.165 5.9812 -5.08098 0
M  V30 2895 O 386.202 7.57503 -3.1866 0
M  V30 2896 C 386.042 8.97357 -2.74833 0
M  V30 2897 C 386.582 9.07548 -1.32709 0
M  V30 2898 O 385.526 8.62072 -0.606159 0
M  V30 2899 C 387.8 8.25383 -0.938334 0
M  V30 2900 O 388.538 8.74577 0.146954 0
M  V30 2901 C 387.131 6.8802 -0.712559 0
M  V30 2902 O 387.93 6.1189 0.194655 0
M  V30 2903 C 385.794 7.27966 -0.139777 0
M  V30 2904 H 385.826 7.25354 0.961601 0
M  V30 2905 H 387.009 6.32557 -1.65702 0
M  V30 2906 H 388.493 8.19355 -1.79097 0
M  V30 2907 H 386.799 10.1294 -1.10029 0
M  V30 2908 H 386.609 9.64276 -3.41316 0
M  V30 2909 H 384.979 9.25417 -2.76357 0
M  V30 2910 H 387.618 6.25267 1.07847 0
M  V30 2911 P 389.475 8.791 1.973e-12 0
M  V30 2912 O 390.896 9.31196 0.027936 0
M  V30 2913 O 389.115 7.77869 -1.04071 0
M  V30 2914 O 389.152 8.09533 1.41463 0
M  V30 2915 C 388.991 9.03587 2.5397 0
M  V30 2916 C 389.532 8.35226 3.79016 0
M  V30 2917 O 388.477 7.57904 4.1503 0
M  V30 2918 C 390.75 7.45087 3.67298 0
M  V30 2919 O 391.488 7.27796 4.85194 0
M  V30 2920 C 390.082 6.17323 3.12027 0
M  V30 2921 O 390.88 5.04496 3.46627 0
M  V30 2922 C 388.744 6.19961 3.81809 0
M  V30 2923 N 387.701 5.71575 2.93223 0
M  V30 2924 C 387.87 5.77362 1.59168 0
M  V30 2925 N 386.843 5.3123 0.911893 0
M  V30 2926 C 385.958 4.91717 1.89588 0
M  V30 2927 C 384.691 4.3114 1.8076 0
M  V30 2928 N 384.126 4.06823 3.02898 0
M  V30 2929 C 384.728 4.35062 4.22711 0
M  V30 2930 N 385.905 4.90805 4.35707 0
M  V30 2931 C 386.48 5.16382 3.14469 0
M  V30 2932 H 389.959 6.21428 2.0318 0
M  V30 2933 H 391.442 7.86112 2.9231 0
M  V30 2934 H 389.748 9.11171 4.55987 0
M  V30 2935 H 389.558 9.9573 2.34194 0
M  V30 2936 H 387.928 9.2792 2.67832 0
M  V30 2937 H 388.77 6.16575 1.12198 0
M  V30 2938 H 390.568 4.67628 4.28704 0
M  V30 2939 P 392.426 7.39546 4.75277 0
M  V30 2940 O 393.847 7.81861 5.05793 0
M  V30 2941 O 392.066 7.1065 3.32998 0
M  V30 2942 O 392.103 6.04542 5.56673 0
M  V30 2943 C 391.942 6.22839 7.02169 0
M  V30 2944 C 392.483 4.97725 7.70406 0
M  V30 2945 O 391.428 4.13208 7.58899 0
M  V30 2946 C 393.701 4.28231 7.11815 0
M  V30 2947 O 394.439 3.49945 8.01648 0
M  V30 2948 C 393.033 3.5063 5.96244 0
M  V30 2949 O 393.831 2.37008 5.64352 0
M  V30 2950 C 391.695 3.15122 6.56374 0
M  V30 2951 N 390.652 3.22311 5.55692 0
M  V30 2952 C 390.821 3.99655 4.46046 0
M  V30 2953 N 389.794 3.97599 3.63918 0
M  V30 2954 C 388.909 3.11159 4.25334 0
M  V30 2955 C 387.642 2.64972 3.85157 0
M  V30 2956 N 387.077 1.78482 4.74759 0
M  V30 2957 C 387.679 1.37463 5.90819 0
M  V30 2958 N 388.856 1.7733 6.31889 0
M  V30 2959 C 389.431 2.64393 5.43725 0
M  V30 2960 H 392.91 4.12931 5.06895 0
M  V30 2961 H 394.393 5.03285 6.70911 0
M  V30 2962 H 392.699 5.20001 8.76217 0
M  V30 2963 H 392.509 7.11046 7.35349 0
M  V30 2964 H 390.879 6.35815 7.26986 0
M  V30 2965 H 391.721 4.58037 4.27732 0
M  V30 2966 H 393.519 1.61619 6.13468 0
M  V30 2967 P 395.376 3.65191 7.99657 0
M  V30 2968 O 396.798 3.84333 8.48297 0
M  V30 2969 O 395.016 4.17805 6.64342 0
M  V30 2970 O 395.053 2.07613 7.95143 0
M  V30 2971 C 394.893 1.44328 9.27336 0
M  V30 2972 C 395.433 0.0220012 9.17097 0
M  V30 2973 O 394.378 -0.626867 8.61923 0
M  V30 2974 C 396.651 -0.24586 8.30336 0
M  V30 2975 O 397.389 -1.39011 8.63583 0
M  V30 2976 C 395.983 -0.273849 6.91158 0
M  V30 2977 O 396.781 -1.06331 6.02794 0
M  V30 2978 C 394.645 -0.897649 7.22545 0
M  V30 2979 N 393.602 -0.292839 6.41732 0
M  V30 2980 C 393.664 1.00068 6.10757 0
M  V30 2981 N 392.619 1.36468 5.35794 0
M  V30 2982 C 391.885 0.258894 5.2366 0
M  V30 2983 C 390.579 0.0670682 4.65752 0
M  V30 2984 O 389.846 0.902443 4.10497 0
M  V30 2985 N 390.149 -1.2131 4.75881 0
M  V30 2986 C 390.898 -2.24934 5.37101 0
M  V30 2987 N 390.301 -3.48783 5.33984 0
M  V30 2988 N 392.051 -2.0844 5.95684 0
M  V30 2989 C 392.508 -0.81395 5.87791 0
M  V30 2990 H 394.677 -1.9841 7.04286 0
M  V30 2991 H 395.86 0.739815 6.49601 0
M  V30 2992 H 397.345 0.598315 8.36563 0
M  V30 2993 H 395.65 -0.352479 10.1829 0
M  V30 2994 H 395.46 2.00611 10.0304 0
M  V30 2995 H 393.829 1.41843 9.55327 0
M  V30 2996 H 389.253 -1.44434 4.37895 0
M  V30 2997 H 394.46 1.67697 6.42268 0
M  V30 2998 H 389.39 -3.60543 4.87699 0
M  V30 2999 H 390.766 -4.29232 5.7819 0
M  V30 3000 H 396.47 -1.95704 6.0346 0
M  V30 3001 P 398.327 -1.25109 8.70152 0
M  V30 3002 O 399.749 -1.35274 9.21221 0
M  V30 3003 O 397.967 -0.0769065 7.84762 0
M  V30 3004 O 398.004 -2.55232 7.81161 0
M  V30 3005 C 397.844 -3.79939 8.58154 0
M  V30 3006 C 398.384 -4.94023 7.72785 0
M  V30 3007 O 397.328 -5.18726 6.91205 0
M  V30 3008 C 399.602 -4.69597 6.85231 0
M  V30 3009 O 400.34 -5.83832 6.51337 0
M  V30 3010 C 398.933 -3.96706 5.66633 0
M  V30 3011 O 399.732 -4.15414 4.49689 0
M  V30 3012 C 397.596 -4.66153 5.59313 0
M  V30 3013 H 397.628 -5.47679 4.85214 0
M  V30 3014 H 398.811 -2.89008 5.86566 0
M  V30 3015 H 400.295 -4.0121 7.36511 0
M  V30 3016 H 398.601 -5.80182 8.37584 0
M  V30 3017 H 398.411 -3.73517 9.52265 0
M  V30 3018 H 396.781 -3.97163 8.80359 0
M  V30 3019 H 399.42 -4.90969 4.01921 0
M  V30 3020 P 401.278 -5.75688 6.64379 0
M  V30 3021 O 402.7 -6.11849 7.01846 0
M  V30 3022 O 400.918 -4.30744 6.56026 0
M  V30 3023 O 400.955 -6.37042 5.19165 0
M  V30 3024 C 400.795 -7.83578 5.16515 0
M  V30 3025 C 401.335 -8.33398 3.83019 0
M  V30 3026 O 400.279 -8.10074 3.01034 0
M  V30 3027 C 402.553 -7.65514 3.2257 0
M  V30 3028 O 403.291 -8.4329 2.32297 0
M  V30 3029 C 401.884 -6.40075 2.62207 0
M  V30 3030 O 402.683 -5.92589 1.53712 0
M  V30 3031 C 400.547 -6.9454 2.18503 0
M  V30 3032 H 400.579 -7.23063 1.12091 0
M  V30 3033 H 401.762 -5.6025 3.37201 0
M  V30 3034 H 403.246 -7.35707 4.02681 0
M  V30 3035 H 401.552 -9.40912 3.9095 0
M  V30 3036 H 401.362 -8.29056 5.99158 0
M  V30 3037 H 399.732 -8.10073 5.25882 0
M  V30 3038 H 402.371 -6.30324 0.726794 0
M  V30 3039 P 404.228 -8.4349 2.47671 0
M  V30 3040 O 405.65 -8.94167 2.5964 0
M  V30 3041 O 403.868 -7.1704 3.19006 0
M  V30 3042 O 403.905 -8.16596 0.923387 0
M  V30 3043 C 403.745 -9.38437 0.108857 0
M  V30 3044 C 404.285 -9.08175 -1.28353 0
M  V30 3045 O 403.229 -8.44229 -1.84713 0
M  V30 3046 C 405.503 -8.18386 -1.42505 0
M  V30 3047 O 406.241 -8.3501 -2.60497 0
M  V30 3048 C 404.834 -6.80225 -1.25468 0
M  V30 3049 O 405.633 -5.81621 -1.91066 0
M  V30 3050 C 403.497 -7.02416 -1.9168 0
M  V30 3051 H 403.529 -6.6888 -2.96621 0
M  V30 3052 H 404.712 -6.53617 -0.192223 0
M  V30 3053 H 406.196 -8.36622 -0.589963 0
M  V30 3054 H 404.502 -10.0291 -1.79807 0
M  V30 3055 H 404.312 -10.2138 0.558219 0
M  V30 3056 H 402.682 -9.6579 0.0444202 0
M  V30 3057 H 405.321 -5.69556 -2.79637 0
M  V30 3058 P 407.179 -8.4349 -2.47671 0
M  V30 3059 O 408.601 -8.92593 -2.65 0
M  V30 3060 O 406.819 -7.7568 -1.19296 0
M  V30 3061 O 406.856 -7.36886 -3.63805 0
M  V30 3062 C 406.696 -7.95349 -4.982 0
M  V30 3063 C 407.236 -6.94612 -5.98974 0
M  V30 3064 O 406.18 -6.10347 -6.11815 0
M  V30 3065 C 408.454 -6.11426 -5.62335 0
M  V30 3066 O 409.192 -5.6162 -6.70584 0
M  V30 3067 C 407.785 -5.04409 -4.73308 0
M  V30 3068 O 408.584 -3.85992 -4.75183 0
M  V30 3069 C 406.448 -4.8728 -5.41006 0
M  V30 3070 H 406.48 -4.02333 -6.11157 0
M  V30 3071 H 407.663 -5.39466 -3.69543 0
M  V30 3072 H 409.147 -6.71916 -5.01943 0
M  V30 3073 H 407.453 -7.4649 -6.93477 0
M  V30 3074 H 407.263 -8.89416 -5.05237 0
M  V30 3075 H 405.633 -8.14876 -5.18409 0
M  V30 3076 H 408.272 -3.27957 -5.4317 0
M  V30 3077 P 410.129 -5.75688 -6.64379 0
M  V30 3078 O 411.551 -6.07627 -7.05504 0
M  V30 3079 O 409.769 -5.88047 -5.19722 0
M  V30 3080 O 409.806 -4.2322 -7.04443 0
M  V30 3081 C 409.646 -3.99743 -8.4911 0
M  V30 3082 C 410.186 -2.60516 -8.79425 0
M  V30 3083 O 409.13 -1.82684 -8.4467 0
M  V30 3084 C 411.404 -2.10343 -8.03628 0
M  V30 3085 O 412.142 -1.09919 -8.67766 0
M  V30 3086 C 410.735 -1.68446 -6.70876 0
M  V30 3087 O 411.534 -0.678137 -6.08433 0
M  V30 3088 C 409.398 -1.17436 -7.18567 0
M  V30 3089 H 409.43 -0.0804732 -7.31656 0
M  V30 3090 H 410.613 -2.54037 -6.02537 0
M  V30 3091 H 412.097 -2.93881 -7.85526 0
M  V30 3092 H 410.403 -2.53065 -9.86973 0
M  V30 3093 H 410.213 -4.75072 -9.05887 0
M  V30 3094 H 408.583 -4.05244 -8.76668 0
M  V30 3095 H 411.222 0.177647 -6.34251 0
M  V30 3096 P 413.08 -1.25109 -8.70152 0
M  V30 3097 O 414.501 -1.29758 -9.22115 0
M  V30 3098 O 412.72 -2.13714 -7.55141 0
M  V30 3099 O 412.757 0.248149 -8.21425 0
M  V30 3100 C 412.596 1.22792 -9.30533 0
M  V30 3101 C 413.137 2.56293 -8.80664 0
M  V30 3102 O 412.082 3.02944 -8.09255 0
M  V30 3103 C 414.355 2.57523 -7.89775 0
M  V30 3104 O 415.093 3.7668 -7.89438 0
M  V30 3105 C 413.687 2.20997 -6.55446 0
M  V30 3106 O 414.485 2.71302 -5.48691 0
M  V30 3107 C 412.349 2.89693 -6.67988 0
M  V30 3108 N 411.306 2.08895 -6.07487 0
M  V30 3109 C 411.475 0.753809 -5.94137 0
M  V30 3110 N 410.448 0.146592 -5.38801 0
M  V30 3111 C 409.563 1.1768 -5.13693 0
M  V30 3112 C 408.296 1.17563 -4.52477 0
M  V30 3113 N 407.731 2.41918 -4.45789 0
M  V30 3114 C 408.333 3.56493 -4.90792 0
M  V30 3115 N 409.51 3.61423 -5.47817 0
M  V30 3116 C 410.085 2.37779 -5.5588 0
M  V30 3117 H 413.564 1.12673 -6.44018 0
M  V30 3118 H 415.047 1.7746 -8.19711 0
M  V30 3119 H 413.353 3.21673 -9.66791 0
M  V30 3120 H 413.163 0.901032 -10.1892 0
M  V30 3121 H 411.533 1.33049 -9.56592 0
M  V30 3122 H 412.375 0.233081 -6.26266 0
M  V30 3123 H 414.173 3.5779 -5.23879 0
M  V30 3124 P 416.03 3.65191 -7.99657 0
M  V30 3125 O 417.452 3.89332 -8.45794 0
M  V30 3126 O 415.67 2.28472 -7.50807 0
M  V30 3127 O 415.707 4.64972 -6.77611 0
M  V30 3128 C 415.547 6.06319 -7.16352 0
M  V30 3129 C 416.087 6.91731 -6.02299 0
M  V30 3130 O 415.031 6.92449 -5.17064 0
M  V30 3131 C 417.305 6.43627 -5.25174 0
M  V30 3132 O 418.043 7.43686 -4.60469 0
M  V30 3133 C 416.636 5.40275 -4.31916 0
M  V30 3134 O 417.435 5.25279 -3.14438 0
M  V30 3135 C 415.299 6.04847 -4.05327 0
M  V30 3136 H 415.331 6.62195 -3.11261 0
M  V30 3137 H 416.514 4.42556 -4.81383 0
M  V30 3138 H 417.998 5.92458 -5.93643 0
M  V30 3139 H 416.304 7.92655 -6.402 0
M  V30 3140 H 416.114 6.26671 -8.0846 0
M  V30 3141 H 414.484 6.29101 -7.32804 0
M  V30 3142 H 417.123 5.84315 -2.47318 0
M  V30 3143 P 418.981 7.39546 -4.75277 0
M  V30 3144 O 420.403 7.84798 -5.01039 0
M  V30 3145 O 418.621 5.9812 -5.08098 0
M  V30 3146 O 418.658 7.57503 -3.1866 0
M  V30 3147 C 418.498 8.97357 -2.74833 0
M  V30 3148 C 419.038 9.07548 -1.32709 0
M  V30 3149 O 417.982 8.62072 -0.606159 0
M  V30 3150 C 420.256 8.25383 -0.938334 0
M  V30 3151 O 420.994 8.74577 0.146954 0
M  V30 3152 C 419.587 6.8802 -0.712559 0
M  V30 3153 O 420.386 6.1189 0.194655 0
M  V30 3154 C 418.25 7.27966 -0.139777 0
M  V30 3155 H 418.282 7.25354 0.961601 0
M  V30 3156 H 419.465 6.32557 -1.65702 0
M  V30 3157 H 420.949 8.19355 -1.79097 0
M  V30 3158 H 419.255 10.1294 -1.10029 0
M  V30 3159 H 419.065 9.64276 -3.41316 0
M  V30 3160 H 417.435 9.25417 -2.76357 0
M  V30 3161 H 420.074 6.25267 1.07847 0
M  V30 3162 P 421.932 8.791 2.28317e-12 0
M  V30 3163 O 423.354 9.31096 0.027933 0
M  V30 3164 O 421.572 7.77869 -1.04071 0
M  V30 3165 O 421.609 8.09533 1.41463 0
M  V30 3166 C 421.449 9.0349 2.53943 0
M  V30 3167 C 421.989 8.35226 3.79016 0
M  V30 3168 O 420.933 7.57992 4.15078 0
M  V30 3169 C 423.207 7.45087 3.67298 0
M  V30 3170 O 423.945 7.27796 4.85194 0
M  V30 3171 C 422.538 6.17323 3.12027 0
M  V30 3172 O 423.337 5.04231 3.47188 0
M  V30 3173 C 421.201 6.19961 3.81809 0
M  V30 3174 H 421.233 5.58218 4.73051 0
M  V30 3175 H 422.416 6.21726 2.02589 0
M  V30 3176 H 423.9 7.86112 2.9231 0
M  V30 3177 H 422.206 9.11627 4.55076 0
M  V30 3178 H 422.016 9.9573 2.34194 0
M  V30 3179 H 420.386 9.2792 2.67832 0
M  V30 3180 H 423.025 4.67702 4.28772 0
M  V30 3181 P 424.882 7.39546 4.75277 0
M  V30 3182 O 426.304 7.81777 5.05738 0
M  V30 3183 O 424.522 7.1065 3.32998 0
M  V30 3184 O 424.559 6.04542 5.56673 0
M  V30 3185 C 424.399 6.22772 7.02095 0
M  V30 3186 C 424.939 4.97725 7.70406 0
M  V30 3187 O 423.883 4.13256 7.58987 0
M  V30 3188 C 426.157 4.28231 7.11815 0
M  V30 3189 O 426.895 3.49945 8.01648 0
M  V30 3190 C 425.488 3.5063 5.96244 0
M  V30 3191 O 426.287 2.36482 5.64681 0
M  V30 3192 C 424.151 3.15122 6.56374 0
M  V30 3193 H 424.183 2.13853 6.99751 0
M  V30 3194 H 425.366 4.13501 5.06559 0
M  V30 3195 H 426.85 5.03285 6.70911 0
M  V30 3196 H 425.156 5.20877 8.75697 0
M  V30 3197 H 424.966 7.11046 7.35349 0
M  V30 3198 H 423.336 6.35815 7.26986 0
M  V30 3199 H 425.975 1.61644 6.13565 0
M  V30 3200 P 427.833 3.65191 7.99657 0
M  V30 3201 O 429.255 3.8425 8.48115 0
M  V30 3202 O 427.473 4.17805 6.64342 0
M  V30 3203 O 427.51 2.07613 7.95143 0
M  V30 3204 C 427.35 1.44328 9.27336 0
M  V30 3205 C 427.89 0.0220036 9.17197 0
M  V30 3206 O 426.834 -0.626867 8.61923 0
M  V30 3207 C 429.108 -0.24586 8.30336 0
M  V30 3208 O 429.846 -1.39011 8.63583 0
M  V30 3209 C 428.439 -0.273849 6.91158 0
M  V30 3210 O 429.238 -1.06348 6.02892 0
M  V30 3211 C 427.102 -0.897649 7.22545 0
M  V30 3212 H 427.134 -1.9841 7.04286 0
M  V30 3213 H 428.317 0.739928 6.497 0
M  V30 3214 H 429.801 0.60668 8.36503 0
M  V30 3215 H 428.107 -0.352479 10.1829 0
M  V30 3216 H 427.917 2.00611 10.0304 0
M  V30 3217 H 426.287 1.41843 9.55327 0
M  V30 3218 H 428.926 -1.95734 6.03555 0
M  V30 3219 P 430.783 -1.25109 8.70152 0
M  V30 3220 O 432.205 -1.35274 9.21221 0
M  V30 3221 O 430.423 -0.0769065 7.84762 0
M  V30 3222 O 430.46 -2.55232 7.81161 0
M  V30 3223 C 430.3 -3.79939 8.58154 0
M  V30 3224 C 430.84 -4.94023 7.72785 0
M  V30 3225 O 429.784 -5.18726 6.91205 0
M  V30 3226 C 432.058 -4.69597 6.85231 0
M  V30 3227 O 432.796 -5.83832 6.51337 0
M  V30 3228 C 431.389 -3.96706 5.66633 0
M  V30 3229 O 432.188 -4.15414 4.49689 0
M  V30 3230 C 430.052 -4.66153 5.59313 0
M  V30 3231 H 430.084 -5.47679 4.85214 0
M  V30 3232 H 431.267 -2.89008 5.86566 0
M  V30 3233 H 432.751 -4.0121 7.36511 0
M  V30 3234 H 431.057 -5.80182 8.37584 0
M  V30 3235 H 430.867 -3.73517 9.52265 0
M  V30 3236 H 429.237 -3.97163 8.80359 0
M  V30 3237 H 431.876 -4.90969 4.01921 0
M  V30 3238 P 433.734 -5.75688 6.64379 0
M  V30 3239 O 435.156 -6.11849 7.01846 0
M  V30 3240 O 433.374 -4.30744 6.56026 0
M  V30 3241 O 433.411 -6.37042 5.19165 0
M  V30 3242 C 433.251 -7.83578 5.16515 0
M  V30 3243 C 433.791 -8.33398 3.83019 0
M  V30 3244 O 432.735 -8.10074 3.01034 0
M  V30 3245 C 435.009 -7.65514 3.2257 0
M  V30 3246 O 435.747 -8.4329 2.32297 0
M  V30 3247 C 434.34 -6.40075 2.62207 0
M  V30 3248 O 435.139 -5.92589 1.53712 0
M  V30 3249 C 433.003 -6.9454 2.18503 0
M  V30 3250 H 433.035 -7.23063 1.12091 0
M  V30 3251 H 434.218 -5.6025 3.37201 0
M  V30 3252 H 435.702 -7.35707 4.02681 0
M  V30 3253 H 434.008 -9.40912 3.9095 0
M  V30 3254 H 433.818 -8.29056 5.99158 0
M  V30 3255 H 432.188 -8.10073 5.25882 0
M  V30 3256 H 434.827 -6.30324 0.726794 0
M  V30 3257 P 436.684 -8.4349 2.47671 0
M  V30 3258 O 438.105 -8.94263 2.59668 0
M  V30 3259 O 436.324 -7.1704 3.19006 0
M  V30 3260 O 436.361 -8.16596 0.923387 0
M  V30 3261 C 436.2 -9.38537 0.108869 0
M  V30 3262 C 436.741 -9.08175 -1.28353 0
M  V30 3263 O 435.686 -8.44131 -1.84692 0
M  V30 3264 C 437.959 -8.18386 -1.42505 0
M  V30 3265 O 438.697 -8.3501 -2.60497 0
M  V30 3266 C 437.291 -6.80225 -1.25468 0
M  V30 3267 O 438.089 -5.81716 -1.90454 0
M  V30 3268 C 435.953 -7.02416 -1.9168 0
M  V30 3269 N 434.91 -6.31033 -1.20314 0
M  V30 3270 C 435.079 -5.98817 0.0994088 0
M  V30 3271 N 434.052 -5.35403 0.621694 0
M  V30 3272 C 433.167 -5.25212 -0.43376 0
M  V30 3273 C 431.9 -4.64602 -0.519722 0
M  V30 3274 N 431.301 -4.01457 0.519136 0
M  V30 3275 N 431.335 -4.7568 -1.76013 0
M  V30 3276 C 431.937 -5.3653 -2.83017 0
M  V30 3277 N 433.114 -5.93676 -2.79782 0
M  V30 3278 C 433.689 -5.84061 -1.56249 0
M  V30 3279 H 435.985 -6.68789 -2.9658 0
M  V30 3280 H 437.168 -6.53498 -0.198729 0
M  V30 3281 H 438.651 -8.36622 -0.589963 0
M  V30 3282 H 436.957 -10.0273 -1.8081 0
M  V30 3283 H 436.767 -10.2138 0.558219 0
M  V30 3284 H 435.137 -9.6579 0.0444202 0
M  V30 3285 H 431.401 -5.37113 -3.77321 0
M  V30 3286 H 435.979 -6.23209 0.660562 0
M  V30 3287 H 430.371 -3.58834 0.394862 0
M  V30 3288 H 431.775 -3.96059 1.43048 0
M  V30 3289 H 437.777 -5.69466 -2.79593 0
M  V30 3290 P 439.635 -8.4349 -2.47671 0
M  V30 3291 O 441.036 -8.99283 -2.62101 0
M  V30 3292 O 439.257 -7.81195 -1.16947 0
M  V30 3293 O 439.312 -7.36797 -3.63761 0
M  V30 3294 C 439.152 -7.95349 -4.982 0
M  V30 3295 C 439.692 -6.94537 -5.98908 0
M  V30 3296 O 438.636 -6.10277 -6.11744 0
M  V30 3297 C 440.909 -6.11426 -5.62335 0
M  V30 3298 O 441.648 -5.6162 -6.70584 0
M  V30 3299 C 440.242 -5.04409 -4.73308 0
M  V30 3300 O 441.04 -3.85929 -4.75106 0
M  V30 3301 C 438.904 -4.8728 -5.41006 0
M  V30 3302 N 437.861 -4.65812 -4.42377 0
M  V30 3303 C 436.826 -3.81293 -4.74224 0
M  V30 3304 O 436.865 -3.20533 -5.83679 0
M  V30 3305 N 435.814 -3.6442 -3.86349 0
M  V30 3306 C 435.862 -4.2728 -2.6824 0
M  V30 3307 C 436.958 -5.10813 -2.3217 0
M  V30 3308 C 437.924 -5.27909 -3.22647 0
M  V30 3309 H 438.936 -4.02278 -6.11074 0
M  V30 3310 H 440.119 -5.39013 -3.70026 0
M  V30 3311 H 441.603 -6.71494 -5.02675 0
M  V30 3312 H 439.909 -7.45796 -6.94223 0
M  V30 3313 H 439.718 -8.89416 -5.05237 0
M  V30 3314 H 438.088 -8.14791 -5.18355 0
M  V30 3315 H 437.006 -5.58884 -1.34755 0
M  V30 3316 H 438.77 -5.92811 -2.9934 0
M  V30 3317 H 440.824 -3.3454 -5.51577 0
M  V30 3318 P 442.586 -5.75688 -6.64379 0
M  V30 3319 O 444.008 -6.07627 -7.05504 0
M  V30 3320 O 442.226 -5.88047 -5.19722 0
M  V30 3321 O 442.263 -4.2322 -7.04443 0
M  V30 3322 C 442.103 -3.99743 -8.4911 0
M  V30 3323 C 442.643 -2.60516 -8.79425 0
M  V30 3324 O 441.587 -1.82684 -8.4467 0
M  V30 3325 C 443.861 -2.10343 -8.03628 0
M  V30 3326 O 444.599 -1.09919 -8.67766 0
M  V30 3327 C 443.192 -1.68446 -6.70876 0
M  V30 3328 O 443.991 -0.678137 -6.08433 0
M  V30 3329 C 441.855 -1.17436 -7.18567 0
M  V30 3330 H 441.887 -0.0804732 -7.31656 0
M  V30 3331 H 443.07 -2.54037 -6.02537 0
M  V30 3332 H 444.554 -2.93881 -7.85526 0
M  V30 3333 H 442.86 -2.53065 -9.86973 0
M  V30 3334 H 442.67 -4.75072 -9.05887 0
M  V30 3335 H 441.04 -4.05244 -8.76668 0
M  V30 3336 H 443.679 0.177647 -6.34251 0
M  V30 3337 P 445.536 -1.25109 -8.70152 0
M  V30 3338 O 446.958 -1.29744 -9.22016 0
M  V30 3339 O 445.176 -2.13714 -7.55141 0
M  V30 3340 O 445.213 0.248149 -8.21425 0
M  V30 3341 C 445.053 1.22779 -9.30434 0
M  V30 3342 C 445.593 2.56293 -8.80664 0
M  V30 3343 O 444.537 3.02979 -8.09349 0
M  V30 3344 C 446.811 2.57523 -7.89775 0
M  V30 3345 O 447.549 3.7668 -7.89438 0
M  V30 3346 C 446.142 2.20997 -6.55446 0
M  V30 3347 O 446.941 2.71895 -5.48509 0
M  V30 3348 C 444.805 2.89693 -6.67988 0
M  V30 3349 H 444.837 3.88793 -6.19859 0
M  V30 3350 H 446.02 1.12046 -6.44229 0
M  V30 3351 H 447.504 1.7746 -8.19711 0
M  V30 3352 H 445.81 3.20706 -9.67112 0
M  V30 3353 H 445.62 0.901032 -10.1892 0
M  V30 3354 H 443.99 1.33049 -9.56592 0
M  V30 3355 H 446.629 3.57847 -5.23962 0
M  V30 3356 P 448.487 3.65191 -7.99657 0
M  V30 3357 O 449.909 3.89332 -8.45794 0
M  V30 3358 O 448.127 2.28472 -7.50807 0
M  V30 3359 O 448.164 4.64972 -6.77611 0
M  V30 3360 C 448.004 6.06319 -7.16352 0
M  V30 3361 C 448.544 6.91731 -6.02299 0
M  V30 3362 O 447.488 6.92449 -5.17064 0
M  V30 3363 C 449.762 6.43627 -5.25174 0
M  V30 3364 O 450.5 7.43686 -4.60469 0
M  V30 3365 C 449.093 5.40275 -4.31916 0
M  V30 3366 O 449.892 5.25279 -3.14438 0
M  V30 3367 C 447.756 6.04847 -4.05327 0
M  V30 3368 H 447.788 6.62195 -3.11261 0
M  V30 3369 H 448.971 4.42556 -4.81383 0
M  V30 3370 H 450.455 5.92458 -5.93643 0
M  V30 3371 H 448.761 7.92655 -6.402 0
M  V30 3372 H 448.571 6.26671 -8.0846 0
M  V30 3373 H 446.941 6.29101 -7.32804 0
M  V30 3374 H 449.58 5.84315 -2.47318 0
M  V30 3375 P 451.437 7.39546 -4.75277 0
M  V30 3376 O 452.859 7.84798 -5.01039 0
M  V30 3377 O 451.077 5.9812 -5.08098 0
M  V30 3378 O 451.114 7.57503 -3.1866 0
M  V30 3379 C 450.954 8.97357 -2.74833 0
M  V30 3380 C 451.494 9.07548 -1.32709 0
M  V30 3381 O 450.438 8.62072 -0.606159 0
M  V30 3382 C 452.712 8.25383 -0.938334 0
M  V30 3383 O 453.45 8.74577 0.146954 0
M  V30 3384 C 452.043 6.8802 -0.712559 0
M  V30 3385 O 452.842 6.1189 0.194655 0
M  V30 3386 C 450.706 7.27966 -0.139777 0
M  V30 3387 H 450.738 7.25354 0.961601 0
M  V30 3388 H 451.921 6.32557 -1.65702 0
M  V30 3389 H 453.405 8.19355 -1.79097 0
M  V30 3390 H 451.711 10.1294 -1.10029 0
M  V30 3391 H 451.521 9.64276 -3.41316 0
M  V30 3392 H 449.891 9.25417 -2.76357 0
M  V30 3393 H 452.53 6.25267 1.07847 0
M  V30 3394 P 454.388 8.791 2.59334e-12 0
M  V30 3395 O 455.81 9.31096 0.027933 0
M  V30 3396 O 454.028 7.77869 -1.04071 0
M  V30 3397 O 454.065 8.09533 1.41463 0
M  V30 3398 C 453.905 9.0349 2.53943 0
M  V30 3399 C 454.445 8.35226 3.79016 0
M  V30 3400 O 453.389 7.57992 4.15078 0
M  V30 3401 C 455.663 7.45087 3.67298 0
M  V30 3402 O 456.401 7.27796 4.85194 0
M  V30 3403 C 454.994 6.17323 3.12027 0
M  V30 3404 O 455.793 5.04231 3.47188 0
M  V30 3405 C 453.657 6.19961 3.81809 0
M  V30 3406 H 453.689 5.58218 4.73051 0
M  V30 3407 H 454.872 6.21726 2.02589 0
M  V30 3408 H 456.356 7.86112 2.9231 0
M  V30 3409 H 454.662 9.11627 4.55076 0
M  V30 3410 H 454.472 9.9573 2.34194 0
M  V30 3411 H 452.842 9.2792 2.67832 0
M  V30 3412 H 455.481 4.67702 4.28772 0
M  V30 3413 P 457.338 7.39546 4.75277 0
M  V30 3414 O 458.76 7.81777 5.05738 0
M  V30 3415 O 456.978 7.1065 3.32998 0
M  V30 3416 O 457.015 6.04542 5.56673 0
M  V30 3417 C 456.855 6.22772 7.02095 0
M  V30 3418 C 457.395 4.97725 7.70406 0
M  V30 3419 O 456.339 4.13256 7.58987 0
M  V30 3420 C 458.613 4.28231 7.11815 0
M  V30 3421 O 459.351 3.49945 8.01648 0
M  V30 3422 C 457.944 3.5063 5.96244 0
M  V30 3423 O 458.743 2.36482 5.64681 0
M  V30 3424 C 456.607 3.15122 6.56374 0
M  V30 3425 H 456.639 2.13853 6.99751 0
M  V30 3426 H 457.822 4.13501 5.06559 0
M  V30 3427 H 459.306 5.03285 6.70911 0
M  V30 3428 H 457.612 5.20877 8.75697 0
M  V30 3429 H 457.422 7.11046 7.35349 0
M  V30 3430 H 455.792 6.35815 7.26986 0
M  V30 3431 H 458.431 1.61644 6.13565 0
M  V30 3432 P 460.289 3.65191 7.99657 0
M  V30 3433 O 461.69 3.90823 8.51272 0
M  V30 3434 O 459.911 4.23191 6.66972 0
M  V30 3435 O 459.966 2.07587 7.95046 0
M  V30 3436 C 459.806 1.44328 9.27336 0
M  V30 3437 C 460.346 0.0220012 9.17097 0
M  V30 3438 O 459.29 -0.626794 8.61824 0
M  V30 3439 C 461.563 -0.24586 8.30336 0
M  V30 3440 O 462.302 -1.39011 8.63583 0
M  V30 3441 C 460.896 -0.273849 6.91158 0
M  V30 3442 O 461.694 -1.06331 6.02794 0
M  V30 3443 C 459.558 -0.897649 7.22545 0
M  V30 3444 N 458.515 -0.292839 6.41732 0
M  V30 3445 C 457.48 -1.08701 5.98712 0
M  V30 3446 O 457.519 -2.31211 6.24471 0
M  V30 3447 N 456.468 -0.533391 5.28415 0
M  V30 3448 C 456.516 0.770866 4.98576 0
M  V30 3449 C 457.612 1.59049 5.38086 0
M  V30 3450 C 458.578 1.01866 6.10256 0
M  V30 3451 H 459.59 -1.98383 7.04189 0
M  V30 3452 H 460.773 0.733318 6.49674 0
M  V30 3453 H 462.257 0.598386 8.36663 0
M  V30 3454 H 460.563 -0.362662 10.1825 0
M  V30 3455 H 460.372 2.00611 10.0304 0
M  V30 3456 H 458.742 1.41828 9.55228 0
M  V30 3457 H 457.66 2.6415 5.10622 0
M  V30 3458 H 459.424 1.61983 6.44042 0
M  V30 3459 H 461.478 -1.97777 6.14035 0
M  V30 3460 P 463.239 -1.25109 8.70152 0
M  V30 3461 O 464.661 -1.35274 9.21221 0
M  V30 3462 O 462.879 -0.0769065 7.84762 0
M  V30 3463 O 462.916 -2.55232 7.81161 0
M  V30 3464 C 462.756 -3.79939 8.58154 0
M  V30 3465 C 463.296 -4.94023 7.72785 0
M  V30 3466 O 462.24 -5.18726 6.91205 0
M  V30 3467 C 464.514 -4.69597 6.85231 0
M  V30 3468 O 465.252 -5.83832 6.51337 0
M  V30 3469 C 463.845 -3.96706 5.66633 0
M  V30 3470 O 464.644 -4.15414 4.49689 0
M  V30 3471 C 462.508 -4.66153 5.59313 0
M  V30 3472 H 462.54 -5.47679 4.85214 0
M  V30 3473 H 463.723 -2.89008 5.86566 0
M  V30 3474 H 465.207 -4.0121 7.36511 0
M  V30 3475 H 463.513 -5.80182 8.37584 0
M  V30 3476 H 463.323 -3.73517 9.52265 0
M  V30 3477 H 461.693 -3.97163 8.80359 0
M  V30 3478 H 464.332 -4.90969 4.01921 0
M  V30 3479 P 466.19 -5.75688 6.64379 0
M  V30 3480 O 467.591 -6.11991 7.09136 0
M  V30 3481 O 465.812 -4.30899 6.62018 0
M  V30 3482 O 465.867 -6.36965 5.19102 0
M  V30 3483 C 465.707 -7.83578 5.16515 0
M  V30 3484 C 466.247 -8.33307 3.82977 0
M  V30 3485 O 465.191 -8.0998 3.00999 0
M  V30 3486 C 467.464 -7.65514 3.2257 0
M  V30 3487 O 468.203 -8.4329 2.32297 0
M  V30 3488 C 466.797 -6.40075 2.62207 0
M  V30 3489 O 467.595 -5.92492 1.53687 0
M  V30 3490 C 465.459 -6.9454 2.18503 0
M  V30 3491 N 464.416 -5.95905 2.39948 0
M  V30 3492 C 463.381 -5.89764 1.49837 0
M  V30 3493 O 463.42 -6.64088 0.490975 0
M  V30 3494 N 462.369 -5.02821 1.70992 0
M  V30 3495 C 462.417 -4.21498 2.77236 0
M  V30 3496 C 463.513 -4.23389 3.68205 0
M  V30 3497 C 464.479 -5.12792 3.46171 0
M  V30 3498 H 465.491 -7.22964 1.12076 0
M  V30 3499 H 466.674 -5.60502 3.36589 0
M  V30 3500 H 468.158 -7.36197 4.01993 0
M  V30 3501 H 466.464 -9.41302 3.90009 0
M  V30 3502 H 466.273 -8.29056 5.99158 0
M  V30 3503 H 464.643 -8.09989 5.25828 0
M  V30 3504 H 463.561 -3.54747 4.52399 0
M  V30 3505 H 465.325 -5.18551 4.1489 0
M  V30 3506 H 467.379 -6.40705 0.751752 0
M  V30 3507 P 469.141 -8.4349 2.47671 0
M  V30 3508 O 470.563 -8.94167 2.5964 0
M  V30 3509 O 468.781 -7.1704 3.19006 0
M  V30 3510 O 468.818 -8.16596 0.923387 0
M  V30 3511 C 468.658 -9.38437 0.108857 0
M  V30 3512 C 469.198 -9.08175 -1.28353 0
M  V30 3513 O 468.142 -8.44229 -1.84713 0
M  V30 3514 C 470.416 -8.18386 -1.42505 0
M  V30 3515 O 471.154 -8.3501 -2.60497 0
M  V30 3516 C 469.747 -6.80225 -1.25468 0
M  V30 3517 O 470.546 -5.81621 -1.91066 0
M  V30 3518 C 468.41 -7.02416 -1.9168 0
M  V30 3519 H 468.442 -6.6888 -2.96621 0
M  V30 3520 H 469.625 -6.53617 -0.192223 0
M  V30 3521 H 471.109 -8.36622 -0.589963 0
M  V30 3522 H 469.415 -10.0291 -1.79807 0
M  V30 3523 H 469.225 -10.2138 0.558219 0
M  V30 3524 H 467.595 -9.6579 0.0444202 0
M  V30 3525 H 470.234 -5.69556 -2.79637 0
M  V30 3526 P 472.091 -8.4349 -2.47671 0
M  V30 3527 O 473.513 -8.92785 -2.65057 0
M  V30 3528 O 471.731 -7.7568 -1.19296 0
M  V30 3529 O 471.768 -7.36886 -3.63805 0
M  V30 3530 C 471.608 -7.95349 -4.982 0
M  V30 3531 C 472.148 -6.94537 -5.98908 0
M  V30 3532 O 471.093 -6.10347 -6.11815 0
M  V30 3533 C 473.366 -6.11426 -5.62335 0
M  V30 3534 O 474.104 -5.6162 -6.70584 0
M  V30 3535 C 472.698 -5.04409 -4.73308 0
M  V30 3536 O 473.496 -3.85929 -4.75106 0
M  V30 3537 C 471.36 -4.8728 -5.41006 0
M  V30 3538 N 470.317 -4.65812 -4.42377 0
M  V30 3539 C 470.379 -5.27109 -3.24335 0
M  V30 3540 N 469.334 -4.94293 -2.47735 0
M  V30 3541 C 468.6 -4.1271 -3.23359 0
M  V30 3542 C 467.294 -3.56384 -2.99934 0
M  V30 3543 O 466.561 -3.69331 -2.00616 0
M  V30 3544 N 466.864 -2.80206 -4.03316 0
M  V30 3545 C 467.613 -2.58614 -5.2172 0
M  V30 3546 N 467.016 -1.75154 -6.13278 0
M  V30 3547 N 468.766 -3.13689 -5.47619 0
M  V30 3548 C 469.223 -3.90921 -4.46436 0
M  V30 3549 H 471.392 -4.02333 -6.11157 0
M  V30 3550 H 472.575 -5.39383 -3.69487 0
M  V30 3551 H 474.06 -6.71414 -5.02615 0
M  V30 3552 H 472.365 -7.4649 -6.93477 0
M  V30 3553 H 472.175 -8.89416 -5.05237 0
M  V30 3554 H 470.544 -8.14876 -5.18409 0
M  V30 3555 H 465.968 -2.36355 -3.95916 0
M  V30 3556 H 471.175 -5.95212 -2.93859 0
M  V30 3557 H 466.105 -1.32473 -5.91856 0
M  V30 3558 H 467.481 -1.5588 -7.03026 0
M  V30 3559 H 473.185 -3.27906 -5.43085 0
M  V30 3560 P 475.042 -5.75688 -6.64379 0
M  V30 3561 O 476.463 -6.07692 -7.0558 0
M  V30 3562 O 474.682 -5.88047 -5.19722 0
M  V30 3563 O 474.719 -4.2322 -7.04443 0
M  V30 3564 C 474.558 -3.99785 -8.49201 0
M  V30 3565 C 475.099 -2.60516 -8.79425 0
M  V30 3566 O 474.044 -1.82663 -8.44573 0
M  V30 3567 C 476.317 -2.10343 -8.03628 0
M  V30 3568 O 477.055 -1.09919 -8.67766 0
M  V30 3569 C 475.649 -1.68446 -6.70876 0
M  V30 3570 O 476.447 -0.684109 -6.08265 0
M  V30 3571 C 474.311 -1.17436 -7.18567 0
M  V30 3572 N 473.268 -1.52699 -6.23988 0
M  V30 3573 C 473.437 -2.578 -5.40574 0
M  V30 3574 N 472.41 -2.78966 -4.61193 0
M  V30 3575 C 471.525 -1.78725 -4.95769 0
M  V30 3576 C 470.258 -1.45727 -4.44207 0
M  V30 3577 N 469.693 -0.374977 -5.05812 0
M  V30 3578 C 470.295 0.345585 -6.05615 0
M  V30 3579 N 471.472 0.0787651 -6.56253 0
M  V30 3580 C 472.047 -1.00499 -5.96189 0
M  V30 3581 H 475.526 -2.53396 -6.02698 0
M  V30 3582 H 477.009 -2.93881 -7.85526 0
M  V30 3583 H 475.315 -2.52078 -9.87225 0
M  V30 3584 H 475.125 -4.75072 -9.05887 0
M  V30 3585 H 473.495 -4.05244 -8.76668 0
M  V30 3586 H 474.337 -3.18977 -5.3945 0
M  V30 3587 H 476.135 0.177619 -6.34151 0
M  V30 3588 P 477.992 -1.25109 -8.70152 0
M  V30 3589 O 479.414 -1.29772 -9.22214 0
M  V30 3590 O 477.632 -2.13714 -7.55141 0
M  V30 3591 O 477.669 0.248149 -8.21425 0
M  V30 3592 C 477.509 1.22779 -9.30434 0
M  V30 3593 C 478.049 2.56265 -8.80568 0
M  V30 3594 O 476.994 3.02979 -8.09349 0
M  V30 3595 C 479.267 2.57523 -7.89775 0
M  V30 3596 O 480.005 3.7668 -7.89438 0
M  V30 3597 C 478.599 2.20997 -6.55446 0
M  V30 3598 O 479.397 2.71851 -5.48419 0
M  V30 3599 C 477.261 2.89693 -6.67988 0
M  V30 3600 N 476.218 2.08895 -6.07487 0
M  V30 3601 C 476.28 0.760559 -6.14209 0
M  V30 3602 N 475.235 0.200108 -5.52538 0
M  V30 3603 C 474.501 1.22692 -5.09742 0
M  V30 3604 C 473.195 1.24782 -4.48775 0
M  V30 3605 O 472.462 0.290617 -4.19294 0
M  V30 3606 N 472.765 2.50468 -4.22428 0
M  V30 3607 C 473.514 3.67142 -4.51974 0
M  V30 3608 N 472.917 4.85096 -4.14091 0
M  V30 3609 N 474.667 3.67821 -5.12831 0
M  V30 3610 C 475.124 2.43698 -5.4105 0
M  V30 3611 H 477.293 3.88793 -6.19859 0
M  V30 3612 H 478.476 1.12029 -6.4413 0
M  V30 3613 H 479.961 1.78279 -8.19533 0
M  V30 3614 H 478.266 3.20706 -9.67112 0
M  V30 3615 H 478.076 0.901032 -10.1892 0
M  V30 3616 H 476.445 1.33049 -9.56592 0
M  V30 3617 H 471.869 2.61953 -3.79465 0
M  V30 3618 H 477.076 0.200439 -6.63497 0
M  V30 3619 H 472.006 4.8334 -3.66367 0
M  V30 3620 H 473.382 5.7474 -4.33841 0
M  V30 3621 H 479.086 3.5779 -5.23879 0
M  V30 3622 P 480.943 3.65191 -7.99657 0
M  V30 3623 O 482.365 3.89332 -8.45794 0
M  V30 3624 O 480.583 2.28472 -7.50807 0
M  V30 3625 O 480.62 4.64972 -6.77611 0
M  V30 3626 C 480.46 6.06319 -7.16352 0
M  V30 3627 C 481 6.91731 -6.02299 0
M  V30 3628 O 479.944 6.92449 -5.17064 0
M  V30 3629 C 482.218 6.43627 -5.25174 0
M  V30 3630 O 482.956 7.43686 -4.60469 0
M  V30 3631 C 481.549 5.40275 -4.31916 0
M  V30 3632 O 482.348 5.25279 -3.14438 0
M  V30 3633 C 480.212 6.04847 -4.05327 0
M  V30 3634 H 480.244 6.62195 -3.11261 0
M  V30 3635 H 481.427 4.42556 -4.81383 0
M  V30 3636 H 482.911 5.92458 -5.93643 0
M  V30 3637 H 481.217 7.92655 -6.402 0
M  V30 3638 H 481.027 6.26671 -8.0846 0
M  V30 3639 H 479.397 6.29101 -7.32804 0
M  V30 3640 H 482.036 5.84315 -2.47318 0
M  V30 3641 P 483.893 7.39546 -4.75277 0
M  V30 3642 O 485.315 7.84798 -5.01039 0
M  V30 3643 O 483.533 5.9812 -5.08098 0
M  V30 3644 O 483.57 7.57503 -3.1866 0
M  V30 3645 C 483.41 8.97357 -2.74833 0
M  V30 3646 C 483.95 9.07548 -1.32709 0
M  V30 3647 O 482.894 8.62072 -0.606159 0
M  V30 3648 C 485.168 8.25383 -0.938334 0
M  V30 3649 O 485.906 8.74577 0.146954 0
M  V30 3650 C 484.499 6.8802 -0.712559 0
M  V30 3651 O 485.298 6.1189 0.194655 0
M  V30 3652 C 483.162 7.27966 -0.139777 0
M  V30 3653 H 483.194 7.25354 0.961601 0
M  V30 3654 H 484.377 6.32557 -1.65702 0
M  V30 3655 H 485.861 8.19355 -1.79097 0
M  V30 3656 H 484.167 10.1294 -1.10029 0
M  V30 3657 H 483.977 9.64276 -3.41316 0
M  V30 3658 H 482.347 9.25417 -2.76357 0
M  V30 3659 H 484.986 6.25267 1.07847 0
M  V30 3660 P 486.844 8.791 2.9035e-12 0
M  V30 3661 O 488.266 9.31096 0.027933 0
M  V30 3662 O 486.484 7.77869 -1.04071 0
M  V30 3663 O 486.521 8.09533 1.41463 0
M  V30 3664 C 486.361 9.0349 2.53943 0
M  V30 3665 C 486.901 8.35226 3.79016 0
M  V30 3666 O 485.845 7.57992 4.15078 0
M  V30 3667 C 488.119 7.45087 3.67298 0
M  V30 3668 O 488.857 7.27796 4.85194 0
M  V30 3669 C 487.45 6.17323 3.12027 0
M  V30 3670 O 488.249 5.04231 3.47188 0
M  V30 3671 C 486.113 6.19961 3.81809 0
M  V30 3672 H 486.145 5.58218 4.73051 0
M  V30 3673 H 487.328 6.21726 2.02589 0
M  V30 3674 H 488.812 7.86112 2.9231 0
M  V30 3675 H 487.118 9.11627 4.55076 0
M  V30 3676 H 486.928 9.9573 2.34194 0
M  V30 3677 H 485.298 9.2792 2.67832 0
M  V30 3678 H 487.937 4.67702 4.28772 0
M  V30 3679 P 489.795 7.39546 4.75277 0
M  V30 3680 O 491.217 7.81777 5.05738 0
M  V30 3681 O 489.435 7.1065 3.32998 0
M  V30 3682 O 489.472 6.04542 5.56673 0
M  V30 3683 C 489.312 6.22772 7.02095 0
M  V30 3684 C 489.852 4.97725 7.70406 0
M  V30 3685 O 488.796 4.13256 7.58987 0
M  V30 3686 C 491.07 4.28231 7.11815 0
M  V30 3687 O 491.808 3.49945 8.01648 0
M  V30 3688 C 490.401 3.5063 5.96244 0
M  V30 3689 O 491.2 2.36482 5.64681 0
M  V30 3690 C 489.064 3.15122 6.56374 0
M  V30 3691 H 489.096 2.13853 6.99751 0
M  V30 3692 H 490.279 4.13501 5.06559 0
M  V30 3693 H 491.763 5.03285 6.70911 0
M  V30 3694 H 490.069 5.20877 8.75697 0
M  V30 3695 H 489.879 7.11046 7.35349 0
M  V30 3696 H 488.249 6.35815 7.26986 0
M  V30 3697 H 490.888 1.61644 6.13565 0
M  V30 3698 P 492.745 3.65191 7.99657 0
M  V30 3699 O 494.166 3.84292 8.48206 0
M  V30 3700 O 492.385 4.17805 6.64342 0
M  V30 3701 O 492.422 2.07613 7.95143 0
M  V30 3702 C 492.261 1.44344 9.27435 0
M  V30 3703 C 492.802 0.0220036 9.17197 0
M  V30 3704 O 491.747 -0.626794 8.61824 0
M  V30 3705 C 494.02 -0.24586 8.30336 0
M  V30 3706 O 494.758 -1.39011 8.63583 0
M  V30 3707 C 493.352 -0.273849 6.91158 0
M  V30 3708 O 494.15 -1.05728 6.029 0
M  V30 3709 C 492.014 -0.897649 7.22545 0
M  V30 3710 N 490.971 -0.292839 6.41732 0
M  V30 3711 C 491.14 0.950603 5.91308 0
M  V30 3712 N 490.113 1.37732 5.21105 0
M  V30 3713 C 489.228 0.318109 5.26039 0
M  V30 3714 C 487.961 0.146766 4.6727 0
M  V30 3715 N 487.362 1.08519 3.89983 0
M  V30 3716 N 487.396 -1.06525 4.95887 0
M  V30 3717 C 487.998 -2.0378 5.71347 0
M  V30 3718 N 489.175 -1.92445 6.27451 0
M  V30 3719 C 489.75 -0.715382 6.00353 0
M  V30 3720 H 492.046 -1.98383 7.04189 0
M  V30 3721 H 493.229 0.733318 6.49674 0
M  V30 3722 H 494.712 0.60668 8.36503 0
M  V30 3723 H 493.018 -0.362662 10.1825 0
M  V30 3724 H 492.828 2.00611 10.0304 0
M  V30 3725 H 491.198 1.41843 9.55327 0
M  V30 3726 H 487.462 -2.97041 5.85344 0
M  V30 3727 H 492.04 1.54076 6.07465 0
M  V30 3728 H 486.432 0.901517 3.49562 0
M  V30 3729 H 487.836 1.97957 3.71669 0
M  V30 3730 H 493.838 -1.95704 6.0346 0
M  V30 3731 P 495.696 -1.25109 8.70152 0
M  V30 3732 O 497.118 -1.35274 9.21221 0
M  V30 3733 O 495.336 -0.0769065 7.84762 0
M  V30 3734 O 495.373 -2.55232 7.81161 0
M  V30 3735 C 495.213 -3.79939 8.58154 0
M  V30 3736 C 495.753 -4.94023 7.72785 0
M  V30 3737 O 494.697 -5.18726 6.91205 0
M  V30 3738 C 496.971 -4.69597 6.85231 0
M  V30 3739 O 497.709 -5.83832 6.51337 0
M  V30 3740 C 496.302 -3.96706 5.66633 0
M  V30 3741 O 497.101 -4.15414 4.49689 0
M  V30 3742 C 494.965 -4.66153 5.59313 0
M  V30 3743 H 494.997 -5.47679 4.85214 0
M  V30 3744 H 496.18 -2.89008 5.86566 0
M  V30 3745 H 497.664 -4.0121 7.36511 0
M  V30 3746 H 495.97 -5.80182 8.37584 0
M  V30 3747 H 495.78 -3.73517 9.52265 0
M  V30 3748 H 494.15 -3.97163 8.80359 0
M  V30 3749 H 496.789 -4.90969 4.01921 0
M  V30 3750 P 498.646 -5.75688 6.64379 0
M  V30 3751 O 500.068 -6.11849 7.01846 0
M  V30 3752 O 498.286 -4.30744 6.56026 0
M  V30 3753 O 498.323 -6.37042 5.19165 0
M  V30 3754 C 498.163 -7.83578 5.16515 0
M  V30 3755 C 498.703 -8.33398 3.83019 0
M  V30 3756 O 497.647 -8.10074 3.01034 0
M  V30 3757 C 499.921 -7.65514 3.2257 0
M  V30 3758 O 500.659 -8.4329 2.32297 0
M  V30 3759 C 499.252 -6.40075 2.62207 0
M  V30 3760 O 500.051 -5.92589 1.53712 0
M  V30 3761 C 497.915 -6.9454 2.18503 0
M  V30 3762 H 497.947 -7.23063 1.12091 0
M  V30 3763 H 499.13 -5.6025 3.37201 0
M  V30 3764 H 500.614 -7.35707 4.02681 0
M  V30 3765 H 498.92 -9.40912 3.9095 0
M  V30 3766 H 498.73 -8.29056 5.99158 0
M  V30 3767 H 497.1 -8.10073 5.25882 0
M  V30 3768 H 499.739 -6.30324 0.726794 0
M  V30 3769 P 501.597 -8.4349 2.47671 0
M  V30 3770 O 503.019 -8.94167 2.5964 0
M  V30 3771 O 501.237 -7.1704 3.19006 0
M  V30 3772 O 501.274 -8.16596 0.923387 0
M  V30 3773 C 501.114 -9.38437 0.108857 0
M  V30 3774 C 501.654 -9.08175 -1.28353 0
M  V30 3775 O 500.598 -8.44229 -1.84713 0
M  V30 3776 C 502.872 -8.18386 -1.42505 0
M  V30 3777 O 503.61 -8.3501 -2.60497 0
M  V30 3778 C 502.203 -6.80225 -1.25468 0
M  V30 3779 O 503.002 -5.81621 -1.91066 0
M  V30 3780 C 500.866 -7.02416 -1.9168 0
M  V30 3781 H 500.898 -6.6888 -2.96621 0
M  V30 3782 H 502.081 -6.53617 -0.192223 0
M  V30 3783 H 503.565 -8.36622 -0.589963 0
M  V30 3784 H 501.871 -10.0291 -1.79807 0
M  V30 3785 H 501.681 -10.2138 0.558219 0
M  V30 3786 H 500.051 -9.6579 0.0444202 0
M  V30 3787 H 502.69 -5.69556 -2.79637 0
M  V30 3788 P 504.547 -8.4349 -2.47671 0
M  V30 3789 O 505.969 -8.92785 -2.65057 0
M  V30 3790 O 504.187 -7.7568 -1.19296 0
M  V30 3791 O 504.224 -7.36886 -3.63805 0
M  V30 3792 C 504.064 -7.95349 -4.982 0
M  V30 3793 C 504.604 -6.94537 -5.98908 0
M  V30 3794 O 503.549 -6.10347 -6.11815 0
M  V30 3795 C 505.822 -6.11426 -5.62335 0
M  V30 3796 O 506.56 -5.6162 -6.70584 0
M  V30 3797 C 505.154 -5.04409 -4.73308 0
M  V30 3798 O 505.952 -3.85929 -4.75106 0
M  V30 3799 C 503.816 -4.8728 -5.41006 0
M  V30 3800 N 502.773 -4.65812 -4.42377 0
M  V30 3801 C 502.835 -5.27109 -3.24335 0
M  V30 3802 N 501.79 -4.94293 -2.47735 0
M  V30 3803 C 501.056 -4.1271 -3.23359 0
M  V30 3804 C 499.75 -3.56384 -2.99934 0
M  V30 3805 O 499.017 -3.69331 -2.00616 0
M  V30 3806 N 499.32 -2.80206 -4.03316 0
M  V30 3807 C 500.069 -2.58614 -5.2172 0
M  V30 3808 N 499.472 -1.75154 -6.13278 0
M  V30 3809 N 501.222 -3.13689 -5.47619 0
M  V30 3810 C 501.679 -3.90921 -4.46436 0
M  V30 3811 H 503.848 -4.02333 -6.11157 0
M  V30 3812 H 505.031 -5.39383 -3.69487 0
M  V30 3813 H 506.516 -6.71414 -5.02615 0
M  V30 3814 H 504.821 -7.4649 -6.93477 0
M  V30 3815 H 504.631 -8.89416 -5.05237 0
M  V30 3816 H 503 -8.14876 -5.18409 0
M  V30 3817 H 498.424 -2.36355 -3.95916 0
M  V30 3818 H 503.631 -5.95212 -2.93859 0
M  V30 3819 H 498.561 -1.32473 -5.91856 0
M  V30 3820 H 499.937 -1.5588 -7.03026 0
M  V30 3821 H 505.641 -3.27906 -5.43085 0
M  V30 3822 P 507.498 -5.75688 -6.64379 0
M  V30 3823 O 508.92 -6.07627 -7.05504 0
M  V30 3824 O 507.138 -5.88047 -5.19722 0
M  V30 3825 O 507.175 -4.2322 -7.04443 0
M  V30 3826 C 507.015 -3.99743 -8.4911 0
M  V30 3827 C 507.555 -2.60516 -8.79425 0
M  V30 3828 O 506.499 -1.82684 -8.4467 0
M  V30 3829 C 508.773 -2.10343 -8.03628 0
M  V30 3830 O 509.511 -1.09919 -8.67766 0
M  V30 3831 C 508.104 -1.68446 -6.70876 0
M  V30 3832 O 508.903 -0.678137 -6.08433 0
M  V30 3833 C 506.767 -1.17436 -7.18567 0
M  V30 3834 H 506.799 -0.0804732 -7.31656 0
M  V30 3835 H 507.982 -2.54037 -6.02537 0
M  V30 3836 H 509.466 -2.93881 -7.85526 0
M  V30 3837 H 507.772 -2.53065 -9.86973 0
M  V30 3838 H 507.582 -4.75072 -9.05887 0
M  V30 3839 H 505.952 -4.05244 -8.76668 0
M  V30 3840 H 508.591 0.177647 -6.34251 0
M  V30 3841 P 510.449 -1.25109 -8.70152 0
M  V30 3842 O 511.871 -1.29744 -9.22016 0
M  V30 3843 O 510.089 -2.13714 -7.55141 0
M  V30 3844 O 510.126 0.248149 -8.21425 0
M  V30 3845 C 509.966 1.22779 -9.30434 0
M  V30 3846 C 510.506 2.56293 -8.80664 0
M  V30 3847 O 509.45 3.02979 -8.09349 0
M  V30 3848 C 511.724 2.57523 -7.89775 0
M  V30 3849 O 512.462 3.7668 -7.89438 0
M  V30 3850 C 511.055 2.20997 -6.55446 0
M  V30 3851 O 511.854 2.71895 -5.48509 0
M  V30 3852 C 509.718 2.89693 -6.67988 0
M  V30 3853 H 509.75 3.88793 -6.19859 0
M  V30 3854 H 510.933 1.12046 -6.44229 0
M  V30 3855 H 512.417 1.7746 -8.19711 0
M  V30 3856 H 510.723 3.20706 -9.67112 0
M  V30 3857 H 510.533 0.901032 -10.1892 0
M  V30 3858 H 508.903 1.33049 -9.56592 0
M  V30 3859 H 511.542 3.57847 -5.23962 0
M  V30 3860 P 513.399 3.65191 -7.99657 0
M  V30 3861 O 514.821 3.89332 -8.45794 0
M  V30 3862 O 513.039 2.28472 -7.50807 0
M  V30 3863 O 513.076 4.64972 -6.77611 0
M  V30 3864 C 512.916 6.06319 -7.16352 0
M  V30 3865 C 513.456 6.91731 -6.02299 0
M  V30 3866 O 512.4 6.92449 -5.17064 0
M  V30 3867 C 514.674 6.43627 -5.25174 0
M  V30 3868 O 515.412 7.43686 -4.60469 0
M  V30 3869 C 514.005 5.40275 -4.31916 0
M  V30 3870 O 514.804 5.25279 -3.14438 0
M  V30 3871 C 512.668 6.04847 -4.05327 0
M  V30 3872 H 512.7 6.62195 -3.11261 0
M  V30 3873 H 513.883 4.42556 -4.81383 0
M  V30 3874 H 515.367 5.92458 -5.93643 0
M  V30 3875 H 513.673 7.92655 -6.402 0
M  V30 3876 H 513.483 6.26671 -8.0846 0
M  V30 3877 H 511.853 6.29101 -7.32804 0
M  V30 3878 H 514.492 5.84315 -2.47318 0
M  V30 3879 P 516.35 7.39546 -4.75277 0
M  V30 3880 O 517.772 7.84798 -5.01039 0
M  V30 3881 O 515.99 5.9812 -5.08098 0
M  V30 3882 O 516.027 7.57503 -3.1866 0
M  V30 3883 C 515.867 8.97357 -2.74833 0
M  V30 3884 C 516.407 9.07548 -1.32709 0
M  V30 3885 O 515.351 8.62072 -0.606159 0
M  V30 3886 C 517.625 8.25383 -0.938334 0
M  V30 3887 O 518.363 8.74577 0.146954 0
M  V30 3888 C 516.956 6.8802 -0.712559 0
M  V30 3889 O 517.755 6.1189 0.194655 0
M  V30 3890 C 515.619 7.27966 -0.139777 0
M  V30 3891 H 515.651 7.25354 0.961601 0
M  V30 3892 H 516.834 6.32557 -1.65702 0
M  V30 3893 H 518.318 8.19355 -1.79097 0
M  V30 3894 H 516.624 10.1294 -1.10029 0
M  V30 3895 H 516.434 9.64276 -3.41316 0
M  V30 3896 H 514.804 9.25417 -2.76357 0
M  V30 3897 H 517.443 6.25267 1.07847 0
M  V30 3898 P 519.3 8.791 3.21367e-12 0
M  V30 3899 O 520.722 9.31096 0.027933 0
M  V30 3900 O 518.94 7.77869 -1.04071 0
M  V30 3901 O 518.977 8.09533 1.41463 0
M  V30 3902 C 518.817 9.0349 2.53943 0
M  V30 3903 C 519.357 8.35226 3.79016 0
M  V30 3904 O 518.301 7.57992 4.15078 0
M  V30 3905 C 520.575 7.45087 3.67298 0
M  V30 3906 O 521.313 7.27796 4.85194 0
M  V30 3907 C 519.906 6.17323 3.12027 0
M  V30 3908 O 520.705 5.04231 3.47188 0
M  V30 3909 C 518.569 6.19961 3.81809 0
M  V30 3910 H 518.601 5.58218 4.73051 0
M  V30 3911 H 519.784 6.21726 2.02589 0
M  V30 3912 H 521.268 7.86112 2.9231 0
M  V30 3913 H 519.574 9.11627 4.55076 0
M  V30 3914 H 519.384 9.9573 2.34194 0
M  V30 3915 H 517.754 9.2792 2.67832 0
M  V30 3916 H 520.393 4.67702 4.28772 0
M  V30 3917 P 522.251 7.39546 4.75277 0
M  V30 3918 O 523.673 7.81777 5.05738 0
M  V30 3919 O 521.891 7.1065 3.32998 0
M  V30 3920 O 521.928 6.04542 5.56673 0
M  V30 3921 C 521.768 6.22772 7.02095 0
M  V30 3922 C 522.308 4.97725 7.70406 0
M  V30 3923 O 521.252 4.13256 7.58987 0
M  V30 3924 C 523.526 4.28231 7.11815 0
M  V30 3925 O 524.264 3.49945 8.01648 0
M  V30 3926 C 522.857 3.5063 5.96244 0
M  V30 3927 O 523.656 2.36482 5.64681 0
M  V30 3928 C 521.52 3.15122 6.56374 0
M  V30 3929 H 521.552 2.13853 6.99751 0
M  V30 3930 H 522.735 4.13501 5.06559 0
M  V30 3931 H 524.219 5.03285 6.70911 0
M  V30 3932 H 522.525 5.20877 8.75697 0
M  V30 3933 H 522.335 7.11046 7.35349 0
M  V30 3934 H 520.705 6.35815 7.26986 0
M  V30 3935 H 523.344 1.61644 6.13565 0
M  V30 3936 P 525.201 3.65191 7.99657 0
M  V30 3937 O 526.623 3.8425 8.48115 0
M  V30 3938 O 524.841 4.17805 6.64342 0
M  V30 3939 O 524.878 2.07613 7.95143 0
M  V30 3940 C 524.718 1.44328 9.27336 0
M  V30 3941 C 525.258 0.0220036 9.17197 0
M  V30 3942 O 524.202 -0.626867 8.61923 0
M  V30 3943 C 526.476 -0.24586 8.30336 0
M  V30 3944 O 527.214 -1.39011 8.63583 0
M  V30 3945 C 525.807 -0.273849 6.91158 0
M  V30 3946 O 526.606 -1.06348 6.02892 0
M  V30 3947 C 524.47 -0.897649 7.22545 0
M  V30 3948 H 524.502 -1.9841 7.04286 0
M  V30 3949 H 525.685 0.739928 6.497 0
M  V30 3950 H 527.169 0.60668 8.36503 0
M  V30 3951 H 525.475 -0.352479 10.1829 0
M  V30 3952 H 525.285 2.00611 10.0304 0
M  V30 3953 H 523.655 1.41843 9.55327 0
M  V30 3954 H 526.294 -1.95734 6.03555 0
M  V30 3955 P 528.152 -1.25109 8.70152 0
M  V30 3956 O 529.574 -1.35274 9.21221 0
M  V30 3957 O 527.792 -0.0769065 7.84762 0
M  V30 3958 O 527.829 -2.55232 7.81161 0
M  V30 3959 C 527.669 -3.79939 8.58154 0
M  V30 3960 C 528.209 -4.94023 7.72785 0
M  V30 3961 O 527.153 -5.18726 6.91205 0
M  V30 3962 C 529.427 -4.69597 6.85231 0
M  V30 3963 O 530.165 -5.83832 6.51337 0
M  V30 3964 C 528.758 -3.96706 5.66633 0
M  V30 3965 O 529.557 -4.15414 4.49689 0
M  V30 3966 C 527.421 -4.66153 5.59313 0
M  V30 3967 H 527.453 -5.47679 4.85214 0
M  V30 3968 H 528.636 -2.89008 5.86566 0
M  V30 3969 H 530.12 -4.0121 7.36511 0
M  V30 3970 H 528.426 -5.80182 8.37584 0
M  V30 3971 H 528.236 -3.73517 9.52265 0
M  V30 3972 H 526.606 -3.97163 8.80359 0
M  V30 3973 H 529.245 -4.90969 4.01921 0
M  V30 3974 P 531.103 -5.75688 6.64379 0
M  V30 3975 O 532.525 -6.11849 7.01846 0
M  V30 3976 O 530.743 -4.30744 6.56026 0
M  V30 3977 O 530.78 -6.37042 5.19165 0
M  V30 3978 C 530.62 -7.83578 5.16515 0
M  V30 3979 C 531.16 -8.33398 3.83019 0
M  V30 3980 O 530.104 -8.10074 3.01034 0
M  V30 3981 C 532.378 -7.65514 3.2257 0
M  V30 3982 O 533.116 -8.4329 2.32297 0
M  V30 3983 C 531.709 -6.40075 2.62207 0
M  V30 3984 O 532.508 -5.92589 1.53712 0
M  V30 3985 C 530.372 -6.9454 2.18503 0
M  V30 3986 H 530.404 -7.23063 1.12091 0
M  V30 3987 H 531.587 -5.6025 3.37201 0
M  V30 3988 H 533.071 -7.35707 4.02681 0
M  V30 3989 H 531.377 -9.40912 3.9095 0
M  V30 3990 H 531.187 -8.29056 5.99158 0
M  V30 3991 H 529.557 -8.10073 5.25882 0
M  V30 3992 H 532.196 -6.30324 0.726794 0
M  V30 3993 P 534.053 -8.4349 2.47671 0
M  V30 3994 O 535.475 -8.94167 2.5964 0
M  V30 3995 O 533.693 -7.1704 3.19006 0
M  V30 3996 O 533.73 -8.16596 0.923387 0
M  V30 3997 C 533.57 -9.38437 0.108857 0
M  V30 3998 C 534.11 -9.08175 -1.28353 0
M  V30 3999 O 533.054 -8.44229 -1.84713 0
M  V30 4000 C 535.328 -8.18386 -1.42505 0
M  V30 4001 O 536.066 -8.3501 -2.60497 0
M  V30 4002 C 534.659 -6.80225 -1.25468 0
M  V30 4003 O 535.458 -5.81621 -1.91066 0
M  V30 4004 C 533.322 -7.02416 -1.9168 0
M  V30 4005 H 533.354 -6.6888 -2.96621 0
M  V30 4006 H 534.537 -6.53617 -0.192223 0
M  V30 4007 H 536.021 -8.36622 -0.589963 0
M  V30 4008 H 534.327 -10.0291 -1.79807 0
M  V30 4009 H 534.137 -10.2138 0.558219 0
M  V30 4010 H 532.507 -9.6579 0.0444202 0
M  V30 4011 H 535.146 -5.69556 -2.79637 0
M  V30 4012 P 537.004 -8.4349 -2.47671 0
M  V30 4013 O 538.426 -8.92593 -2.65 0
M  V30 4014 O 536.644 -7.7568 -1.19296 0
M  V30 4015 O 536.681 -7.36886 -3.63805 0
M  V30 4016 C 536.521 -7.95349 -4.982 0
M  V30 4017 C 537.061 -6.94612 -5.98974 0
M  V30 4018 O 536.005 -6.10347 -6.11815 0
M  V30 4019 C 538.279 -6.11426 -5.62335 0
M  V30 4020 O 539.017 -5.6162 -6.70584 0
M  V30 4021 C 537.61 -5.04409 -4.73308 0
M  V30 4022 O 538.409 -3.85992 -4.75183 0
M  V30 4023 C 536.273 -4.8728 -5.41006 0
M  V30 4024 H 536.305 -4.02333 -6.11157 0
M  V30 4025 H 537.488 -5.39466 -3.69543 0
M  V30 4026 H 538.972 -6.71916 -5.01943 0
M  V30 4027 H 537.278 -7.4649 -6.93477 0
M  V30 4028 H 537.088 -8.89416 -5.05237 0
M  V30 4029 H 535.458 -8.14876 -5.18409 0
M  V30 4030 H 538.097 -3.27957 -5.4317 0
M  V30 4031 P 539.954 -5.75688 -6.64379 0
M  V30 4032 O 541.376 -6.07627 -7.05504 0
M  V30 4033 O 539.594 -5.88047 -5.19722 0
M  V30 4034 O 539.631 -4.2322 -7.04443 0
M  V30 4035 C 539.471 -3.99743 -8.4911 0
M  V30 4036 C 540.011 -2.60516 -8.79425 0
M  V30 4037 O 538.955 -1.82684 -8.4467 0
M  V30 4038 C 541.229 -2.10343 -8.03628 0
M  V30 4039 O 541.967 -1.09919 -8.67766 0
M  V30 4040 C 540.56 -1.68446 -6.70876 0
M  V30 4041 O 541.359 -0.678137 -6.08433 0
M  V30 4042 C 539.223 -1.17436 -7.18567 0
M  V30 4043 H 539.255 -0.0804732 -7.31656 0
M  V30 4044 H 540.438 -2.54037 -6.02537 0
M  V30 4045 H 541.922 -2.93881 -7.85526 0
M  V30 4046 H 540.228 -2.53065 -9.86973 0
M  V30 4047 H 540.038 -4.75072 -9.05887 0
M  V30 4048 H 538.408 -4.05244 -8.76668 0
M  V30 4049 H 541.047 0.177647 -6.34251 0
M  V30 4050 P 542.905 -1.25109 -8.70152 0
M  V30 4051 O 544.327 -1.29744 -9.22016 0
M  V30 4052 O 542.545 -2.13714 -7.55141 0
M  V30 4053 O 542.582 0.248149 -8.21425 0
M  V30 4054 C 542.422 1.22779 -9.30434 0
M  V30 4055 C 542.962 2.56293 -8.80664 0
M  V30 4056 O 541.906 3.02979 -8.09349 0
M  V30 4057 C 544.18 2.57523 -7.89775 0
M  V30 4058 O 544.918 3.7668 -7.89438 0
M  V30 4059 C 543.511 2.20997 -6.55446 0
M  V30 4060 O 544.31 2.71895 -5.48509 0
M  V30 4061 C 542.174 2.89693 -6.67988 0
M  V30 4062 H 542.206 3.88793 -6.19859 0
M  V30 4063 H 543.389 1.12046 -6.44229 0
M  V30 4064 H 544.873 1.7746 -8.19711 0
M  V30 4065 H 543.179 3.20706 -9.67112 0
M  V30 4066 H 542.989 0.901032 -10.1892 0
M  V30 4067 H 541.359 1.33049 -9.56592 0
M  V30 4068 H 543.998 3.57847 -5.23962 0
M  V30 4069 P 545.855 3.65191 -7.99657 0
M  V30 4070 O 547.277 3.89332 -8.45794 0
M  V30 4071 O 545.495 2.28472 -7.50807 0
M  V30 4072 O 545.532 4.64972 -6.77611 0
M  V30 4073 C 545.372 6.06319 -7.16352 0
M  V30 4074 C 545.912 6.91731 -6.02299 0
M  V30 4075 O 544.856 6.92449 -5.17064 0
M  V30 4076 C 547.13 6.43627 -5.25174 0
M  V30 4077 O 547.868 7.43686 -4.60469 0
M  V30 4078 C 546.461 5.40275 -4.31916 0
M  V30 4079 O 547.26 5.25279 -3.14438 0
M  V30 4080 C 545.124 6.04847 -4.05327 0
M  V30 4081 H 545.156 6.62195 -3.11261 0
M  V30 4082 H 546.339 4.42556 -4.81383 0
M  V30 4083 H 547.823 5.92458 -5.93643 0
M  V30 4084 H 546.129 7.92655 -6.402 0
M  V30 4085 H 545.939 6.26671 -8.0846 0
M  V30 4086 H 544.309 6.29101 -7.32804 0
M  V30 4087 H 546.948 5.84315 -2.47318 0
M  V30 4088 P 548.806 7.39546 -4.75277 0
M  V30 4089 O 550.228 7.84798 -5.01039 0
M  V30 4090 O 548.446 5.9812 -5.08098 0
M  V30 4091 O 548.483 7.57503 -3.1866 0
M  V30 4092 C 548.323 8.97357 -2.74833 0
M  V30 4093 C 548.863 9.07548 -1.32709 0
M  V30 4094 O 547.807 8.62072 -0.606159 0
M  V30 4095 C 550.081 8.25383 -0.938334 0
M  V30 4096 O 550.819 8.74577 0.146954 0
M  V30 4097 C 549.412 6.8802 -0.712559 0
M  V30 4098 O 550.211 6.1189 0.194655 0
M  V30 4099 C 548.075 7.27966 -0.139777 0
M  V30 4100 H 548.107 7.25354 0.961601 0
M  V30 4101 H 549.29 6.32557 -1.65702 0
M  V30 4102 H 550.774 8.19355 -1.79097 0
M  V30 4103 H 549.08 10.1294 -1.10029 0
M  V30 4104 H 548.89 9.64276 -3.41316 0
M  V30 4105 H 547.26 9.25417 -2.76357 0
M  V30 4106 H 549.899 6.25267 1.07847 0
M  V30 4107 P 551.757 8.791 3.52383e-12 0
M  V30 4108 O 553.179 9.31096 0.027933 0
M  V30 4109 O 551.397 7.77869 -1.04071 0
M  V30 4110 O 551.434 8.09533 1.41463 0
M  V30 4111 C 551.274 9.0349 2.53943 0
M  V30 4112 C 551.814 8.35226 3.79016 0
M  V30 4113 O 550.758 7.57992 4.15078 0
M  V30 4114 C 553.032 7.45087 3.67298 0
M  V30 4115 O 553.77 7.27796 4.85194 0
M  V30 4116 C 552.363 6.17323 3.12027 0
M  V30 4117 O 553.162 5.04231 3.47188 0
M  V30 4118 C 551.026 6.19961 3.81809 0
M  V30 4119 H 551.058 5.58218 4.73051 0
M  V30 4120 H 552.241 6.21726 2.02589 0
M  V30 4121 H 553.725 7.86112 2.9231 0
M  V30 4122 H 552.031 9.11627 4.55076 0
M  V30 4123 H 551.841 9.9573 2.34194 0
M  V30 4124 H 550.211 9.2792 2.67832 0
M  V30 4125 H 552.85 4.67702 4.28772 0
M  V30 4126 P 554.707 7.39546 4.75277 0
M  V30 4127 O 556.129 7.81777 5.05738 0
M  V30 4128 O 554.347 7.1065 3.32998 0
M  V30 4129 O 554.384 6.04542 5.56673 0
M  V30 4130 C 554.224 6.22772 7.02095 0
M  V30 4131 C 554.764 4.97725 7.70406 0
M  V30 4132 O 553.708 4.13256 7.58987 0
M  V30 4133 C 555.982 4.28231 7.11815 0
M  V30 4134 O 556.72 3.49945 8.01648 0
M  V30 4135 C 555.313 3.5063 5.96244 0
M  V30 4136 O 556.112 2.36482 5.64681 0
M  V30 4137 C 553.976 3.15122 6.56374 0
M  V30 4138 H 554.008 2.13853 6.99751 0
M  V30 4139 H 555.191 4.13501 5.06559 0
M  V30 4140 H 556.675 5.03285 6.70911 0
M  V30 4141 H 554.981 5.20877 8.75697 0
M  V30 4142 H 554.791 7.11046 7.35349 0
M  V30 4143 H 553.161 6.35815 7.26986 0
M  V30 4144 H 555.8 1.61644 6.13565 0
M  V30 4145 P 557.658 3.65191 7.99657 0
M  V30 4146 O 559.08 3.8425 8.48115 0
M  V30 4147 O 557.298 4.17805 6.64342 0
M  V30 4148 O 557.335 2.07613 7.95143 0
M  V30 4149 C 557.175 1.44328 9.27336 0
M  V30 4150 C 557.715 0.0220036 9.17197 0
M  V30 4151 O 556.659 -0.626867 8.61923 0
M  V30 4152 C 558.933 -0.24586 8.30336 0
M  V30 4153 O 559.671 -1.39011 8.63583 0
M  V30 4154 C 558.264 -0.273849 6.91158 0
M  V30 4155 O 559.063 -1.06348 6.02892 0
M  V30 4156 C 556.927 -0.897649 7.22545 0
M  V30 4157 H 556.959 -1.9841 7.04286 0
M  V30 4158 H 558.142 0.739928 6.497 0
M  V30 4159 H 559.626 0.60668 8.36503 0
M  V30 4160 H 557.932 -0.352479 10.1829 0
M  V30 4161 H 557.742 2.00611 10.0304 0
M  V30 4162 H 556.112 1.41843 9.55327 0
M  V30 4163 H 558.751 -1.95734 6.03555 0
M  V30 4164 P 560.608 -1.25109 8.70152 0
M  V30 4165 O 562.03 -1.35274 9.21221 0
M  V30 4166 O 560.248 -0.0769065 7.84762 0
M  V30 4167 O 560.285 -2.55232 7.81161 0
M  V30 4168 C 560.125 -3.79939 8.58154 0
M  V30 4169 C 560.665 -4.94023 7.72785 0
M  V30 4170 O 559.609 -5.18726 6.91205 0
M  V30 4171 C 561.883 -4.69597 6.85231 0
M  V30 4172 O 562.621 -5.83832 6.51337 0
M  V30 4173 C 561.214 -3.96706 5.66633 0
M  V30 4174 O 562.013 -4.15414 4.49689 0
M  V30 4175 C 559.877 -4.66153 5.59313 0
M  V30 4176 H 559.909 -5.47679 4.85214 0
M  V30 4177 H 561.092 -2.89008 5.86566 0
M  V30 4178 H 562.576 -4.0121 7.36511 0
M  V30 4179 H 560.882 -5.80182 8.37584 0
M  V30 4180 H 560.692 -3.73517 9.52265 0
M  V30 4181 H 559.062 -3.97163 8.80359 0
M  V30 4182 H 561.701 -4.90969 4.01921 0
M  V30 4183 P 563.559 -5.75688 6.64379 0
M  V30 4184 O 564.981 -6.11849 7.01846 0
M  V30 4185 O 563.199 -4.30744 6.56026 0
M  V30 4186 O 563.236 -6.37042 5.19165 0
M  V30 4187 C 563.076 -7.83578 5.16515 0
M  V30 4188 C 563.616 -8.33398 3.83019 0
M  V30 4189 O 562.56 -8.10074 3.01034 0
M  V30 4190 C 564.834 -7.65514 3.2257 0
M  V30 4191 O 565.572 -8.4329 2.32297 0
M  V30 4192 C 564.165 -6.40075 2.62207 0
M  V30 4193 O 564.964 -5.92589 1.53712 0
M  V30 4194 C 562.828 -6.9454 2.18503 0
M  V30 4195 H 562.86 -7.23063 1.12091 0
M  V30 4196 H 564.043 -5.6025 3.37201 0
M  V30 4197 H 565.527 -7.35707 4.02681 0
M  V30 4198 H 563.833 -9.40912 3.9095 0
M  V30 4199 H 563.643 -8.29056 5.99158 0
M  V30 4200 H 562.013 -8.10073 5.25882 0
M  V30 4201 H 564.652 -6.30324 0.726794 0
M  V30 4202 P 566.509 -8.4349 2.47671 0
M  V30 4203 O 567.931 -8.94167 2.5964 0
M  V30 4204 O 566.149 -7.1704 3.19006 0
M  V30 4205 O 566.186 -8.16596 0.923387 0
M  V30 4206 C 566.026 -9.38437 0.108857 0
M  V30 4207 C 566.566 -9.08175 -1.28353 0
M  V30 4208 O 565.51 -8.44229 -1.84713 0
M  V30 4209 C 567.784 -8.18386 -1.42505 0
M  V30 4210 O 568.522 -8.3501 -2.60497 0
M  V30 4211 C 567.115 -6.80225 -1.25468 0
M  V30 4212 O 567.914 -5.81621 -1.91066 0
M  V30 4213 C 565.778 -7.02416 -1.9168 0
M  V30 4214 H 565.81 -6.6888 -2.96621 0
M  V30 4215 H 566.993 -6.53617 -0.192223 0
M  V30 4216 H 568.477 -8.36622 -0.589963 0
M  V30 4217 H 566.783 -10.0291 -1.79807 0
M  V30 4218 H 566.593 -10.2138 0.558219 0
M  V30 4219 H 564.963 -9.6579 0.0444202 0
M  V30 4220 H 567.602 -5.69556 -2.79637 0
M  V30 4221 P 569.46 -8.4349 -2.47671 0
M  V30 4222 O 570.882 -8.92593 -2.65 0
M  V30 4223 O 569.1 -7.7568 -1.19296 0
M  V30 4224 O 569.137 -7.36886 -3.63805 0
M  V30 4225 C 568.977 -7.95349 -4.982 0
M  V30 4226 C 569.517 -6.94612 -5.98974 0
M  V30 4227 O 568.461 -6.10347 -6.11815 0
M  V30 4228 C 570.735 -6.11426 -5.62335 0
M  V30 4229 O 571.473 -5.6162 -6.70584 0
M  V30 4230 C 570.066 -5.04409 -4.73308 0
M  V30 4231 O 570.865 -3.85992 -4.75183 0
M  V30 4232 C 568.729 -4.8728 -5.41006 0
M  V30 4233 H 568.761 -4.02333 -6.11157 0
M  V30 4234 H 569.944 -5.39466 -3.69543 0
M  V30 4235 H 571.428 -6.71916 -5.01943 0
M  V30 4236 H 569.734 -7.4649 -6.93477 0
M  V30 4237 H 569.544 -8.89416 -5.05237 0
M  V30 4238 H 567.914 -8.14876 -5.18409 0
M  V30 4239 H 570.553 -3.27957 -5.4317 0
M  V30 4240 P 572.411 -5.75688 -6.64379 0
M  V30 4241 O 573.833 -6.07627 -7.05504 0
M  V30 4242 O 572.051 -5.88047 -5.19722 0
M  V30 4243 O 572.088 -4.2322 -7.04443 0
M  V30 4244 C 571.928 -3.99743 -8.4911 0
M  V30 4245 C 572.468 -2.60516 -8.79425 0
M  V30 4246 O 571.412 -1.82684 -8.4467 0
M  V30 4247 C 573.686 -2.10343 -8.03628 0
M  V30 4248 O 574.424 -1.09919 -8.67766 0
M  V30 4249 C 573.017 -1.68446 -6.70876 0
M  V30 4250 O 573.816 -0.678137 -6.08433 0
M  V30 4251 C 571.68 -1.17436 -7.18567 0
M  V30 4252 H 571.712 -0.0804732 -7.31656 0
M  V30 4253 H 572.895 -2.54037 -6.02537 0
M  V30 4254 H 574.379 -2.93881 -7.85526 0
M  V30 4255 H 572.685 -2.53065 -9.86973 0
M  V30 4256 H 572.495 -4.75072 -9.05887 0
M  V30 4257 H 570.865 -4.05244 -8.76668 0
M  V30 4258 H 573.504 0.177647 -6.34251 0
M  V30 4259 P 575.361 -1.25109 -8.70152 0
M  V30 4260 O 576.783 -1.29744 -9.22016 0
M  V30 4261 O 575.001 -2.13714 -7.55141 0
M  V30 4262 O 575.038 0.248149 -8.21425 0
M  V30 4263 C 574.878 1.22779 -9.30434 0
M  V30 4264 C 575.418 2.56293 -8.80664 0
M  V30 4265 O 574.362 3.02979 -8.09349 0
M  V30 4266 C 576.636 2.57523 -7.89775 0
M  V30 4267 O 577.374 3.7668 -7.89438 0
M  V30 4268 C 575.967 2.20997 -6.55446 0
M  V30 4269 O 576.766 2.71895 -5.48509 0
M  V30 4270 C 574.63 2.89693 -6.67988 0
M  V30 4271 H 574.662 3.88793 -6.19859 0
M  V30 4272 H 575.845 1.12046 -6.44229 0
M  V30 4273 H 577.329 1.7746 -8.19711 0
M  V30 4274 H 575.635 3.20706 -9.67112 0
M  V30 4275 H 575.445 0.901032 -10.1892 0
M  V30 4276 H 573.815 1.33049 -9.56592 0
M  V30 4277 H 576.454 3.57847 -5.23962 0
M  V30 4278 P 578.312 3.65191 -7.99657 0
M  V30 4279 O 579.734 3.89332 -8.45794 0
M  V30 4280 O 577.952 2.28472 -7.50807 0
M  V30 4281 O 577.989 4.64972 -6.77611 0
M  V30 4282 C 577.829 6.06319 -7.16352 0
M  V30 4283 C 578.369 6.91731 -6.02299 0
M  V30 4284 O 577.313 6.92449 -5.17064 0
M  V30 4285 C 579.587 6.43627 -5.25174 0
M  V30 4286 O 580.325 7.43686 -4.60469 0
M  V30 4287 C 578.918 5.40275 -4.31916 0
M  V30 4288 O 579.717 5.25279 -3.14438 0
M  V30 4289 C 577.581 6.04847 -4.05327 0
M  V30 4290 H 577.613 6.62195 -3.11261 0
M  V30 4291 H 578.796 4.42556 -4.81383 0
M  V30 4292 H 580.28 5.92458 -5.93643 0
M  V30 4293 H 578.586 7.92655 -6.402 0
M  V30 4294 H 578.396 6.26671 -8.0846 0
M  V30 4295 H 576.766 6.29101 -7.32804 0
M  V30 4296 H 579.405 5.84315 -2.47318 0
M  V30 4297 P 581.262 7.39546 -4.75277 0
M  V30 4298 O 582.684 7.84798 -5.01039 0
M  V30 4299 O 580.902 5.9812 -5.08098 0
M  V30 4300 O 580.939 7.57503 -3.1866 0
M  V30 4301 C 580.779 8.97357 -2.74833 0
M  V30 4302 C 581.319 9.07548 -1.32709 0
M  V30 4303 O 580.263 8.62072 -0.606159 0
M  V30 4304 C 582.537 8.25383 -0.938334 0
M  V30 4305 O 583.275 8.74577 0.146954 0
M  V30 4306 C 581.868 6.8802 -0.712559 0
M  V30 4307 O 582.667 6.1189 0.194655 0
M  V30 4308 C 580.531 7.27966 -0.139777 0
M  V30 4309 H 580.563 7.25354 0.961601 0
M  V30 4310 H 581.746 6.32557 -1.65702 0
M  V30 4311 H 583.23 8.19355 -1.79097 0
M  V30 4312 H 581.536 10.1294 -1.10029 0
M  V30 4313 H 581.346 9.64276 -3.41316 0
M  V30 4314 H 579.716 9.25417 -2.76357 0
M  V30 4315 H 582.355 6.25267 1.07847 0
M  V30 4316 P 584.213 8.791 3.834e-12 0
M  V30 4317 O 585.635 9.31096 0.027933 0
M  V30 4318 O 583.853 7.77869 -1.04071 0
M  V30 4319 O 583.89 8.09533 1.41463 0
M  V30 4320 C 583.73 9.0349 2.53943 0
M  V30 4321 C 584.27 8.35226 3.79016 0
M  V30 4322 O 583.214 7.57992 4.15078 0
M  V30 4323 C 585.488 7.45087 3.67298 0
M  V30 4324 O 586.226 7.27796 4.85194 0
M  V30 4325 C 584.819 6.17323 3.12027 0
M  V30 4326 O 585.618 5.04231 3.47188 0
M  V30 4327 C 583.482 6.19961 3.81809 0
M  V30 4328 H 583.514 5.58218 4.73051 0
M  V30 4329 H 584.697 6.21726 2.02589 0
M  V30 4330 H 586.181 7.86112 2.9231 0
M  V30 4331 H 584.487 9.11627 4.55076 0
M  V30 4332 H 584.297 9.9573 2.34194 0
M  V30 4333 H 582.667 9.2792 2.67832 0
M  V30 4334 H 585.306 4.67702 4.28772 0
M  V30 4335 P 587.163 7.39546 4.75277 0
M  V30 4336 O 588.585 7.81777 5.05738 0
M  V30 4337 O 586.803 7.1065 3.32998 0
M  V30 4338 O 586.84 6.04542 5.56673 0
M  V30 4339 C 586.68 6.22772 7.02095 0
M  V30 4340 C 587.22 4.97725 7.70406 0
M  V30 4341 O 586.164 4.13256 7.58987 0
M  V30 4342 C 588.438 4.28231 7.11815 0
M  V30 4343 O 589.176 3.49945 8.01648 0
M  V30 4344 C 587.769 3.5063 5.96244 0
M  V30 4345 O 588.568 2.36482 5.64681 0
M  V30 4346 C 586.432 3.15122 6.56374 0
M  V30 4347 H 586.464 2.13853 6.99751 0
M  V30 4348 H 587.647 4.13501 5.06559 0
M  V30 4349 H 589.131 5.03285 6.70911 0
M  V30 4350 H 587.437 5.20877 8.75697 0
M  V30 4351 H 587.247 7.11046 7.35349 0
M  V30 4352 H 585.617 6.35815 7.26986 0
M  V30 4353 H 588.256 1.61644 6.13565 0
M  V30 4354 P 590.114 3.65191 7.99657 0
M  V30 4355 O 591.515 3.90823 8.51272 0
M  V30 4356 O 589.736 4.23191 6.66972 0
M  V30 4357 O 589.791 2.07587 7.95046 0
M  V30 4358 C 589.631 1.44328 9.27336 0
M  V30 4359 C 590.171 0.0220012 9.17097 0
M  V30 4360 O 589.115 -0.626794 8.61824 0
M  V30 4361 C 591.388 -0.24586 8.30336 0
M  V30 4362 O 592.127 -1.39011 8.63583 0
M  V30 4363 C 590.721 -0.273849 6.91158 0
M  V30 4364 O 591.519 -1.06331 6.02794 0
M  V30 4365 C 589.383 -0.897649 7.22545 0
M  V30 4366 N 588.34 -0.292839 6.41732 0
M  V30 4367 C 587.305 -1.08701 5.98712 0
M  V30 4368 O 587.344 -2.31211 6.24471 0
M  V30 4369 N 586.293 -0.533391 5.28415 0
M  V30 4370 C 586.341 0.770866 4.98576 0
M  V30 4371 C 587.437 1.59049 5.38086 0
M  V30 4372 C 588.403 1.01866 6.10256 0
M  V30 4373 H 589.415 -1.98383 7.04189 0
M  V30 4374 H 590.598 0.733318 6.49674 0
M  V30 4375 H 592.082 0.598386 8.36663 0
M  V30 4376 H 590.388 -0.362662 10.1825 0
M  V30 4377 H 590.197 2.00611 10.0304 0
M  V30 4378 H 588.567 1.41828 9.55228 0
M  V30 4379 H 587.485 2.6415 5.10622 0
M  V30 4380 H 589.249 1.61983 6.44042 0
M  V30 4381 H 591.303 -1.97777 6.14035 0
M  V30 4382 P 593.065 -1.25109 8.70152 0
M  V30 4383 O 594.487 -1.35274 9.21221 0
M  V30 4384 O 592.705 -0.0769065 7.84762 0
M  V30 4385 O 592.742 -2.55232 7.81161 0
M  V30 4386 C 592.582 -3.79939 8.58154 0
M  V30 4387 C 593.122 -4.94023 7.72785 0
M  V30 4388 O 592.066 -5.18726 6.91205 0
M  V30 4389 C 594.34 -4.69597 6.85231 0
M  V30 4390 O 595.078 -5.83832 6.51337 0
M  V30 4391 C 593.671 -3.96706 5.66633 0
M  V30 4392 O 594.47 -4.15414 4.49689 0
M  V30 4393 C 592.334 -4.66153 5.59313 0
M  V30 4394 H 592.366 -5.47679 4.85214 0
M  V30 4395 H 593.549 -2.89008 5.86566 0
M  V30 4396 H 595.033 -4.0121 7.36511 0
M  V30 4397 H 593.339 -5.80182 8.37584 0
M  V30 4398 H 593.149 -3.73517 9.52265 0
M  V30 4399 H 591.519 -3.97163 8.80359 0
M  V30 4400 H 594.158 -4.90969 4.01921 0
M  V30 4401 P 596.015 -5.75688 6.64379 0
M  V30 4402 O 597.437 -6.11849 7.01846 0
M  V30 4403 O 595.655 -4.30744 6.56026 0
M  V30 4404 O 595.692 -6.37042 5.19165 0
M  V30 4405 C 595.532 -7.83578 5.16515 0
M  V30 4406 C 596.072 -8.33398 3.83019 0
M  V30 4407 O 595.016 -8.10074 3.01034 0
M  V30 4408 C 597.29 -7.65514 3.2257 0
M  V30 4409 O 598.028 -8.4329 2.32297 0
M  V30 4410 C 596.621 -6.40075 2.62207 0
M  V30 4411 O 597.42 -5.92589 1.53712 0
M  V30 4412 C 595.284 -6.9454 2.18503 0
M  V30 4413 H 595.316 -7.23063 1.12091 0
M  V30 4414 H 596.499 -5.6025 3.37201 0
M  V30 4415 H 597.983 -7.35707 4.02681 0
M  V30 4416 H 596.289 -9.40912 3.9095 0
M  V30 4417 H 596.099 -8.29056 5.99158 0
M  V30 4418 H 594.469 -8.10073 5.25882 0
M  V30 4419 H 597.108 -6.30324 0.726794 0
M  V30 4420 P 598.966 -8.4349 2.47671 0
M  V30 4421 O 600.388 -8.94167 2.5964 0
M  V30 4422 O 598.606 -7.1704 3.19006 0
M  V30 4423 O 598.643 -8.16596 0.923387 0
M  V30 4424 C 598.483 -9.38437 0.108857 0
M  V30 4425 C 599.023 -9.08175 -1.28353 0
M  V30 4426 O 597.967 -8.44229 -1.84713 0
M  V30 4427 C 600.241 -8.18386 -1.42505 0
M  V30 4428 O 600.979 -8.3501 -2.60497 0
M  V30 4429 C 599.572 -6.80225 -1.25468 0
M  V30 4430 O 600.371 -5.81621 -1.91066 0
M  V30 4431 C 598.235 -7.02416 -1.9168 0
M  V30 4432 H 598.267 -6.6888 -2.96621 0
M  V30 4433 H 599.45 -6.53617 -0.192223 0
M  V30 4434 H 600.934 -8.36622 -0.589963 0
M  V30 4435 H 599.24 -10.0291 -1.79807 0
M  V30 4436 H 599.05 -10.2138 0.558219 0
M  V30 4437 H 597.42 -9.6579 0.0444202 0
M  V30 4438 H 600.059 -5.69556 -2.79637 0
M  V30 4439 P 601.916 -8.4349 -2.47671 0
M  V30 4440 O 603.338 -8.92593 -2.65 0
M  V30 4441 O 601.556 -7.7568 -1.19296 0
M  V30 4442 O 601.593 -7.36886 -3.63805 0
M  V30 4443 C 601.433 -7.95349 -4.982 0
M  V30 4444 C 601.973 -6.94612 -5.98974 0
M  V30 4445 O 600.917 -6.10347 -6.11815 0
M  V30 4446 C 603.191 -6.11426 -5.62335 0
M  V30 4447 O 603.929 -5.6162 -6.70584 0
M  V30 4448 C 602.522 -5.04409 -4.73308 0
M  V30 4449 O 603.321 -3.85992 -4.75183 0
M  V30 4450 C 601.185 -4.8728 -5.41006 0
M  V30 4451 H 601.217 -4.02333 -6.11157 0
M  V30 4452 H 602.4 -5.39466 -3.69543 0
M  V30 4453 H 603.884 -6.71916 -5.01943 0
M  V30 4454 H 602.19 -7.4649 -6.93477 0
M  V30 4455 H 602 -8.89416 -5.05237 0
M  V30 4456 H 600.37 -8.14876 -5.18409 0
M  V30 4457 H 603.009 -3.27957 -5.4317 0
M  V30 4458 P 604.867 -5.75688 -6.64379 0
M  V30 4459 O 606.289 -6.07627 -7.05504 0
M  V30 4460 O 604.507 -5.88047 -5.19722 0
M  V30 4461 O 604.544 -4.2322 -7.04443 0
M  V30 4462 C 604.384 -3.99743 -8.4911 0
M  V30 4463 C 604.924 -2.60516 -8.79425 0
M  V30 4464 O 603.868 -1.82684 -8.4467 0
M  V30 4465 C 606.142 -2.10343 -8.03628 0
M  V30 4466 O 606.88 -1.09919 -8.67766 0
M  V30 4467 C 605.473 -1.68446 -6.70876 0
M  V30 4468 O 606.272 -0.678137 -6.08433 0
M  V30 4469 C 604.136 -1.17436 -7.18567 0
M  V30 4470 H 604.168 -0.0804732 -7.31656 0
M  V30 4471 H 605.351 -2.54037 -6.02537 0
M  V30 4472 H 606.835 -2.93881 -7.85526 0
M  V30 4473 H 605.141 -2.53065 -9.86973 0
M  V30 4474 H 604.951 -4.75072 -9.05887 0
M  V30 4475 H 603.321 -4.05244 -8.76668 0
M  V30 4476 H 605.96 0.177647 -6.34251 0
M  V30 4477 P 607.817 -1.25109 -8.70152 0
M  V30 4478 O 609.239 -1.29744 -9.22016 0
M  V30 4479 O 607.457 -2.13714 -7.55141 0
M  V30 4480 O 607.494 0.248149 -8.21425 0
M  V30 4481 C 607.334 1.22779 -9.30434 0
M  V30 4482 C 607.874 2.56293 -8.80664 0
M  V30 4483 O 606.818 3.02979 -8.09349 0
M  V30 4484 C 609.092 2.57523 -7.89775 0
M  V30 4485 O 609.83 3.7668 -7.89438 0
M  V30 4486 C 608.423 2.20997 -6.55446 0
M  V30 4487 O 609.222 2.71895 -5.48509 0
M  V30 4488 C 607.086 2.89693 -6.67988 0
M  V30 4489 H 607.118 3.88793 -6.19859 0
M  V30 4490 H 608.301 1.12046 -6.44229 0
M  V30 4491 H 609.785 1.7746 -8.19711 0
M  V30 4492 H 608.091 3.20706 -9.67112 0
M  V30 4493 H 607.901 0.901032 -10.1892 0
M  V30 4494 H 606.271 1.33049 -9.56592 0
M  V30 4495 H 608.91 3.57847 -5.23962 0
M  V30 4496 P 610.768 3.65191 -7.99657 0
M  V30 4497 O 612.19 3.89332 -8.45794 0
M  V30 4498 O 610.408 2.28472 -7.50807 0
M  V30 4499 O 610.445 4.64972 -6.77611 0
M  V30 4500 C 610.285 6.06319 -7.16352 0
M  V30 4501 C 610.825 6.91731 -6.02299 0
M  V30 4502 O 609.769 6.92449 -5.17064 0
M  V30 4503 C 612.043 6.43627 -5.25174 0
M  V30 4504 O 612.781 7.43686 -4.60469 0
M  V30 4505 C 611.374 5.40275 -4.31916 0
M  V30 4506 O 612.173 5.25279 -3.14438 0
M  V30 4507 C 610.037 6.04847 -4.05327 0
M  V30 4508 H 610.069 6.62195 -3.11261 0
M  V30 4509 H 611.252 4.42556 -4.81383 0
M  V30 4510 H 612.736 5.92458 -5.93643 0
M  V30 4511 H 611.042 7.92655 -6.402 0
M  V30 4512 H 610.852 6.26671 -8.0846 0
M  V30 4513 H 609.222 6.29101 -7.32804 0
M  V30 4514 H 611.861 5.84315 -2.47318 0
M  V30 4515 P 613.719 7.39546 -4.75277 0
M  V30 4516 O 615.141 7.84798 -5.01039 0
M  V30 4517 O 613.359 5.9812 -5.08098 0
M  V30 4518 O 613.396 7.57503 -3.1866 0
M  V30 4519 C 613.236 8.97357 -2.74833 0
M  V30 4520 C 613.776 9.07548 -1.32709 0
M  V30 4521 O 612.72 8.62072 -0.606159 0
M  V30 4522 C 614.994 8.25383 -0.938334 0
M  V30 4523 O 615.732 8.74577 0.146954 0
M  V30 4524 C 614.325 6.8802 -0.712559 0
M  V30 4525 O 615.124 6.1189 0.194655 0
M  V30 4526 C 612.988 7.27966 -0.139777 0
M  V30 4527 H 613.02 7.25354 0.961601 0
M  V30 4528 H 614.203 6.32557 -1.65702 0
M  V30 4529 H 615.687 8.19355 -1.79097 0
M  V30 4530 H 613.993 10.1294 -1.10029 0
M  V30 4531 H 613.803 9.64276 -3.41316 0
M  V30 4532 H 612.173 9.25417 -2.76357 0
M  V30 4533 H 614.812 6.25267 1.07847 0
M  V30 4534 P 616.669 8.791 4.14417e-12 0
M  V30 4535 O 618.091 9.31096 0.027933 0
M  V30 4536 O 616.309 7.77869 -1.04071 0
M  V30 4537 O 616.346 8.09533 1.41463 0
M  V30 4538 C 616.186 9.0349 2.53943 0
M  V30 4539 C 616.726 8.35226 3.79016 0
M  V30 4540 O 615.67 7.57992 4.15078 0
M  V30 4541 C 617.944 7.45087 3.67298 0
M  V30 4542 O 618.682 7.27796 4.85194 0
M  V30 4543 C 617.275 6.17323 3.12027 0
M  V30 4544 O 618.074 5.04231 3.47188 0
M  V30 4545 C 615.938 6.19961 3.81809 0
M  V30 4546 H 615.97 5.58218 4.73051 0
M  V30 4547 H 617.153 6.21726 2.02589 0
M  V30 4548 H 618.637 7.86112 2.9231 0
M  V30 4549 H 616.943 9.11627 4.55076 0
M  V30 4550 H 616.753 9.9573 2.34194 0
M  V30 4551 H 615.123 9.2792 2.67832 0
M  V30 4552 H 617.762 4.67702 4.28772 0
M  V30 4553 P 619.62 7.39546 4.75277 0
M  V30 4554 O 621.041 7.81861 5.05793 0
M  V30 4555 O 619.26 7.1065 3.32998 0
M  V30 4556 O 619.297 6.04542 5.56673 0
M  V30 4557 C 619.136 6.22839 7.02169 0
M  V30 4558 C 619.677 4.97725 7.70406 0
M  V30 4559 O 618.622 4.13208 7.58899 0
M  V30 4560 C 620.895 4.28231 7.11815 0
M  V30 4561 O 621.633 3.49945 8.01648 0
M  V30 4562 C 620.227 3.5063 5.96244 0
M  V30 4563 O 621.025 2.37008 5.64352 0
M  V30 4564 C 618.889 3.15122 6.56374 0
M  V30 4565 N 617.846 3.22311 5.55692 0
M  V30 4566 C 618.015 3.99655 4.46046 0
M  V30 4567 N 616.988 3.97599 3.63918 0
M  V30 4568 C 616.103 3.11159 4.25334 0
M  V30 4569 C 614.836 2.64972 3.85157 0
M  V30 4570 N 614.237 3.02132 2.69405 0
M  V30 4571 N 614.271 1.78482 4.74759 0
M  V30 4572 C 614.873 1.37463 5.90819 0
M  V30 4573 N 616.05 1.7733 6.31889 0
M  V30 4574 C 616.625 2.64393 5.43725 0
M  V30 4575 H 618.921 2.13823 6.99656 0
M  V30 4576 H 620.104 4.12931 5.06895 0
M  V30 4577 H 621.587 5.03285 6.70911 0
M  V30 4578 H 619.893 5.20001 8.76217 0
M  V30 4579 H 619.703 7.11046 7.35349 0
M  V30 4580 H 618.073 6.35815 7.26986 0
M  V30 4581 H 614.337 0.66574 6.53015 0
M  V30 4582 H 618.915 4.58037 4.27732 0
M  V30 4583 H 613.307 2.64828 2.45331 0
M  V30 4584 H 614.711 3.67472 2.05644 0
M  V30 4585 H 620.713 1.61619 6.13468 0
M  V30 4586 P 622.57 3.65191 7.99657 0
M  V30 4587 O 623.971 3.90823 8.51272 0
M  V30 4588 O 622.192 4.23191 6.66972 0
M  V30 4589 O 622.247 2.07587 7.95046 0
M  V30 4590 C 622.087 1.44328 9.27336 0
M  V30 4591 C 622.627 0.0220012 9.17097 0
M  V30 4592 O 621.571 -0.626794 8.61824 0
M  V30 4593 C 623.844 -0.24586 8.30336 0
M  V30 4594 O 624.583 -1.39011 8.63583 0
M  V30 4595 C 623.177 -0.273849 6.91158 0
M  V30 4596 O 623.975 -1.06331 6.02794 0
M  V30 4597 C 621.839 -0.897649 7.22545 0
M  V30 4598 N 620.796 -0.292839 6.41732 0
M  V30 4599 C 619.761 -1.08701 5.98712 0
M  V30 4600 O 619.8 -2.31211 6.24471 0
M  V30 4601 N 618.749 -0.533391 5.28415 0
M  V30 4602 C 618.797 0.770866 4.98576 0
M  V30 4603 C 619.893 1.59049 5.38086 0
M  V30 4604 C 620.859 1.01866 6.10256 0
M  V30 4605 H 621.871 -1.98383 7.04189 0
M  V30 4606 H 623.054 0.733318 6.49674 0
M  V30 4607 H 624.538 0.598386 8.36663 0
M  V30 4608 H 622.844 -0.362662 10.1825 0
M  V30 4609 H 622.653 2.00611 10.0304 0
M  V30 4610 H 621.023 1.41828 9.55228 0
M  V30 4611 H 619.941 2.6415 5.10622 0
M  V30 4612 H 621.705 1.61983 6.44042 0
M  V30 4613 H 623.759 -1.97777 6.14035 0
M  V30 4614 P 625.521 -1.25109 8.70152 0
M  V30 4615 O 626.943 -1.35274 9.21221 0
M  V30 4616 O 625.161 -0.0769065 7.84762 0
M  V30 4617 O 625.198 -2.55232 7.81161 0
M  V30 4618 C 625.038 -3.79939 8.58154 0
M  V30 4619 C 625.578 -4.94023 7.72785 0
M  V30 4620 O 624.522 -5.18726 6.91205 0
M  V30 4621 C 626.796 -4.69597 6.85231 0
M  V30 4622 O 627.534 -5.83832 6.51337 0
M  V30 4623 C 626.127 -3.96706 5.66633 0
M  V30 4624 O 626.926 -4.15414 4.49689 0
M  V30 4625 C 624.79 -4.66153 5.59313 0
M  V30 4626 H 624.822 -5.47679 4.85214 0
M  V30 4627 H 626.005 -2.89008 5.86566 0
M  V30 4628 H 627.489 -4.0121 7.36511 0
M  V30 4629 H 625.795 -5.80182 8.37584 0
M  V30 4630 H 625.605 -3.73517 9.52265 0
M  V30 4631 H 623.975 -3.97163 8.80359 0
M  V30 4632 H 626.614 -4.90969 4.01921 0
M  V30 4633 P 628.471 -5.75688 6.64379 0
M  V30 4634 O 629.872 -6.11991 7.09136 0
M  V30 4635 O 628.093 -4.30899 6.62018 0
M  V30 4636 O 628.148 -6.36965 5.19102 0
M  V30 4637 C 627.988 -7.83578 5.16515 0
M  V30 4638 C 628.528 -8.33307 3.82977 0
M  V30 4639 O 627.472 -8.0998 3.00999 0
M  V30 4640 C 629.745 -7.65514 3.2257 0
M  V30 4641 O 630.484 -8.4329 2.32297 0
M  V30 4642 C 629.078 -6.40075 2.62207 0
M  V30 4643 O 629.876 -5.92492 1.53687 0
M  V30 4644 C 627.74 -6.9454 2.18503 0
M  V30 4645 N 626.697 -5.95905 2.39948 0
M  V30 4646 C 625.662 -5.89764 1.49837 0
M  V30 4647 O 625.701 -6.64088 0.490975 0
M  V30 4648 N 624.65 -5.02821 1.70992 0
M  V30 4649 C 624.698 -4.21498 2.77236 0
M  V30 4650 C 625.794 -4.23389 3.68205 0
M  V30 4651 C 626.76 -5.12792 3.46171 0
M  V30 4652 H 627.772 -7.22964 1.12076 0
M  V30 4653 H 628.955 -5.60502 3.36589 0
M  V30 4654 H 630.439 -7.36197 4.01993 0
M  V30 4655 H 628.745 -9.41302 3.90009 0
M  V30 4656 H 628.554 -8.29056 5.99158 0
M  V30 4657 H 626.924 -8.09989 5.25828 0
M  V30 4658 H 625.842 -3.54747 4.52399 0
M  V30 4659 H 627.606 -5.18551 4.1489 0
M  V30 4660 H 629.66 -6.40705 0.751752 0
M  V30 4661 P 631.422 -8.4349 2.47671 0
M  V30 4662 O 632.843 -8.94263 2.59668 0
M  V30 4663 O 631.062 -7.1704 3.19006 0
M  V30 4664 O 631.099 -8.16596 0.923387 0
M  V30 4665 C 630.938 -9.38537 0.108869 0
M  V30 4666 C 631.479 -9.08175 -1.28353 0
M  V30 4667 O 630.424 -8.44131 -1.84692 0
M  V30 4668 C 632.697 -8.18386 -1.42505 0
M  V30 4669 O 633.435 -8.3501 -2.60497 0
M  V30 4670 C 632.029 -6.80225 -1.25468 0
M  V30 4671 O 632.827 -5.81716 -1.90454 0
M  V30 4672 C 630.691 -7.02416 -1.9168 0
M  V30 4673 N 629.648 -6.31033 -1.20314 0
M  V30 4674 C 629.817 -5.98817 0.0994088 0
M  V30 4675 N 628.79 -5.35403 0.621694 0
M  V30 4676 C 627.905 -5.25212 -0.43376 0
M  V30 4677 C 626.638 -4.64602 -0.519722 0
M  V30 4678 N 626.039 -4.01457 0.519136 0
M  V30 4679 N 626.073 -4.7568 -1.76013 0
M  V30 4680 C 626.675 -5.3653 -2.83017 0
M  V30 4681 N 627.852 -5.93676 -2.79782 0
M  V30 4682 C 628.427 -5.84061 -1.56249 0
M  V30 4683 H 630.723 -6.68789 -2.9658 0
M  V30 4684 H 631.906 -6.53498 -0.198729 0
M  V30 4685 H 633.389 -8.36622 -0.589963 0
M  V30 4686 H 631.695 -10.0273 -1.8081 0
M  V30 4687 H 631.505 -10.2138 0.558219 0
M  V30 4688 H 629.875 -9.6579 0.0444202 0
M  V30 4689 H 626.139 -5.37113 -3.77321 0
M  V30 4690 H 630.717 -6.23209 0.660562 0
M  V30 4691 H 625.109 -3.58834 0.394862 0
M  V30 4692 H 626.513 -3.96059 1.43048 0
M  V30 4693 H 632.515 -5.69466 -2.79593 0
M  V30 4694 P 634.373 -8.4349 -2.47671 0
M  V30 4695 O 635.795 -8.92593 -2.65 0
M  V30 4696 O 634.013 -7.7568 -1.19296 0
M  V30 4697 O 634.05 -7.36886 -3.63805 0
M  V30 4698 C 633.89 -7.95349 -4.982 0
M  V30 4699 C 634.43 -6.94612 -5.98974 0
M  V30 4700 O 633.374 -6.10347 -6.11815 0
M  V30 4701 C 635.648 -6.11426 -5.62335 0
M  V30 4702 O 636.386 -5.6162 -6.70584 0
M  V30 4703 C 634.979 -5.04409 -4.73308 0
M  V30 4704 O 635.778 -3.85992 -4.75183 0
M  V30 4705 C 633.642 -4.8728 -5.41006 0
M  V30 4706 H 633.674 -4.02333 -6.11157 0
M  V30 4707 H 634.857 -5.39466 -3.69543 0
M  V30 4708 H 636.341 -6.71916 -5.01943 0
M  V30 4709 H 634.647 -7.4649 -6.93477 0
M  V30 4710 H 634.457 -8.89416 -5.05237 0
M  V30 4711 H 632.827 -8.14876 -5.18409 0
M  V30 4712 H 635.466 -3.27957 -5.4317 0
M  V30 4713 P 637.323 -5.75688 -6.64379 0
M  V30 4714 O 638.745 -6.07627 -7.05504 0
M  V30 4715 O 636.963 -5.88047 -5.19722 0
M  V30 4716 O 637 -4.2322 -7.04443 0
M  V30 4717 C 636.84 -3.99743 -8.4911 0
M  V30 4718 C 637.38 -2.60516 -8.79425 0
M  V30 4719 O 636.324 -1.82684 -8.4467 0
M  V30 4720 C 638.598 -2.10343 -8.03628 0
M  V30 4721 O 639.336 -1.09919 -8.67766 0
M  V30 4722 C 637.929 -1.68446 -6.70876 0
M  V30 4723 O 638.728 -0.678137 -6.08433 0
M  V30 4724 C 636.592 -1.17436 -7.18567 0
M  V30 4725 H 636.624 -0.0804732 -7.31656 0
M  V30 4726 H 637.807 -2.54037 -6.02537 0
M  V30 4727 H 639.291 -2.93881 -7.85526 0
M  V30 4728 H 637.597 -2.53065 -9.86973 0
M  V30 4729 H 637.407 -4.75072 -9.05887 0
M  V30 4730 H 635.777 -4.05244 -8.76668 0
M  V30 4731 H 638.416 0.177647 -6.34251 0
M  V30 4732 P 640.274 -1.25109 -8.70152 0
M  V30 4733 O 641.696 -1.29744 -9.22016 0
M  V30 4734 O 639.914 -2.13714 -7.55141 0
M  V30 4735 O 639.951 0.248149 -8.21425 0
M  V30 4736 C 639.791 1.22779 -9.30434 0
M  V30 4737 C 640.331 2.56293 -8.80664 0
M  V30 4738 O 639.275 3.02979 -8.09349 0
M  V30 4739 C 641.549 2.57523 -7.89775 0
M  V30 4740 O 642.287 3.7668 -7.89438 0
M  V30 4741 C 640.88 2.20997 -6.55446 0
M  V30 4742 O 641.679 2.71895 -5.48509 0
M  V30 4743 C 639.543 2.89693 -6.67988 0
M  V30 4744 H 639.575 3.88793 -6.19859 0
M  V30 4745 H 640.758 1.12046 -6.44229 0
M  V30 4746 H 642.242 1.7746 -8.19711 0
M  V30 4747 H 640.548 3.20706 -9.67112 0
M  V30 4748 H 640.358 0.901032 -10.1892 0
M  V30 4749 H 638.728 1.33049 -9.56592 0
M  V30 4750 H 641.367 3.57847 -5.23962 0
M  V30 4751 P 643.224 3.65191 -7.99657 0
M  V30 4752 O 644.645 3.89374 -8.45885 0
M  V30 4753 O 642.864 2.28472 -7.50807 0
M  V30 4754 O 642.901 4.64972 -6.77611 0
M  V30 4755 C 642.74 6.06383 -7.16428 0
M  V30 4756 C 643.281 6.91731 -6.02299 0
M  V30 4757 O 642.226 6.92369 -5.17005 0
M  V30 4758 C 644.499 6.43627 -5.25174 0
M  V30 4759 O 645.237 7.43686 -4.60469 0
M  V30 4760 C 643.831 5.40275 -4.31916 0
M  V30 4761 O 644.629 5.24878 -3.14911 0
M  V30 4762 C 642.493 6.04847 -4.05327 0
M  V30 4763 N 641.45 5.04166 -3.98114 0
M  V30 4764 C 641.619 3.84629 -4.59066 0
M  V30 4765 N 640.592 3.0363 -4.45343 0
M  V30 4766 C 639.707 3.76722 -3.68523 0
M  V30 4767 C 638.44 3.43528 -3.17088 0
M  V30 4768 N 637.841 2.23665 -3.37397 0
M  V30 4769 N 637.875 4.44526 -2.44231 0
M  V30 4770 C 638.477 5.65243 -2.20146 0
M  V30 4771 N 639.654 6.00221 -2.65453 0
M  V30 4772 C 640.229 5.00564 -3.39083 0
M  V30 4773 H 642.525 6.62104 -3.11218 0
M  V30 4774 H 643.708 4.42969 -4.80867 0
M  V30 4775 H 645.191 5.92458 -5.93643 0
M  V30 4776 H 643.497 7.93295 -6.39407 0
M  V30 4777 H 643.307 6.26671 -8.0846 0
M  V30 4778 H 641.677 6.29101 -7.32804 0
M  V30 4779 H 637.941 6.36894 -1.5883 0
M  V30 4780 H 642.519 3.58193 -5.14248 0
M  V30 4781 H 636.911 2.05145 -2.97047 0
M  V30 4782 H 638.315 1.51255 -3.92998 0
M  V30 4783 H 644.317 5.84223 -2.47279 0
M  V30 4784 P 646.175 7.39546 -4.75277 0
M  V30 4785 O 647.597 7.84798 -5.01039 0
M  V30 4786 O 645.815 5.9812 -5.08098 0
M  V30 4787 O 645.852 7.57503 -3.1866 0
M  V30 4788 C 645.692 8.97357 -2.74833 0
M  V30 4789 C 646.232 9.07548 -1.32709 0
M  V30 4790 O 645.176 8.62072 -0.606159 0
M  V30 4791 C 647.45 8.25383 -0.938334 0
M  V30 4792 O 648.188 8.74577 0.146954 0
M  V30 4793 C 646.781 6.8802 -0.712559 0
M  V30 4794 O 647.58 6.1189 0.194655 0
M  V30 4795 C 645.444 7.27966 -0.139777 0
M  V30 4796 H 645.476 7.25354 0.961601 0
M  V30 4797 H 646.659 6.32557 -1.65702 0
M  V30 4798 H 648.143 8.19355 -1.79097 0
M  V30 4799 H 646.449 10.1294 -1.10029 0
M  V30 4800 H 646.259 9.64276 -3.41316 0
M  V30 4801 H 644.629 9.25417 -2.76357 0
M  V30 4802 H 647.268 6.25267 1.07847 0
M  V30 4803 P 649.125 8.791 4.45433e-12 0
M  V30 4804 O 650.547 9.31096 0.027933 0
M  V30 4805 O 648.765 7.77869 -1.04071 0
M  V30 4806 O 648.802 8.09533 1.41463 0
M  V30 4807 C 648.642 9.0349 2.53943 0
M  V30 4808 C 649.182 8.35226 3.79016 0
M  V30 4809 O 648.126 7.57992 4.15078 0
M  V30 4810 C 650.4 7.45087 3.67298 0
M  V30 4811 O 651.138 7.27796 4.85194 0
M  V30 4812 C 649.731 6.17323 3.12027 0
M  V30 4813 O 650.53 5.04231 3.47188 0
M  V30 4814 C 648.394 6.19961 3.81809 0
M  V30 4815 H 648.426 5.58218 4.73051 0
M  V30 4816 H 649.609 6.21726 2.02589 0
M  V30 4817 H 651.093 7.86112 2.9231 0
M  V30 4818 H 649.399 9.11627 4.55076 0
M  V30 4819 H 649.209 9.9573 2.34194 0
M  V30 4820 H 647.579 9.2792 2.67832 0
M  V30 4821 H 650.218 4.67702 4.28772 0
M  V30 4822 P 652.076 7.39546 4.75277 0
M  V30 4823 O 653.498 7.81777 5.05738 0
M  V30 4824 O 651.716 7.1065 3.32998 0
M  V30 4825 O 651.753 6.04542 5.56673 0
M  V30 4826 C 651.593 6.22772 7.02095 0
M  V30 4827 C 652.133 4.97725 7.70406 0
M  V30 4828 O 651.077 4.13256 7.58987 0
M  V30 4829 C 653.351 4.28231 7.11815 0
M  V30 4830 O 654.089 3.49945 8.01648 0
M  V30 4831 C 652.682 3.5063 5.96244 0
M  V30 4832 O 653.481 2.36482 5.64681 0
M  V30 4833 C 651.345 3.15122 6.56374 0
M  V30 4834 H 651.377 2.13853 6.99751 0
M  V30 4835 H 652.56 4.13501 5.06559 0
M  V30 4836 H 654.044 5.03285 6.70911 0
M  V30 4837 H 652.35 5.20877 8.75697 0
M  V30 4838 H 652.16 7.11046 7.35349 0
M  V30 4839 H 650.53 6.35815 7.26986 0
M  V30 4840 H 653.169 1.61644 6.13565 0
M  V30 4841 P 655.027 3.65191 7.99657 0
M  V30 4842 O 656.449 3.8425 8.48115 0
M  V30 4843 O 654.667 4.17805 6.64342 0
M  V30 4844 O 654.704 2.07613 7.95143 0
M  V30 4845 C 654.544 1.44328 9.27336 0
M  V30 4846 C 655.084 0.0220036 9.17197 0
M  V30 4847 O 654.028 -0.626867 8.61923 0
M  V30 4848 C 656.302 -0.24586 8.30336 0
M  V30 4849 O 657.04 -1.39011 8.63583 0
M  V30 4850 C 655.633 -0.273849 6.91158 0
M  V30 4851 O 656.432 -1.06348 6.02892 0
M  V30 4852 C 654.296 -0.897649 7.22545 0
M  V30 4853 H 654.328 -1.9841 7.04286 0
M  V30 4854 H 655.511 0.739928 6.497 0
M  V30 4855 H 656.995 0.60668 8.36503 0
M  V30 4856 H 655.301 -0.352479 10.1829 0
M  V30 4857 H 655.111 2.00611 10.0304 0
M  V30 4858 H 653.481 1.41843 9.55327 0
M  V30 4859 H 656.12 -1.95734 6.03555 0
M  V30 4860 P 657.977 -1.25109 8.70152 0
M  V30 4861 O 659.398 -1.35288 9.2132 0
M  V30 4862 O 657.617 -0.0769065 7.84762 0
M  V30 4863 O 657.654 -2.55232 7.81161 0
M  V30 4864 C 657.493 -3.79979 8.58246 0
M  V30 4865 C 658.034 -4.94023 7.72785 0
M  V30 4866 O 656.979 -5.18666 6.91125 0
M  V30 4867 C 659.252 -4.69597 6.85231 0
M  V30 4868 O 659.99 -5.83832 6.51337 0
M  V30 4869 C 658.584 -3.96706 5.66633 0
M  V30 4870 O 659.382 -4.14896 4.5003 0
M  V30 4871 C 657.246 -4.66153 5.59313 0
M  V30 4872 N 656.203 -3.71582 5.24027 0
M  V30 4873 C 656.372 -2.39715 5.48833 0
M  V30 4874 N 655.345 -1.65863 5.12845 0
M  V30 4875 C 654.46 -2.57637 4.5973 0
M  V30 4876 C 653.193 -2.40278 4.01027 0
M  V30 4877 N 652.594 -1.19549 3.86744 0
M  V30 4878 N 652.628 -3.57711 3.59575 0
M  V30 4879 C 653.23 -4.80324 3.70476 0
M  V30 4880 N 654.407 -5.01121 4.23801 0
M  V30 4881 C 654.982 -3.84757 4.66372 0
M  V30 4882 H 657.278 -5.47604 4.85148 0
M  V30 4883 H 658.461 -2.8955 5.86187 0
M  V30 4884 H 659.944 -4.0121 7.36511 0
M  V30 4885 H 658.25 -5.81019 8.37003 0
M  V30 4886 H 658.06 -3.73517 9.52265 0
M  V30 4887 H 656.43 -3.97163 8.80359 0
M  V30 4888 H 652.694 -5.66348 3.3183 0
M  V30 4889 H 657.272 -1.98804 5.94332 0
M  V30 4890 H 651.664 -1.13147 3.4281 0
M  V30 4891 H 653.068 -0.344074 4.19692 0
M  V30 4892 H 659.07 -4.90891 4.01857 0
M  V30 4893 P 660.928 -5.75688 6.64379 0
M  V30 4894 O 662.329 -6.11991 7.09136 0
M  V30 4895 O 660.55 -4.30899 6.62018 0
M  V30 4896 O 660.605 -6.36965 5.19102 0
M  V30 4897 C 660.445 -7.83578 5.16515 0
M  V30 4898 C 660.985 -8.33307 3.82977 0
M  V30 4899 O 659.929 -8.0998 3.00999 0
M  V30 4900 C 662.202 -7.65514 3.2257 0
M  V30 4901 O 662.941 -8.4329 2.32297 0
M  V30 4902 C 661.535 -6.40075 2.62207 0
M  V30 4903 O 662.333 -5.92492 1.53687 0
M  V30 4904 C 660.197 -6.9454 2.18503 0
M  V30 4905 N 659.154 -5.95905 2.39948 0
M  V30 4906 C 658.119 -5.89764 1.49837 0
M  V30 4907 O 658.158 -6.64088 0.490975 0
M  V30 4908 N 657.107 -5.02821 1.70992 0
M  V30 4909 C 657.155 -4.21498 2.77236 0
M  V30 4910 N 656.145 -3.37475 2.96465 0
M  V30 4911 C 658.251 -4.23389 3.68205 0
M  V30 4912 C 659.217 -5.12792 3.46171 0
M  V30 4913 H 660.229 -7.22964 1.12076 0
M  V30 4914 H 661.412 -5.60502 3.36589 0
M  V30 4915 H 662.896 -7.36197 4.01993 0
M  V30 4916 H 661.202 -9.41302 3.90009 0
M  V30 4917 H 661.011 -8.29056 5.99158 0
M  V30 4918 H 659.381 -8.09989 5.25828 0
M  V30 4919 H 658.299 -3.54747 4.52399 0
M  V30 4920 H 660.063 -5.18551 4.1489 0
M  V30 4921 H 655.355 -3.36058 2.30304 0
M  V30 4922 H 656.15 -2.73846 3.77171 0
M  V30 4923 H 662.117 -6.40705 0.751752 0
M  V30 4924 P 663.878 -8.4349 2.47671 0
M  V30 4925 O 665.3 -8.94359 2.59696 0
M  V30 4926 O 663.518 -7.1704 3.19006 0
M  V30 4927 O 663.555 -8.16596 0.923387 0
M  V30 4928 C 663.395 -9.38437 0.108857 0
M  V30 4929 C 663.935 -9.08076 -1.28339 0
M  V30 4930 O 662.88 -8.44229 -1.84713 0
M  V30 4931 C 665.153 -8.18386 -1.42505 0
M  V30 4932 O 665.891 -8.3501 -2.60497 0
M  V30 4933 C 664.485 -6.80225 -1.25468 0
M  V30 4934 O 665.283 -5.81526 -1.91035 0
M  V30 4935 C 663.147 -7.02416 -1.9168 0
M  V30 4936 N 662.104 -6.31033 -1.20314 0
M  V30 4937 C 662.166 -6.18781 0.121293 0
M  V30 4938 N 661.121 -5.49762 0.588272 0
M  V30 4939 C 660.387 -5.22015 -0.488988 0
M  V30 4940 C 659.081 -4.61966 -0.596448 0
M  V30 4941 O 658.348 -4.19162 0.309059 0
M  V30 4942 N 658.651 -4.53773 -1.878 0
M  V30 4943 C 659.4 -4.99623 -2.99082 0
M  V30 4944 N 658.803 -4.78912 -4.21227 0
M  V30 4945 N 660.553 -5.59957 -2.91093 0
M  V30 4946 C 661.01 -5.70225 -1.64218 0
M  V30 4947 H 663.179 -6.6888 -2.96621 0
M  V30 4948 H 664.362 -6.53517 -0.192194 0
M  V30 4949 H 665.847 -8.36563 -0.598329 0
M  V30 4950 H 664.152 -10.0291 -1.79807 0
M  V30 4951 H 663.962 -10.2138 0.558219 0
M  V30 4952 H 662.331 -9.6579 0.0444202 0
M  V30 4953 H 657.755 -4.12883 -2.05283 0
M  V30 4954 H 662.962 -6.59596 0.745856 0
M  V30 4955 H 657.892 -4.31425 -4.2628 0
M  V30 4956 H 659.268 -5.11219 -5.07148 0
M  V30 4957 H 664.972 -5.69466 -2.79593 0
M  V30 4958 P 666.829 -8.4349 -2.47671 0
M  V30 4959 O 668.251 -8.92593 -2.65 0
M  V30 4960 O 666.469 -7.7568 -1.19296 0
M  V30 4961 O 666.506 -7.36886 -3.63805 0
M  V30 4962 C 666.346 -7.95349 -4.982 0
M  V30 4963 C 666.886 -6.94612 -5.98974 0
M  V30 4964 O 665.83 -6.10347 -6.11815 0
M  V30 4965 C 668.104 -6.11426 -5.62335 0
M  V30 4966 O 668.842 -5.6162 -6.70584 0
M  V30 4967 C 667.435 -5.04409 -4.73308 0
M  V30 4968 O 668.234 -3.85992 -4.75183 0
M  V30 4969 C 666.098 -4.8728 -5.41006 0
M  V30 4970 H 666.13 -4.02333 -6.11157 0
M  V30 4971 H 667.313 -5.39466 -3.69543 0
M  V30 4972 H 668.797 -6.71916 -5.01943 0
M  V30 4973 H 667.103 -7.4649 -6.93477 0
M  V30 4974 H 666.913 -8.89416 -5.05237 0
M  V30 4975 H 665.283 -8.14876 -5.18409 0
M  V30 4976 H 667.922 -3.27957 -5.4317 0
M  V30 4977 P 669.779 -5.75688 -6.64379 0
M  V30 4978 O 671.201 -6.07627 -7.05504 0
M  V30 4979 O 669.419 -5.88047 -5.19722 0
M  V30 4980 O 669.456 -4.2322 -7.04443 0
M  V30 4981 C 669.296 -3.99743 -8.4911 0
M  V30 4982 C 669.836 -2.60516 -8.79425 0
M  V30 4983 O 668.78 -1.82684 -8.4467 0
M  V30 4984 C 671.054 -2.10343 -8.03628 0
M  V30 4985 O 671.792 -1.09919 -8.67766 0
M  V30 4986 C 670.385 -1.68446 -6.70876 0
M  V30 4987 O 671.184 -0.678137 -6.08433 0
M  V30 4988 C 669.048 -1.17436 -7.18567 0
M  V30 4989 H 669.08 -0.0804732 -7.31656 0
M  V30 4990 H 670.263 -2.54037 -6.02537 0
M  V30 4991 H 671.747 -2.93881 -7.85526 0
M  V30 4992 H 670.053 -2.53065 -9.86973 0
M  V30 4993 H 669.863 -4.75072 -9.05887 0
M  V30 4994 H 668.233 -4.05244 -8.76668 0
M  V30 4995 H 670.872 0.177647 -6.34251 0
M  V30 4996 P 672.73 -1.25109 -8.70152 0
M  V30 4997 O 674.152 -1.29744 -9.22016 0
M  V30 4998 O 672.37 -2.13714 -7.55141 0
M  V30 4999 O 672.407 0.248149 -8.21425 0
M  V30 5000 C 672.247 1.22779 -9.30434 0
M  V30 5001 C 672.787 2.56293 -8.80664 0
M  V30 5002 O 671.731 3.02979 -8.09349 0
M  V30 5003 C 674.005 2.57523 -7.89775 0
M  V30 5004 O 674.743 3.7668 -7.89438 0
M  V30 5005 C 673.336 2.20997 -6.55446 0
M  V30 5006 O 674.135 2.71895 -5.48509 0
M  V30 5007 C 671.999 2.89693 -6.67988 0
M  V30 5008 H 672.031 3.88793 -6.19859 0
M  V30 5009 H 673.214 1.12046 -6.44229 0
M  V30 5010 H 674.698 1.7746 -8.19711 0
M  V30 5011 H 673.004 3.20706 -9.67112 0
M  V30 5012 H 672.814 0.901032 -10.1892 0
M  V30 5013 H 671.184 1.33049 -9.56592 0
M  V30 5014 H 673.823 3.57847 -5.23962 0
M  V30 5015 P 675.681 3.65191 -7.99657 0
M  V30 5016 O 677.103 3.89332 -8.45794 0
M  V30 5017 O 675.321 2.28472 -7.50807 0
M  V30 5018 O 675.358 4.64972 -6.77611 0
M  V30 5019 C 675.198 6.06319 -7.16352 0
M  V30 5020 C 675.738 6.91731 -6.02299 0
M  V30 5021 O 674.682 6.92449 -5.17064 0
M  V30 5022 C 676.956 6.43627 -5.25174 0
M  V30 5023 O 677.694 7.43686 -4.60469 0
M  V30 5024 C 676.287 5.40275 -4.31916 0
M  V30 5025 O 677.086 5.25279 -3.14438 0
M  V30 5026 C 674.95 6.04847 -4.05327 0
M  V30 5027 H 674.982 6.62195 -3.11261 0
M  V30 5028 H 676.165 4.42556 -4.81383 0
M  V30 5029 H 677.649 5.92458 -5.93643 0
M  V30 5030 H 675.955 7.92655 -6.402 0
M  V30 5031 H 675.765 6.26671 -8.0846 0
M  V30 5032 H 674.135 6.29101 -7.32804 0
M  V30 5033 H 676.774 5.84315 -2.47318 0
M  V30 5034 P 678.631 7.39546 -4.75277 0
M  V30 5035 O 680.053 7.84798 -5.01039 0
M  V30 5036 O 678.271 5.9812 -5.08098 0
M  V30 5037 O 678.308 7.57503 -3.1866 0
M  V30 5038 C 678.148 8.97357 -2.74833 0
M  V30 5039 C 678.688 9.07548 -1.32709 0
M  V30 5040 O 677.632 8.62072 -0.606159 0
M  V30 5041 C 679.906 8.25383 -0.938334 0
M  V30 5042 O 680.644 8.74577 0.146954 0
M  V30 5043 C 679.237 6.8802 -0.712559 0
M  V30 5044 O 680.036 6.1189 0.194655 0
M  V30 5045 C 677.9 7.27966 -0.139777 0
M  V30 5046 H 677.932 7.25354 0.961601 0
M  V30 5047 H 679.115 6.32557 -1.65702 0
M  V30 5048 H 680.599 8.19355 -1.79097 0
M  V30 5049 H 678.905 10.1294 -1.10029 0
M  V30 5050 H 678.715 9.64276 -3.41316 0
M  V30 5051 H 677.085 9.25417 -2.76357 0
M  V30 5052 H 679.724 6.25267 1.07847 0
M  V30 5053 P 681.582 8.791 4.7645e-12 0
M  V30 5054 O 683.004 9.31096 0.027933 0
M  V30 5055 O 681.222 7.77869 -1.04071 0
M  V30 5056 O 681.259 8.09533 1.41463 0
M  V30 5057 C 681.099 9.0349 2.53943 0
M  V30 5058 C 681.639 8.35226 3.79016 0
M  V30 5059 O 680.583 7.57992 4.15078 0
M  V30 5060 C 682.857 7.45087 3.67298 0
M  V30 5061 O 683.595 7.27796 4.85194 0
M  V30 5062 C 682.188 6.17323 3.12027 0
M  V30 5063 O 682.987 5.04231 3.47188 0
M  V30 5064 C 680.851 6.19961 3.81809 0
M  V30 5065 H 680.883 5.58218 4.73051 0
M  V30 5066 H 682.066 6.21726 2.02589 0
M  V30 5067 H 683.55 7.86112 2.9231 0
M  V30 5068 H 681.856 9.11627 4.55076 0
M  V30 5069 H 681.666 9.9573 2.34194 0
M  V30 5070 H 680.036 9.2792 2.67832 0
M  V30 5071 H 682.675 4.67702 4.28772 0
M  V30 5072 P 684.532 7.39546 4.75277 0
M  V30 5073 O 685.954 7.81777 5.05738 0
M  V30 5074 O 684.172 7.1065 3.32998 0
M  V30 5075 O 684.209 6.04542 5.56673 0
M  V30 5076 C 684.049 6.22772 7.02095 0
M  V30 5077 C 684.589 4.97725 7.70406 0
M  V30 5078 O 683.533 4.13256 7.58987 0
M  V30 5079 C 685.807 4.28231 7.11815 0
M  V30 5080 O 686.545 3.49945 8.01648 0
M  V30 5081 C 685.138 3.5063 5.96244 0
M  V30 5082 O 685.937 2.36482 5.64681 0
M  V30 5083 C 683.801 3.15122 6.56374 0
M  V30 5084 H 683.833 2.13853 6.99751 0
M  V30 5085 H 685.016 4.13501 5.06559 0
M  V30 5086 H 686.5 5.03285 6.70911 0
M  V30 5087 H 684.806 5.20877 8.75697 0
M  V30 5088 H 684.616 7.11046 7.35349 0
M  V30 5089 H 682.986 6.35815 7.26986 0
M  V30 5090 H 685.625 1.61644 6.13565 0
M  V30 5091 P 687.483 3.65191 7.99657 0
M  V30 5092 O 688.905 3.8425 8.48115 0
M  V30 5093 O 687.123 4.17805 6.64342 0
M  V30 5094 O 687.16 2.07613 7.95143 0
M  V30 5095 C 687 1.44328 9.27336 0
M  V30 5096 C 687.54 0.0220036 9.17197 0
M  V30 5097 O 686.484 -0.626867 8.61923 0
M  V30 5098 C 688.758 -0.24586 8.30336 0
M  V30 5099 O 689.496 -1.39011 8.63583 0
M  V30 5100 C 688.089 -0.273849 6.91158 0
M  V30 5101 O 688.888 -1.06348 6.02892 0
M  V30 5102 C 686.752 -0.897649 7.22545 0
M  V30 5103 H 686.784 -1.9841 7.04286 0
M  V30 5104 H 687.967 0.739928 6.497 0
M  V30 5105 H 689.451 0.60668 8.36503 0
M  V30 5106 H 687.757 -0.352479 10.1829 0
M  V30 5107 H 687.567 2.00611 10.0304 0
M  V30 5108 H 685.937 1.41843 9.55327 0
M  V30 5109 H 688.576 -1.95734 6.03555 0
M  V30 5110 P 690.433 -1.25109 8.70152 0
M  V30 5111 O 691.855 -1.35274 9.21221 0
M  V30 5112 O 690.073 -0.0769065 7.84762 0
M  V30 5113 O 690.11 -2.55232 7.81161 0
M  V30 5114 C 689.95 -3.79939 8.58154 0
M  V30 5115 C 690.49 -4.94023 7.72785 0
M  V30 5116 O 689.434 -5.18726 6.91205 0
M  V30 5117 C 691.708 -4.69597 6.85231 0
M  V30 5118 O 692.446 -5.83832 6.51337 0
M  V30 5119 C 691.039 -3.96706 5.66633 0
M  V30 5120 O 691.838 -4.15414 4.49689 0
M  V30 5121 C 689.702 -4.66153 5.59313 0
M  V30 5122 H 689.734 -5.47679 4.85214 0
M  V30 5123 H 690.917 -2.89008 5.86566 0
M  V30 5124 H 692.401 -4.0121 7.36511 0
M  V30 5125 H 690.707 -5.80182 8.37584 0
M  V30 5126 H 690.517 -3.73517 9.52265 0
M  V30 5127 H 688.887 -3.97163 8.80359 0
M  V30 5128 H 691.526 -4.90969 4.01921 0
M  V30 5129 P 693.384 -5.75688 6.64379 0
M  V30 5130 O 694.806 -6.11849 7.01846 0
M  V30 5131 O 693.024 -4.30744 6.56026 0
M  V30 5132 O 693.061 -6.37042 5.19165 0
M  V30 5133 C 692.901 -7.83578 5.16515 0
M  V30 5134 C 693.441 -8.33398 3.83019 0
M  V30 5135 O 692.385 -8.10074 3.01034 0
M  V30 5136 C 694.659 -7.65514 3.2257 0
M  V30 5137 O 695.397 -8.4329 2.32297 0
M  V30 5138 C 693.99 -6.40075 2.62207 0
M  V30 5139 O 694.789 -5.92589 1.53712 0
M  V30 5140 C 692.653 -6.9454 2.18503 0
M  V30 5141 H 692.685 -7.23063 1.12091 0
M  V30 5142 H 693.868 -5.6025 3.37201 0
M  V30 5143 H 695.352 -7.35707 4.02681 0
M  V30 5144 H 693.658 -9.40912 3.9095 0
M  V30 5145 H 693.468 -8.29056 5.99158 0
M  V30 5146 H 691.838 -8.10073 5.25882 0
M  V30 5147 H 694.477 -6.30324 0.726794 0
M  V30 5148 P 696.335 -8.4349 2.47671 0
M  V30 5149 O 697.757 -8.94167 2.5964 0
M  V30 5150 O 695.975 -7.1704 3.19006 0
M  V30 5151 O 696.012 -8.16596 0.923387 0
M  V30 5152 C 695.852 -9.38437 0.108857 0
M  V30 5153 C 696.392 -9.08175 -1.28353 0
M  V30 5154 O 695.336 -8.44229 -1.84713 0
M  V30 5155 C 697.61 -8.18386 -1.42505 0
M  V30 5156 O 698.348 -8.3501 -2.60497 0
M  V30 5157 C 696.941 -6.80225 -1.25468 0
M  V30 5158 O 697.74 -5.81621 -1.91066 0
M  V30 5159 C 695.604 -7.02416 -1.9168 0
M  V30 5160 H 695.636 -6.6888 -2.96621 0
M  V30 5161 H 696.819 -6.53617 -0.192223 0
M  V30 5162 H 698.303 -8.36622 -0.589963 0
M  V30 5163 H 696.609 -10.0291 -1.79807 0
M  V30 5164 H 696.419 -10.2138 0.558219 0
M  V30 5165 H 694.789 -9.6579 0.0444202 0
M  V30 5166 H 697.428 -5.69556 -2.79637 0
M  V30 5167 P 699.285 -8.4349 -2.47671 0
M  V30 5168 O 700.707 -8.92593 -2.65 0
M  V30 5169 O 698.925 -7.7568 -1.19296 0
M  V30 5170 O 698.962 -7.36886 -3.63805 0
M  V30 5171 C 698.802 -7.95349 -4.982 0
M  V30 5172 C 699.342 -6.94612 -5.98974 0
M  V30 5173 O 698.286 -6.10347 -6.11815 0
M  V30 5174 C 700.56 -6.11426 -5.62335 0
M  V30 5175 O 701.298 -5.6162 -6.70584 0
M  V30 5176 C 699.891 -5.04409 -4.73308 0
M  V30 5177 O 700.69 -3.85992 -4.75183 0
M  V30 5178 C 698.554 -4.8728 -5.41006 0
M  V30 5179 H 698.586 -4.02333 -6.11157 0
M  V30 5180 H 699.769 -5.39466 -3.69543 0
M  V30 5181 H 701.253 -6.71916 -5.01943 0
M  V30 5182 H 699.559 -7.4649 -6.93477 0
M  V30 5183 H 699.369 -8.89416 -5.05237 0
M  V30 5184 H 697.739 -8.14876 -5.18409 0
M  V30 5185 H 700.378 -3.27957 -5.4317 0
M  V30 5186 P 702.236 -5.75688 -6.64379 0
M  V30 5187 O 703.658 -6.07627 -7.05504 0
M  V30 5188 O 701.876 -5.88047 -5.19722 0
M  V30 5189 O 701.913 -4.2322 -7.04443 0
M  V30 5190 C 701.753 -3.99743 -8.4911 0
M  V30 5191 C 702.293 -2.60516 -8.79425 0
M  V30 5192 O 701.237 -1.82684 -8.4467 0
M  V30 5193 C 703.511 -2.10343 -8.03628 0
M  V30 5194 O 704.249 -1.09919 -8.67766 0
M  V30 5195 C 702.842 -1.68446 -6.70876 0
M  V30 5196 O 703.641 -0.678137 -6.08433 0
M  V30 5197 C 701.505 -1.17436 -7.18567 0
M  V30 5198 H 701.537 -0.0804732 -7.31656 0
M  V30 5199 H 702.72 -2.54037 -6.02537 0
M  V30 5200 H 704.204 -2.93881 -7.85526 0
M  V30 5201 H 702.51 -2.53065 -9.86973 0
M  V30 5202 H 702.32 -4.75072 -9.05887 0
M  V30 5203 H 700.69 -4.05244 -8.76668 0
M  V30 5204 H 703.329 0.177647 -6.34251 0
M  V30 5205 P 705.186 -1.25109 -8.70152 0
M  V30 5206 O 706.587 -1.3516 -9.26897 0
M  V30 5207 O 704.808 -2.18141 -7.59181 0
M  V30 5208 O 704.863 0.248118 -8.21325 0
M  V30 5209 C 704.703 1.22779 -9.30434 0
M  V30 5210 C 705.243 2.56265 -8.80568 0
M  V30 5211 O 704.187 3.02944 -8.09255 0
M  V30 5212 C 706.46 2.57523 -7.89775 0
M  V30 5213 O 707.199 3.7668 -7.89438 0
M  V30 5214 C 705.793 2.20997 -6.55446 0
M  V30 5215 O 706.591 2.71851 -5.48419 0
M  V30 5216 C 704.455 2.89693 -6.67988 0
M  V30 5217 N 703.412 2.08895 -6.07487 0
M  V30 5218 C 702.377 2.72974 -5.43836 0
M  V30 5219 O 702.416 3.97779 -5.34036 0
M  V30 5220 N 701.365 2.0005 -4.91983 0
M  V30 5221 C 701.413 0.66501 -5.00098 0
M  V30 5222 C 702.509 -0.0100979 -5.61099 0
M  V30 5223 C 703.475 0.74189 -6.14236 0
M  V30 5224 H 704.487 3.8874 -6.19774 0
M  V30 5225 H 705.67 1.12673 -6.44018 0
M  V30 5226 H 707.154 1.783 -8.19631 0
M  V30 5227 H 705.46 3.21673 -9.66791 0
M  V30 5228 H 705.269 0.901032 -10.1892 0
M  V30 5229 H 703.639 1.33036 -9.56493 0
M  V30 5230 H 702.557 -1.09591 -5.64358 0
M  V30 5231 H 704.321 0.260263 -6.6359 0
M  V30 5232 H 706.375 3.62759 -5.33442 0
M  V30 5233 P 708.137 3.65191 -7.99657 0
M  V30 5234 O 709.559 3.89332 -8.45794 0
M  V30 5235 O 707.777 2.28472 -7.50807 0
M  V30 5236 O 707.814 4.64972 -6.77611 0
M  V30 5237 C 707.654 6.06319 -7.16352 0
M  V30 5238 C 708.194 6.91731 -6.02299 0
M  V30 5239 O 707.138 6.92449 -5.17064 0
M  V30 5240 C 709.412 6.43627 -5.25174 0
M  V30 5241 O 710.15 7.43686 -4.60469 0
M  V30 5242 C 708.743 5.40275 -4.31916 0
M  V30 5243 O 709.542 5.25279 -3.14438 0
M  V30 5244 C 707.406 6.04847 -4.05327 0
M  V30 5245 H 707.438 6.62195 -3.11261 0
M  V30 5246 H 708.621 4.42556 -4.81383 0
M  V30 5247 H 710.105 5.92458 -5.93643 0
M  V30 5248 H 708.411 7.92655 -6.402 0
M  V30 5249 H 708.221 6.26671 -8.0846 0
M  V30 5250 H 706.591 6.29101 -7.32804 0
M  V30 5251 H 709.23 5.84315 -2.47318 0
M  V30 5252 P 711.087 7.39546 -4.75277 0
M  V30 5253 O 712.509 7.84966 -5.01146 0
M  V30 5254 O 710.727 5.9812 -5.08098 0
M  V30 5255 O 710.764 7.57503 -3.1866 0
M  V30 5256 C 710.604 8.97357 -2.74833 0
M  V30 5257 C 711.144 9.0745 -1.32694 0
M  V30 5258 O 710.089 8.62072 -0.606159 0
M  V30 5259 C 712.362 8.25383 -0.938334 0
M  V30 5260 O 713.1 8.74577 0.146954 0
M  V30 5261 C 711.694 6.8802 -0.712559 0
M  V30 5262 O 712.492 6.11791 0.194623 0
M  V30 5263 C 710.356 7.27966 -0.139777 0
M  V30 5264 N 709.313 6.39368 -0.623421 0
M  V30 5265 C 709.375 5.90299 -1.85969 0
M  V30 5266 N 708.33 5.10919 -2.1133 0
M  V30 5267 C 707.596 5.14646 -1.0015 0
M  V30 5268 C 706.29 4.60057 -0.729219 0
M  V30 5269 O 705.557 3.93476 -1.47746 0
M  V30 5270 N 705.86 4.88302 0.523505 0
M  V30 5271 C 706.609 5.63646 1.46207 0
M  V30 5272 N 706.012 5.78186 2.69239 0
M  V30 5273 N 707.762 6.19285 1.21544 0
M  V30 5274 C 708.219 5.93392 -0.0308487 0
M  V30 5275 H 710.388 7.25354 0.961601 0
M  V30 5276 H 711.571 6.3246 -1.65676 0
M  V30 5277 H 713.056 8.19533 -1.78278 0
M  V30 5278 H 711.361 10.1294 -1.10029 0
M  V30 5279 H 711.171 9.64276 -3.41316 0
M  V30 5280 H 709.54 9.25417 -2.76357 0
M  V30 5281 H 704.964 4.53993 0.806451 0
M  V30 5282 H 710.171 6.11865 -2.57394 0
M  V30 5283 H 705.101 5.34046 2.87467 0
M  V30 5284 H 706.477 6.33391 3.42578 0
M  V30 5285 H 712.181 6.25169 1.0783 0
M  V30 5286 P 714.038 8.791 5.07466e-12 0
M  V30 5287 O 715.46 9.31096 0.027933 0
M  V30 5288 O 713.678 7.77869 -1.04071 0
M  V30 5289 O 713.715 8.09533 1.41463 0
M  V30 5290 C 713.555 9.0349 2.53943 0
M  V30 5291 C 714.095 8.35226 3.79016 0
M  V30 5292 O 713.039 7.57992 4.15078 0
M  V30 5293 C 715.313 7.45087 3.67298 0
M  V30 5294 O 716.051 7.27796 4.85194 0
M  V30 5295 C 714.644 6.17323 3.12027 0
M  V30 5296 O 715.443 5.04231 3.47188 0
M  V30 5297 C 713.307 6.19961 3.81809 0
M  V30 5298 H 713.339 5.58218 4.73051 0
M  V30 5299 H 714.522 6.21726 2.02589 0
M  V30 5300 H 716.006 7.86112 2.9231 0
M  V30 5301 H 714.312 9.11627 4.55076 0
M  V30 5302 H 714.122 9.9573 2.34194 0
M  V30 5303 H 712.492 9.2792 2.67832 0
M  V30 5304 H 715.131 4.67702 4.28772 0
M  V30 5305 P 716.989 7.39546 4.75277 0
M  V30 5306 O 718.411 7.81777 5.05738 0
M  V30 5307 O 716.629 7.1065 3.32998 0
M  V30 5308 O 716.666 6.04542 5.56673 0
M  V30 5309 C 716.506 6.22772 7.02095 0
M  V30 5310 C 717.046 4.97725 7.70406 0
M  V30 5311 O 715.99 4.13256 7.58987 0
M  V30 5312 C 718.264 4.28231 7.11815 0
M  V30 5313 O 719.002 3.49945 8.01648 0
M  V30 5314 C 717.595 3.5063 5.96244 0
M  V30 5315 O 718.394 2.36482 5.64681 0
M  V30 5316 C 716.258 3.15122 6.56374 0
M  V30 5317 H 716.29 2.13853 6.99751 0
M  V30 5318 H 717.473 4.13501 5.06559 0
M  V30 5319 H 718.957 5.03285 6.70911 0
M  V30 5320 H 717.263 5.20877 8.75697 0
M  V30 5321 H 717.073 7.11046 7.35349 0
M  V30 5322 H 715.443 6.35815 7.26986 0
M  V30 5323 H 718.082 1.61644 6.13565 0
M  V30 5324 P 719.939 3.65191 7.99657 0
M  V30 5325 O 721.361 3.8425 8.48115 0
M  V30 5326 O 719.579 4.17805 6.64342 0
M  V30 5327 O 719.616 2.07613 7.95143 0
M  V30 5328 C 719.456 1.44328 9.27336 0
M  V30 5329 C 719.996 0.0220036 9.17197 0
M  V30 5330 O 718.94 -0.626867 8.61923 0
M  V30 5331 C 721.214 -0.24586 8.30336 0
M  V30 5332 O 721.952 -1.39011 8.63583 0
M  V30 5333 C 720.545 -0.273849 6.91158 0
M  V30 5334 O 721.344 -1.06348 6.02892 0
M  V30 5335 C 719.208 -0.897649 7.22545 0
M  V30 5336 H 719.24 -1.9841 7.04286 0
M  V30 5337 H 720.423 0.739928 6.497 0
M  V30 5338 H 721.907 0.60668 8.36503 0
M  V30 5339 H 720.213 -0.352479 10.1829 0
M  V30 5340 H 720.023 2.00611 10.0304 0
M  V30 5341 H 718.393 1.41843 9.55327 0
M  V30 5342 H 721.032 -1.95734 6.03555 0
M  V30 5343 P 722.89 -1.25109 8.70152 0
M  V30 5344 O 724.312 -1.35303 9.21419 0
M  V30 5345 O 722.53 -0.0769065 7.84762 0
M  V30 5346 O 722.567 -2.55232 7.81161 0
M  V30 5347 C 722.407 -3.79939 8.58154 0
M  V30 5348 C 722.947 -4.93969 7.72701 0
M  V30 5349 O 721.892 -5.18726 6.91205 0
M  V30 5350 C 724.165 -4.69597 6.85231 0
M  V30 5351 O 724.903 -5.83832 6.51337 0
M  V30 5352 C 723.497 -3.96706 5.66633 0
M  V30 5353 O 724.295 -4.15346 4.49615 0
M  V30 5354 C 722.159 -4.66153 5.59313 0
M  V30 5355 N 721.116 -3.71582 5.24027 0
M  V30 5356 C 721.178 -2.46018 5.67902 0
M  V30 5357 N 720.133 -1.74868 5.24518 0
M  V30 5358 C 719.399 -2.61333 4.54528 0
M  V30 5359 C 718.093 -2.46162 3.95441 0
M  V30 5360 O 717.36 -1.46013 3.94122 0
M  V30 5361 N 717.663 -3.59334 3.34752 0
M  V30 5362 C 718.412 -4.79605 3.3023 0
M  V30 5363 N 717.815 -5.82109 2.6065 0
M  V30 5364 N 719.565 -4.97402 3.8843 0
M  V30 5365 C 720.022 -3.86258 4.50476 0
M  V30 5366 H 722.191 -5.47679 4.85214 0
M  V30 5367 H 723.374 -2.88964 5.86476 0
M  V30 5368 H 724.859 -4.01947 7.36109 0
M  V30 5369 H 723.164 -5.80182 8.37584 0
M  V30 5370 H 722.974 -3.73517 9.52265 0
M  V30 5371 H 721.343 -3.97163 8.80359 0
M  V30 5372 H 716.767 -3.5825 2.90294 0
M  V30 5373 H 721.974 -2.06161 6.30974 0
M  V30 5374 H 716.904 -5.66979 2.15354 0
M  V30 5375 H 718.28 -6.73686 2.54344 0
M  V30 5376 H 723.984 -4.90891 4.01857 0
M  V30 5377 P 725.84 -5.75688 6.64379 0
M  V30 5378 O 727.262 -6.11849 7.01846 0
M  V30 5379 O 725.48 -4.30744 6.56026 0
M  V30 5380 O 725.517 -6.37042 5.19165 0
M  V30 5381 C 725.357 -7.83578 5.16515 0
M  V30 5382 C 725.897 -8.33398 3.83019 0
M  V30 5383 O 724.841 -8.10074 3.01034 0
M  V30 5384 C 727.115 -7.65514 3.2257 0
M  V30 5385 O 727.853 -8.4329 2.32297 0
M  V30 5386 C 726.446 -6.40075 2.62207 0
M  V30 5387 O 727.245 -5.92589 1.53712 0
M  V30 5388 C 725.109 -6.9454 2.18503 0
M  V30 5389 H 725.141 -7.23063 1.12091 0
M  V30 5390 H 726.324 -5.6025 3.37201 0
M  V30 5391 H 727.808 -7.35707 4.02681 0
M  V30 5392 H 726.114 -9.40912 3.9095 0
M  V30 5393 H 725.924 -8.29056 5.99158 0
M  V30 5394 H 724.294 -8.10073 5.25882 0
M  V30 5395 H 726.933 -6.30324 0.726794 0
M  V30 5396 P 728.791 -8.4349 2.47671 0
M  V30 5397 O 730.192 -8.98227 2.65696 0
M  V30 5398 O 728.413 -7.20409 3.23964 0
M  V30 5399 O 728.468 -8.16496 0.923275 0
M  V30 5400 C 728.308 -9.38437 0.108857 0
M  V30 5401 C 728.848 -9.08076 -1.28339 0
M  V30 5402 O 727.792 -8.44131 -1.84692 0
M  V30 5403 C 730.065 -8.18386 -1.42505 0
M  V30 5404 O 730.804 -8.3501 -2.60497 0
M  V30 5405 C 729.398 -6.80225 -1.25468 0
M  V30 5406 O 730.196 -5.81526 -1.91035 0
M  V30 5407 C 728.06 -7.02416 -1.9168 0
M  V30 5408 N 727.017 -6.31033 -1.20314 0
M  V30 5409 C 725.982 -5.77149 -1.928 0
M  V30 5410 O 726.021 -5.8521 -3.17729 0
M  V30 5411 N 724.97 -5.15445 -1.27997 0
M  V30 5412 C 725.018 -5.04472 0.0534726 0
M  V30 5413 C 726.114 -5.55244 0.808522 0
M  V30 5414 C 727.08 -6.18542 0.13981 0
M  V30 5415 H 728.092 -6.68789 -2.9658 0
M  V30 5416 H 729.275 -6.53498 -0.198729 0
M  V30 5417 H 730.759 -8.36663 -0.5984 0
M  V30 5418 H 729.065 -10.0273 -1.8081 0
M  V30 5419 H 728.874 -10.2138 0.558219 0
M  V30 5420 H 727.244 -9.6569 0.0444156 0
M  V30 5421 H 726.162 -5.43017 1.88792 0
M  V30 5422 H 727.926 -6.60539 0.686773 0
M  V30 5423 H 729.98 -5.79638 -2.8315 0
M  V30 5424 P 731.741 -8.4349 -2.47671 0
M  V30 5425 O 733.163 -8.92593 -2.65 0
M  V30 5426 O 731.381 -7.7568 -1.19296 0
M  V30 5427 O 731.418 -7.36886 -3.63805 0
M  V30 5428 C 731.258 -7.95349 -4.982 0
M  V30 5429 C 731.798 -6.94612 -5.98974 0
M  V30 5430 O 730.742 -6.10347 -6.11815 0
M  V30 5431 C 733.016 -6.11426 -5.62335 0
M  V30 5432 O 733.754 -5.6162 -6.70584 0
M  V30 5433 C 732.347 -5.04409 -4.73308 0
M  V30 5434 O 733.146 -3.85992 -4.75183 0
M  V30 5435 C 731.01 -4.8728 -5.41006 0
M  V30 5436 H 731.042 -4.02333 -6.11157 0
M  V30 5437 H 732.225 -5.39466 -3.69543 0
M  V30 5438 H 733.709 -6.71916 -5.01943 0
M  V30 5439 H 732.015 -7.4649 -6.93477 0
M  V30 5440 H 731.825 -8.89416 -5.05237 0
M  V30 5441 H 730.195 -8.14876 -5.18409 0
M  V30 5442 H 732.834 -3.27957 -5.4317 0
M  V30 5443 P 734.692 -5.75688 -6.64379 0
M  V30 5444 O 736.114 -6.07627 -7.05504 0
M  V30 5445 O 734.332 -5.88047 -5.19722 0
M  V30 5446 O 734.369 -4.2322 -7.04443 0
M  V30 5447 C 734.209 -3.99743 -8.4911 0
M  V30 5448 C 734.749 -2.60516 -8.79425 0
M  V30 5449 O 733.693 -1.82684 -8.4467 0
M  V30 5450 C 735.967 -2.10343 -8.03628 0
M  V30 5451 O 736.705 -1.09919 -8.67766 0
M  V30 5452 C 735.298 -1.68446 -6.70876 0
M  V30 5453 O 736.097 -0.678137 -6.08433 0
M  V30 5454 C 733.961 -1.17436 -7.18567 0
M  V30 5455 H 733.993 -0.0804732 -7.31656 0
M  V30 5456 H 735.176 -2.54037 -6.02537 0
M  V30 5457 H 736.66 -2.93881 -7.85526 0
M  V30 5458 H 734.966 -2.53065 -9.86973 0
M  V30 5459 H 734.776 -4.75072 -9.05887 0
M  V30 5460 H 733.146 -4.05244 -8.76668 0
M  V30 5461 H 735.785 0.177647 -6.34251 0
M  V30 5462 P 737.643 -1.25109 -8.70152 0
M  V30 5463 O 739.065 -1.29744 -9.22016 0
M  V30 5464 O 737.283 -2.13714 -7.55141 0
M  V30 5465 O 737.32 0.248149 -8.21425 0
M  V30 5466 C 737.16 1.22779 -9.30434 0
M  V30 5467 C 737.7 2.56293 -8.80664 0
M  V30 5468 O 736.644 3.02979 -8.09349 0
M  V30 5469 C 738.918 2.57523 -7.89775 0
M  V30 5470 O 739.656 3.7668 -7.89438 0
M  V30 5471 C 738.249 2.20997 -6.55446 0
M  V30 5472 O 739.048 2.71895 -5.48509 0
M  V30 5473 C 736.912 2.89693 -6.67988 0
M  V30 5474 H 736.944 3.88793 -6.19859 0
M  V30 5475 H 738.127 1.12046 -6.44229 0
M  V30 5476 H 739.611 1.7746 -8.19711 0
M  V30 5477 H 737.917 3.20706 -9.67112 0
M  V30 5478 H 737.726 0.901032 -10.1892 0
M  V30 5479 H 736.096 1.33049 -9.56592 0
M  V30 5480 H 738.736 3.57847 -5.23962 0
M  V30 5481 P 740.593 3.65191 -7.99657 0
M  V30 5482 O 742.015 3.89332 -8.45794 0
M  V30 5483 O 740.233 2.28472 -7.50807 0
M  V30 5484 O 740.27 4.64972 -6.77611 0
M  V30 5485 C 740.11 6.06319 -7.16352 0
M  V30 5486 C 740.65 6.91731 -6.02299 0
M  V30 5487 O 739.594 6.92449 -5.17064 0
M  V30 5488 C 741.868 6.43627 -5.25174 0
M  V30 5489 O 742.606 7.43686 -4.60469 0
M  V30 5490 C 741.199 5.40275 -4.31916 0
M  V30 5491 O 741.998 5.25279 -3.14438 0
M  V30 5492 C 739.862 6.04847 -4.05327 0
M  V30 5493 H 739.894 6.62195 -3.11261 0
M  V30 5494 H 741.077 4.42556 -4.81383 0
M  V30 5495 H 742.561 5.92458 -5.93643 0
M  V30 5496 H 740.867 7.92655 -6.402 0
M  V30 5497 H 740.677 6.26671 -8.0846 0
M  V30 5498 H 739.047 6.29101 -7.32804 0
M  V30 5499 H 741.686 5.84315 -2.47318 0
M  V30 5500 P 743.544 7.39546 -4.75277 0
M  V30 5501 O 744.966 7.84798 -5.01039 0
M  V30 5502 O 743.184 5.9812 -5.08098 0
M  V30 5503 O 743.221 7.57503 -3.1866 0
M  V30 5504 C 743.061 8.97357 -2.74833 0
M  V30 5505 C 743.601 9.07548 -1.32709 0
M  V30 5506 O 742.545 8.62072 -0.606159 0
M  V30 5507 C 744.819 8.25383 -0.938334 0
M  V30 5508 O 745.557 8.74577 0.146954 0
M  V30 5509 C 744.15 6.8802 -0.712559 0
M  V30 5510 O 744.949 6.1189 0.194655 0
M  V30 5511 C 742.813 7.27966 -0.139777 0
M  V30 5512 H 742.845 7.25354 0.961601 0
M  V30 5513 H 744.028 6.32557 -1.65702 0
M  V30 5514 H 745.512 8.19355 -1.79097 0
M  V30 5515 H 743.818 10.1294 -1.10029 0
M  V30 5516 H 743.628 9.64276 -3.41316 0
M  V30 5517 H 741.998 9.25417 -2.76357 0
M  V30 5518 H 744.637 6.25267 1.07847 0
M  V30 5519 P 746.494 8.791 5.38483e-12 0
M  V30 5520 O 747.916 9.31096 0.027933 0
M  V30 5521 O 746.134 7.77869 -1.04071 0
M  V30 5522 O 746.171 8.09533 1.41463 0
M  V30 5523 C 746.011 9.0349 2.53943 0
M  V30 5524 C 746.551 8.35226 3.79016 0
M  V30 5525 O 745.495 7.57992 4.15078 0
M  V30 5526 C 747.769 7.45087 3.67298 0
M  V30 5527 O 748.507 7.27796 4.85194 0
M  V30 5528 C 747.1 6.17323 3.12027 0
M  V30 5529 O 747.899 5.04231 3.47188 0
M  V30 5530 C 745.763 6.19961 3.81809 0
M  V30 5531 H 745.795 5.58218 4.73051 0
M  V30 5532 H 746.978 6.21726 2.02589 0
M  V30 5533 H 748.462 7.86112 2.9231 0
M  V30 5534 H 746.768 9.11627 4.55076 0
M  V30 5535 H 746.578 9.9573 2.34194 0
M  V30 5536 H 744.948 9.2792 2.67832 0
M  V30 5537 H 747.587 4.67702 4.28772 0
M  V30 5538 P 749.445 7.39546 4.75277 0
M  V30 5539 O 750.867 7.81777 5.05738 0
M  V30 5540 O 749.085 7.1065 3.32998 0
M  V30 5541 O 749.122 6.04542 5.56673 0
M  V30 5542 C 748.962 6.22772 7.02095 0
M  V30 5543 C 749.502 4.97725 7.70406 0
M  V30 5544 O 748.446 4.13256 7.58987 0
M  V30 5545 C 750.72 4.28231 7.11815 0
M  V30 5546 O 751.458 3.49945 8.01648 0
M  V30 5547 C 750.051 3.5063 5.96244 0
M  V30 5548 O 750.85 2.36482 5.64681 0
M  V30 5549 C 748.714 3.15122 6.56374 0
M  V30 5550 H 748.746 2.13853 6.99751 0
M  V30 5551 H 749.929 4.13501 5.06559 0
M  V30 5552 H 751.413 5.03285 6.70911 0
M  V30 5553 H 749.719 5.20877 8.75697 0
M  V30 5554 H 749.529 7.11046 7.35349 0
M  V30 5555 H 747.899 6.35815 7.26986 0
M  V30 5556 H 750.538 1.61644 6.13565 0
M  V30 5557 P 752.395 3.65191 7.99657 0
M  V30 5558 O 753.817 3.8425 8.48115 0
M  V30 5559 O 752.035 4.17805 6.64342 0
M  V30 5560 O 752.072 2.07613 7.95143 0
M  V30 5561 C 751.912 1.44328 9.27336 0
M  V30 5562 C 752.452 0.0220036 9.17197 0
M  V30 5563 O 751.396 -0.626867 8.61923 0
M  V30 5564 C 753.67 -0.24586 8.30336 0
M  V30 5565 O 754.408 -1.39011 8.63583 0
M  V30 5566 C 753.001 -0.273849 6.91158 0
M  V30 5567 O 753.8 -1.06348 6.02892 0
M  V30 5568 C 751.664 -0.897649 7.22545 0
M  V30 5569 H 751.696 -1.9841 7.04286 0
M  V30 5570 H 752.879 0.739928 6.497 0
M  V30 5571 H 754.363 0.60668 8.36503 0
M  V30 5572 H 752.669 -0.352479 10.1829 0
M  V30 5573 H 752.479 2.00611 10.0304 0
M  V30 5574 H 750.849 1.41843 9.55327 0
M  V30 5575 H 753.488 -1.95734 6.03555 0
M  V30 5576 P 755.346 -1.25109 8.70152 0
M  V30 5577 O 756.768 -1.35274 9.21221 0
M  V30 5578 O 754.986 -0.0769065 7.84762 0
M  V30 5579 O 755.023 -2.55232 7.81161 0
M  V30 5580 C 754.863 -3.79939 8.58154 0
M  V30 5581 C 755.403 -4.94023 7.72785 0
M  V30 5582 O 754.347 -5.18726 6.91205 0
M  V30 5583 C 756.621 -4.69597 6.85231 0
M  V30 5584 O 757.359 -5.83832 6.51337 0
M  V30 5585 C 755.952 -3.96706 5.66633 0
M  V30 5586 O 756.751 -4.15414 4.49689 0
M  V30 5587 C 754.615 -4.66153 5.59313 0
M  V30 5588 H 754.647 -5.47679 4.85214 0
M  V30 5589 H 755.83 -2.89008 5.86566 0
M  V30 5590 H 757.314 -4.0121 7.36511 0
M  V30 5591 H 755.62 -5.80182 8.37584 0
M  V30 5592 H 755.43 -3.73517 9.52265 0
M  V30 5593 H 753.8 -3.97163 8.80359 0
M  V30 5594 H 756.439 -4.90969 4.01921 0
M  V30 5595 P 758.296 -5.75688 6.64379 0
M  V30 5596 O 759.718 -6.11849 7.01846 0
M  V30 5597 O 757.936 -4.30744 6.56026 0
M  V30 5598 O 757.973 -6.37042 5.19165 0
M  V30 5599 C 757.813 -7.83578 5.16515 0
M  V30 5600 C 758.353 -8.33398 3.83019 0
M  V30 5601 O 757.297 -8.10074 3.01034 0
M  V30 5602 C 759.571 -7.65514 3.2257 0
M  V30 5603 O 760.309 -8.4329 2.32297 0
M  V30 5604 C 758.902 -6.40075 2.62207 0
M  V30 5605 O 759.701 -5.92589 1.53712 0
M  V30 5606 C 757.565 -6.9454 2.18503 0
M  V30 5607 H 757.597 -7.23063 1.12091 0
M  V30 5608 H 758.78 -5.6025 3.37201 0
M  V30 5609 H 760.264 -7.35707 4.02681 0
M  V30 5610 H 758.57 -9.40912 3.9095 0
M  V30 5611 H 758.38 -8.29056 5.99158 0
M  V30 5612 H 756.75 -8.10073 5.25882 0
M  V30 5613 H 759.389 -6.30324 0.726794 0
M  V30 5614 P 761.247 -8.4349 2.47671 0
M  V30 5615 O 762.669 -8.94167 2.5964 0
M  V30 5616 O 760.887 -7.1704 3.19006 0
M  V30 5617 O 760.924 -8.16596 0.923387 0
M  V30 5618 C 760.764 -9.38437 0.108857 0
M  V30 5619 C 761.304 -9.08175 -1.28353 0
M  V30 5620 O 760.248 -8.44229 -1.84713 0
M  V30 5621 C 762.522 -8.18386 -1.42505 0
M  V30 5622 O 763.26 -8.3501 -2.60497 0
M  V30 5623 C 761.853 -6.80225 -1.25468 0
M  V30 5624 O 762.652 -5.81621 -1.91066 0
M  V30 5625 C 760.516 -7.02416 -1.9168 0
M  V30 5626 H 760.548 -6.6888 -2.96621 0
M  V30 5627 H 761.731 -6.53617 -0.192223 0
M  V30 5628 H 763.215 -8.36622 -0.589963 0
M  V30 5629 H 761.521 -10.0291 -1.79807 0
M  V30 5630 H 761.331 -10.2138 0.558219 0
M  V30 5631 H 759.701 -9.6579 0.0444202 0
M  V30 5632 H 762.34 -5.69556 -2.79637 0
M  V30 5633 P 764.198 -8.4349 -2.47671 0
M  V30 5634 O 765.62 -8.92593 -2.65 0
M  V30 5635 O 763.838 -7.7568 -1.19296 0
M  V30 5636 O 763.875 -7.36886 -3.63805 0
M  V30 5637 C 763.715 -7.95349 -4.982 0
M  V30 5638 C 764.255 -6.94612 -5.98974 0
M  V30 5639 O 763.199 -6.10347 -6.11815 0
M  V30 5640 C 765.473 -6.11426 -5.62335 0
M  V30 5641 O 766.211 -5.6162 -6.70584 0
M  V30 5642 C 764.804 -5.04409 -4.73308 0
M  V30 5643 O 765.603 -3.85992 -4.75183 0
M  V30 5644 C 763.467 -4.8728 -5.41006 0
M  V30 5645 H 763.499 -4.02333 -6.11157 0
M  V30 5646 H 764.682 -5.39466 -3.69543 0
M  V30 5647 H 766.166 -6.71916 -5.01943 0
M  V30 5648 H 764.472 -7.4649 -6.93477 0
M  V30 5649 H 764.282 -8.89416 -5.05237 0
M  V30 5650 H 762.652 -8.14876 -5.18409 0
M  V30 5651 H 765.291 -3.27957 -5.4317 0
M  V30 5652 P 767.148 -5.75688 -6.64379 0
M  V30 5653 O 768.57 -6.07627 -7.05504 0
M  V30 5654 O 766.788 -5.88047 -5.19722 0
M  V30 5655 O 766.825 -4.2322 -7.04443 0
M  V30 5656 C 766.665 -3.99743 -8.4911 0
M  V30 5657 C 767.205 -2.60516 -8.79425 0
M  V30 5658 O 766.149 -1.82684 -8.4467 0
M  V30 5659 C 768.423 -2.10343 -8.03628 0
M  V30 5660 O 769.161 -1.09919 -8.67766 0
M  V30 5661 C 767.754 -1.68446 -6.70876 0
M  V30 5662 O 768.553 -0.678137 -6.08433 0
M  V30 5663 C 766.417 -1.17436 -7.18567 0
M  V30 5664 H 766.449 -0.0804732 -7.31656 0
M  V30 5665 H 767.632 -2.54037 -6.02537 0
M  V30 5666 H 769.116 -2.93881 -7.85526 0
M  V30 5667 H 767.422 -2.53065 -9.86973 0
M  V30 5668 H 767.232 -4.75072 -9.05887 0
M  V30 5669 H 765.602 -4.05244 -8.76668 0
M  V30 5670 H 768.241 0.177647 -6.34251 0
M  V30 5671 P 770.099 -1.25109 -8.70152 0
M  V30 5672 O 771.521 -1.29744 -9.22016 0
M  V30 5673 O 769.739 -2.13714 -7.55141 0
M  V30 5674 O 769.776 0.248149 -8.21425 0
M  V30 5675 C 769.616 1.22779 -9.30434 0
M  V30 5676 C 770.156 2.56293 -8.80664 0
M  V30 5677 O 769.1 3.02979 -8.09349 0
M  V30 5678 C 771.374 2.57523 -7.89775 0
M  V30 5679 O 772.112 3.7668 -7.89438 0
M  V30 5680 C 770.705 2.20997 -6.55446 0
M  V30 5681 O 771.504 2.71895 -5.48509 0
M  V30 5682 C 769.368 2.89693 -6.67988 0
M  V30 5683 H 769.4 3.88793 -6.19859 0
M  V30 5684 H 770.583 1.12046 -6.44229 0
M  V30 5685 H 772.067 1.7746 -8.19711 0
M  V30 5686 H 770.373 3.20706 -9.67112 0
M  V30 5687 H 770.183 0.901032 -10.1892 0
M  V30 5688 H 768.553 1.33049 -9.56592 0
M  V30 5689 H 771.192 3.57847 -5.23962 0
M  V30 5690 P 773.049 3.65191 -7.99657 0
M  V30 5691 O 774.471 3.89332 -8.45794 0
M  V30 5692 O 772.689 2.28472 -7.50807 0
M  V30 5693 O 772.726 4.64972 -6.77611 0
M  V30 5694 C 772.566 6.06319 -7.16352 0
M  V30 5695 C 773.106 6.91731 -6.02299 0
M  V30 5696 O 772.05 6.92449 -5.17064 0
M  V30 5697 C 774.324 6.43627 -5.25174 0
M  V30 5698 O 775.062 7.43686 -4.60469 0
M  V30 5699 C 773.655 5.40275 -4.31916 0
M  V30 5700 O 774.454 5.25279 -3.14438 0
M  V30 5701 C 772.318 6.04847 -4.05327 0
M  V30 5702 H 772.35 6.62195 -3.11261 0
M  V30 5703 H 773.533 4.42556 -4.81383 0
M  V30 5704 H 775.017 5.92458 -5.93643 0
M  V30 5705 H 773.323 7.92655 -6.402 0
M  V30 5706 H 773.133 6.26671 -8.0846 0
M  V30 5707 H 771.503 6.29101 -7.32804 0
M  V30 5708 H 774.142 5.84315 -2.47318 0
M  V30 5709 P 776 7.39546 -4.75277 0
M  V30 5710 O 777.422 7.84798 -5.01039 0
M  V30 5711 O 775.64 5.9812 -5.08098 0
M  V30 5712 O 775.677 7.57503 -3.1866 0
M  V30 5713 C 775.517 8.97357 -2.74833 0
M  V30 5714 C 776.057 9.07548 -1.32709 0
M  V30 5715 O 775.001 8.62072 -0.606159 0
M  V30 5716 C 777.275 8.25383 -0.938334 0
M  V30 5717 O 778.013 8.74577 0.146954 0
M  V30 5718 C 776.606 6.8802 -0.712559 0
M  V30 5719 O 777.405 6.1189 0.194655 0
M  V30 5720 C 775.269 7.27966 -0.139777 0
M  V30 5721 H 775.301 7.25354 0.961601 0
M  V30 5722 H 776.484 6.32557 -1.65702 0
M  V30 5723 H 777.968 8.19355 -1.79097 0
M  V30 5724 H 776.274 10.1294 -1.10029 0
M  V30 5725 H 776.084 9.64276 -3.41316 0
M  V30 5726 H 774.454 9.25417 -2.76357 0
M  V30 5727 H 777.093 6.25267 1.07847 0
M  V30 5728 P 778.95 8.791 5.69499e-12 0
M  V30 5729 O 780.372 9.31296 0.027939 0
M  V30 5730 O 778.59 7.77869 -1.04071 0
M  V30 5731 O 778.627 8.09533 1.41463 0
M  V30 5732 C 778.467 9.0349 2.53943 0
M  V30 5733 C 779.007 8.35135 3.78975 0
M  V30 5734 O 777.952 7.57992 4.15078 0
M  V30 5735 C 780.225 7.45087 3.67298 0
M  V30 5736 O 780.963 7.27796 4.85194 0
M  V30 5737 C 779.557 6.17323 3.12027 0
M  V30 5738 O 780.355 5.04149 3.47132 0
M  V30 5739 C 778.219 6.19961 3.81809 0
M  V30 5740 N 777.176 5.71575 2.93223 0
M  V30 5741 C 777.238 5.97133 1.62693 0
M  V30 5742 N 776.193 5.44066 0.984414 0
M  V30 5743 C 775.459 4.87093 1.93987 0
M  V30 5744 C 774.153 4.26449 1.8738 0
M  V30 5745 O 773.42 4.1089 0.884377 0
M  V30 5746 N 773.723 3.82483 3.08036 0
M  V30 5747 C 774.472 3.95124 4.27727 0
M  V30 5748 N 773.875 3.4084 5.39089 0
M  V30 5749 N 775.625 4.55264 4.3706 0
M  V30 5750 C 776.082 5.00861 3.18217 0
M  V30 5751 H 778.251 5.58218 4.73051 0
M  V30 5752 H 779.434 6.21631 2.02558 0
M  V30 5753 H 780.919 7.85819 2.93096 0
M  V30 5754 H 779.224 9.11627 4.55076 0
M  V30 5755 H 779.034 9.9573 2.34194 0
M  V30 5756 H 777.403 9.2792 2.67832 0
M  V30 5757 H 772.827 3.38323 3.1329 0
M  V30 5758 H 778.034 6.53891 1.14265 0
M  V30 5759 H 772.964 2.93852 5.30559 0
M  V30 5760 H 774.34 3.47631 6.30632 0
M  V30 5761 H 780.044 4.67628 4.28704 0
M  V30 5762 P 781.901 7.39546 4.75277 0
M  V30 5763 O 783.323 7.81777 5.05738 0
M  V30 5764 O 781.541 7.1065 3.32998 0
M  V30 5765 O 781.578 6.04542 5.56673 0
M  V30 5766 C 781.418 6.22772 7.02095 0
M  V30 5767 C 781.958 4.97725 7.70406 0
M  V30 5768 O 780.902 4.13256 7.58987 0
M  V30 5769 C 783.176 4.28231 7.11815 0
M  V30 5770 O 783.914 3.49945 8.01648 0
M  V30 5771 C 782.507 3.5063 5.96244 0
M  V30 5772 O 783.306 2.36482 5.64681 0
M  V30 5773 C 781.17 3.15122 6.56374 0
M  V30 5774 H 781.202 2.13853 6.99751 0
M  V30 5775 H 782.385 4.13501 5.06559 0
M  V30 5776 H 783.869 5.03285 6.70911 0
M  V30 5777 H 782.175 5.20877 8.75697 0
M  V30 5778 H 781.985 7.11046 7.35349 0
M  V30 5779 H 780.355 6.35815 7.26986 0
M  V30 5780 H 782.994 1.61644 6.13565 0
M  V30 5781 P 784.852 3.65191 7.99657 0
M  V30 5782 O 786.274 3.8425 8.48115 0
M  V30 5783 O 784.492 4.17805 6.64342 0
M  V30 5784 O 784.529 2.07613 7.95143 0
M  V30 5785 C 784.369 1.44328 9.27336 0
M  V30 5786 C 784.909 0.0220036 9.17197 0
M  V30 5787 O 783.853 -0.626867 8.61923 0
M  V30 5788 C 786.127 -0.24586 8.30336 0
M  V30 5789 O 786.865 -1.39011 8.63583 0
M  V30 5790 C 785.458 -0.273849 6.91158 0
M  V30 5791 O 786.257 -1.06348 6.02892 0
M  V30 5792 C 784.121 -0.897649 7.22545 0
M  V30 5793 H 784.153 -1.9841 7.04286 0
M  V30 5794 H 785.336 0.739928 6.497 0
M  V30 5795 H 786.82 0.60668 8.36503 0
M  V30 5796 H 785.126 -0.352479 10.1829 0
M  V30 5797 H 784.936 2.00611 10.0304 0
M  V30 5798 H 783.306 1.41843 9.55327 0
M  V30 5799 H 785.945 -1.95734 6.03555 0
M  V30 5800 P 787.802 -1.25109 8.70152 0
M  V30 5801 O 789.224 -1.35303 9.21419 0
M  V30 5802 O 787.442 -0.0769065 7.84762 0
M  V30 5803 O 787.479 -2.55232 7.81161 0
M  V30 5804 C 787.319 -3.79939 8.58154 0
M  V30 5805 C 787.859 -4.93969 7.72701 0
M  V30 5806 O 786.804 -5.18726 6.91205 0
M  V30 5807 C 789.077 -4.69597 6.85231 0
M  V30 5808 O 789.815 -5.83832 6.51337 0
M  V30 5809 C 788.409 -3.96706 5.66633 0
M  V30 5810 O 789.207 -4.15346 4.49615 0
M  V30 5811 C 787.071 -4.66153 5.59313 0
M  V30 5812 N 786.028 -3.71582 5.24027 0
M  V30 5813 C 786.09 -2.46018 5.67902 0
M  V30 5814 N 785.045 -1.74868 5.24518 0
M  V30 5815 C 784.311 -2.61333 4.54528 0
M  V30 5816 C 783.005 -2.46162 3.95441 0
M  V30 5817 O 782.272 -1.46013 3.94122 0
M  V30 5818 N 782.575 -3.59334 3.34752 0
M  V30 5819 C 783.324 -4.79605 3.3023 0
M  V30 5820 N 782.727 -5.82109 2.6065 0
M  V30 5821 N 784.477 -4.97402 3.8843 0
M  V30 5822 C 784.934 -3.86258 4.50476 0
M  V30 5823 H 787.103 -5.47679 4.85214 0
M  V30 5824 H 788.286 -2.88964 5.86476 0
M  V30 5825 H 789.771 -4.01947 7.36109 0
M  V30 5826 H 788.076 -5.80182 8.37584 0
M  V30 5827 H 787.886 -3.73517 9.52265 0
M  V30 5828 H 786.255 -3.97163 8.80359 0
M  V30 5829 H 781.679 -3.5825 2.90294 0
M  V30 5830 H 786.886 -2.06161 6.30974 0
M  V30 5831 H 781.816 -5.66979 2.15354 0
M  V30 5832 H 783.192 -6.73686 2.54344 0
M  V30 5833 H 788.896 -4.90891 4.01857 0
M  V30 5834 P 790.753 -5.75688 6.64379 0
M  V30 5835 O 792.175 -6.11849 7.01846 0
M  V30 5836 O 790.393 -4.30744 6.56026 0
M  V30 5837 O 790.43 -6.37042 5.19165 0
M  V30 5838 C 790.27 -7.83578 5.16515 0
M  V30 5839 C 790.81 -8.33398 3.83019 0
M  V30 5840 O 789.754 -8.10074 3.01034 0
M  V30 5841 C 792.028 -7.65514 3.2257 0
M  V30 5842 O 792.766 -8.4329 2.32297 0
M  V30 5843 C 791.359 -6.40075 2.62207 0
M  V30 5844 O 792.158 -5.92589 1.53712 0
M  V30 5845 C 790.022 -6.9454 2.18503 0
M  V30 5846 H 790.054 -7.23063 1.12091 0
M  V30 5847 H 791.237 -5.6025 3.37201 0
M  V30 5848 H 792.721 -7.35707 4.02681 0
M  V30 5849 H 791.027 -9.40912 3.9095 0
M  V30 5850 H 790.837 -8.29056 5.99158 0
M  V30 5851 H 789.207 -8.10073 5.25882 0
M  V30 5852 H 791.846 -6.30324 0.726794 0
M  V30 5853 P 793.703 -8.4349 2.47671 0
M  V30 5854 O 795.125 -8.94167 2.5964 0
M  V30 5855 O 793.343 -7.1704 3.19006 0
M  V30 5856 O 793.38 -8.16596 0.923387 0
M  V30 5857 C 793.22 -9.38437 0.108857 0
M  V30 5858 C 793.76 -9.08175 -1.28353 0
M  V30 5859 O 792.704 -8.44229 -1.84713 0
M  V30 5860 C 794.978 -8.18386 -1.42505 0
M  V30 5861 O 795.716 -8.3501 -2.60497 0
M  V30 5862 C 794.309 -6.80225 -1.25468 0
M  V30 5863 O 795.108 -5.81621 -1.91066 0
M  V30 5864 C 792.972 -7.02416 -1.9168 0
M  V30 5865 H 793.004 -6.6888 -2.96621 0
M  V30 5866 H 794.187 -6.53617 -0.192223 0
M  V30 5867 H 795.671 -8.36622 -0.589963 0
M  V30 5868 H 793.977 -10.0291 -1.79807 0
M  V30 5869 H 793.787 -10.2138 0.558219 0
M  V30 5870 H 792.157 -9.6579 0.0444202 0
M  V30 5871 H 794.796 -5.69556 -2.79637 0
M  V30 5872 P 796.654 -8.4349 -2.47671 0
M  V30 5873 O 798.076 -8.92593 -2.65 0
M  V30 5874 O 796.294 -7.7568 -1.19296 0
M  V30 5875 O 796.331 -7.36886 -3.63805 0
M  V30 5876 C 796.171 -7.95349 -4.982 0
M  V30 5877 C 796.711 -6.94612 -5.98974 0
M  V30 5878 O 795.655 -6.10347 -6.11815 0
M  V30 5879 C 797.929 -6.11426 -5.62335 0
M  V30 5880 O 798.667 -5.6162 -6.70584 0
M  V30 5881 C 797.26 -5.04409 -4.73308 0
M  V30 5882 O 798.059 -3.85992 -4.75183 0
M  V30 5883 C 795.923 -4.8728 -5.41006 0
M  V30 5884 H 795.955 -4.02333 -6.11157 0
M  V30 5885 H 797.138 -5.39466 -3.69543 0
M  V30 5886 H 798.622 -6.71916 -5.01943 0
M  V30 5887 H 796.928 -7.4649 -6.93477 0
M  V30 5888 H 796.738 -8.89416 -5.05237 0
M  V30 5889 H 795.108 -8.14876 -5.18409 0
M  V30 5890 H 797.747 -3.27957 -5.4317 0
M  V30 5891 P 799.604 -5.75688 -6.64379 0
M  V30 5892 O 801.026 -6.07627 -7.05504 0
M  V30 5893 O 799.244 -5.88047 -5.19722 0
M  V30 5894 O 799.281 -4.2322 -7.04443 0
M  V30 5895 C 799.121 -3.99743 -8.4911 0
M  V30 5896 C 799.661 -2.60516 -8.79425 0
M  V30 5897 O 798.605 -1.82684 -8.4467 0
M  V30 5898 C 800.879 -2.10343 -8.03628 0
M  V30 5899 O 801.617 -1.09919 -8.67766 0
M  V30 5900 C 800.21 -1.68446 -6.70876 0
M  V30 5901 O 801.009 -0.678137 -6.08433 0
M  V30 5902 C 798.873 -1.17436 -7.18567 0
M  V30 5903 H 798.905 -0.0804732 -7.31656 0
M  V30 5904 H 800.088 -2.54037 -6.02537 0
M  V30 5905 H 801.572 -2.93881 -7.85526 0
M  V30 5906 H 799.878 -2.53065 -9.86973 0
M  V30 5907 H 799.688 -4.75072 -9.05887 0
M  V30 5908 H 798.058 -4.05244 -8.76668 0
M  V30 5909 H 800.697 0.177647 -6.34251 0
M  V30 5910 P 802.555 -1.25109 -8.70152 0
M  V30 5911 O 803.977 -1.29744 -9.22016 0
M  V30 5912 O 802.195 -2.13714 -7.55141 0
M  V30 5913 O 802.232 0.248149 -8.21425 0
M  V30 5914 C 802.072 1.22779 -9.30434 0
M  V30 5915 C 802.612 2.56293 -8.80664 0
M  V30 5916 O 801.556 3.02979 -8.09349 0
M  V30 5917 C 803.83 2.57523 -7.89775 0
M  V30 5918 O 804.568 3.7668 -7.89438 0
M  V30 5919 C 803.161 2.20997 -6.55446 0
M  V30 5920 O 803.96 2.71895 -5.48509 0
M  V30 5921 C 801.824 2.89693 -6.67988 0
M  V30 5922 H 801.856 3.88793 -6.19859 0
M  V30 5923 H 803.039 1.12046 -6.44229 0
M  V30 5924 H 804.523 1.7746 -8.19711 0
M  V30 5925 H 802.829 3.20706 -9.67112 0
M  V30 5926 H 802.639 0.901032 -10.1892 0
M  V30 5927 H 801.009 1.33049 -9.56592 0
M  V30 5928 H 803.648 3.57847 -5.23962 0
M  V30 5929 P 805.506 3.65191 -7.99657 0
M  V30 5930 O 806.907 3.87414 -8.52829 0
M  V30 5931 O 805.128 2.26932 -7.566 0
M  V30 5932 O 805.183 4.64915 -6.77529 0
M  V30 5933 C 805.023 6.06319 -7.16352 0
M  V30 5934 C 805.563 6.91655 -6.02234 0
M  V30 5935 O 804.507 6.92369 -5.17005 0
M  V30 5936 C 806.78 6.43627 -5.25174 0
M  V30 5937 O 807.519 7.43686 -4.60469 0
M  V30 5938 C 806.113 5.40275 -4.31916 0
M  V30 5939 O 806.911 5.25193 -3.14386 0
M  V30 5940 C 804.775 6.04847 -4.05327 0
M  V30 5941 N 803.732 5.04166 -3.98114 0
M  V30 5942 C 802.697 5.2366 -3.09923 0
M  V30 5943 O 802.736 6.23355 -2.34204 0
M  V30 5944 N 801.685 4.34279 -3.05727 0
M  V30 5945 C 801.733 3.26317 -3.84756 0
M  V30 5946 N 800.723 2.40281 -3.79534 0
M  V30 5947 C 802.829 3.02504 -4.72573 0
M  V30 5948 C 803.795 3.94493 -4.76618 0
M  V30 5949 H 804.807 6.62104 -3.11218 0
M  V30 5950 H 805.99 4.42969 -4.80867 0
M  V30 5951 H 807.474 5.93122 -5.93121 0
M  V30 5952 H 805.78 7.93295 -6.39407 0
M  V30 5953 H 805.589 6.26671 -8.0846 0
M  V30 5954 H 803.959 6.29036 -7.32728 0
M  V30 5955 H 802.877 2.12921 -5.34017 0
M  V30 5956 H 804.641 3.80658 -5.44176 0
M  V30 5957 H 799.933 2.57561 -3.15653 0
M  V30 5958 H 800.728 1.56492 -4.39044 0
M  V30 5959 H 806.695 5.93572 -2.52637 0
M  V30 5960 P 808.456 7.39546 -4.75277 0
M  V30 5961 O 809.878 7.84798 -5.01039 0
M  V30 5962 O 808.096 5.9812 -5.08098 0
M  V30 5963 O 808.133 7.57503 -3.1866 0
M  V30 5964 C 807.973 8.97357 -2.74833 0
M  V30 5965 C 808.513 9.07548 -1.32709 0
M  V30 5966 O 807.457 8.62072 -0.606159 0
M  V30 5967 C 809.731 8.25383 -0.938334 0
M  V30 5968 O 810.469 8.74577 0.146954 0
M  V30 5969 C 809.062 6.8802 -0.712559 0
M  V30 5970 O 809.861 6.1189 0.194655 0
M  V30 5971 C 807.725 7.27966 -0.139777 0
M  V30 5972 H 807.757 7.25354 0.961601 0
M  V30 5973 H 808.94 6.32557 -1.65702 0
M  V30 5974 H 810.424 8.19355 -1.79097 0
M  V30 5975 H 808.73 10.1294 -1.10029 0
M  V30 5976 H 808.54 9.64276 -3.41316 0
M  V30 5977 H 806.91 9.25417 -2.76357 0
M  V30 5978 H 809.549 6.25267 1.07847 0
M  V30 5979 P 811.407 8.791 6.00516e-12 0
M  V30 5980 O 812.829 9.31296 0.027939 0
M  V30 5981 O 811.047 7.77869 -1.04071 0
M  V30 5982 O 811.084 8.09533 1.41463 0
M  V30 5983 C 810.924 9.0349 2.53943 0
M  V30 5984 C 811.464 8.35135 3.78975 0
M  V30 5985 O 810.409 7.57992 4.15078 0
M  V30 5986 C 812.682 7.45087 3.67298 0
M  V30 5987 O 813.42 7.27796 4.85194 0
M  V30 5988 C 812.014 6.17323 3.12027 0
M  V30 5989 O 812.812 5.04149 3.47132 0
M  V30 5990 C 810.676 6.19961 3.81809 0
M  V30 5991 N 809.633 5.71575 2.93223 0
M  V30 5992 C 809.695 5.97133 1.62693 0
M  V30 5993 N 808.65 5.44066 0.984414 0
M  V30 5994 C 807.916 4.87093 1.93987 0
M  V30 5995 C 806.61 4.26449 1.8738 0
M  V30 5996 O 805.877 4.1089 0.884377 0
M  V30 5997 N 806.18 3.82483 3.08036 0
M  V30 5998 C 806.929 3.95124 4.27727 0
M  V30 5999 N 806.332 3.4084 5.39089 0
M  V30 6000 N 808.082 4.55264 4.3706 0
M  V30 6001 C 808.539 5.00861 3.18217 0
M  V30 6002 H 810.708 5.58218 4.73051 0
M  V30 6003 H 811.891 6.21631 2.02558 0
M  V30 6004 H 813.376 7.85819 2.93096 0
M  V30 6005 H 811.681 9.11627 4.55076 0
M  V30 6006 H 811.491 9.9573 2.34194 0
M  V30 6007 H 809.86 9.2792 2.67832 0
M  V30 6008 H 805.284 3.38323 3.1329 0
M  V30 6009 H 810.491 6.53891 1.14265 0
M  V30 6010 H 805.421 2.93852 5.30559 0
M  V30 6011 H 806.797 3.47631 6.30632 0
M  V30 6012 H 812.501 4.67628 4.28704 0
M  V30 6013 P 814.357 7.39546 4.75277 0
M  V30 6014 O 815.779 7.81777 5.05738 0
M  V30 6015 O 813.997 7.1065 3.32998 0
M  V30 6016 O 814.034 6.04542 5.56673 0
M  V30 6017 C 813.874 6.22772 7.02095 0
M  V30 6018 C 814.414 4.97725 7.70406 0
M  V30 6019 O 813.358 4.13256 7.58987 0
M  V30 6020 C 815.632 4.28231 7.11815 0
M  V30 6021 O 816.37 3.49945 8.01648 0
M  V30 6022 C 814.963 3.5063 5.96244 0
M  V30 6023 O 815.762 2.36482 5.64681 0
M  V30 6024 C 813.626 3.15122 6.56374 0
M  V30 6025 H 813.658 2.13853 6.99751 0
M  V30 6026 H 814.841 4.13501 5.06559 0
M  V30 6027 H 816.325 5.03285 6.70911 0
M  V30 6028 H 814.631 5.20877 8.75697 0
M  V30 6029 H 814.441 7.11046 7.35349 0
M  V30 6030 H 812.811 6.35815 7.26986 0
M  V30 6031 H 815.45 1.61644 6.13565 0
M  V30 6032 P 817.308 3.65191 7.99657 0
M  V30 6033 O 818.73 3.8425 8.48115 0
M  V30 6034 O 816.948 4.17805 6.64342 0
M  V30 6035 O 816.985 2.07613 7.95143 0
M  V30 6036 C 816.825 1.44328 9.27336 0
M  V30 6037 C 817.365 0.0220036 9.17197 0
M  V30 6038 O 816.309 -0.626867 8.61923 0
M  V30 6039 C 818.583 -0.24586 8.30336 0
M  V30 6040 O 819.321 -1.39011 8.63583 0
M  V30 6041 C 817.914 -0.273849 6.91158 0
M  V30 6042 O 818.713 -1.06348 6.02892 0
M  V30 6043 C 816.577 -0.897649 7.22545 0
M  V30 6044 H 816.609 -1.9841 7.04286 0
M  V30 6045 H 817.792 0.739928 6.497 0
M  V30 6046 H 819.276 0.60668 8.36503 0
M  V30 6047 H 817.582 -0.352479 10.1829 0
M  V30 6048 H 817.392 2.00611 10.0304 0
M  V30 6049 H 815.762 1.41843 9.55327 0
M  V30 6050 H 818.401 -1.95734 6.03555 0
M  V30 6051 P 820.258 -1.25109 8.70152 0
M  V30 6052 O 821.68 -1.35274 9.21221 0
M  V30 6053 O 819.898 -0.0769065 7.84762 0
M  V30 6054 O 819.935 -2.55232 7.81161 0
M  V30 6055 C 819.775 -3.79939 8.58154 0
M  V30 6056 C 820.315 -4.94023 7.72785 0
M  V30 6057 O 819.259 -5.18726 6.91205 0
M  V30 6058 C 821.533 -4.69597 6.85231 0
M  V30 6059 O 822.271 -5.83832 6.51337 0
M  V30 6060 C 820.864 -3.96706 5.66633 0
M  V30 6061 O 821.663 -4.15414 4.49689 0
M  V30 6062 C 819.527 -4.66153 5.59313 0
M  V30 6063 H 819.559 -5.47679 4.85214 0
M  V30 6064 H 820.742 -2.89008 5.86566 0
M  V30 6065 H 822.226 -4.0121 7.36511 0
M  V30 6066 H 820.532 -5.80182 8.37584 0
M  V30 6067 H 820.342 -3.73517 9.52265 0
M  V30 6068 H 818.712 -3.97163 8.80359 0
M  V30 6069 H 821.351 -4.90969 4.01921 0
M  V30 6070 P 823.209 -5.75688 6.64379 0
M  V30 6071 O 824.631 -6.11849 7.01846 0
M  V30 6072 O 822.849 -4.30744 6.56026 0
M  V30 6073 O 822.886 -6.37042 5.19165 0
M  V30 6074 C 822.726 -7.83578 5.16515 0
M  V30 6075 C 823.266 -8.33398 3.83019 0
M  V30 6076 O 822.21 -8.10074 3.01034 0
M  V30 6077 C 824.484 -7.65514 3.2257 0
M  V30 6078 O 825.222 -8.4329 2.32297 0
M  V30 6079 C 823.815 -6.40075 2.62207 0
M  V30 6080 O 824.614 -5.92589 1.53712 0
M  V30 6081 C 822.478 -6.9454 2.18503 0
M  V30 6082 H 822.51 -7.23063 1.12091 0
M  V30 6083 H 823.693 -5.6025 3.37201 0
M  V30 6084 H 825.177 -7.35707 4.02681 0
M  V30 6085 H 823.483 -9.40912 3.9095 0
M  V30 6086 H 823.293 -8.29056 5.99158 0
M  V30 6087 H 821.663 -8.10073 5.25882 0
M  V30 6088 H 824.302 -6.30324 0.726794 0
M  V30 6089 P 826.16 -8.4349 2.47671 0
M  V30 6090 O 827.582 -8.94167 2.5964 0
M  V30 6091 O 825.8 -7.1704 3.19006 0
M  V30 6092 O 825.837 -8.16596 0.923387 0
M  V30 6093 C 825.677 -9.38437 0.108857 0
M  V30 6094 C 826.217 -9.08175 -1.28353 0
M  V30 6095 O 825.161 -8.44229 -1.84713 0
M  V30 6096 C 827.435 -8.18386 -1.42505 0
M  V30 6097 O 828.173 -8.3501 -2.60497 0
M  V30 6098 C 826.766 -6.80225 -1.25468 0
M  V30 6099 O 827.565 -5.81621 -1.91066 0
M  V30 6100 C 825.429 -7.02416 -1.9168 0
M  V30 6101 H 825.461 -6.6888 -2.96621 0
M  V30 6102 H 826.644 -6.53617 -0.192223 0
M  V30 6103 H 828.128 -8.36622 -0.589963 0
M  V30 6104 H 826.434 -10.0291 -1.79807 0
M  V30 6105 H 826.244 -10.2138 0.558219 0
M  V30 6106 H 824.614 -9.6579 0.0444202 0
M  V30 6107 H 827.253 -5.69556 -2.79637 0
M  V30 6108 P 829.11 -8.4349 -2.47671 0
M  V30 6109 O 830.531 -8.92689 -2.65029 0
M  V30 6110 O 828.75 -7.7568 -1.19296 0
M  V30 6111 O 828.787 -7.36886 -3.63805 0
M  V30 6112 C 828.626 -7.95433 -4.98253 0
M  V30 6113 C 829.167 -6.94612 -5.98974 0
M  V30 6114 O 828.112 -6.10277 -6.11744 0
M  V30 6115 C 830.385 -6.11426 -5.62335 0
M  V30 6116 O 831.123 -5.6162 -6.70584 0
M  V30 6117 C 829.717 -5.04409 -4.73308 0
M  V30 6118 O 830.515 -3.86404 -4.74719 0
M  V30 6119 C 828.379 -4.8728 -5.41006 0
M  V30 6120 N 827.336 -4.65812 -4.42377 0
M  V30 6121 C 827.505 -5.09132 -3.15382 0
M  V30 6122 N 826.478 -4.84021 -2.3716 0
M  V30 6123 C 825.593 -4.18386 -3.20441 0
M  V30 6124 C 824.326 -3.6275 -2.94905 0
M  V30 6125 N 823.727 -3.65794 -1.73372 0
M  V30 6126 N 823.761 -3.05008 -4.05243 0
M  V30 6127 C 824.363 -2.98348 -5.28159 0
M  V30 6128 N 825.54 -3.48171 -5.56333 0
M  V30 6129 C 826.115 -4.06869 -4.47212 0
M  V30 6130 H 828.411 -4.02278 -6.11074 0
M  V30 6131 H 829.594 -5.39013 -3.70026 0
M  V30 6132 H 831.077 -6.71916 -5.01943 0
M  V30 6133 H 829.383 -7.45796 -6.94223 0
M  V30 6134 H 829.193 -8.89416 -5.05237 0
M  V30 6135 H 827.563 -8.14876 -5.18409 0
M  V30 6136 H 823.827 -2.47853 -6.07807 0
M  V30 6137 H 828.405 -5.59989 -2.81362 0
M  V30 6138 H 822.797 -3.23218 -1.60782 0
M  V30 6139 H 824.201 -4.10523 -0.937856 0
M  V30 6140 H 830.203 -3.27906 -5.43085 0
M  V30 6141 P 832.061 -5.75688 -6.64379 0
M  V30 6142 O 833.483 -6.07627 -7.05504 0
M  V30 6143 O 831.701 -5.88047 -5.19722 0
M  V30 6144 O 831.738 -4.2322 -7.04443 0
M  V30 6145 C 831.578 -3.99743 -8.4911 0
M  V30 6146 C 832.118 -2.60516 -8.79425 0
M  V30 6147 O 831.062 -1.82684 -8.4467 0
M  V30 6148 C 833.336 -2.10343 -8.03628 0
M  V30 6149 O 834.074 -1.09919 -8.67766 0
M  V30 6150 C 832.667 -1.68446 -6.70876 0
M  V30 6151 O 833.466 -0.678137 -6.08433 0
M  V30 6152 C 831.33 -1.17436 -7.18567 0
M  V30 6153 H 831.362 -0.0804732 -7.31656 0
M  V30 6154 H 832.545 -2.54037 -6.02537 0
M  V30 6155 H 834.029 -2.93881 -7.85526 0
M  V30 6156 H 832.335 -2.53065 -9.86973 0
M  V30 6157 H 832.145 -4.75072 -9.05887 0
M  V30 6158 H 830.515 -4.05244 -8.76668 0
M  V30 6159 H 833.154 0.177647 -6.34251 0
M  V30 6160 P 835.011 -1.25109 -8.70152 0
M  V30 6161 O 836.433 -1.29744 -9.22016 0
M  V30 6162 O 834.651 -2.13714 -7.55141 0
M  V30 6163 O 834.688 0.248149 -8.21425 0
M  V30 6164 C 834.528 1.22779 -9.30434 0
M  V30 6165 C 835.068 2.56293 -8.80664 0
M  V30 6166 O 834.012 3.02979 -8.09349 0
M  V30 6167 C 836.286 2.57523 -7.89775 0
M  V30 6168 O 837.024 3.7668 -7.89438 0
M  V30 6169 C 835.617 2.20997 -6.55446 0
M  V30 6170 O 836.416 2.71895 -5.48509 0
M  V30 6171 C 834.28 2.89693 -6.67988 0
M  V30 6172 H 834.312 3.88793 -6.19859 0
M  V30 6173 H 835.495 1.12046 -6.44229 0
M  V30 6174 H 836.979 1.7746 -8.19711 0
M  V30 6175 H 835.285 3.20706 -9.67112 0
M  V30 6176 H 835.095 0.901032 -10.1892 0
M  V30 6177 H 833.465 1.33049 -9.56592 0
M  V30 6178 H 836.104 3.57847 -5.23962 0
M  V30 6179 P 837.962 3.65191 -7.99657 0
M  V30 6180 O 839.383 3.89374 -8.45885 0
M  V30 6181 O 837.602 2.28472 -7.50807 0
M  V30 6182 O 837.639 4.64972 -6.77611 0
M  V30 6183 C 837.478 6.06383 -7.16428 0
M  V30 6184 C 838.019 6.91731 -6.02299 0
M  V30 6185 O 836.964 6.92369 -5.17005 0
M  V30 6186 C 839.237 6.43627 -5.25174 0
M  V30 6187 O 839.975 7.43686 -4.60469 0
M  V30 6188 C 838.569 5.40275 -4.31916 0
M  V30 6189 O 839.367 5.24878 -3.14911 0
M  V30 6190 C 837.231 6.04847 -4.05327 0
M  V30 6191 N 836.188 5.04166 -3.98114 0
M  V30 6192 C 836.357 3.84629 -4.59066 0
M  V30 6193 N 835.33 3.0363 -4.45343 0
M  V30 6194 C 834.445 3.76722 -3.68523 0
M  V30 6195 C 833.178 3.43528 -3.17088 0
M  V30 6196 N 832.579 2.23665 -3.37397 0
M  V30 6197 N 832.613 4.44526 -2.44231 0
M  V30 6198 C 833.215 5.65243 -2.20146 0
M  V30 6199 N 834.392 6.00221 -2.65453 0
M  V30 6200 C 834.967 5.00564 -3.39083 0
M  V30 6201 H 837.263 6.62104 -3.11218 0
M  V30 6202 H 838.446 4.42969 -4.80867 0
M  V30 6203 H 839.929 5.92458 -5.93643 0
M  V30 6204 H 838.235 7.93295 -6.39407 0
M  V30 6205 H 838.045 6.26671 -8.0846 0
M  V30 6206 H 836.415 6.29101 -7.32804 0
M  V30 6207 H 832.679 6.36894 -1.5883 0
M  V30 6208 H 837.257 3.58193 -5.14248 0
M  V30 6209 H 831.649 2.05145 -2.97047 0
M  V30 6210 H 833.053 1.51255 -3.92998 0
M  V30 6211 H 839.055 5.84223 -2.47279 0
M  V30 6212 P 840.912 7.39546 -4.75277 0
M  V30 6213 O 842.333 7.84882 -5.01092 0
M  V30 6214 O 840.552 5.9812 -5.08098 0
M  V30 6215 O 840.589 7.57503 -3.1866 0
M  V30 6216 C 840.428 8.97452 -2.74862 0
M  V30 6217 C 840.969 9.07548 -1.32709 0
M  V30 6218 O 839.914 8.61972 -0.606089 0
M  V30 6219 C 842.187 8.25383 -0.938334 0
M  V30 6220 O 842.925 8.74577 0.146954 0
M  V30 6221 C 841.519 6.8802 -0.712559 0
M  V30 6222 O 842.317 6.1181 0.188505 0
M  V30 6223 C 840.181 7.27966 -0.139777 0
M  V30 6224 N 839.138 6.39368 -0.623421 0
M  V30 6225 C 839.307 5.71761 -1.78245 0
M  V30 6226 N 838.28 4.962 -2.10491 0
M  V30 6227 C 837.395 5.16158 -1.0635 0
M  V30 6228 C 836.128 4.60425 -0.810266 0
M  V30 6229 N 835.529 3.7057 -1.62914 0
M  V30 6230 N 835.563 5.06 0.348685 0
M  V30 6231 C 836.165 5.94532 1.20395 0
M  V30 6232 N 837.342 6.48452 1.01191 0
M  V30 6233 C 837.917 6.04423 -0.146291 0
M  V30 6234 H 840.213 7.25255 0.961469 0
M  V30 6235 H 841.396 6.32625 -1.65044 0
M  V30 6236 H 842.879 8.19355 -1.79097 0
M  V30 6237 H 841.185 10.1305 -1.09016 0
M  V30 6238 H 840.995 9.64276 -3.41316 0
M  V30 6239 H 839.365 9.25417 -2.76357 0
M  V30 6240 H 835.629 6.21659 2.10714 0
M  V30 6241 H 840.207 5.79354 -2.38959 0
M  V30 6242 H 834.599 3.33174 -1.38982 0
M  V30 6243 H 836.003 3.39714 -2.48836 0
M  V30 6244 H 842.005 6.25169 1.0783 0
M  V30 6245 P 843.863 8.791 6.31533e-12 0
M  V30 6246 O 845.285 9.31096 0.027933 0
M  V30 6247 O 843.503 7.77869 -1.04071 0
M  V30 6248 O 843.54 8.09533 1.41463 0
M  V30 6249 C 843.38 9.0349 2.53943 0
M  V30 6250 C 843.92 8.35226 3.79016 0
M  V30 6251 O 842.864 7.57992 4.15078 0
M  V30 6252 C 845.138 7.45087 3.67298 0
M  V30 6253 O 845.876 7.27796 4.85194 0
M  V30 6254 C 844.469 6.17323 3.12027 0
M  V30 6255 O 845.268 5.04231 3.47188 0
M  V30 6256 C 843.132 6.19961 3.81809 0
M  V30 6257 H 843.164 5.58218 4.73051 0
M  V30 6258 H 844.347 6.21726 2.02589 0
M  V30 6259 H 845.831 7.86112 2.9231 0
M  V30 6260 H 844.137 9.11627 4.55076 0
M  V30 6261 H 843.947 9.9573 2.34194 0
M  V30 6262 H 842.317 9.2792 2.67832 0
M  V30 6263 H 844.956 4.67702 4.28772 0
M  V30 6264 P 846.814 7.39546 4.75277 0
M  V30 6265 O 848.236 7.81777 5.05738 0
M  V30 6266 O 846.454 7.1065 3.32998 0
M  V30 6267 O 846.491 6.04542 5.56673 0
M  V30 6268 C 846.331 6.22772 7.02095 0
M  V30 6269 C 846.871 4.97725 7.70406 0
M  V30 6270 O 845.815 4.13256 7.58987 0
M  V30 6271 C 848.089 4.28231 7.11815 0
M  V30 6272 O 848.827 3.49945 8.01648 0
M  V30 6273 C 847.42 3.5063 5.96244 0
M  V30 6274 O 848.219 2.36482 5.64681 0
M  V30 6275 C 846.083 3.15122 6.56374 0
M  V30 6276 H 846.115 2.13853 6.99751 0
M  V30 6277 H 847.298 4.13501 5.06559 0
M  V30 6278 H 848.782 5.03285 6.70911 0
M  V30 6279 H 847.088 5.20877 8.75697 0
M  V30 6280 H 846.898 7.11046 7.35349 0
M  V30 6281 H 845.268 6.35815 7.26986 0
M  V30 6282 H 847.907 1.61644 6.13565 0
M  V30 6283 P 849.764 3.65191 7.99657 0
M  V30 6284 O 851.186 3.8425 8.48115 0
M  V30 6285 O 849.404 4.17805 6.64342 0
M  V30 6286 O 849.441 2.07613 7.95143 0
M  V30 6287 C 849.281 1.44328 9.27336 0
M  V30 6288 C 849.821 0.0220036 9.17197 0
M  V30 6289 O 848.765 -0.626867 8.61923 0
M  V30 6290 C 851.039 -0.24586 8.30336 0
M  V30 6291 O 851.777 -1.39011 8.63583 0
M  V30 6292 C 850.37 -0.273849 6.91158 0
M  V30 6293 O 851.169 -1.06348 6.02892 0
M  V30 6294 C 849.033 -0.897649 7.22545 0
M  V30 6295 H 849.065 -1.9841 7.04286 0
M  V30 6296 H 850.248 0.739928 6.497 0
M  V30 6297 H 851.732 0.60668 8.36503 0
M  V30 6298 H 850.038 -0.352479 10.1829 0
M  V30 6299 H 849.848 2.00611 10.0304 0
M  V30 6300 H 848.218 1.41843 9.55327 0
M  V30 6301 H 850.857 -1.95734 6.03555 0
M  V30 6302 P 852.715 -1.25109 8.70152 0
M  V30 6303 O 854.137 -1.35274 9.21221 0
M  V30 6304 O 852.355 -0.0769065 7.84762 0
M  V30 6305 O 852.392 -2.55232 7.81161 0
M  V30 6306 C 852.232 -3.79939 8.58154 0
M  V30 6307 C 852.772 -4.94023 7.72785 0
M  V30 6308 O 851.716 -5.18726 6.91205 0
M  V30 6309 C 853.99 -4.69597 6.85231 0
M  V30 6310 O 854.728 -5.83832 6.51337 0
M  V30 6311 C 853.321 -3.96706 5.66633 0
M  V30 6312 O 854.12 -4.15414 4.49689 0
M  V30 6313 C 851.984 -4.66153 5.59313 0
M  V30 6314 H 852.016 -5.47679 4.85214 0
M  V30 6315 H 853.199 -2.89008 5.86566 0
M  V30 6316 H 854.683 -4.0121 7.36511 0
M  V30 6317 H 852.989 -5.80182 8.37584 0
M  V30 6318 H 852.799 -3.73517 9.52265 0
M  V30 6319 H 851.169 -3.97163 8.80359 0
M  V30 6320 H 853.808 -4.90969 4.01921 0
M  V30 6321 P 855.665 -5.75688 6.64379 0
M  V30 6322 O 857.087 -6.11849 7.01846 0
M  V30 6323 O 855.305 -4.30744 6.56026 0
M  V30 6324 O 855.342 -6.37042 5.19165 0
M  V30 6325 C 855.182 -7.83578 5.16515 0
M  V30 6326 C 855.722 -8.33398 3.83019 0
M  V30 6327 O 854.666 -8.10074 3.01034 0
M  V30 6328 C 856.94 -7.65514 3.2257 0
M  V30 6329 O 857.678 -8.4329 2.32297 0
M  V30 6330 C 856.271 -6.40075 2.62207 0
M  V30 6331 O 857.07 -5.92589 1.53712 0
M  V30 6332 C 854.934 -6.9454 2.18503 0
M  V30 6333 H 854.966 -7.23063 1.12091 0
M  V30 6334 H 856.149 -5.6025 3.37201 0
M  V30 6335 H 857.633 -7.35707 4.02681 0
M  V30 6336 H 855.939 -9.40912 3.9095 0
M  V30 6337 H 855.749 -8.29056 5.99158 0
M  V30 6338 H 854.119 -8.10073 5.25882 0
M  V30 6339 H 856.758 -6.30324 0.726794 0
M  V30 6340 P 858.616 -8.4349 2.47671 0
M  V30 6341 O 860.038 -8.94167 2.5964 0
M  V30 6342 O 858.256 -7.1704 3.19006 0
M  V30 6343 O 858.293 -8.16596 0.923387 0
M  V30 6344 C 858.133 -9.38437 0.108857 0
M  V30 6345 C 858.673 -9.08175 -1.28353 0
M  V30 6346 O 857.617 -8.44229 -1.84713 0
M  V30 6347 C 859.891 -8.18386 -1.42505 0
M  V30 6348 O 860.629 -8.3501 -2.60497 0
M  V30 6349 C 859.222 -6.80225 -1.25468 0
M  V30 6350 O 860.021 -5.81621 -1.91066 0
M  V30 6351 C 857.885 -7.02416 -1.9168 0
M  V30 6352 H 857.917 -6.6888 -2.96621 0
M  V30 6353 H 859.1 -6.53617 -0.192223 0
M  V30 6354 H 860.584 -8.36622 -0.589963 0
M  V30 6355 H 858.89 -10.0291 -1.79807 0
M  V30 6356 H 858.7 -10.2138 0.558219 0
M  V30 6357 H 857.07 -9.6579 0.0444202 0
M  V30 6358 H 859.709 -5.69556 -2.79637 0
M  V30 6359 P 861.566 -8.4349 -2.47671 0
M  V30 6360 O 862.988 -8.92593 -2.65 0
M  V30 6361 O 861.206 -7.7568 -1.19296 0
M  V30 6362 O 861.243 -7.36886 -3.63805 0
M  V30 6363 C 861.083 -7.95349 -4.982 0
M  V30 6364 C 861.623 -6.94612 -5.98974 0
M  V30 6365 O 860.567 -6.10347 -6.11815 0
M  V30 6366 C 862.841 -6.11426 -5.62335 0
M  V30 6367 O 863.579 -5.6162 -6.70584 0
M  V30 6368 C 862.172 -5.04409 -4.73308 0
M  V30 6369 O 862.971 -3.85992 -4.75183 0
M  V30 6370 C 860.835 -4.8728 -5.41006 0
M  V30 6371 H 860.867 -4.02333 -6.11157 0
M  V30 6372 H 862.05 -5.39466 -3.69543 0
M  V30 6373 H 863.534 -6.71916 -5.01943 0
M  V30 6374 H 861.84 -7.4649 -6.93477 0
M  V30 6375 H 861.65 -8.89416 -5.05237 0
M  V30 6376 H 860.02 -8.14876 -5.18409 0
M  V30 6377 H 862.659 -3.27957 -5.4317 0
M  V30 6378 P 864.517 -5.75688 -6.64379 0
M  V30 6379 O 865.939 -6.07627 -7.05504 0
M  V30 6380 O 864.157 -5.88047 -5.19722 0
M  V30 6381 O 864.194 -4.2322 -7.04443 0
M  V30 6382 C 864.034 -3.99743 -8.4911 0
M  V30 6383 C 864.574 -2.60516 -8.79425 0
M  V30 6384 O 863.518 -1.82684 -8.4467 0
M  V30 6385 C 865.792 -2.10343 -8.03628 0
M  V30 6386 O 866.53 -1.09919 -8.67766 0
M  V30 6387 C 865.123 -1.68446 -6.70876 0
M  V30 6388 O 865.922 -0.678137 -6.08433 0
M  V30 6389 C 863.786 -1.17436 -7.18567 0
M  V30 6390 H 863.818 -0.0804732 -7.31656 0
M  V30 6391 H 865.001 -2.54037 -6.02537 0
M  V30 6392 H 866.485 -2.93881 -7.85526 0
M  V30 6393 H 864.791 -2.53065 -9.86973 0
M  V30 6394 H 864.601 -4.75072 -9.05887 0
M  V30 6395 H 862.971 -4.05244 -8.76668 0
M  V30 6396 H 865.61 0.177647 -6.34251 0
M  V30 6397 P 867.468 -1.25109 -8.70152 0
M  V30 6398 O 868.89 -1.29744 -9.22016 0
M  V30 6399 O 867.108 -2.13714 -7.55141 0
M  V30 6400 O 867.145 0.248149 -8.21425 0
M  V30 6401 C 866.985 1.22779 -9.30434 0
M  V30 6402 C 867.525 2.56293 -8.80664 0
M  V30 6403 O 866.469 3.02979 -8.09349 0
M  V30 6404 C 868.743 2.57523 -7.89775 0
M  V30 6405 O 869.481 3.7668 -7.89438 0
M  V30 6406 C 868.074 2.20997 -6.55446 0
M  V30 6407 O 868.873 2.71895 -5.48509 0
M  V30 6408 C 866.737 2.89693 -6.67988 0
M  V30 6409 H 866.769 3.88793 -6.19859 0
M  V30 6410 H 867.952 1.12046 -6.44229 0
M  V30 6411 H 869.436 1.7746 -8.19711 0
M  V30 6412 H 867.742 3.20706 -9.67112 0
M  V30 6413 H 867.552 0.901032 -10.1892 0
M  V30 6414 H 865.922 1.33049 -9.56592 0
M  V30 6415 H 868.561 3.57847 -5.23962 0
M  V30 6416 P 870.418 3.65191 -7.99657 0
M  V30 6417 O 871.84 3.89332 -8.45794 0
M  V30 6418 O 870.058 2.28472 -7.50807 0
M  V30 6419 O 870.095 4.64972 -6.77611 0
M  V30 6420 C 869.935 6.06319 -7.16352 0
M  V30 6421 C 870.475 6.91731 -6.02299 0
M  V30 6422 O 869.419 6.92449 -5.17064 0
M  V30 6423 C 871.693 6.43627 -5.25174 0
M  V30 6424 O 872.431 7.43686 -4.60469 0
M  V30 6425 C 871.024 5.40275 -4.31916 0
M  V30 6426 O 871.823 5.25279 -3.14438 0
M  V30 6427 C 869.687 6.04847 -4.05327 0
M  V30 6428 H 869.719 6.62195 -3.11261 0
M  V30 6429 H 870.902 4.42556 -4.81383 0
M  V30 6430 H 872.386 5.92458 -5.93643 0
M  V30 6431 H 870.692 7.92655 -6.402 0
M  V30 6432 H 870.502 6.26671 -8.0846 0
M  V30 6433 H 868.872 6.29101 -7.32804 0
M  V30 6434 H 871.511 5.84315 -2.47318 0
M  V30 6435 P 873.369 7.39546 -4.75277 0
M  V30 6436 O 874.791 7.84798 -5.01039 0
M  V30 6437 O 873.009 5.9812 -5.08098 0
M  V30 6438 O 873.046 7.57503 -3.1866 0
M  V30 6439 C 872.886 8.97357 -2.74833 0
M  V30 6440 C 873.426 9.07548 -1.32709 0
M  V30 6441 O 872.37 8.62072 -0.606159 0
M  V30 6442 C 874.644 8.25383 -0.938334 0
M  V30 6443 O 875.382 8.74577 0.146954 0
M  V30 6444 C 873.975 6.8802 -0.712559 0
M  V30 6445 O 874.774 6.1189 0.194655 0
M  V30 6446 C 872.638 7.27966 -0.139777 0
M  V30 6447 H 872.67 7.25354 0.961601 0
M  V30 6448 H 873.853 6.32557 -1.65702 0
M  V30 6449 H 875.337 8.19355 -1.79097 0
M  V30 6450 H 873.643 10.1294 -1.10029 0
M  V30 6451 H 873.453 9.64276 -3.41316 0
M  V30 6452 H 871.823 9.25417 -2.76357 0
M  V30 6453 H 874.462 6.25267 1.07847 0
M  V30 6454 P 876.319 8.791 6.62549e-12 0
M  V30 6455 O 877.74 9.31196 0.027936 0
M  V30 6456 O 875.959 7.77869 -1.04071 0
M  V30 6457 O 875.996 8.09533 1.41463 0
M  V30 6458 C 875.835 9.03587 2.5397 0
M  V30 6459 C 876.376 8.35226 3.79016 0
M  V30 6460 O 875.321 7.57904 4.1503 0
M  V30 6461 C 877.594 7.45087 3.67298 0
M  V30 6462 O 878.332 7.27796 4.85194 0
M  V30 6463 C 876.926 6.17323 3.12027 0
M  V30 6464 O 877.724 5.04496 3.46627 0
M  V30 6465 C 875.588 6.19961 3.81809 0
M  V30 6466 N 874.545 5.71575 2.93223 0
M  V30 6467 C 874.714 5.77362 1.59168 0
M  V30 6468 N 873.687 5.3123 0.911893 0
M  V30 6469 C 872.802 4.91717 1.89588 0
M  V30 6470 C 871.535 4.3114 1.8076 0
M  V30 6471 N 870.97 4.06823 3.02898 0
M  V30 6472 C 871.572 4.35062 4.22711 0
M  V30 6473 N 872.749 4.90805 4.35707 0
M  V30 6474 C 873.324 5.16382 3.14469 0
M  V30 6475 H 876.803 6.21428 2.0318 0
M  V30 6476 H 878.286 7.86112 2.9231 0
M  V30 6477 H 876.592 9.11171 4.55987 0
M  V30 6478 H 876.402 9.9573 2.34194 0
M  V30 6479 H 874.772 9.2792 2.67832 0
M  V30 6480 H 875.614 6.16575 1.12198 0
M  V30 6481 H 877.412 4.67628 4.28704 0
M  V30 6482 P 879.27 7.39546 4.75277 0
M  V30 6483 O 880.692 7.81777 5.05738 0
M  V30 6484 O 878.91 7.1065 3.32998 0
M  V30 6485 O 878.947 6.04542 5.56673 0
M  V30 6486 C 878.787 6.22772 7.02095 0
M  V30 6487 C 879.327 4.97725 7.70406 0
M  V30 6488 O 878.271 4.13256 7.58987 0
M  V30 6489 C 880.545 4.28231 7.11815 0
M  V30 6490 O 881.283 3.49945 8.01648 0
M  V30 6491 C 879.876 3.5063 5.96244 0
M  V30 6492 O 880.675 2.36482 5.64681 0
M  V30 6493 C 878.539 3.15122 6.56374 0
M  V30 6494 H 878.571 2.13853 6.99751 0
M  V30 6495 H 879.754 4.13501 5.06559 0
M  V30 6496 H 881.238 5.03285 6.70911 0
M  V30 6497 H 879.544 5.20877 8.75697 0
M  V30 6498 H 879.354 7.11046 7.35349 0
M  V30 6499 H 877.724 6.35815 7.26986 0
M  V30 6500 H 880.363 1.61644 6.13565 0
M  V30 6501 P 882.22 3.65191 7.99657 0
M  V30 6502 O 883.641 3.84292 8.48206 0
M  V30 6503 O 881.86 4.17805 6.64342 0
M  V30 6504 O 881.897 2.07613 7.95143 0
M  V30 6505 C 881.736 1.44344 9.27435 0
M  V30 6506 C 882.277 0.0220036 9.17197 0
M  V30 6507 O 881.222 -0.626794 8.61824 0
M  V30 6508 C 883.495 -0.24586 8.30336 0
M  V30 6509 O 884.233 -1.39011 8.63583 0
M  V30 6510 C 882.827 -0.273849 6.91158 0
M  V30 6511 O 883.625 -1.05728 6.029 0
M  V30 6512 C 881.489 -0.897649 7.22545 0
M  V30 6513 N 880.446 -0.292839 6.41732 0
M  V30 6514 C 880.615 0.950603 5.91308 0
M  V30 6515 N 879.588 1.37732 5.21105 0
M  V30 6516 C 878.703 0.318109 5.26039 0
M  V30 6517 C 877.436 0.146766 4.6727 0
M  V30 6518 N 876.871 -1.06525 4.95887 0
M  V30 6519 C 877.473 -2.0378 5.71347 0
M  V30 6520 N 878.65 -1.92445 6.27451 0
M  V30 6521 C 879.225 -0.715382 6.00353 0
M  V30 6522 H 882.704 0.733318 6.49674 0
M  V30 6523 H 884.187 0.60668 8.36503 0
M  V30 6524 H 882.493 -0.362662 10.1825 0
M  V30 6525 H 882.303 2.00611 10.0304 0
M  V30 6526 H 880.673 1.41843 9.55327 0
M  V30 6527 H 881.515 1.54076 6.07465 0
M  V30 6528 H 883.313 -1.95704 6.0346 0
M  V30 6529 P 885.171 -1.25109 8.70152 0
M  V30 6530 O 886.593 -1.35274 9.21221 0
M  V30 6531 O 884.811 -0.0769065 7.84762 0
M  V30 6532 O 884.848 -2.55232 7.81161 0
M  V30 6533 C 884.688 -3.79939 8.58154 0
M  V30 6534 C 885.228 -4.94023 7.72785 0
M  V30 6535 O 884.172 -5.18726 6.91205 0
M  V30 6536 C 886.446 -4.69597 6.85231 0
M  V30 6537 O 887.184 -5.83832 6.51337 0
M  V30 6538 C 885.777 -3.96706 5.66633 0
M  V30 6539 O 886.576 -4.15414 4.49689 0
M  V30 6540 C 884.44 -4.66153 5.59313 0
M  V30 6541 H 884.472 -5.47679 4.85214 0
M  V30 6542 H 885.655 -2.89008 5.86566 0
M  V30 6543 H 887.139 -4.0121 7.36511 0
M  V30 6544 H 885.445 -5.80182 8.37584 0
M  V30 6545 H 885.255 -3.73517 9.52265 0
M  V30 6546 H 883.625 -3.97163 8.80359 0
M  V30 6547 H 886.264 -4.90969 4.01921 0
M  V30 6548 P 888.122 -5.75688 6.64379 0
M  V30 6549 O 889.544 -6.11849 7.01846 0
M  V30 6550 O 887.762 -4.30744 6.56026 0
M  V30 6551 O 887.799 -6.37042 5.19165 0
M  V30 6552 C 887.639 -7.83578 5.16515 0
M  V30 6553 C 888.179 -8.33398 3.83019 0
M  V30 6554 O 887.123 -8.10074 3.01034 0
M  V30 6555 C 889.397 -7.65514 3.2257 0
M  V30 6556 O 890.135 -8.4329 2.32297 0
M  V30 6557 C 888.728 -6.40075 2.62207 0
M  V30 6558 O 889.527 -5.92589 1.53712 0
M  V30 6559 C 887.391 -6.9454 2.18503 0
M  V30 6560 H 887.423 -7.23063 1.12091 0
M  V30 6561 H 888.606 -5.6025 3.37201 0
M  V30 6562 H 890.09 -7.35707 4.02681 0
M  V30 6563 H 888.396 -9.40912 3.9095 0
M  V30 6564 H 888.206 -8.29056 5.99158 0
M  V30 6565 H 886.576 -8.10073 5.25882 0
M  V30 6566 H 889.215 -6.30324 0.726794 0
M  V30 6567 P 891.072 -8.4349 2.47671 0
M  V30 6568 O 892.494 -8.94167 2.5964 0
M  V30 6569 O 890.712 -7.1704 3.19006 0
M  V30 6570 O 890.749 -8.16596 0.923387 0
M  V30 6571 C 890.589 -9.38437 0.108857 0
M  V30 6572 C 891.129 -9.08175 -1.28353 0
M  V30 6573 O 890.073 -8.44229 -1.84713 0
M  V30 6574 C 892.347 -8.18386 -1.42505 0
M  V30 6575 O 893.085 -8.3501 -2.60497 0
M  V30 6576 C 891.678 -6.80225 -1.25468 0
M  V30 6577 O 892.477 -5.81621 -1.91066 0
M  V30 6578 C 890.341 -7.02416 -1.9168 0
M  V30 6579 H 890.373 -6.6888 -2.96621 0
M  V30 6580 H 891.556 -6.53617 -0.192223 0
M  V30 6581 H 893.04 -8.36622 -0.589963 0
M  V30 6582 H 891.346 -10.0291 -1.79807 0
M  V30 6583 H 891.156 -10.2138 0.558219 0
M  V30 6584 H 889.526 -9.6579 0.0444202 0
M  V30 6585 H 892.165 -5.69556 -2.79637 0
M  V30 6586 P 894.023 -8.4349 -2.47671 0
M  V30 6587 O 895.445 -8.92593 -2.65 0
M  V30 6588 O 893.663 -7.7568 -1.19296 0
M  V30 6589 O 893.7 -7.36886 -3.63805 0
M  V30 6590 C 893.54 -7.95349 -4.982 0
M  V30 6591 C 894.08 -6.94612 -5.98974 0
M  V30 6592 O 893.024 -6.10347 -6.11815 0
M  V30 6593 C 895.298 -6.11426 -5.62335 0
M  V30 6594 O 896.036 -5.6162 -6.70584 0
M  V30 6595 C 894.629 -5.04409 -4.73308 0
M  V30 6596 O 895.428 -3.85992 -4.75183 0
M  V30 6597 C 893.292 -4.8728 -5.41006 0
M  V30 6598 H 893.324 -4.02333 -6.11157 0
M  V30 6599 H 894.507 -5.39466 -3.69543 0
M  V30 6600 H 895.991 -6.71916 -5.01943 0
M  V30 6601 H 894.297 -7.4649 -6.93477 0
M  V30 6602 H 894.107 -8.89416 -5.05237 0
M  V30 6603 H 892.477 -8.14876 -5.18409 0
M  V30 6604 H 895.116 -3.27957 -5.4317 0
M  V30 6605 P 896.973 -5.75688 -6.64379 0
M  V30 6606 O 898.374 -6.14823 -7.06682 0
M  V30 6607 O 896.595 -5.93957 -5.20728 0
M  V30 6608 O 896.65 -4.23169 -7.04357 0
M  V30 6609 C 896.49 -3.99743 -8.4911 0
M  V30 6610 C 897.03 -2.60487 -8.79329 0
M  V30 6611 O 895.974 -1.82663 -8.44573 0
M  V30 6612 C 898.247 -2.10343 -8.03628 0
M  V30 6613 O 898.986 -1.09919 -8.67766 0
M  V30 6614 C 897.58 -1.68446 -6.70876 0
M  V30 6615 O 898.378 -0.678026 -6.08333 0
M  V30 6616 C 896.242 -1.17436 -7.18567 0
M  V30 6617 N 895.199 -1.52699 -6.23988 0
M  V30 6618 C 894.164 -0.643793 -6.05085 0
M  V30 6619 O 894.203 0.459118 -6.64315 0
M  V30 6620 N 893.152 -0.976931 -5.22038 0
M  V30 6621 C 893.2 -2.14429 -4.56662 0
M  V30 6622 N 892.19 -2.4542 -3.76231 0
M  V30 6623 C 894.296 -3.04203 -4.71481 0
M  V30 6624 C 895.262 -2.69669 -5.56838 0
M  V30 6625 H 896.274 -0.0804622 -7.31556 0
M  V30 6626 H 897.457 -2.53396 -6.02698 0
M  V30 6627 H 898.941 -2.9313 -7.85914 0
M  V30 6628 H 897.247 -2.52078 -9.87225 0
M  V30 6629 H 897.056 -4.75072 -9.05887 0
M  V30 6630 H 895.426 -4.05202 -8.76577 0
M  V30 6631 H 894.344 -3.97309 -4.15519 0
M  V30 6632 H 896.108 -3.36869 -5.72318 0
M  V30 6633 H 891.4 -1.80133 -3.65413 0
M  V30 6634 H 892.195 -3.34359 -3.24736 0
M  V30 6635 H 898.162 0.167718 -6.44882 0
M  V30 6636 P 899.924 -1.25109 -8.70152 0
M  V30 6637 O 901.346 -1.29744 -9.22016 0
M  V30 6638 O 899.564 -2.13714 -7.55141 0
M  V30 6639 O 899.601 0.248149 -8.21425 0
M  V30 6640 C 899.441 1.22779 -9.30434 0
M  V30 6641 C 899.981 2.56293 -8.80664 0
M  V30 6642 O 898.925 3.02979 -8.09349 0
M  V30 6643 C 901.199 2.57523 -7.89775 0
M  V30 6644 O 901.937 3.7668 -7.89438 0
M  V30 6645 C 900.53 2.20997 -6.55446 0
M  V30 6646 O 901.329 2.71895 -5.48509 0
M  V30 6647 C 899.193 2.89693 -6.67988 0
M  V30 6648 H 899.225 3.88793 -6.19859 0
M  V30 6649 H 900.408 1.12046 -6.44229 0
M  V30 6650 H 901.892 1.7746 -8.19711 0
M  V30 6651 H 900.198 3.20706 -9.67112 0
M  V30 6652 H 900.008 0.901032 -10.1892 0
M  V30 6653 H 898.378 1.33049 -9.56592 0
M  V30 6654 H 901.017 3.57847 -5.23962 0
M  V30 6655 P 902.874 3.65191 -7.99657 0
M  V30 6656 O 904.296 3.89332 -8.45794 0
M  V30 6657 O 902.514 2.28472 -7.50807 0
M  V30 6658 O 902.551 4.64972 -6.77611 0
M  V30 6659 C 902.391 6.06319 -7.16352 0
M  V30 6660 C 902.931 6.91731 -6.02299 0
M  V30 6661 O 901.875 6.92449 -5.17064 0
M  V30 6662 C 904.149 6.43627 -5.25174 0
M  V30 6663 O 904.887 7.43686 -4.60469 0
M  V30 6664 C 903.48 5.40275 -4.31916 0
M  V30 6665 O 904.279 5.25279 -3.14438 0
M  V30 6666 C 902.143 6.04847 -4.05327 0
M  V30 6667 H 902.175 6.62195 -3.11261 0
M  V30 6668 H 903.358 4.42556 -4.81383 0
M  V30 6669 H 904.842 5.92458 -5.93643 0
M  V30 6670 H 903.148 7.92655 -6.402 0
M  V30 6671 H 902.958 6.26671 -8.0846 0
M  V30 6672 H 901.328 6.29101 -7.32804 0
M  V30 6673 H 903.967 5.84315 -2.47318 0
M  V30 6674 P 905.825 7.39546 -4.75277 0
M  V30 6675 O 907.247 7.84798 -5.01039 0
M  V30 6676 O 905.465 5.9812 -5.08098 0
M  V30 6677 O 905.502 7.57503 -3.1866 0
M  V30 6678 C 905.342 8.97357 -2.74833 0
M  V30 6679 C 905.882 9.07548 -1.32709 0
M  V30 6680 O 904.826 8.62072 -0.606159 0
M  V30 6681 C 907.1 8.25383 -0.938334 0
M  V30 6682 O 907.838 8.74577 0.146954 0
M  V30 6683 C 906.431 6.8802 -0.712559 0
M  V30 6684 O 907.23 6.1189 0.194655 0
M  V30 6685 C 905.094 7.27966 -0.139777 0
M  V30 6686 H 905.126 7.25354 0.961601 0
M  V30 6687 H 906.309 6.32557 -1.65702 0
M  V30 6688 H 907.793 8.19355 -1.79097 0
M  V30 6689 H 906.099 10.1294 -1.10029 0
M  V30 6690 H 905.909 9.64276 -3.41316 0
M  V30 6691 H 904.279 9.25417 -2.76357 0
M  V30 6692 H 906.918 6.25267 1.07847 0
M  V30 6693 P 908.776 8.791 6.93566e-12 0
M  V30 6694 O 910.177 9.36698 -0.018734 0
M  V30 6695 O 908.398 7.82499 -1.07878 0
M  V30 6696 O 908.453 8.09434 1.41446 0
M  V30 6697 C 908.293 9.0349 2.53943 0
M  V30 6698 C 908.833 8.35135 3.78975 0
M  V30 6699 O 907.777 7.57904 4.1503 0
M  V30 6700 C 910.05 7.45087 3.67298 0
M  V30 6701 O 910.789 7.27796 4.85194 0
M  V30 6702 C 909.383 6.17323 3.12027 0
M  V30 6703 O 910.181 5.04149 3.47132 0
M  V30 6704 C 908.045 6.19961 3.81809 0
M  V30 6705 N 907.002 5.71575 2.93223 0
M  V30 6706 C 905.967 4.99452 3.47592 0
M  V30 6707 O 906.006 4.7199 4.69732 0
M  V30 6708 N 904.955 4.58505 2.6803 0
M  V30 6709 C 905.003 4.85544 1.36995 0
M  V30 6710 N 903.993 4.45052 0.609031 0
M  V30 6711 C 906.099 5.55532 0.788532 0
M  V30 6712 C 907.065 5.97426 1.60849 0
M  V30 6713 H 908.077 5.58142 4.72986 0
M  V30 6714 H 909.26 6.21428 2.0318 0
M  V30 6715 H 910.744 7.85913 2.93131 0
M  V30 6716 H 909.05 9.11171 4.55987 0
M  V30 6717 H 908.859 9.9573 2.34194 0
M  V30 6718 H 907.229 9.27824 2.67805 0
M  V30 6719 H 906.147 5.7421 -0.281588 0
M  V30 6720 H 907.911 6.53132 1.202 0
M  V30 6721 H 903.203 3.94123 1.03159 0
M  V30 6722 H 903.998 4.64377 -0.400352 0
M  V30 6723 H 909.965 4.76386 4.34983 0
M  V30 6724 P 911.726 7.39546 4.75277 0
M  V30 6725 O 913.147 7.81861 5.05793 0
M  V30 6726 O 911.366 7.1065 3.32998 0
M  V30 6727 O 911.403 6.04542 5.56673 0
M  V30 6728 C 911.242 6.22839 7.02169 0
M  V30 6729 C 911.783 4.97725 7.70406 0
M  V30 6730 O 910.728 4.13208 7.58899 0
M  V30 6731 C 913.001 4.28231 7.11815 0
M  V30 6732 O 913.739 3.49945 8.01648 0
M  V30 6733 C 912.333 3.5063 5.96244 0
M  V30 6734 O 913.131 2.37008 5.64352 0
M  V30 6735 C 910.995 3.15122 6.56374 0
M  V30 6736 N 909.952 3.22311 5.55692 0
M  V30 6737 C 910.121 3.99655 4.46046 0
M  V30 6738 N 909.094 3.97599 3.63918 0
M  V30 6739 C 908.209 3.11159 4.25334 0
M  V30 6740 C 906.942 2.64972 3.85157 0
M  V30 6741 N 906.343 3.02132 2.69405 0
M  V30 6742 N 906.377 1.78482 4.74759 0
M  V30 6743 C 906.979 1.37463 5.90819 0
M  V30 6744 N 908.156 1.7733 6.31889 0
M  V30 6745 C 908.731 2.64393 5.43725 0
M  V30 6746 H 911.027 2.13823 6.99656 0
M  V30 6747 H 912.21 4.12931 5.06895 0
M  V30 6748 H 913.693 5.03285 6.70911 0
M  V30 6749 H 911.999 5.20001 8.76217 0
M  V30 6750 H 911.809 7.11046 7.35349 0
M  V30 6751 H 910.179 6.35815 7.26986 0
M  V30 6752 H 906.443 0.66574 6.53015 0
M  V30 6753 H 911.021 4.58037 4.27732 0
M  V30 6754 H 905.413 2.64828 2.45331 0
M  V30 6755 H 906.817 3.67472 2.05644 0
M  V30 6756 H 912.819 1.61619 6.13468 0
M  V30 6757 P 914.677 3.65191 7.99657 0
M  V30 6758 O 916.099 3.8425 8.48115 0
M  V30 6759 O 914.317 4.17805 6.64342 0
M  V30 6760 O 914.354 2.07613 7.95143 0
M  V30 6761 C 914.194 1.44328 9.27336 0
M  V30 6762 C 914.734 0.0220036 9.17197 0
M  V30 6763 O 913.678 -0.626867 8.61923 0
M  V30 6764 C 915.952 -0.24586 8.30336 0
M  V30 6765 O 916.69 -1.39011 8.63583 0
M  V30 6766 C 915.283 -0.273849 6.91158 0
M  V30 6767 O 916.082 -1.06348 6.02892 0
M  V30 6768 C 913.946 -0.897649 7.22545 0
M  V30 6769 H 913.978 -1.9841 7.04286 0
M  V30 6770 H 915.161 0.739928 6.497 0
M  V30 6771 H 916.645 0.60668 8.36503 0
M  V30 6772 H 914.951 -0.352479 10.1829 0
M  V30 6773 H 914.761 2.00611 10.0304 0
M  V30 6774 H 913.131 1.41843 9.55327 0
M  V30 6775 H 915.77 -1.95734 6.03555 0
M  V30 6776 P 917.627 -1.25109 8.70152 0
M  V30 6777 O 919.049 -1.35274 9.21221 0
M  V30 6778 O 917.267 -0.0769065 7.84762 0
M  V30 6779 O 917.304 -2.55232 7.81161 0
M  V30 6780 C 917.144 -3.79939 8.58154 0
M  V30 6781 C 917.684 -4.94023 7.72785 0
M  V30 6782 O 916.628 -5.18726 6.91205 0
M  V30 6783 C 918.902 -4.69597 6.85231 0
M  V30 6784 O 919.64 -5.83832 6.51337 0
M  V30 6785 C 918.233 -3.96706 5.66633 0
M  V30 6786 O 919.032 -4.15414 4.49689 0
M  V30 6787 C 916.896 -4.66153 5.59313 0
M  V30 6788 H 916.928 -5.47679 4.85214 0
M  V30 6789 H 918.111 -2.89008 5.86566 0
M  V30 6790 H 919.595 -4.0121 7.36511 0
M  V30 6791 H 917.901 -5.80182 8.37584 0
M  V30 6792 H 917.711 -3.73517 9.52265 0
M  V30 6793 H 916.081 -3.97163 8.80359 0
M  V30 6794 H 918.72 -4.90969 4.01921 0
M  V30 6795 P 920.578 -5.75688 6.64379 0
M  V30 6796 O 922 -6.11849 7.01846 0
M  V30 6797 O 920.218 -4.30744 6.56026 0
M  V30 6798 O 920.255 -6.37042 5.19165 0
M  V30 6799 C 920.095 -7.83578 5.16515 0
M  V30 6800 C 920.635 -8.33398 3.83019 0
M  V30 6801 O 919.579 -8.10074 3.01034 0
M  V30 6802 C 921.853 -7.65514 3.2257 0
M  V30 6803 O 922.591 -8.4329 2.32297 0
M  V30 6804 C 921.184 -6.40075 2.62207 0
M  V30 6805 O 921.983 -5.92589 1.53712 0
M  V30 6806 C 919.847 -6.9454 2.18503 0
M  V30 6807 H 919.879 -7.23063 1.12091 0
M  V30 6808 H 921.062 -5.6025 3.37201 0
M  V30 6809 H 922.546 -7.35707 4.02681 0
M  V30 6810 H 920.852 -9.40912 3.9095 0
M  V30 6811 H 920.662 -8.29056 5.99158 0
M  V30 6812 H 919.032 -8.10073 5.25882 0
M  V30 6813 H 921.671 -6.30324 0.726794 0
M  V30 6814 P 923.528 -8.4349 2.47671 0
M  V30 6815 O 924.95 -8.94167 2.5964 0
M  V30 6816 O 923.168 -7.1704 3.19006 0
M  V30 6817 O 923.205 -8.16596 0.923387 0
M  V30 6818 C 923.045 -9.38437 0.108857 0
M  V30 6819 C 923.585 -9.08175 -1.28353 0
M  V30 6820 O 922.529 -8.44229 -1.84713 0
M  V30 6821 C 924.803 -8.18386 -1.42505 0
M  V30 6822 O 925.541 -8.3501 -2.60497 0
M  V30 6823 C 924.134 -6.80225 -1.25468 0
M  V30 6824 O 924.933 -5.81621 -1.91066 0
M  V30 6825 C 922.797 -7.02416 -1.9168 0
M  V30 6826 H 922.829 -6.6888 -2.96621 0
M  V30 6827 H 924.012 -6.53617 -0.192223 0
M  V30 6828 H 925.496 -8.36622 -0.589963 0
M  V30 6829 H 923.802 -10.0291 -1.79807 0
M  V30 6830 H 923.612 -10.2138 0.558219 0
M  V30 6831 H 921.982 -9.6579 0.0444202 0
M  V30 6832 H 924.621 -5.69556 -2.79637 0
M  V30 6833 P 926.479 -8.4349 -2.47671 0
M  V30 6834 O 927.901 -8.92593 -2.65 0
M  V30 6835 O 926.119 -7.7568 -1.19296 0
M  V30 6836 O 926.156 -7.36886 -3.63805 0
M  V30 6837 C 925.996 -7.95349 -4.982 0
M  V30 6838 C 926.536 -6.94612 -5.98974 0
M  V30 6839 O 925.48 -6.10347 -6.11815 0
M  V30 6840 C 927.754 -6.11426 -5.62335 0
M  V30 6841 O 928.492 -5.6162 -6.70584 0
M  V30 6842 C 927.085 -5.04409 -4.73308 0
M  V30 6843 O 927.884 -3.85992 -4.75183 0
M  V30 6844 C 925.748 -4.8728 -5.41006 0
M  V30 6845 H 925.78 -4.02333 -6.11157 0
M  V30 6846 H 926.963 -5.39466 -3.69543 0
M  V30 6847 H 928.447 -6.71916 -5.01943 0
M  V30 6848 H 926.753 -7.4649 -6.93477 0
M  V30 6849 H 926.563 -8.89416 -5.05237 0
M  V30 6850 H 924.933 -8.14876 -5.18409 0
M  V30 6851 H 927.572 -3.27957 -5.4317 0
M  V30 6852 P 929.43 -5.75688 -6.64379 0
M  V30 6853 O 930.831 -6.14823 -7.06682 0
M  V30 6854 O 929.052 -5.93957 -5.20728 0
M  V30 6855 O 929.107 -4.23169 -7.04357 0
M  V30 6856 C 928.947 -3.99743 -8.4911 0
M  V30 6857 C 929.487 -2.60487 -8.79329 0
M  V30 6858 O 928.431 -1.82663 -8.44573 0
M  V30 6859 C 930.704 -2.10343 -8.03628 0
M  V30 6860 O 931.443 -1.09919 -8.67766 0
M  V30 6861 C 930.037 -1.68446 -6.70876 0
M  V30 6862 O 930.835 -0.678026 -6.08333 0
M  V30 6863 C 928.699 -1.17436 -7.18567 0
M  V30 6864 N 927.656 -1.52699 -6.23988 0
M  V30 6865 C 926.621 -0.643793 -6.05085 0
M  V30 6866 O 926.66 0.459118 -6.64315 0
M  V30 6867 N 925.609 -0.976931 -5.22038 0
M  V30 6868 C 925.657 -2.14429 -4.56662 0
M  V30 6869 C 926.753 -3.04203 -4.71481 0
M  V30 6870 C 927.719 -2.69669 -5.56838 0
M  V30 6871 H 928.731 -0.0804622 -7.31556 0
M  V30 6872 H 929.914 -2.53396 -6.02698 0
M  V30 6873 H 931.398 -2.9313 -7.85914 0
M  V30 6874 H 929.704 -2.52078 -9.87225 0
M  V30 6875 H 929.513 -4.75072 -9.05887 0
M  V30 6876 H 927.883 -4.05202 -8.76577 0
M  V30 6877 H 926.801 -3.97309 -4.15519 0
M  V30 6878 H 928.565 -3.36869 -5.72318 0
M  V30 6879 H 930.619 0.167718 -6.44882 0
M  V30 6880 P 932.38 -1.25109 -8.70152 0
M  V30 6881 O 933.802 -1.29744 -9.22016 0
M  V30 6882 O 932.02 -2.13714 -7.55141 0
M  V30 6883 O 932.057 0.248149 -8.21425 0
M  V30 6884 C 931.897 1.22779 -9.30434 0
M  V30 6885 C 932.437 2.56293 -8.80664 0
M  V30 6886 O 931.381 3.02979 -8.09349 0
M  V30 6887 C 933.655 2.57523 -7.89775 0
M  V30 6888 O 934.393 3.7668 -7.89438 0
M  V30 6889 C 932.986 2.20997 -6.55446 0
M  V30 6890 O 933.785 2.71895 -5.48509 0
M  V30 6891 C 931.649 2.89693 -6.67988 0
M  V30 6892 H 931.681 3.88793 -6.19859 0
M  V30 6893 H 932.864 1.12046 -6.44229 0
M  V30 6894 H 934.348 1.7746 -8.19711 0
M  V30 6895 H 932.654 3.20706 -9.67112 0
M  V30 6896 H 932.464 0.901032 -10.1892 0
M  V30 6897 H 930.834 1.33049 -9.56592 0
M  V30 6898 H 933.473 3.57847 -5.23962 0
M  V30 6899 P 935.331 3.65191 -7.99657 0
M  V30 6900 O 936.752 3.89374 -8.45885 0
M  V30 6901 O 934.971 2.28472 -7.50807 0
M  V30 6902 O 935.008 4.64972 -6.77611 0
M  V30 6903 C 934.847 6.06383 -7.16428 0
M  V30 6904 C 935.388 6.91731 -6.02299 0
M  V30 6905 O 934.333 6.92369 -5.17005 0
M  V30 6906 C 936.606 6.43627 -5.25174 0
M  V30 6907 O 937.344 7.43686 -4.60469 0
M  V30 6908 C 935.938 5.40275 -4.31916 0
M  V30 6909 O 936.736 5.24878 -3.14911 0
M  V30 6910 C 934.6 6.04847 -4.05327 0
M  V30 6911 N 933.557 5.04166 -3.98114 0
M  V30 6912 C 933.726 3.84629 -4.59066 0
M  V30 6913 N 932.699 3.0363 -4.45343 0
M  V30 6914 C 931.814 3.76722 -3.68523 0
M  V30 6915 C 930.547 3.43528 -3.17088 0
M  V30 6916 N 929.982 4.44526 -2.44231 0
M  V30 6917 C 930.584 5.65243 -2.20146 0
M  V30 6918 N 931.761 6.00221 -2.65453 0
M  V30 6919 C 932.336 5.00564 -3.39083 0
M  V30 6920 H 935.815 4.42969 -4.80867 0
M  V30 6921 H 937.298 5.92458 -5.93643 0
M  V30 6922 H 935.604 7.93295 -6.39407 0
M  V30 6923 H 935.414 6.26671 -8.0846 0
M  V30 6924 H 933.784 6.29101 -7.32804 0
M  V30 6925 H 934.626 3.58193 -5.14248 0
M  V30 6926 H 936.424 5.84223 -2.47279 0
M  V30 6927 P 938.281 7.39546 -4.75277 0
M  V30 6928 O 939.703 7.84798 -5.01039 0
M  V30 6929 O 937.921 5.9812 -5.08098 0
M  V30 6930 O 937.958 7.57503 -3.1866 0
M  V30 6931 C 937.798 8.97357 -2.74833 0
M  V30 6932 C 938.338 9.07548 -1.32709 0
M  V30 6933 O 937.282 8.62072 -0.606159 0
M  V30 6934 C 939.556 8.25383 -0.938334 0
M  V30 6935 O 940.294 8.74577 0.146954 0
M  V30 6936 C 938.887 6.8802 -0.712559 0
M  V30 6937 O 939.686 6.1189 0.194655 0
M  V30 6938 C 937.55 7.27966 -0.139777 0
M  V30 6939 H 937.582 7.25354 0.961601 0
M  V30 6940 H 938.765 6.32557 -1.65702 0
M  V30 6941 H 940.249 8.19355 -1.79097 0
M  V30 6942 H 938.555 10.1294 -1.10029 0
M  V30 6943 H 938.365 9.64276 -3.41316 0
M  V30 6944 H 936.735 9.25417 -2.76357 0
M  V30 6945 H 939.374 6.25267 1.07847 0
M  V30 6946 P 941.232 8.791 7.24582e-12 0
M  V30 6947 O 942.654 9.31096 0.027933 0
M  V30 6948 O 940.872 7.77869 -1.04071 0
M  V30 6949 O 940.909 8.09533 1.41463 0
M  V30 6950 C 940.749 9.0349 2.53943 0
M  V30 6951 C 941.289 8.35226 3.79016 0
M  V30 6952 O 940.233 7.57992 4.15078 0
M  V30 6953 C 942.507 7.45087 3.67298 0
M  V30 6954 O 943.245 7.27796 4.85194 0
M  V30 6955 C 941.838 6.17323 3.12027 0
M  V30 6956 O 942.637 5.04231 3.47188 0
M  V30 6957 C 940.501 6.19961 3.81809 0
M  V30 6958 H 940.533 5.58218 4.73051 0
M  V30 6959 H 941.716 6.21726 2.02589 0
M  V30 6960 H 943.2 7.86112 2.9231 0
M  V30 6961 H 941.506 9.11627 4.55076 0
M  V30 6962 H 941.316 9.9573 2.34194 0
M  V30 6963 H 939.686 9.2792 2.67832 0
M  V30 6964 H 942.325 4.67702 4.28772 0
M  V30 6965 P 944.182 7.39546 4.75277 0
M  V30 6966 O 945.603 7.81861 5.05793 0
M  V30 6967 O 943.822 7.1065 3.32998 0
M  V30 6968 O 943.859 6.04542 5.56673 0
M  V30 6969 C 943.698 6.22839 7.02169 0
M  V30 6970 C 944.239 4.97725 7.70406 0
M  V30 6971 O 943.184 4.13208 7.58899 0
M  V30 6972 C 945.457 4.28231 7.11815 0
M  V30 6973 O 946.195 3.49945 8.01648 0
M  V30 6974 C 944.789 3.5063 5.96244 0
M  V30 6975 O 945.587 2.37008 5.64352 0
M  V30 6976 C 943.451 3.15122 6.56374 0
M  V30 6977 N 942.408 3.22311 5.55692 0
M  V30 6978 C 942.577 3.99655 4.46046 0
M  V30 6979 N 941.55 3.97599 3.63918 0
M  V30 6980 C 940.665 3.11159 4.25334 0
M  V30 6981 C 939.398 2.64972 3.85157 0
M  V30 6982 N 938.833 1.78482 4.74759 0
M  V30 6983 C 939.435 1.37463 5.90819 0
M  V30 6984 N 940.612 1.7733 6.31889 0
M  V30 6985 C 941.187 2.64393 5.43725 0
M  V30 6986 H 944.666 4.12931 5.06895 0
M  V30 6987 H 946.149 5.03285 6.70911 0
M  V30 6988 H 944.455 5.20001 8.76217 0
M  V30 6989 H 944.265 7.11046 7.35349 0
M  V30 6990 H 942.635 6.35815 7.26986 0
M  V30 6991 H 943.477 4.58037 4.27732 0
M  V30 6992 H 945.275 1.61619 6.13468 0
M  V30 6993 P 947.133 3.65191 7.99657 0
M  V30 6994 O 948.555 3.8425 8.48115 0
M  V30 6995 O 946.773 4.17805 6.64342 0
M  V30 6996 O 946.81 2.07613 7.95143 0
M  V30 6997 C 946.65 1.44328 9.27336 0
M  V30 6998 C 947.19 0.0220036 9.17197 0
M  V30 6999 O 946.134 -0.626867 8.61923 0
M  V30 7000 C 948.408 -0.24586 8.30336 0
M  V30 7001 O 949.146 -1.39011 8.63583 0
M  V30 7002 C 947.739 -0.273849 6.91158 0
M  V30 7003 O 948.538 -1.06348 6.02892 0
M  V30 7004 C 946.402 -0.897649 7.22545 0
M  V30 7005 H 946.434 -1.9841 7.04286 0
M  V30 7006 H 947.617 0.739928 6.497 0
M  V30 7007 H 949.101 0.60668 8.36503 0
M  V30 7008 H 947.407 -0.352479 10.1829 0
M  V30 7009 H 947.217 2.00611 10.0304 0
M  V30 7010 H 945.587 1.41843 9.55327 0
M  V30 7011 H 948.226 -1.95734 6.03555 0
M  V30 7012 P 950.084 -1.25109 8.70152 0
M  V30 7013 O 951.506 -1.35274 9.21221 0
M  V30 7014 O 949.724 -0.0769065 7.84762 0
M  V30 7015 O 949.761 -2.55232 7.81161 0
M  V30 7016 C 949.601 -3.79939 8.58154 0
M  V30 7017 C 950.141 -4.94023 7.72785 0
M  V30 7018 O 949.085 -5.18726 6.91205 0
M  V30 7019 C 951.359 -4.69597 6.85231 0
M  V30 7020 O 952.097 -5.83832 6.51337 0
M  V30 7021 C 950.69 -3.96706 5.66633 0
M  V30 7022 O 951.489 -4.15414 4.49689 0
M  V30 7023 C 949.353 -4.66153 5.59313 0
M  V30 7024 H 949.385 -5.47679 4.85214 0
M  V30 7025 H 950.568 -2.89008 5.86566 0
M  V30 7026 H 952.052 -4.0121 7.36511 0
M  V30 7027 H 950.358 -5.80182 8.37584 0
M  V30 7028 H 950.168 -3.73517 9.52265 0
M  V30 7029 H 948.538 -3.97163 8.80359 0
M  V30 7030 H 951.177 -4.90969 4.01921 0
M  V30 7031 P 953.034 -5.75688 6.64379 0
M  V30 7032 O 954.455 -6.11915 7.01921 0
M  V30 7033 O 952.674 -4.30744 6.56026 0
M  V30 7034 O 952.711 -6.37042 5.19165 0
M  V30 7035 C 952.55 -7.83662 5.1657 0
M  V30 7036 C 953.091 -8.33398 3.83019 0
M  V30 7037 O 952.036 -8.0998 3.00999 0
M  V30 7038 C 954.309 -7.65514 3.2257 0
M  V30 7039 O 955.047 -8.4329 2.32297 0
M  V30 7040 C 953.641 -6.40075 2.62207 0
M  V30 7041 O 954.439 -5.92338 1.5428 0
M  V30 7042 C 952.303 -6.9454 2.18503 0
M  V30 7043 N 951.26 -5.95905 2.39948 0
M  V30 7044 C 951.429 -4.98383 3.32108 0
M  V30 7045 N 950.402 -4.16798 3.41761 0
M  V30 7046 C 949.517 -4.65287 2.47461 0
M  V30 7047 C 948.25 -4.18946 2.07461 0
M  V30 7048 N 947.651 -3.09661 2.60717 0
M  V30 7049 N 947.685 -4.95327 1.09101 0
M  V30 7050 C 948.287 -6.04369 0.519812 0
M  V30 7051 N 949.464 -6.50694 0.855982 0
M  V30 7052 C 950.039 -5.75818 1.84322 0
M  V30 7053 H 952.335 -7.22964 1.12076 0
M  V30 7054 H 953.518 -5.60502 3.36589 0
M  V30 7055 H 955.001 -7.35707 4.02681 0
M  V30 7056 H 953.307 -9.41302 3.90009 0
M  V30 7057 H 953.117 -8.29056 5.99158 0
M  V30 7058 H 951.487 -8.10073 5.25882 0
M  V30 7059 H 947.751 -6.55843 -0.270373 0
M  V30 7060 H 952.329 -4.88564 3.92502 0
M  V30 7061 H 946.721 -2.80523 2.27218 0
M  V30 7062 H 948.125 -2.55848 3.34465 0
M  V30 7063 H 954.127 -6.30224 0.72668 0
M  V30 7064 P 955.985 -8.4349 2.47671 0
M  V30 7065 O 957.407 -8.94167 2.5964 0
M  V30 7066 O 955.625 -7.1704 3.19006 0
M  V30 7067 O 955.662 -8.16596 0.923387 0
M  V30 7068 C 955.502 -9.38437 0.108857 0
M  V30 7069 C 956.042 -9.08175 -1.28353 0
M  V30 7070 O 954.986 -8.44229 -1.84713 0
M  V30 7071 C 957.26 -8.18386 -1.42505 0
M  V30 7072 O 957.998 -8.3501 -2.60497 0
M  V30 7073 C 956.591 -6.80225 -1.25468 0
M  V30 7074 O 957.39 -5.81621 -1.91066 0
M  V30 7075 C 955.254 -7.02416 -1.9168 0
M  V30 7076 H 955.286 -6.6888 -2.96621 0
M  V30 7077 H 956.469 -6.53617 -0.192223 0
M  V30 7078 H 957.953 -8.36622 -0.589963 0
M  V30 7079 H 956.259 -10.0291 -1.79807 0
M  V30 7080 H 956.069 -10.2138 0.558219 0
M  V30 7081 H 954.439 -9.6579 0.0444202 0
M  V30 7082 H 957.078 -5.69556 -2.79637 0
M  V30 7083 P 958.935 -8.4349 -2.47671 0
M  V30 7084 O 960.356 -8.92689 -2.65029 0
M  V30 7085 O 958.575 -7.7568 -1.19296 0
M  V30 7086 O 958.612 -7.36886 -3.63805 0
M  V30 7087 C 958.451 -7.95433 -4.98253 0
M  V30 7088 C 958.992 -6.94612 -5.98974 0
M  V30 7089 O 957.937 -6.10277 -6.11744 0
M  V30 7090 C 960.21 -6.11426 -5.62335 0
M  V30 7091 O 960.948 -5.6162 -6.70584 0
M  V30 7092 C 959.542 -5.04409 -4.73308 0
M  V30 7093 O 960.34 -3.86404 -4.74719 0
M  V30 7094 C 958.204 -4.8728 -5.41006 0
M  V30 7095 N 957.161 -4.65812 -4.42377 0
M  V30 7096 C 957.33 -5.09132 -3.15382 0
M  V30 7097 N 956.303 -4.84021 -2.3716 0
M  V30 7098 C 955.418 -4.18386 -3.20441 0
M  V30 7099 C 954.151 -3.6275 -2.94905 0
M  V30 7100 N 953.586 -3.05008 -4.05243 0
M  V30 7101 C 954.188 -2.98348 -5.28159 0
M  V30 7102 N 955.365 -3.48171 -5.56333 0
M  V30 7103 C 955.94 -4.06869 -4.47212 0
M  V30 7104 H 959.419 -5.39013 -3.70026 0
M  V30 7105 H 960.902 -6.71916 -5.01943 0
M  V30 7106 H 959.208 -7.45796 -6.94223 0
M  V30 7107 H 959.018 -8.89416 -5.05237 0
M  V30 7108 H 957.388 -8.14876 -5.18409 0
M  V30 7109 H 958.23 -5.59989 -2.81362 0
M  V30 7110 H 960.028 -3.27906 -5.43085 0
M  V30 7111 P 961.886 -5.75688 -6.64379 0
M  V30 7112 O 963.308 -6.07627 -7.05504 0
M  V30 7113 O 961.526 -5.88047 -5.19722 0
M  V30 7114 O 961.563 -4.2322 -7.04443 0
M  V30 7115 C 961.403 -3.99743 -8.4911 0
M  V30 7116 C 961.943 -2.60516 -8.79425 0
M  V30 7117 O 960.887 -1.82684 -8.4467 0
M  V30 7118 C 963.161 -2.10343 -8.03628 0
M  V30 7119 O 963.899 -1.09919 -8.67766 0
M  V30 7120 C 962.492 -1.68446 -6.70876 0
M  V30 7121 O 963.291 -0.678137 -6.08433 0
M  V30 7122 C 961.155 -1.17436 -7.18567 0
M  V30 7123 H 961.187 -0.0804732 -7.31656 0
M  V30 7124 H 962.37 -2.54037 -6.02537 0
M  V30 7125 H 963.854 -2.93881 -7.85526 0
M  V30 7126 H 962.16 -2.53065 -9.86973 0
M  V30 7127 H 961.97 -4.75072 -9.05887 0
M  V30 7128 H 960.34 -4.05244 -8.76668 0
M  V30 7129 H 962.979 0.177647 -6.34251 0
M  V30 7130 P 964.836 -1.25109 -8.70152 0
M  V30 7131 O 966.258 -1.29772 -9.22214 0
M  V30 7132 O 964.476 -2.13714 -7.55141 0
M  V30 7133 O 964.513 0.248149 -8.21425 0
M  V30 7134 C 964.353 1.22779 -9.30434 0
M  V30 7135 C 964.893 2.56265 -8.80568 0
M  V30 7136 O 963.838 3.02979 -8.09349 0
M  V30 7137 C 966.111 2.57523 -7.89775 0
M  V30 7138 O 966.849 3.7668 -7.89438 0
M  V30 7139 C 965.443 2.20997 -6.55446 0
M  V30 7140 O 966.241 2.71851 -5.48419 0
M  V30 7141 C 964.105 2.89693 -6.67988 0
M  V30 7142 N 963.062 2.08895 -6.07487 0
M  V30 7143 C 963.124 0.760559 -6.14209 0
M  V30 7144 N 962.079 0.200108 -5.52538 0
M  V30 7145 C 961.345 1.22692 -5.09742 0
M  V30 7146 C 960.039 1.24782 -4.48775 0
M  V30 7147 O 959.306 0.290617 -4.19294 0
M  V30 7148 N 959.609 2.50468 -4.22428 0
M  V30 7149 C 960.358 3.67142 -4.51974 0
M  V30 7150 N 959.761 4.85096 -4.14091 0
M  V30 7151 N 961.511 3.67821 -5.12831 0
M  V30 7152 C 961.968 2.43698 -5.4105 0
M  V30 7153 H 964.137 3.88793 -6.19859 0
M  V30 7154 H 965.32 1.12029 -6.4413 0
M  V30 7155 H 966.805 1.78279 -8.19533 0
M  V30 7156 H 965.11 3.20706 -9.67112 0
M  V30 7157 H 964.92 0.901032 -10.1892 0
M  V30 7158 H 963.289 1.33049 -9.56592 0
M  V30 7159 H 958.713 2.61953 -3.79465 0
M  V30 7160 H 963.92 0.200439 -6.63497 0
M  V30 7161 H 958.85 4.8334 -3.66367 0
M  V30 7162 H 960.226 5.7474 -4.33841 0
M  V30 7163 H 965.93 3.5779 -5.23879 0
M  V30 7164 P 967.787 3.65191 -7.99657 0
M  V30 7165 O 969.188 3.87414 -8.52829 0
M  V30 7166 O 967.409 2.26932 -7.566 0
M  V30 7167 O 967.464 4.64915 -6.77529 0
M  V30 7168 C 967.304 6.06319 -7.16352 0
M  V30 7169 C 967.844 6.91655 -6.02234 0
M  V30 7170 O 966.788 6.92369 -5.17005 0
M  V30 7171 C 969.061 6.43627 -5.25174 0
M  V30 7172 O 969.8 7.43686 -4.60469 0
M  V30 7173 C 968.394 5.40275 -4.31916 0
M  V30 7174 O 969.192 5.25193 -3.14386 0
M  V30 7175 C 967.056 6.04847 -4.05327 0
M  V30 7176 N 966.013 5.04166 -3.98114 0
M  V30 7177 C 964.978 5.2366 -3.09923 0
M  V30 7178 O 965.017 6.23355 -2.34204 0
M  V30 7179 N 963.966 4.34279 -3.05727 0
M  V30 7180 C 964.014 3.26317 -3.84756 0
M  V30 7181 C 965.11 3.02504 -4.72573 0
M  V30 7182 C 966.076 3.94493 -4.76618 0
M  V30 7183 H 967.088 6.62104 -3.11218 0
M  V30 7184 H 968.271 4.42969 -4.80867 0
M  V30 7185 H 969.755 5.93122 -5.93121 0
M  V30 7186 H 968.061 7.93295 -6.39407 0
M  V30 7187 H 967.87 6.26671 -8.0846 0
M  V30 7188 H 966.24 6.29036 -7.32728 0
M  V30 7189 H 965.158 2.12921 -5.34017 0
M  V30 7190 H 966.922 3.80658 -5.44176 0
M  V30 7191 H 968.976 5.93572 -2.52637 0
M  V30 7192 P 970.738 7.39546 -4.75277 0
M  V30 7193 O 972.16 7.84798 -5.01039 0
M  V30 7194 O 970.378 5.9812 -5.08098 0
M  V30 7195 O 970.415 7.57503 -3.1866 0
M  V30 7196 C 970.255 8.97357 -2.74833 0
M  V30 7197 C 970.795 9.07548 -1.32709 0
M  V30 7198 O 969.739 8.62072 -0.606159 0
M  V30 7199 C 972.013 8.25383 -0.938334 0
M  V30 7200 O 972.751 8.74577 0.146954 0
M  V30 7201 C 971.344 6.8802 -0.712559 0
M  V30 7202 O 972.143 6.1189 0.194655 0
M  V30 7203 C 970.007 7.27966 -0.139777 0
M  V30 7204 H 970.039 7.25354 0.961601 0
M  V30 7205 H 971.222 6.32557 -1.65702 0
M  V30 7206 H 972.706 8.19355 -1.79097 0
M  V30 7207 H 971.012 10.1294 -1.10029 0
M  V30 7208 H 970.822 9.64276 -3.41316 0
M  V30 7209 H 969.192 9.25417 -2.76357 0
M  V30 7210 H 971.831 6.25267 1.07847 0
M  V30 7211 P 973.688 8.791 7.55599e-12 0
M  V30 7212 O 975.11 9.31096 0.027933 0
M  V30 7213 O 973.328 7.77869 -1.04071 0
M  V30 7214 O 973.365 8.09533 1.41463 0
M  V30 7215 C 973.205 9.0349 2.53943 0
M  V30 7216 C 973.745 8.35226 3.79016 0
M  V30 7217 O 972.689 7.57992 4.15078 0
M  V30 7218 C 974.963 7.45087 3.67298 0
M  V30 7219 O 975.701 7.27796 4.85194 0
M  V30 7220 C 974.294 6.17323 3.12027 0
M  V30 7221 O 975.093 5.04231 3.47188 0
M  V30 7222 C 972.957 6.19961 3.81809 0
M  V30 7223 H 972.989 5.58218 4.73051 0
M  V30 7224 H 974.172 6.21726 2.02589 0
M  V30 7225 H 975.656 7.86112 2.9231 0
M  V30 7226 H 973.962 9.11627 4.55076 0
M  V30 7227 H 973.772 9.9573 2.34194 0
M  V30 7228 H 972.142 9.2792 2.67832 0
M  V30 7229 H 974.781 4.67702 4.28772 0
M  V30 7230 P 976.639 7.39546 4.75277 0
M  V30 7231 O 978.061 7.81777 5.05738 0
M  V30 7232 O 976.279 7.1065 3.32998 0
M  V30 7233 O 976.316 6.04542 5.56673 0
M  V30 7234 C 976.156 6.22772 7.02095 0
M  V30 7235 C 976.696 4.97725 7.70406 0
M  V30 7236 O 975.64 4.13256 7.58987 0
M  V30 7237 C 977.914 4.28231 7.11815 0
M  V30 7238 O 978.652 3.49945 8.01648 0
M  V30 7239 C 977.245 3.5063 5.96244 0
M  V30 7240 O 978.044 2.36482 5.64681 0
M  V30 7241 C 975.908 3.15122 6.56374 0
M  V30 7242 H 975.94 2.13853 6.99751 0
M  V30 7243 H 977.123 4.13501 5.06559 0
M  V30 7244 H 978.607 5.03285 6.70911 0
M  V30 7245 H 976.913 5.20877 8.75697 0
M  V30 7246 H 976.723 7.11046 7.35349 0
M  V30 7247 H 975.093 6.35815 7.26986 0
M  V30 7248 H 977.732 1.61644 6.13565 0
M  V30 7249 P 979.589 3.65191 7.99657 0
M  V30 7250 O 981.01 3.84292 8.48206 0
M  V30 7251 O 979.229 4.17805 6.64342 0
M  V30 7252 O 979.266 2.07613 7.95143 0
M  V30 7253 C 979.105 1.44344 9.27435 0
M  V30 7254 C 979.646 0.0220036 9.17197 0
M  V30 7255 O 978.591 -0.626794 8.61824 0
M  V30 7256 C 980.864 -0.24586 8.30336 0
M  V30 7257 O 981.602 -1.39011 8.63583 0
M  V30 7258 C 980.196 -0.273849 6.91158 0
M  V30 7259 O 980.994 -1.05728 6.029 0
M  V30 7260 C 978.858 -0.897649 7.22545 0
M  V30 7261 N 977.815 -0.292839 6.41732 0
M  V30 7262 C 977.984 0.950603 5.91308 0
M  V30 7263 N 976.957 1.37732 5.21105 0
M  V30 7264 C 976.072 0.318109 5.26039 0
M  V30 7265 C 974.805 0.146766 4.6727 0
M  V30 7266 N 974.206 1.08519 3.89983 0
M  V30 7267 N 974.24 -1.06525 4.95887 0
M  V30 7268 C 974.842 -2.0378 5.71347 0
M  V30 7269 N 976.019 -1.92445 6.27451 0
M  V30 7270 C 976.594 -0.715382 6.00353 0
M  V30 7271 H 978.89 -1.98383 7.04189 0
M  V30 7272 H 980.073 0.733318 6.49674 0
M  V30 7273 H 981.556 0.60668 8.36503 0
M  V30 7274 H 979.862 -0.362662 10.1825 0
M  V30 7275 H 979.672 2.00611 10.0304 0
M  V30 7276 H 978.042 1.41843 9.55327 0
M  V30 7277 H 974.306 -2.97041 5.85344 0
M  V30 7278 H 978.884 1.54076 6.07465 0
M  V30 7279 H 973.276 0.901517 3.49562 0
M  V30 7280 H 974.68 1.97957 3.71669 0
M  V30 7281 H 980.682 -1.95704 6.0346 0
M  V30 7282 P 982.54 -1.25109 8.70152 0
M  V30 7283 O 983.962 -1.35274 9.21221 0
M  V30 7284 O 982.18 -0.0769065 7.84762 0
M  V30 7285 O 982.217 -2.55232 7.81161 0
M  V30 7286 C 982.057 -3.79939 8.58154 0
M  V30 7287 C 982.597 -4.94023 7.72785 0
M  V30 7288 O 981.541 -5.18726 6.91205 0
M  V30 7289 C 983.815 -4.69597 6.85231 0
M  V30 7290 O 984.553 -5.83832 6.51337 0
M  V30 7291 C 983.146 -3.96706 5.66633 0
M  V30 7292 O 983.945 -4.15414 4.49689 0
M  V30 7293 C 981.809 -4.66153 5.59313 0
M  V30 7294 H 981.841 -5.47679 4.85214 0
M  V30 7295 H 983.024 -2.89008 5.86566 0
M  V30 7296 H 984.508 -4.0121 7.36511 0
M  V30 7297 H 982.814 -5.80182 8.37584 0
M  V30 7298 H 982.624 -3.73517 9.52265 0
M  V30 7299 H 980.994 -3.97163 8.80359 0
M  V30 7300 H 983.633 -4.90969 4.01921 0
M  V30 7301 P 985.49 -5.75688 6.64379 0
M  V30 7302 O 986.912 -6.11849 7.01846 0
M  V30 7303 O 985.13 -4.30744 6.56026 0
M  V30 7304 O 985.167 -6.37042 5.19165 0
M  V30 7305 C 985.007 -7.83578 5.16515 0
M  V30 7306 C 985.547 -8.33398 3.83019 0
M  V30 7307 O 984.491 -8.10074 3.01034 0
M  V30 7308 C 986.765 -7.65514 3.2257 0
M  V30 7309 O 987.503 -8.4329 2.32297 0
M  V30 7310 C 986.096 -6.40075 2.62207 0
M  V30 7311 O 986.895 -5.92589 1.53712 0
M  V30 7312 C 984.759 -6.9454 2.18503 0
M  V30 7313 H 984.791 -7.23063 1.12091 0
M  V30 7314 H 985.974 -5.6025 3.37201 0
M  V30 7315 H 987.458 -7.35707 4.02681 0
M  V30 7316 H 985.764 -9.40912 3.9095 0
M  V30 7317 H 985.574 -8.29056 5.99158 0
M  V30 7318 H 983.944 -8.10073 5.25882 0
M  V30 7319 H 986.583 -6.30324 0.726794 0
M  V30 7320 P 988.441 -8.4349 2.47671 0
M  V30 7321 O 989.863 -8.94167 2.5964 0
M  V30 7322 O 988.081 -7.1704 3.19006 0
M  V30 7323 O 988.118 -8.16596 0.923387 0
M  V30 7324 C 987.958 -9.38437 0.108857 0
M  V30 7325 C 988.498 -9.08175 -1.28353 0
M  V30 7326 O 987.442 -8.44229 -1.84713 0
M  V30 7327 C 989.716 -8.18386 -1.42505 0
M  V30 7328 O 990.454 -8.3501 -2.60497 0
M  V30 7329 C 989.047 -6.80225 -1.25468 0
M  V30 7330 O 989.846 -5.81621 -1.91066 0
M  V30 7331 C 987.71 -7.02416 -1.9168 0
M  V30 7332 H 987.742 -6.6888 -2.96621 0
M  V30 7333 H 988.925 -6.53617 -0.192223 0
M  V30 7334 H 990.409 -8.36622 -0.589963 0
M  V30 7335 H 988.715 -10.0291 -1.79807 0
M  V30 7336 H 988.525 -10.2138 0.558219 0
M  V30 7337 H 986.895 -9.6579 0.0444202 0
M  V30 7338 H 989.534 -5.69556 -2.79637 0
M  V30 7339 P 991.392 -8.4349 -2.47671 0
M  V30 7340 O 992.814 -8.92593 -2.65 0
M  V30 7341 O 991.032 -7.7568 -1.19296 0
M  V30 7342 O 991.069 -7.36886 -3.63805 0
M  V30 7343 C 990.909 -7.95349 -4.982 0
M  V30 7344 C 991.449 -6.94612 -5.98974 0
M  V30 7345 O 990.393 -6.10347 -6.11815 0
M  V30 7346 C 992.667 -6.11426 -5.62335 0
M  V30 7347 O 993.405 -5.6162 -6.70584 0
M  V30 7348 C 991.998 -5.04409 -4.73308 0
M  V30 7349 O 992.797 -3.85992 -4.75183 0
M  V30 7350 C 990.661 -4.8728 -5.41006 0
M  V30 7351 H 990.693 -4.02333 -6.11157 0
M  V30 7352 H 991.876 -5.39466 -3.69543 0
M  V30 7353 H 993.36 -6.71916 -5.01943 0
M  V30 7354 H 991.666 -7.4649 -6.93477 0
M  V30 7355 H 991.476 -8.89416 -5.05237 0
M  V30 7356 H 989.846 -8.14876 -5.18409 0
M  V30 7357 H 992.485 -3.27957 -5.4317 0
M  V30 7358 P 994.342 -5.75688 -6.64379 0
M  V30 7359 O 995.764 -6.07627 -7.05504 0
M  V30 7360 O 993.982 -5.88047 -5.19722 0
M  V30 7361 O 994.019 -4.2322 -7.04443 0
M  V30 7362 C 993.859 -3.99743 -8.4911 0
M  V30 7363 C 994.399 -2.60516 -8.79425 0
M  V30 7364 O 993.343 -1.82684 -8.4467 0
M  V30 7365 C 995.617 -2.10343 -8.03628 0
M  V30 7366 O 996.355 -1.09919 -8.67766 0
M  V30 7367 C 994.948 -1.68446 -6.70876 0
M  V30 7368 O 995.747 -0.678137 -6.08433 0
M  V30 7369 C 993.611 -1.17436 -7.18567 0
M  V30 7370 H 993.643 -0.0804732 -7.31656 0
M  V30 7371 H 994.826 -2.54037 -6.02537 0
M  V30 7372 H 996.31 -2.93881 -7.85526 0
M  V30 7373 H 994.616 -2.53065 -9.86973 0
M  V30 7374 H 994.426 -4.75072 -9.05887 0
M  V30 7375 H 992.796 -4.05244 -8.76668 0
M  V30 7376 H 995.435 0.177647 -6.34251 0
M  V30 7377 P 997.293 -1.25109 -8.70152 0
M  V30 7378 O 998.715 -1.29744 -9.22016 0
M  V30 7379 O 996.933 -2.13714 -7.55141 0
M  V30 7380 O 996.97 0.248149 -8.21425 0
M  V30 7381 C 996.81 1.22779 -9.30434 0
M  V30 7382 C 997.35 2.56293 -8.80664 0
M  V30 7383 O 996.294 3.02979 -8.09349 0
M  V30 7384 C 998.568 2.57523 -7.89775 0
M  V30 7385 O 999.306 3.7668 -7.89438 0
M  V30 7386 C 997.899 2.20997 -6.55446 0
M  V30 7387 O 998.698 2.71895 -5.48509 0
M  V30 7388 C 996.562 2.89693 -6.67988 0
M  V30 7389 H 996.594 3.88793 -6.19859 0
M  V30 7390 H 997.777 1.12046 -6.44229 0
M  V30 7391 H 999.261 1.7746 -8.19711 0
M  V30 7392 H 997.567 3.20706 -9.67112 0
M  V30 7393 H 997.377 0.901032 -10.1892 0
M  V30 7394 H 995.747 1.33049 -9.56592 0
M  V30 7395 H 998.386 3.57847 -5.23962 0
M  V30 7396 P 1000.24 3.65191 -7.99657 0
M  V30 7397 O 1001.67 3.89332 -8.45794 0
M  V30 7398 O 999.883 2.28472 -7.50807 0
M  V30 7399 O 999.92 4.64972 -6.77611 0
M  V30 7400 C 999.76 6.06319 -7.16352 0
M  V30 7401 C 1000.3 6.91731 -6.02299 0
M  V30 7402 O 999.244 6.92449 -5.17064 0
M  V30 7403 C 1001.52 6.43627 -5.25174 0
M  V30 7404 O 1002.26 7.43686 -4.60469 0
M  V30 7405 C 1000.85 5.40275 -4.31916 0
M  V30 7406 O 1001.65 5.25279 -3.14438 0
M  V30 7407 C 999.512 6.04847 -4.05327 0
M  V30 7408 H 999.544 6.62195 -3.11261 0
M  V30 7409 H 1000.73 4.42556 -4.81383 0
M  V30 7410 H 1002.21 5.92458 -5.93643 0
M  V30 7411 H 1000.52 7.92655 -6.402 0
M  V30 7412 H 1000.33 6.26671 -8.0846 0
M  V30 7413 H 998.697 6.29101 -7.32804 0
M  V30 7414 H 1001.34 5.84315 -2.47318 0
M  V30 7415 P 1003.19 7.39546 -4.75277 0
M  V30 7416 O 1004.62 7.84798 -5.01039 0
M  V30 7417 O 1002.83 5.9812 -5.08098 0
M  V30 7418 O 1002.87 7.57503 -3.1866 0
M  V30 7419 C 1002.71 8.97357 -2.74833 0
M  V30 7420 C 1003.25 9.07548 -1.32709 0
M  V30 7421 O 1002.19 8.62072 -0.606159 0
M  V30 7422 C 1004.47 8.25383 -0.938334 0
M  V30 7423 O 1005.21 8.74577 0.146954 0
M  V30 7424 C 1003.8 6.8802 -0.712559 0
M  V30 7425 O 1004.6 6.1189 0.194655 0
M  V30 7426 C 1002.46 7.27966 -0.139777 0
M  V30 7427 H 1002.49 7.25354 0.961601 0
M  V30 7428 H 1003.68 6.32557 -1.65702 0
M  V30 7429 H 1005.16 8.19355 -1.79097 0
M  V30 7430 H 1003.47 10.1294 -1.10029 0
M  V30 7431 H 1003.28 9.64276 -3.41316 0
M  V30 7432 H 1001.65 9.25417 -2.76357 0
M  V30 7433 H 1004.29 6.25267 1.07847 0
M  V30 7434 P 1006.14 8.791 7.86616e-12 0
M  V30 7435 O 1007.57 9.31196 0.027936 0
M  V30 7436 O 1005.78 7.77869 -1.04071 0
M  V30 7437 O 1005.82 8.09533 1.41463 0
M  V30 7438 C 1005.66 9.03587 2.5397 0
M  V30 7439 C 1006.2 8.35226 3.79016 0
M  V30 7440 O 1005.15 7.57904 4.1503 0
M  V30 7441 C 1007.42 7.45087 3.67298 0
M  V30 7442 O 1008.16 7.27796 4.85194 0
M  V30 7443 C 1006.75 6.17323 3.12027 0
M  V30 7444 O 1007.55 5.04496 3.46627 0
M  V30 7445 C 1005.41 6.19961 3.81809 0
M  V30 7446 N 1004.37 5.71575 2.93223 0
M  V30 7447 C 1004.54 5.77362 1.59168 0
M  V30 7448 N 1003.51 5.3123 0.911893 0
M  V30 7449 C 1002.63 4.91717 1.89588 0
M  V30 7450 C 1001.36 4.3114 1.8076 0
M  V30 7451 N 1000.76 3.99821 0.632928 0
M  V30 7452 N 1000.8 4.06823 3.02898 0
M  V30 7453 C 1001.4 4.35062 4.22711 0
M  V30 7454 N 1002.57 4.90805 4.35707 0
M  V30 7455 C 1003.15 5.16382 3.14469 0
M  V30 7456 H 1005.45 5.58142 4.72986 0
M  V30 7457 H 1006.63 6.21428 2.0318 0
M  V30 7458 H 1008.11 7.86112 2.9231 0
M  V30 7459 H 1006.42 9.11171 4.55987 0
M  V30 7460 H 1006.23 9.9573 2.34194 0
M  V30 7461 H 1004.6 9.2792 2.67832 0
M  V30 7462 H 1000.86 4.09052 5.13359 0
M  V30 7463 H 1005.44 6.16575 1.12198 0
M  V30 7464 H 999.831 3.55423 0.632085 0
M  V30 7465 H 1001.24 4.20317 -0.256712 0
M  V30 7466 H 1007.24 4.67628 4.28704 0
M  V30 7467 P 1009.09 7.39546 4.75277 0
M  V30 7468 O 1010.52 7.81777 5.05738 0
M  V30 7469 O 1008.73 7.1065 3.32998 0
M  V30 7470 O 1008.77 6.04542 5.56673 0
M  V30 7471 C 1008.61 6.22772 7.02095 0
M  V30 7472 C 1009.15 4.97725 7.70406 0
M  V30 7473 O 1008.1 4.13256 7.58987 0
M  V30 7474 C 1010.37 4.28231 7.11815 0
M  V30 7475 O 1011.11 3.49945 8.01648 0
M  V30 7476 C 1009.7 3.5063 5.96244 0
M  V30 7477 O 1010.5 2.36482 5.64681 0
M  V30 7478 C 1008.36 3.15122 6.56374 0
M  V30 7479 H 1008.4 2.13853 6.99751 0
M  V30 7480 H 1009.58 4.13501 5.06559 0
M  V30 7481 H 1011.06 5.03285 6.70911 0
M  V30 7482 H 1009.37 5.20877 8.75697 0
M  V30 7483 H 1009.18 7.11046 7.35349 0
M  V30 7484 H 1007.55 6.35815 7.26986 0
M  V30 7485 H 1010.19 1.61644 6.13565 0
M  V30 7486 P 1012.05 3.65191 7.99657 0
M  V30 7487 O 1013.47 3.8425 8.48115 0
M  V30 7488 O 1011.69 4.17805 6.64342 0
M  V30 7489 O 1011.72 2.07613 7.95143 0
M  V30 7490 C 1011.56 1.44328 9.27336 0
M  V30 7491 C 1012.1 0.0220036 9.17197 0
M  V30 7492 O 1011.05 -0.626867 8.61923 0
M  V30 7493 C 1013.32 -0.24586 8.30336 0
M  V30 7494 O 1014.06 -1.39011 8.63583 0
M  V30 7495 C 1012.65 -0.273849 6.91158 0
M  V30 7496 O 1013.45 -1.06348 6.02892 0
M  V30 7497 C 1011.31 -0.897649 7.22545 0
M  V30 7498 H 1011.35 -1.9841 7.04286 0
M  V30 7499 H 1012.53 0.739928 6.497 0
M  V30 7500 H 1014.01 0.60668 8.36503 0
M  V30 7501 H 1012.32 -0.352479 10.1829 0
M  V30 7502 H 1012.13 2.00611 10.0304 0
M  V30 7503 H 1010.5 1.41843 9.55327 0
M  V30 7504 H 1013.14 -1.95734 6.03555 0
M  V30 7505 P 1015 -1.25109 8.70152 0
M  V30 7506 O 1016.42 -1.35303 9.21419 0
M  V30 7507 O 1014.64 -0.0769065 7.84762 0
M  V30 7508 O 1014.67 -2.55232 7.81161 0
M  V30 7509 C 1014.51 -3.79939 8.58154 0
M  V30 7510 C 1015.05 -4.93969 7.72701 0
M  V30 7511 O 1014 -5.18726 6.91205 0
M  V30 7512 C 1016.27 -4.69597 6.85231 0
M  V30 7513 O 1017.01 -5.83832 6.51337 0
M  V30 7514 C 1015.6 -3.96706 5.66633 0
M  V30 7515 O 1016.4 -4.15346 4.49615 0
M  V30 7516 C 1014.27 -4.66153 5.59313 0
M  V30 7517 N 1013.22 -3.71582 5.24027 0
M  V30 7518 C 1013.28 -2.46018 5.67902 0
M  V30 7519 N 1012.24 -1.74868 5.24518 0
M  V30 7520 C 1011.51 -2.61333 4.54528 0
M  V30 7521 C 1010.2 -2.46162 3.95441 0
M  V30 7522 O 1009.47 -1.46013 3.94122 0
M  V30 7523 N 1009.77 -3.59334 3.34752 0
M  V30 7524 C 1010.52 -4.79605 3.3023 0
M  V30 7525 N 1009.92 -5.82109 2.6065 0
M  V30 7526 N 1011.67 -4.97402 3.8843 0
M  V30 7527 C 1012.13 -3.86258 4.50476 0
M  V30 7528 H 1014.3 -5.47679 4.85214 0
M  V30 7529 H 1015.48 -2.88964 5.86476 0
M  V30 7530 H 1016.97 -4.01947 7.36109 0
M  V30 7531 H 1015.27 -5.80182 8.37584 0
M  V30 7532 H 1015.08 -3.73517 9.52265 0
M  V30 7533 H 1013.45 -3.97163 8.80359 0
M  V30 7534 H 1008.87 -3.5825 2.90294 0
M  V30 7535 H 1014.08 -2.06161 6.30974 0
M  V30 7536 H 1009.01 -5.66979 2.15354 0
M  V30 7537 H 1010.39 -6.73686 2.54344 0
M  V30 7538 H 1016.09 -4.90891 4.01857 0
M  V30 7539 P 1017.95 -5.75688 6.64379 0
M  V30 7540 O 1019.37 -6.11915 7.01921 0
M  V30 7541 O 1017.59 -4.30744 6.56026 0
M  V30 7542 O 1017.62 -6.37042 5.19165 0
M  V30 7543 C 1017.46 -7.83662 5.1657 0
M  V30 7544 C 1018 -8.33398 3.83019 0
M  V30 7545 O 1016.95 -8.0998 3.00999 0
M  V30 7546 C 1019.22 -7.65514 3.2257 0
M  V30 7547 O 1019.96 -8.4329 2.32297 0
M  V30 7548 C 1018.55 -6.40075 2.62207 0
M  V30 7549 O 1019.35 -5.92338 1.5428 0
M  V30 7550 C 1017.22 -6.9454 2.18503 0
M  V30 7551 N 1016.17 -5.95905 2.39948 0
M  V30 7552 C 1016.34 -4.98383 3.32108 0
M  V30 7553 N 1015.31 -4.16798 3.41761 0
M  V30 7554 C 1014.43 -4.65287 2.47461 0
M  V30 7555 C 1013.16 -4.18946 2.07461 0
M  V30 7556 N 1012.56 -3.09661 2.60717 0
M  V30 7557 N 1012.6 -4.95327 1.09101 0
M  V30 7558 C 1013.2 -6.04369 0.519812 0
M  V30 7559 N 1014.38 -6.50694 0.855982 0
M  V30 7560 C 1014.95 -5.75818 1.84322 0
M  V30 7561 H 1017.25 -7.22964 1.12076 0
M  V30 7562 H 1018.43 -5.60502 3.36589 0
M  V30 7563 H 1019.91 -7.35707 4.02681 0
M  V30 7564 H 1018.22 -9.41302 3.90009 0
M  V30 7565 H 1018.03 -8.29056 5.99158 0
M  V30 7566 H 1016.4 -8.10073 5.25882 0
M  V30 7567 H 1012.66 -6.55843 -0.270373 0
M  V30 7568 H 1017.24 -4.88564 3.92502 0
M  V30 7569 H 1011.63 -2.80523 2.27218 0
M  V30 7570 H 1013.04 -2.55848 3.34465 0
M  V30 7571 H 1019.04 -6.30224 0.72668 0
M  V30 7572 P 1020.9 -8.4349 2.47671 0
M  V30 7573 O 1022.32 -8.94167 2.5964 0
M  V30 7574 O 1020.54 -7.1704 3.19006 0
M  V30 7575 O 1020.57 -8.16596 0.923387 0
M  V30 7576 C 1020.41 -9.38437 0.108857 0
M  V30 7577 C 1020.95 -9.08175 -1.28353 0
M  V30 7578 O 1019.9 -8.44229 -1.84713 0
M  V30 7579 C 1022.17 -8.18386 -1.42505 0
M  V30 7580 O 1022.91 -8.3501 -2.60497 0
M  V30 7581 C 1021.5 -6.80225 -1.25468 0
M  V30 7582 O 1022.3 -5.81621 -1.91066 0
M  V30 7583 C 1020.17 -7.02416 -1.9168 0
M  V30 7584 H 1020.2 -6.6888 -2.96621 0
M  V30 7585 H 1021.38 -6.53617 -0.192223 0
M  V30 7586 H 1022.87 -8.36622 -0.589963 0
M  V30 7587 H 1021.17 -10.0291 -1.79807 0
M  V30 7588 H 1020.98 -10.2138 0.558219 0
M  V30 7589 H 1019.35 -9.6579 0.0444202 0
M  V30 7590 H 1021.99 -5.69556 -2.79637 0
M  V30 7591 P 1023.85 -8.4349 -2.47671 0
M  V30 7592 O 1025.27 -8.92593 -2.65 0
M  V30 7593 O 1023.49 -7.7568 -1.19296 0
M  V30 7594 O 1023.52 -7.36886 -3.63805 0
M  V30 7595 C 1023.36 -7.95349 -4.982 0
M  V30 7596 C 1023.9 -6.94612 -5.98974 0
M  V30 7597 O 1022.85 -6.10347 -6.11815 0
M  V30 7598 C 1025.12 -6.11426 -5.62335 0
M  V30 7599 O 1025.86 -5.6162 -6.70584 0
M  V30 7600 C 1024.45 -5.04409 -4.73308 0
M  V30 7601 O 1025.25 -3.85992 -4.75183 0
M  V30 7602 C 1023.12 -4.8728 -5.41006 0
M  V30 7603 H 1023.15 -4.02333 -6.11157 0
M  V30 7604 H 1024.33 -5.39466 -3.69543 0
M  V30 7605 H 1025.82 -6.71916 -5.01943 0
M  V30 7606 H 1024.12 -7.4649 -6.93477 0
M  V30 7607 H 1023.93 -8.89416 -5.05237 0
M  V30 7608 H 1022.3 -8.14876 -5.18409 0
M  V30 7609 H 1024.94 -3.27957 -5.4317 0
M  V30 7610 P 1026.8 -5.75688 -6.64379 0
M  V30 7611 O 1028.22 -6.07627 -7.05504 0
M  V30 7612 O 1026.44 -5.88047 -5.19722 0
M  V30 7613 O 1026.48 -4.2322 -7.04443 0
M  V30 7614 C 1026.32 -3.99743 -8.4911 0
M  V30 7615 C 1026.86 -2.60516 -8.79425 0
M  V30 7616 O 1025.8 -1.82684 -8.4467 0
M  V30 7617 C 1028.07 -2.10343 -8.03628 0
M  V30 7618 O 1028.81 -1.09919 -8.67766 0
M  V30 7619 C 1027.4 -1.68446 -6.70876 0
M  V30 7620 O 1028.2 -0.678137 -6.08433 0
M  V30 7621 C 1026.07 -1.17436 -7.18567 0
M  V30 7622 H 1026.1 -0.0804732 -7.31656 0
M  V30 7623 H 1027.28 -2.54037 -6.02537 0
M  V30 7624 H 1028.77 -2.93881 -7.85526 0
M  V30 7625 H 1027.07 -2.53065 -9.86973 0
M  V30 7626 H 1026.88 -4.75072 -9.05887 0
M  V30 7627 H 1025.25 -4.05244 -8.76668 0
M  V30 7628 H 1027.89 0.177647 -6.34251 0
M  V30 7629 P 1029.75 -1.25109 -8.70152 0
M  V30 7630 O 1031.17 -1.29744 -9.22016 0
M  V30 7631 O 1029.39 -2.13714 -7.55141 0
M  V30 7632 O 1029.43 0.248149 -8.21425 0
M  V30 7633 C 1029.27 1.22779 -9.30434 0
M  V30 7634 C 1029.81 2.56293 -8.80664 0
M  V30 7635 O 1028.75 3.02979 -8.09349 0
M  V30 7636 C 1031.02 2.57523 -7.89775 0
M  V30 7637 O 1031.76 3.7668 -7.89438 0
M  V30 7638 C 1030.35 2.20997 -6.55446 0
M  V30 7639 O 1031.15 2.71895 -5.48509 0
M  V30 7640 C 1029.02 2.89693 -6.67988 0
M  V30 7641 H 1029.05 3.88793 -6.19859 0
M  V30 7642 H 1030.23 1.12046 -6.44229 0
M  V30 7643 H 1031.72 1.7746 -8.19711 0
M  V30 7644 H 1030.02 3.20706 -9.67112 0
M  V30 7645 H 1029.83 0.901032 -10.1892 0
M  V30 7646 H 1028.2 1.33049 -9.56592 0
M  V30 7647 H 1030.84 3.57847 -5.23962 0
M  V30 7648 P 1032.7 3.65191 -7.99657 0
M  V30 7649 O 1034.12 3.89332 -8.45794 0
M  V30 7650 O 1032.34 2.28472 -7.50807 0
M  V30 7651 O 1032.38 4.64972 -6.77611 0
M  V30 7652 C 1032.22 6.06319 -7.16352 0
M  V30 7653 C 1032.76 6.91731 -6.02299 0
M  V30 7654 O 1031.7 6.92449 -5.17064 0
M  V30 7655 C 1033.97 6.43627 -5.25174 0
M  V30 7656 O 1034.71 7.43686 -4.60469 0
M  V30 7657 C 1033.31 5.40275 -4.31916 0
M  V30 7658 O 1034.1 5.25279 -3.14438 0
M  V30 7659 C 1031.97 6.04847 -4.05327 0
M  V30 7660 H 1032 6.62195 -3.11261 0
M  V30 7661 H 1033.18 4.42556 -4.81383 0
M  V30 7662 H 1034.67 5.92458 -5.93643 0
M  V30 7663 H 1032.97 7.92655 -6.402 0
M  V30 7664 H 1032.78 6.26671 -8.0846 0
M  V30 7665 H 1031.15 6.29101 -7.32804 0
M  V30 7666 H 1033.79 5.84315 -2.47318 0
M  V30 7667 P 1035.65 7.39546 -4.75277 0
M  V30 7668 O 1037.07 7.84882 -5.01092 0
M  V30 7669 O 1035.29 5.9812 -5.08098 0
M  V30 7670 O 1035.33 7.57503 -3.1866 0
M  V30 7671 C 1035.17 8.97452 -2.74862 0
M  V30 7672 C 1035.71 9.07548 -1.32709 0
M  V30 7673 O 1034.65 8.61972 -0.606089 0
M  V30 7674 C 1036.93 8.25383 -0.938334 0
M  V30 7675 O 1037.66 8.74577 0.146954 0
M  V30 7676 C 1036.26 6.8802 -0.712559 0
M  V30 7677 O 1037.06 6.1181 0.188505 0
M  V30 7678 C 1034.92 7.27966 -0.139777 0
M  V30 7679 N 1033.88 6.39368 -0.623421 0
M  V30 7680 C 1034.05 5.71761 -1.78245 0
M  V30 7681 N 1033.02 4.962 -2.10491 0
M  V30 7682 C 1032.13 5.16158 -1.0635 0
M  V30 7683 C 1030.87 4.60425 -0.810266 0
M  V30 7684 N 1030.27 3.7057 -1.62914 0
M  V30 7685 N 1030.3 5.06 0.348685 0
M  V30 7686 C 1030.9 5.94532 1.20395 0
M  V30 7687 N 1032.08 6.48452 1.01191 0
M  V30 7688 C 1032.66 6.04423 -0.146291 0
M  V30 7689 H 1034.95 7.25255 0.961469 0
M  V30 7690 H 1036.13 6.32625 -1.65044 0
M  V30 7691 H 1037.62 8.19355 -1.79097 0
M  V30 7692 H 1035.92 10.1305 -1.09016 0
M  V30 7693 H 1035.73 9.64276 -3.41316 0
M  V30 7694 H 1034.1 9.25417 -2.76357 0
M  V30 7695 H 1030.37 6.21659 2.10714 0
M  V30 7696 H 1034.95 5.79354 -2.38959 0
M  V30 7697 H 1029.34 3.33174 -1.38982 0
M  V30 7698 H 1030.74 3.39714 -2.48836 0
M  V30 7699 H 1036.74 6.25169 1.0783 0
M  V30 7700 P 1038.6 8.791 8.17632e-12 0
M  V30 7701 O 1040.02 9.31096 0.027933 0
M  V30 7702 O 1038.24 7.77869 -1.04071 0
M  V30 7703 O 1038.28 8.09533 1.41463 0
M  V30 7704 C 1038.12 9.0349 2.53943 0
M  V30 7705 C 1038.66 8.35226 3.79016 0
M  V30 7706 O 1037.6 7.57992 4.15078 0
M  V30 7707 C 1039.88 7.45087 3.67298 0
M  V30 7708 O 1040.61 7.27796 4.85194 0
M  V30 7709 C 1039.21 6.17323 3.12027 0
M  V30 7710 O 1040.01 5.04231 3.47188 0
M  V30 7711 C 1037.87 6.19961 3.81809 0
M  V30 7712 H 1037.9 5.58218 4.73051 0
M  V30 7713 H 1039.08 6.21726 2.02589 0
M  V30 7714 H 1040.57 7.86112 2.9231 0
M  V30 7715 H 1038.87 9.11627 4.55076 0
M  V30 7716 H 1038.68 9.9573 2.34194 0
M  V30 7717 H 1037.05 9.2792 2.67832 0
M  V30 7718 H 1039.69 4.67702 4.28772 0
M  V30 7719 P 1041.55 7.39546 4.75277 0
M  V30 7720 O 1042.97 7.81777 5.05738 0
M  V30 7721 O 1041.19 7.1065 3.32998 0
M  V30 7722 O 1041.23 6.04542 5.56673 0
M  V30 7723 C 1041.07 6.22772 7.02095 0
M  V30 7724 C 1041.61 4.97725 7.70406 0
M  V30 7725 O 1040.55 4.13256 7.58987 0
M  V30 7726 C 1042.83 4.28231 7.11815 0
M  V30 7727 O 1043.56 3.49945 8.01648 0
M  V30 7728 C 1042.16 3.5063 5.96244 0
M  V30 7729 O 1042.96 2.36482 5.64681 0
M  V30 7730 C 1040.82 3.15122 6.56374 0
M  V30 7731 H 1040.85 2.13853 6.99751 0
M  V30 7732 H 1042.04 4.13501 5.06559 0
M  V30 7733 H 1043.52 5.03285 6.70911 0
M  V30 7734 H 1041.83 5.20877 8.75697 0
M  V30 7735 H 1041.64 7.11046 7.35349 0
M  V30 7736 H 1040.01 6.35815 7.26986 0
M  V30 7737 H 1042.64 1.61644 6.13565 0
M  V30 7738 P 1044.5 3.65191 7.99657 0
M  V30 7739 O 1045.92 3.8425 8.48115 0
M  V30 7740 O 1044.14 4.17805 6.64342 0
M  V30 7741 O 1044.18 2.07613 7.95143 0
M  V30 7742 C 1044.02 1.44328 9.27336 0
M  V30 7743 C 1044.56 0.0220036 9.17197 0
M  V30 7744 O 1043.5 -0.626867 8.61923 0
M  V30 7745 C 1045.78 -0.24586 8.30336 0
M  V30 7746 O 1046.51 -1.39011 8.63583 0
M  V30 7747 C 1045.11 -0.273849 6.91158 0
M  V30 7748 O 1045.91 -1.06348 6.02892 0
M  V30 7749 C 1043.77 -0.897649 7.22545 0
M  V30 7750 H 1043.8 -1.9841 7.04286 0
M  V30 7751 H 1044.99 0.739928 6.497 0
M  V30 7752 H 1046.47 0.60668 8.36503 0
M  V30 7753 H 1044.78 -0.352479 10.1829 0
M  V30 7754 H 1044.59 2.00611 10.0304 0
M  V30 7755 H 1042.96 1.41843 9.55327 0
M  V30 7756 H 1045.59 -1.95734 6.03555 0
M  V30 7757 P 1047.45 -1.25109 8.70152 0
M  V30 7758 O 1048.87 -1.35274 9.21221 0
M  V30 7759 O 1047.09 -0.0769065 7.84762 0
M  V30 7760 O 1047.13 -2.55232 7.81161 0
M  V30 7761 C 1046.97 -3.79939 8.58154 0
M  V30 7762 C 1047.51 -4.94023 7.72785 0
M  V30 7763 O 1046.45 -5.18726 6.91205 0
M  V30 7764 C 1048.73 -4.69597 6.85231 0
M  V30 7765 O 1049.47 -5.83832 6.51337 0
M  V30 7766 C 1048.06 -3.96706 5.66633 0
M  V30 7767 O 1048.86 -4.15414 4.49689 0
M  V30 7768 C 1046.72 -4.66153 5.59313 0
M  V30 7769 H 1046.75 -5.47679 4.85214 0
M  V30 7770 H 1047.94 -2.89008 5.86566 0
M  V30 7771 H 1049.42 -4.0121 7.36511 0
M  V30 7772 H 1047.73 -5.80182 8.37584 0
M  V30 7773 H 1047.54 -3.73517 9.52265 0
M  V30 7774 H 1045.91 -3.97163 8.80359 0
M  V30 7775 H 1048.55 -4.90969 4.01921 0
M  V30 7776 P 1050.4 -5.75688 6.64379 0
M  V30 7777 O 1051.82 -6.11849 7.01846 0
M  V30 7778 O 1050.04 -4.30744 6.56026 0
M  V30 7779 O 1050.08 -6.37042 5.19165 0
M  V30 7780 C 1049.92 -7.83578 5.16515 0
M  V30 7781 C 1050.46 -8.33398 3.83019 0
M  V30 7782 O 1049.4 -8.10074 3.01034 0
M  V30 7783 C 1051.68 -7.65514 3.2257 0
M  V30 7784 O 1052.42 -8.4329 2.32297 0
M  V30 7785 C 1051.01 -6.40075 2.62207 0
M  V30 7786 O 1051.81 -5.92589 1.53712 0
M  V30 7787 C 1049.67 -6.9454 2.18503 0
M  V30 7788 H 1049.7 -7.23063 1.12091 0
M  V30 7789 H 1050.89 -5.6025 3.37201 0
M  V30 7790 H 1052.37 -7.35707 4.02681 0
M  V30 7791 H 1050.68 -9.40912 3.9095 0
M  V30 7792 H 1050.49 -8.29056 5.99158 0
M  V30 7793 H 1048.86 -8.10073 5.25882 0
M  V30 7794 H 1051.5 -6.30324 0.726794 0
M  V30 7795 P 1053.35 -8.4349 2.47671 0
M  V30 7796 O 1054.78 -8.94167 2.5964 0
M  V30 7797 O 1052.99 -7.1704 3.19006 0
M  V30 7798 O 1053.03 -8.16596 0.923387 0
M  V30 7799 C 1052.87 -9.38437 0.108857 0
M  V30 7800 C 1053.41 -9.08175 -1.28353 0
M  V30 7801 O 1052.35 -8.44229 -1.84713 0
M  V30 7802 C 1054.63 -8.18386 -1.42505 0
M  V30 7803 O 1055.37 -8.3501 -2.60497 0
M  V30 7804 C 1053.96 -6.80225 -1.25468 0
M  V30 7805 O 1054.76 -5.81621 -1.91066 0
M  V30 7806 C 1052.62 -7.02416 -1.9168 0
M  V30 7807 H 1052.65 -6.6888 -2.96621 0
M  V30 7808 H 1053.84 -6.53617 -0.192223 0
M  V30 7809 H 1055.32 -8.36622 -0.589963 0
M  V30 7810 H 1053.63 -10.0291 -1.79807 0
M  V30 7811 H 1053.44 -10.2138 0.558219 0
M  V30 7812 H 1051.81 -9.6579 0.0444202 0
M  V30 7813 H 1054.45 -5.69556 -2.79637 0
M  V30 7814 P 1056.3 -8.4349 -2.47671 0
M  V30 7815 O 1057.73 -8.92593 -2.65 0
M  V30 7816 O 1055.94 -7.7568 -1.19296 0
M  V30 7817 O 1055.98 -7.36886 -3.63805 0
M  V30 7818 C 1055.82 -7.95349 -4.982 0
M  V30 7819 C 1056.36 -6.94612 -5.98974 0
M  V30 7820 O 1055.31 -6.10347 -6.11815 0
M  V30 7821 C 1057.58 -6.11426 -5.62335 0
M  V30 7822 O 1058.32 -5.6162 -6.70584 0
M  V30 7823 C 1056.91 -5.04409 -4.73308 0
M  V30 7824 O 1057.71 -3.85992 -4.75183 0
M  V30 7825 C 1055.57 -4.8728 -5.41006 0
M  V30 7826 H 1055.61 -4.02333 -6.11157 0
M  V30 7827 H 1056.79 -5.39466 -3.69543 0
M  V30 7828 H 1058.27 -6.71916 -5.01943 0
M  V30 7829 H 1056.58 -7.4649 -6.93477 0
M  V30 7830 H 1056.39 -8.89416 -5.05237 0
M  V30 7831 H 1054.76 -8.14876 -5.18409 0
M  V30 7832 H 1057.4 -3.27957 -5.4317 0
M  V30 7833 P 1059.25 -5.75688 -6.64379 0
M  V30 7834 O 1060.68 -6.07627 -7.05504 0
M  V30 7835 O 1058.89 -5.88047 -5.19722 0
M  V30 7836 O 1058.93 -4.2322 -7.04443 0
M  V30 7837 C 1058.77 -3.99743 -8.4911 0
M  V30 7838 C 1059.31 -2.60516 -8.79425 0
M  V30 7839 O 1058.26 -1.82684 -8.4467 0
M  V30 7840 C 1060.53 -2.10343 -8.03628 0
M  V30 7841 O 1061.27 -1.09919 -8.67766 0
M  V30 7842 C 1059.86 -1.68446 -6.70876 0
M  V30 7843 O 1060.66 -0.678137 -6.08433 0
M  V30 7844 C 1058.52 -1.17436 -7.18567 0
M  V30 7845 H 1058.56 -0.0804732 -7.31656 0
M  V30 7846 H 1059.74 -2.54037 -6.02537 0
M  V30 7847 H 1061.22 -2.93881 -7.85526 0
M  V30 7848 H 1059.53 -2.53065 -9.86973 0
M  V30 7849 H 1059.34 -4.75072 -9.05887 0
M  V30 7850 H 1057.71 -4.05244 -8.76668 0
M  V30 7851 H 1060.35 0.177647 -6.34251 0
M  V30 7852 P 1062.21 -1.25109 -8.70152 0
M  V30 7853 O 1063.63 -1.29744 -9.22016 0
M  V30 7854 O 1061.85 -2.13714 -7.55141 0
M  V30 7855 O 1061.88 0.248149 -8.21425 0
M  V30 7856 C 1061.72 1.22779 -9.30434 0
M  V30 7857 C 1062.26 2.56293 -8.80664 0
M  V30 7858 O 1061.21 3.02979 -8.09349 0
M  V30 7859 C 1063.48 2.57523 -7.89775 0
M  V30 7860 O 1064.22 3.7668 -7.89438 0
M  V30 7861 C 1062.81 2.20997 -6.55446 0
M  V30 7862 O 1063.61 2.71895 -5.48509 0
M  V30 7863 C 1061.47 2.89693 -6.67988 0
M  V30 7864 H 1061.51 3.88793 -6.19859 0
M  V30 7865 H 1062.69 1.12046 -6.44229 0
M  V30 7866 H 1064.17 1.7746 -8.19711 0
M  V30 7867 H 1062.48 3.20706 -9.67112 0
M  V30 7868 H 1062.29 0.901032 -10.1892 0
M  V30 7869 H 1060.66 1.33049 -9.56592 0
M  V30 7870 H 1063.3 3.57847 -5.23962 0
M  V30 7871 P 1065.16 3.65191 -7.99657 0
M  V30 7872 O 1066.58 3.89332 -8.45794 0
M  V30 7873 O 1064.8 2.28472 -7.50807 0
M  V30 7874 O 1064.83 4.64972 -6.77611 0
M  V30 7875 C 1064.67 6.06319 -7.16352 0
M  V30 7876 C 1065.21 6.91731 -6.02299 0
M  V30 7877 O 1064.16 6.92449 -5.17064 0
M  V30 7878 C 1066.43 6.43627 -5.25174 0
M  V30 7879 O 1067.17 7.43686 -4.60469 0
M  V30 7880 C 1065.76 5.40275 -4.31916 0
M  V30 7881 O 1066.56 5.25279 -3.14438 0
M  V30 7882 C 1064.42 6.04847 -4.05327 0
M  V30 7883 H 1064.46 6.62195 -3.11261 0
M  V30 7884 H 1065.64 4.42556 -4.81383 0
M  V30 7885 H 1067.12 5.92458 -5.93643 0
M  V30 7886 H 1065.43 7.92655 -6.402 0
M  V30 7887 H 1065.24 6.26671 -8.0846 0
M  V30 7888 H 1063.61 6.29101 -7.32804 0
M  V30 7889 H 1066.25 5.84315 -2.47318 0
M  V30 7890 P 1068.11 7.39546 -4.75277 0
M  V30 7891 O 1069.53 7.84798 -5.01039 0
M  V30 7892 O 1067.75 5.9812 -5.08098 0
M  V30 7893 O 1067.78 7.57503 -3.1866 0
M  V30 7894 C 1067.62 8.97357 -2.74833 0
M  V30 7895 C 1068.16 9.07548 -1.32709 0
M  V30 7896 O 1067.11 8.62072 -0.606159 0
M  V30 7897 C 1069.38 8.25383 -0.938334 0
M  V30 7898 O 1070.12 8.74577 0.146954 0
M  V30 7899 C 1068.71 6.8802 -0.712559 0
M  V30 7900 O 1069.51 6.1189 0.194655 0
M  V30 7901 C 1067.38 7.27966 -0.139777 0
M  V30 7902 H 1067.41 7.25354 0.961601 0
M  V30 7903 H 1068.59 6.32557 -1.65702 0
M  V30 7904 H 1070.07 8.19355 -1.79097 0
M  V30 7905 H 1068.38 10.1294 -1.10029 0
M  V30 7906 H 1068.19 9.64276 -3.41316 0
M  V30 7907 H 1066.56 9.25417 -2.76357 0
M  V30 7908 H 1069.2 6.25267 1.07847 0
M  V30 7909 P 1071.06 8.791 8.48649e-12 0
M  V30 7910 O 1072.48 9.31096 0.027933 0
M  V30 7911 O 1070.7 7.77869 -1.04071 0
M  V30 7912 O 1070.73 8.09533 1.41463 0
M  V30 7913 C 1070.57 9.0349 2.53943 0
M  V30 7914 C 1071.11 8.35226 3.79016 0
M  V30 7915 O 1070.06 7.57992 4.15078 0
M  V30 7916 C 1072.33 7.45087 3.67298 0
M  V30 7917 O 1073.07 7.27796 4.85194 0
M  V30 7918 C 1071.66 6.17323 3.12027 0
M  V30 7919 O 1072.46 5.04231 3.47188 0
M  V30 7920 C 1070.33 6.19961 3.81809 0
M  V30 7921 H 1070.36 5.58218 4.73051 0
M  V30 7922 H 1071.54 6.21726 2.02589 0
M  V30 7923 H 1073.02 7.86112 2.9231 0
M  V30 7924 H 1071.33 9.11627 4.55076 0
M  V30 7925 H 1071.14 9.9573 2.34194 0
M  V30 7926 H 1069.51 9.2792 2.67832 0
M  V30 7927 H 1072.15 4.67702 4.28772 0
M  V30 7928 P 1074.01 7.39546 4.75277 0
M  V30 7929 O 1075.43 7.81861 5.05793 0
M  V30 7930 O 1073.65 7.1065 3.32998 0
M  V30 7931 O 1073.68 6.04542 5.56673 0
M  V30 7932 C 1073.52 6.22839 7.02169 0
M  V30 7933 C 1074.06 4.97725 7.70406 0
M  V30 7934 O 1073.01 4.13208 7.58899 0
M  V30 7935 C 1075.28 4.28231 7.11815 0
M  V30 7936 O 1076.02 3.49945 8.01648 0
M  V30 7937 C 1074.61 3.5063 5.96244 0
M  V30 7938 O 1075.41 2.37008 5.64352 0
M  V30 7939 C 1073.28 3.15122 6.56374 0
M  V30 7940 N 1072.23 3.22311 5.55692 0
M  V30 7941 C 1072.4 3.99655 4.46046 0
M  V30 7942 N 1071.38 3.97599 3.63918 0
M  V30 7943 C 1070.49 3.11159 4.25334 0
M  V30 7944 C 1069.22 2.64972 3.85157 0
M  V30 7945 N 1068.62 3.02132 2.69405 0
M  V30 7946 N 1068.66 1.78482 4.74759 0
M  V30 7947 C 1069.26 1.37463 5.90819 0
M  V30 7948 N 1070.44 1.7733 6.31889 0
M  V30 7949 C 1071.01 2.64393 5.43725 0
M  V30 7950 H 1073.31 2.13823 6.99656 0
M  V30 7951 H 1074.49 4.12931 5.06895 0
M  V30 7952 H 1075.97 5.03285 6.70911 0
M  V30 7953 H 1074.28 5.20001 8.76217 0
M  V30 7954 H 1074.09 7.11046 7.35349 0
M  V30 7955 H 1072.46 6.35815 7.26986 0
M  V30 7956 H 1068.72 0.66574 6.53015 0
M  V30 7957 H 1073.3 4.58037 4.27732 0
M  V30 7958 H 1067.69 2.64828 2.45331 0
M  V30 7959 H 1069.1 3.67472 2.05644 0
M  V30 7960 H 1075.1 1.61619 6.13468 0
M  V30 7961 P 1076.96 3.65191 7.99657 0
M  V30 7962 O 1078.38 3.8425 8.48115 0
M  V30 7963 O 1076.6 4.17805 6.64342 0
M  V30 7964 O 1076.64 2.07613 7.95143 0
M  V30 7965 C 1076.48 1.44328 9.27336 0
M  V30 7966 C 1077.02 0.0220036 9.17197 0
M  V30 7967 O 1075.96 -0.626867 8.61923 0
M  V30 7968 C 1078.23 -0.24586 8.30336 0
M  V30 7969 O 1078.97 -1.39011 8.63583 0
M  V30 7970 C 1077.56 -0.273849 6.91158 0
M  V30 7971 O 1078.36 -1.06348 6.02892 0
M  V30 7972 C 1076.23 -0.897649 7.22545 0
M  V30 7973 H 1076.26 -1.9841 7.04286 0
M  V30 7974 H 1077.44 0.739928 6.497 0
M  V30 7975 H 1078.93 0.60668 8.36503 0
M  V30 7976 H 1077.23 -0.352479 10.1829 0
M  V30 7977 H 1077.04 2.00611 10.0304 0
M  V30 7978 H 1075.41 1.41843 9.55327 0
M  V30 7979 H 1078.05 -1.95734 6.03555 0
M  V30 7980 P 1079.91 -1.25109 8.70152 0
M  V30 7981 O 1081.33 -1.35274 9.21221 0
M  V30 7982 O 1079.55 -0.0769065 7.84762 0
M  V30 7983 O 1079.59 -2.55232 7.81161 0
M  V30 7984 C 1079.43 -3.79939 8.58154 0
M  V30 7985 C 1079.97 -4.94023 7.72785 0
M  V30 7986 O 1078.91 -5.18726 6.91205 0
M  V30 7987 C 1081.18 -4.69597 6.85231 0
M  V30 7988 O 1081.92 -5.83832 6.51337 0
M  V30 7989 C 1080.51 -3.96706 5.66633 0
M  V30 7990 O 1081.31 -4.15414 4.49689 0
M  V30 7991 C 1079.18 -4.66153 5.59313 0
M  V30 7992 H 1079.21 -5.47679 4.85214 0
M  V30 7993 H 1080.39 -2.89008 5.86566 0
M  V30 7994 H 1081.88 -4.0121 7.36511 0
M  V30 7995 H 1080.18 -5.80182 8.37584 0
M  V30 7996 H 1079.99 -3.73517 9.52265 0
M  V30 7997 H 1078.36 -3.97163 8.80359 0
M  V30 7998 H 1081 -4.90969 4.01921 0
M  V30 7999 P 1082.86 -5.75688 6.64379 0
M  V30 8000 O 1084.28 -6.11849 7.01846 0
M  V30 8001 O 1082.5 -4.30744 6.56026 0
M  V30 8002 O 1082.54 -6.37042 5.19165 0
M  V30 8003 C 1082.38 -7.83578 5.16515 0
M  V30 8004 C 1082.92 -8.33398 3.83019 0
M  V30 8005 O 1081.86 -8.10074 3.01034 0
M  V30 8006 C 1084.13 -7.65514 3.2257 0
M  V30 8007 O 1084.87 -8.4329 2.32297 0
M  V30 8008 C 1083.47 -6.40075 2.62207 0
M  V30 8009 O 1084.26 -5.92589 1.53712 0
M  V30 8010 C 1082.13 -6.9454 2.18503 0
M  V30 8011 H 1082.16 -7.23063 1.12091 0
M  V30 8012 H 1083.34 -5.6025 3.37201 0
M  V30 8013 H 1084.83 -7.35707 4.02681 0
M  V30 8014 H 1083.13 -9.40912 3.9095 0
M  V30 8015 H 1082.94 -8.29056 5.99158 0
M  V30 8016 H 1081.31 -8.10073 5.25882 0
M  V30 8017 H 1083.95 -6.30324 0.726794 0
M  V30 8018 P 1085.81 -8.4349 2.47671 0
M  V30 8019 O 1087.23 -8.94167 2.5964 0
M  V30 8020 O 1085.45 -7.1704 3.19006 0
M  V30 8021 O 1085.49 -8.16596 0.923387 0
M  V30 8022 C 1085.33 -9.38437 0.108857 0
M  V30 8023 C 1085.87 -9.08175 -1.28353 0
M  V30 8024 O 1084.81 -8.44229 -1.84713 0
M  V30 8025 C 1087.08 -8.18386 -1.42505 0
M  V30 8026 O 1087.82 -8.3501 -2.60497 0
M  V30 8027 C 1086.42 -6.80225 -1.25468 0
M  V30 8028 O 1087.21 -5.81621 -1.91066 0
M  V30 8029 C 1085.08 -7.02416 -1.9168 0
M  V30 8030 H 1085.11 -6.6888 -2.96621 0
M  V30 8031 H 1086.29 -6.53617 -0.192223 0
M  V30 8032 H 1087.78 -8.36622 -0.589963 0
M  V30 8033 H 1086.08 -10.0291 -1.79807 0
M  V30 8034 H 1085.89 -10.2138 0.558219 0
M  V30 8035 H 1084.26 -9.6579 0.0444202 0
M  V30 8036 H 1086.9 -5.69556 -2.79637 0
M  V30 8037 P 1088.76 -8.4349 -2.47671 0
M  V30 8038 O 1090.18 -8.92593 -2.65 0
M  V30 8039 O 1088.4 -7.7568 -1.19296 0
M  V30 8040 O 1088.44 -7.36886 -3.63805 0
M  V30 8041 C 1088.28 -7.95349 -4.982 0
M  V30 8042 C 1088.82 -6.94612 -5.98974 0
M  V30 8043 O 1087.76 -6.10347 -6.11815 0
M  V30 8044 C 1090.04 -6.11426 -5.62335 0
M  V30 8045 O 1090.77 -5.6162 -6.70584 0
M  V30 8046 C 1089.37 -5.04409 -4.73308 0
M  V30 8047 O 1090.17 -3.85992 -4.75183 0
M  V30 8048 C 1088.03 -4.8728 -5.41006 0
M  V30 8049 H 1088.06 -4.02333 -6.11157 0
M  V30 8050 H 1089.24 -5.39466 -3.69543 0
M  V30 8051 H 1090.73 -6.71916 -5.01943 0
M  V30 8052 H 1089.03 -7.4649 -6.93477 0
M  V30 8053 H 1088.84 -8.89416 -5.05237 0
M  V30 8054 H 1087.21 -8.14876 -5.18409 0
M  V30 8055 H 1089.85 -3.27957 -5.4317 0
M  V30 8056 P 1091.71 -5.75688 -6.64379 0
M  V30 8057 O 1093.13 -6.07627 -7.05504 0
M  V30 8058 O 1091.35 -5.88047 -5.19722 0
M  V30 8059 O 1091.39 -4.2322 -7.04443 0
M  V30 8060 C 1091.23 -3.99743 -8.4911 0
M  V30 8061 C 1091.77 -2.60516 -8.79425 0
M  V30 8062 O 1090.71 -1.82684 -8.4467 0
M  V30 8063 C 1092.99 -2.10343 -8.03628 0
M  V30 8064 O 1093.72 -1.09919 -8.67766 0
M  V30 8065 C 1092.32 -1.68446 -6.70876 0
M  V30 8066 O 1093.12 -0.678137 -6.08433 0
M  V30 8067 C 1090.98 -1.17436 -7.18567 0
M  V30 8068 H 1091.01 -0.0804732 -7.31656 0
M  V30 8069 H 1092.19 -2.54037 -6.02537 0
M  V30 8070 H 1093.68 -2.93881 -7.85526 0
M  V30 8071 H 1091.98 -2.53065 -9.86973 0
M  V30 8072 H 1091.79 -4.75072 -9.05887 0
M  V30 8073 H 1090.16 -4.05244 -8.76668 0
M  V30 8074 H 1092.8 0.177647 -6.34251 0
M  V30 8075 P 1094.66 -1.25109 -8.70152 0
M  V30 8076 O 1096.08 -1.29744 -9.22016 0
M  V30 8077 O 1094.3 -2.13714 -7.55141 0
M  V30 8078 O 1094.34 0.248149 -8.21425 0
M  V30 8079 C 1094.18 1.22779 -9.30434 0
M  V30 8080 C 1094.72 2.56293 -8.80664 0
M  V30 8081 O 1093.66 3.02979 -8.09349 0
M  V30 8082 C 1095.94 2.57523 -7.89775 0
M  V30 8083 O 1096.67 3.7668 -7.89438 0
M  V30 8084 C 1095.27 2.20997 -6.55446 0
M  V30 8085 O 1096.07 2.71895 -5.48509 0
M  V30 8086 C 1093.93 2.89693 -6.67988 0
M  V30 8087 H 1093.96 3.88793 -6.19859 0
M  V30 8088 H 1095.15 1.12046 -6.44229 0
M  V30 8089 H 1096.63 1.7746 -8.19711 0
M  V30 8090 H 1094.94 3.20706 -9.67112 0
M  V30 8091 H 1094.75 0.901032 -10.1892 0
M  V30 8092 H 1093.12 1.33049 -9.56592 0
M  V30 8093 H 1095.75 3.57847 -5.23962 0
M  V30 8094 P 1097.61 3.65191 -7.99657 0
M  V30 8095 O 1099.03 3.89332 -8.45794 0
M  V30 8096 O 1097.25 2.28472 -7.50807 0
M  V30 8097 O 1097.29 4.64972 -6.77611 0
M  V30 8098 C 1097.13 6.06319 -7.16352 0
M  V30 8099 C 1097.67 6.91731 -6.02299 0
M  V30 8100 O 1096.61 6.92449 -5.17064 0
M  V30 8101 C 1098.89 6.43627 -5.25174 0
M  V30 8102 O 1099.63 7.43686 -4.60469 0
M  V30 8103 C 1098.22 5.40275 -4.31916 0
M  V30 8104 O 1099.02 5.25279 -3.14438 0
M  V30 8105 C 1096.88 6.04847 -4.05327 0
M  V30 8106 H 1096.91 6.62195 -3.11261 0
M  V30 8107 H 1098.1 4.42556 -4.81383 0
M  V30 8108 H 1099.58 5.92458 -5.93643 0
M  V30 8109 H 1097.89 7.92655 -6.402 0
M  V30 8110 H 1097.7 6.26671 -8.0846 0
M  V30 8111 H 1096.07 6.29101 -7.32804 0
M  V30 8112 H 1098.71 5.84315 -2.47318 0
M  V30 8113 P 1100.56 7.39546 -4.75277 0
M  V30 8114 O 1101.98 7.84798 -5.01039 0
M  V30 8115 O 1100.2 5.9812 -5.08098 0
M  V30 8116 O 1100.24 7.57503 -3.1866 0
M  V30 8117 C 1100.08 8.97357 -2.74833 0
M  V30 8118 C 1100.62 9.07548 -1.32709 0
M  V30 8119 O 1099.56 8.62072 -0.606159 0
M  V30 8120 C 1101.84 8.25383 -0.938334 0
M  V30 8121 O 1102.58 8.74577 0.146954 0
M  V30 8122 C 1101.17 6.8802 -0.712559 0
M  V30 8123 O 1101.97 6.1189 0.194655 0
M  V30 8124 C 1099.83 7.27966 -0.139777 0
M  V30 8125 H 1099.86 7.25354 0.961601 0
M  V30 8126 H 1101.05 6.32557 -1.65702 0
M  V30 8127 H 1102.53 8.19355 -1.79097 0
M  V30 8128 H 1100.84 10.1294 -1.10029 0
M  V30 8129 H 1100.65 9.64276 -3.41316 0
M  V30 8130 H 1099.02 9.25417 -2.76357 0
M  V30 8131 H 1101.66 6.25267 1.07847 0
M  V30 8132 P 1103.51 8.791 8.79665e-12 0
M  V30 8133 O 1104.94 9.31096 0.027933 0
M  V30 8134 O 1103.15 7.77869 -1.04071 0
M  V30 8135 O 1103.19 8.09533 1.41463 0
M  V30 8136 C 1103.03 9.0349 2.53943 0
M  V30 8137 C 1103.57 8.35226 3.79016 0
M  V30 8138 O 1102.51 7.57992 4.15078 0
M  V30 8139 C 1104.79 7.45087 3.67298 0
M  V30 8140 O 1105.53 7.27796 4.85194 0
M  V30 8141 C 1104.12 6.17323 3.12027 0
M  V30 8142 O 1104.92 5.04231 3.47188 0
M  V30 8143 C 1102.78 6.19961 3.81809 0
M  V30 8144 H 1102.81 5.58218 4.73051 0
M  V30 8145 H 1104 6.21726 2.02589 0
M  V30 8146 H 1105.48 7.86112 2.9231 0
M  V30 8147 H 1103.79 9.11627 4.55076 0
M  V30 8148 H 1103.6 9.9573 2.34194 0
M  V30 8149 H 1101.97 9.2792 2.67832 0
M  V30 8150 H 1104.61 4.67702 4.28772 0
M  V30 8151 P 1106.46 7.39546 4.75277 0
M  V30 8152 O 1107.88 7.81861 5.05793 0
M  V30 8153 O 1106.1 7.1065 3.32998 0
M  V30 8154 O 1106.14 6.04542 5.56673 0
M  V30 8155 C 1105.98 6.22839 7.02169 0
M  V30 8156 C 1106.52 4.97725 7.70406 0
M  V30 8157 O 1105.47 4.13208 7.58899 0
M  V30 8158 C 1107.74 4.28231 7.11815 0
M  V30 8159 O 1108.48 3.49945 8.01648 0
M  V30 8160 C 1107.07 3.5063 5.96244 0
M  V30 8161 O 1107.87 2.37008 5.64352 0
M  V30 8162 C 1105.73 3.15122 6.56374 0
M  V30 8163 N 1104.69 3.22311 5.55692 0
M  V30 8164 C 1104.86 3.99655 4.46046 0
M  V30 8165 N 1103.83 3.97599 3.63918 0
M  V30 8166 C 1102.95 3.11159 4.25334 0
M  V30 8167 C 1101.68 2.64972 3.85157 0
M  V30 8168 N 1101.08 3.02132 2.69405 0
M  V30 8169 N 1101.11 1.78482 4.74759 0
M  V30 8170 C 1101.72 1.37463 5.90819 0
M  V30 8171 N 1102.89 1.7733 6.31889 0
M  V30 8172 C 1103.47 2.64393 5.43725 0
M  V30 8173 H 1105.76 2.13823 6.99656 0
M  V30 8174 H 1106.95 4.12931 5.06895 0
M  V30 8175 H 1108.43 5.03285 6.70911 0
M  V30 8176 H 1106.74 5.20001 8.76217 0
M  V30 8177 H 1106.55 7.11046 7.35349 0
M  V30 8178 H 1104.92 6.35815 7.26986 0
M  V30 8179 H 1101.18 0.66574 6.53015 0
M  V30 8180 H 1105.76 4.58037 4.27732 0
M  V30 8181 H 1100.15 2.64828 2.45331 0
M  V30 8182 H 1101.55 3.67472 2.05644 0
M  V30 8183 H 1107.56 1.61619 6.13468 0
M  V30 8184 P 1109.41 3.65191 7.99657 0
M  V30 8185 O 1110.84 3.8425 8.48115 0
M  V30 8186 O 1109.05 4.17805 6.64342 0
M  V30 8187 O 1109.09 2.07613 7.95143 0
M  V30 8188 C 1108.93 1.44328 9.27336 0
M  V30 8189 C 1109.47 0.0220036 9.17197 0
M  V30 8190 O 1108.42 -0.626867 8.61923 0
M  V30 8191 C 1110.69 -0.24586 8.30336 0
M  V30 8192 O 1111.43 -1.39011 8.63583 0
M  V30 8193 C 1110.02 -0.273849 6.91158 0
M  V30 8194 O 1110.82 -1.06348 6.02892 0
M  V30 8195 C 1108.68 -0.897649 7.22545 0
M  V30 8196 H 1108.72 -1.9841 7.04286 0
M  V30 8197 H 1109.9 0.739928 6.497 0
M  V30 8198 H 1111.38 0.60668 8.36503 0
M  V30 8199 H 1109.69 -0.352479 10.1829 0
M  V30 8200 H 1109.5 2.00611 10.0304 0
M  V30 8201 H 1107.87 1.41843 9.55327 0
M  V30 8202 H 1110.51 -1.95734 6.03555 0
M  V30 8203 P 1112.36 -1.25109 8.70152 0
M  V30 8204 O 1113.79 -1.35274 9.21221 0
M  V30 8205 O 1112 -0.0769065 7.84762 0
M  V30 8206 O 1112.04 -2.55232 7.81161 0
M  V30 8207 C 1111.88 -3.79939 8.58154 0
M  V30 8208 C 1112.42 -4.94023 7.72785 0
M  V30 8209 O 1111.37 -5.18726 6.91205 0
M  V30 8210 C 1113.64 -4.69597 6.85231 0
M  V30 8211 O 1114.38 -5.83832 6.51337 0
M  V30 8212 C 1112.97 -3.96706 5.66633 0
M  V30 8213 O 1113.77 -4.15414 4.49689 0
M  V30 8214 C 1111.63 -4.66153 5.59313 0
M  V30 8215 H 1111.67 -5.47679 4.85214 0
M  V30 8216 H 1112.85 -2.89008 5.86566 0
M  V30 8217 H 1114.33 -4.0121 7.36511 0
M  V30 8218 H 1112.64 -5.80182 8.37584 0
M  V30 8219 H 1112.45 -3.73517 9.52265 0
M  V30 8220 H 1110.82 -3.97163 8.80359 0
M  V30 8221 H 1113.46 -4.90969 4.01921 0
M  V30 8222 P 1115.32 -5.75688 6.64379 0
M  V30 8223 O 1116.74 -6.11981 7.01997 0
M  V30 8224 O 1114.96 -4.30744 6.56026 0
M  V30 8225 O 1114.99 -6.37042 5.19165 0
M  V30 8226 C 1114.83 -7.83578 5.16515 0
M  V30 8227 C 1115.37 -8.33307 3.82977 0
M  V30 8228 O 1114.32 -8.10074 3.01034 0
M  V30 8229 C 1116.59 -7.65514 3.2257 0
M  V30 8230 O 1117.33 -8.4329 2.32297 0
M  V30 8231 C 1115.92 -6.40075 2.62207 0
M  V30 8232 O 1116.72 -5.92492 1.53687 0
M  V30 8233 C 1114.58 -6.9454 2.18503 0
M  V30 8234 N 1113.54 -5.95905 2.39948 0
M  V30 8235 C 1113.6 -5.13994 3.44742 0
M  V30 8236 N 1112.56 -4.30684 3.46712 0
M  V30 8237 C 1111.82 -4.65583 2.41086 0
M  V30 8238 C 1110.52 -4.20877 1.99581 0
M  V30 8239 O 1109.79 -3.35913 2.52616 0
M  V30 8240 N 1110.09 -4.83271 0.873406 0
M  V30 8241 C 1110.84 -5.82006 0.185129 0
M  V30 8242 N 1110.24 -6.30619 -0.95439 0
M  V30 8243 N 1111.99 -6.28443 0.578524 0
M  V30 8244 C 1112.45 -5.68486 1.70138 0
M  V30 8245 H 1114.62 -7.23063 1.12091 0
M  V30 8246 H 1115.8 -5.60165 3.3715 0
M  V30 8247 H 1117.28 -7.3611 4.01946 0
M  V30 8248 H 1115.59 -9.40912 3.9095 0
M  V30 8249 H 1115.4 -8.29056 5.99158 0
M  V30 8250 H 1113.77 -8.10073 5.25882 0
M  V30 8251 H 1109.19 -4.58323 0.505262 0
M  V30 8252 H 1114.4 -5.14564 4.1935 0
M  V30 8253 H 1109.33 -5.93402 -1.25364 0
M  V30 8254 H 1110.71 -7.0425 -1.50254 0
M  V30 8255 H 1116.41 -6.30224 0.72668 0
M  V30 8256 P 1118.27 -8.4349 2.47671 0
M  V30 8257 O 1119.69 -8.94359 2.59696 0
M  V30 8258 O 1117.91 -7.1704 3.19006 0
M  V30 8259 O 1117.94 -8.16596 0.923387 0
M  V30 8260 C 1117.78 -9.38437 0.108857 0
M  V30 8261 C 1118.32 -9.08076 -1.28339 0
M  V30 8262 O 1117.27 -8.44229 -1.84713 0
M  V30 8263 C 1119.54 -8.18386 -1.42505 0
M  V30 8264 O 1120.28 -8.3501 -2.60497 0
M  V30 8265 C 1118.87 -6.80225 -1.25468 0
M  V30 8266 O 1119.67 -5.81526 -1.91035 0
M  V30 8267 C 1117.54 -7.02416 -1.9168 0
M  V30 8268 N 1116.49 -6.31033 -1.20314 0
M  V30 8269 C 1116.55 -6.18781 0.121293 0
M  V30 8270 N 1115.51 -5.49762 0.588272 0
M  V30 8271 C 1114.78 -5.22015 -0.488988 0
M  V30 8272 C 1113.47 -4.61966 -0.596448 0
M  V30 8273 O 1112.74 -4.19162 0.309059 0
M  V30 8274 N 1113.04 -4.53773 -1.878 0
M  V30 8275 C 1113.79 -4.99623 -2.99082 0
M  V30 8276 N 1113.19 -4.78912 -4.21227 0
M  V30 8277 N 1114.94 -5.59957 -2.91093 0
M  V30 8278 C 1115.4 -5.70225 -1.64218 0
M  V30 8279 H 1117.57 -6.6888 -2.96621 0
M  V30 8280 H 1118.75 -6.53517 -0.192194 0
M  V30 8281 H 1120.24 -8.36563 -0.598329 0
M  V30 8282 H 1118.54 -10.0291 -1.79807 0
M  V30 8283 H 1118.35 -10.2138 0.558219 0
M  V30 8284 H 1116.72 -9.6579 0.0444202 0
M  V30 8285 H 1112.14 -4.12883 -2.05283 0
M  V30 8286 H 1117.35 -6.59596 0.745856 0
M  V30 8287 H 1112.28 -4.31425 -4.2628 0
M  V30 8288 H 1113.66 -5.11219 -5.07148 0
M  V30 8289 H 1119.36 -5.69466 -2.79593 0
M  V30 8290 P 1121.22 -8.4349 -2.47671 0
M  V30 8291 O 1122.64 -8.92689 -2.65029 0
M  V30 8292 O 1120.86 -7.7568 -1.19296 0
M  V30 8293 O 1120.89 -7.36886 -3.63805 0
M  V30 8294 C 1120.73 -7.95433 -4.98253 0
M  V30 8295 C 1121.27 -6.94612 -5.98974 0
M  V30 8296 O 1120.22 -6.10277 -6.11744 0
M  V30 8297 C 1122.49 -6.11426 -5.62335 0
M  V30 8298 O 1123.23 -5.6162 -6.70584 0
M  V30 8299 C 1121.82 -5.04409 -4.73308 0
M  V30 8300 O 1122.62 -3.86404 -4.74719 0
M  V30 8301 C 1120.49 -4.8728 -5.41006 0
M  V30 8302 N 1119.44 -4.65812 -4.42377 0
M  V30 8303 C 1119.61 -5.09132 -3.15382 0
M  V30 8304 N 1118.58 -4.84021 -2.3716 0
M  V30 8305 C 1117.7 -4.18386 -3.20441 0
M  V30 8306 C 1116.43 -3.6275 -2.94905 0
M  V30 8307 N 1115.87 -3.05008 -4.05243 0
M  V30 8308 C 1116.47 -2.98348 -5.28159 0
M  V30 8309 N 1117.65 -3.48171 -5.56333 0
M  V30 8310 C 1118.22 -4.06869 -4.47212 0
M  V30 8311 H 1121.7 -5.39013 -3.70026 0
M  V30 8312 H 1123.18 -6.71916 -5.01943 0
M  V30 8313 H 1121.49 -7.45796 -6.94223 0
M  V30 8314 H 1121.3 -8.89416 -5.05237 0
M  V30 8315 H 1119.67 -8.14876 -5.18409 0
M  V30 8316 H 1120.51 -5.59989 -2.81362 0
M  V30 8317 H 1122.31 -3.27906 -5.43085 0
M  V30 8318 P 1124.17 -5.75688 -6.64379 0
M  V30 8319 O 1125.59 -6.07627 -7.05504 0
M  V30 8320 O 1123.81 -5.88047 -5.19722 0
M  V30 8321 O 1123.84 -4.2322 -7.04443 0
M  V30 8322 C 1123.68 -3.99743 -8.4911 0
M  V30 8323 C 1124.22 -2.60516 -8.79425 0
M  V30 8324 O 1123.17 -1.82684 -8.4467 0
M  V30 8325 C 1125.44 -2.10343 -8.03628 0
M  V30 8326 O 1126.18 -1.09919 -8.67766 0
M  V30 8327 C 1124.77 -1.68446 -6.70876 0
M  V30 8328 O 1125.57 -0.678137 -6.08433 0
M  V30 8329 C 1123.44 -1.17436 -7.18567 0
M  V30 8330 H 1123.47 -0.0804732 -7.31656 0
M  V30 8331 H 1124.65 -2.54037 -6.02537 0
M  V30 8332 H 1126.14 -2.93881 -7.85526 0
M  V30 8333 H 1124.44 -2.53065 -9.86973 0
M  V30 8334 H 1124.25 -4.75072 -9.05887 0
M  V30 8335 H 1122.62 -4.05244 -8.76668 0
M  V30 8336 H 1125.26 0.177647 -6.34251 0
M  V30 8337 P 1127.12 -1.25109 -8.70152 0
M  V30 8338 O 1128.54 -1.29744 -9.22016 0
M  V30 8339 O 1126.76 -2.13714 -7.55141 0
M  V30 8340 O 1126.79 0.248149 -8.21425 0
M  V30 8341 C 1126.63 1.22779 -9.30434 0
M  V30 8342 C 1127.17 2.56293 -8.80664 0
M  V30 8343 O 1126.12 3.02979 -8.09349 0
M  V30 8344 C 1128.39 2.57523 -7.89775 0
M  V30 8345 O 1129.13 3.7668 -7.89438 0
M  V30 8346 C 1127.72 2.20997 -6.55446 0
M  V30 8347 O 1128.52 2.71895 -5.48509 0
M  V30 8348 C 1126.39 2.89693 -6.67988 0
M  V30 8349 H 1126.42 3.88793 -6.19859 0
M  V30 8350 H 1127.6 1.12046 -6.44229 0
M  V30 8351 H 1129.09 1.7746 -8.19711 0
M  V30 8352 H 1127.39 3.20706 -9.67112 0
M  V30 8353 H 1127.2 0.901032 -10.1892 0
M  V30 8354 H 1125.57 1.33049 -9.56592 0
M  V30 8355 H 1128.21 3.57847 -5.23962 0
M  V30 8356 P 1130.07 3.65191 -7.99657 0
M  V30 8357 O 1131.49 3.89332 -8.45794 0
M  V30 8358 O 1129.71 2.28472 -7.50807 0
M  V30 8359 O 1129.75 4.64972 -6.77611 0
M  V30 8360 C 1129.59 6.06319 -7.16352 0
M  V30 8361 C 1130.13 6.91731 -6.02299 0
M  V30 8362 O 1129.07 6.92449 -5.17064 0
M  V30 8363 C 1131.34 6.43627 -5.25174 0
M  V30 8364 O 1132.08 7.43686 -4.60469 0
M  V30 8365 C 1130.67 5.40275 -4.31916 0
M  V30 8366 O 1131.47 5.25279 -3.14438 0
M  V30 8367 C 1129.34 6.04847 -4.05327 0
M  V30 8368 H 1129.37 6.62195 -3.11261 0
M  V30 8369 H 1130.55 4.42556 -4.81383 0
M  V30 8370 H 1132.04 5.92458 -5.93643 0
M  V30 8371 H 1130.34 7.92655 -6.402 0
M  V30 8372 H 1130.15 6.26671 -8.0846 0
M  V30 8373 H 1128.52 6.29101 -7.32804 0
M  V30 8374 H 1131.16 5.84315 -2.47318 0
M  V30 8375 P 1133.02 7.39546 -4.75277 0
M  V30 8376 O 1134.44 7.84798 -5.01039 0
M  V30 8377 O 1132.66 5.9812 -5.08098 0
M  V30 8378 O 1132.7 7.57503 -3.1866 0
M  V30 8379 C 1132.54 8.97357 -2.74833 0
M  V30 8380 C 1133.08 9.07548 -1.32709 0
M  V30 8381 O 1132.02 8.62072 -0.606159 0
M  V30 8382 C 1134.29 8.25383 -0.938334 0
M  V30 8383 O 1135.03 8.74577 0.146954 0
M  V30 8384 C 1133.62 6.8802 -0.712559 0
M  V30 8385 O 1134.42 6.1189 0.194655 0
M  V30 8386 C 1132.29 7.27966 -0.139777 0
M  V30 8387 H 1132.32 7.25354 0.961601 0
M  V30 8388 H 1133.5 6.32557 -1.65702 0
M  V30 8389 H 1134.99 8.19355 -1.79097 0
M  V30 8390 H 1133.29 10.1294 -1.10029 0
M  V30 8391 H 1133.1 9.64276 -3.41316 0
M  V30 8392 H 1131.47 9.25417 -2.76357 0
M  V30 8393 H 1134.11 6.25267 1.07847 0
M  V30 8394 P 1135.97 8.791 9.10682e-12 0
M  V30 8395 O 1137.39 9.31096 0.027933 0
M  V30 8396 O 1135.61 7.77869 -1.04071 0
M  V30 8397 O 1135.65 8.09533 1.41463 0
M  V30 8398 C 1135.49 9.0349 2.53943 0
M  V30 8399 C 1136.03 8.35226 3.79016 0
M  V30 8400 O 1134.97 7.57992 4.15078 0
M  V30 8401 C 1137.24 7.45087 3.67298 0
M  V30 8402 O 1137.98 7.27796 4.85194 0
M  V30 8403 C 1136.58 6.17323 3.12027 0
M  V30 8404 O 1137.37 5.04231 3.47188 0
M  V30 8405 C 1135.24 6.19961 3.81809 0
M  V30 8406 H 1135.27 5.58218 4.73051 0
M  V30 8407 H 1136.45 6.21726 2.02589 0
M  V30 8408 H 1137.94 7.86112 2.9231 0
M  V30 8409 H 1136.24 9.11627 4.55076 0
M  V30 8410 H 1136.05 9.9573 2.34194 0
M  V30 8411 H 1134.42 9.2792 2.67832 0
M  V30 8412 H 1137.06 4.67702 4.28772 0
M  V30 8413 P 1138.92 7.39546 4.75277 0
M  V30 8414 O 1140.34 7.81777 5.05738 0
M  V30 8415 O 1138.56 7.1065 3.32998 0
M  V30 8416 O 1138.6 6.04542 5.56673 0
M  V30 8417 C 1138.44 6.22772 7.02095 0
M  V30 8418 C 1138.98 4.97725 7.70406 0
M  V30 8419 O 1137.92 4.13256 7.58987 0
M  V30 8420 C 1140.2 4.28231 7.11815 0
M  V30 8421 O 1140.93 3.49945 8.01648 0
M  V30 8422 C 1139.53 3.5063 5.96244 0
M  V30 8423 O 1140.33 2.36482 5.64681 0
M  V30 8424 C 1138.19 3.15122 6.56374 0
M  V30 8425 H 1138.22 2.13853 6.99751 0
M  V30 8426 H 1139.4 4.13501 5.06559 0
M  V30 8427 H 1140.89 5.03285 6.70911 0
M  V30 8428 H 1139.19 5.20877 8.75697 0
M  V30 8429 H 1139 7.11046 7.35349 0
M  V30 8430 H 1137.37 6.35815 7.26986 0
M  V30 8431 H 1140.01 1.61644 6.13565 0
M  V30 8432 P 1141.87 3.65191 7.99657 0
M  V30 8433 O 1143.29 3.84292 8.48206 0
M  V30 8434 O 1141.51 4.17805 6.64342 0
M  V30 8435 O 1141.55 2.07613 7.95143 0
M  V30 8436 C 1141.39 1.44344 9.27435 0
M  V30 8437 C 1141.93 0.0220036 9.17197 0
M  V30 8438 O 1140.87 -0.626794 8.61824 0
M  V30 8439 C 1143.15 -0.24586 8.30336 0
M  V30 8440 O 1143.88 -1.39011 8.63583 0
M  V30 8441 C 1142.48 -0.273849 6.91158 0
M  V30 8442 O 1143.28 -1.05728 6.029 0
M  V30 8443 C 1141.14 -0.897649 7.22545 0
M  V30 8444 N 1140.1 -0.292839 6.41732 0
M  V30 8445 C 1140.27 0.950603 5.91308 0
M  V30 8446 N 1139.24 1.37732 5.21105 0
M  V30 8447 C 1138.35 0.318109 5.26039 0
M  V30 8448 C 1137.09 0.146766 4.6727 0
M  V30 8449 N 1136.52 -1.06525 4.95887 0
M  V30 8450 C 1137.12 -2.0378 5.71347 0
M  V30 8451 N 1138.3 -1.92445 6.27451 0
M  V30 8452 C 1138.88 -0.715382 6.00353 0
M  V30 8453 H 1142.35 0.733318 6.49674 0
M  V30 8454 H 1143.84 0.60668 8.36503 0
M  V30 8455 H 1142.14 -0.362662 10.1825 0
M  V30 8456 H 1141.95 2.00611 10.0304 0
M  V30 8457 H 1140.32 1.41843 9.55327 0
M  V30 8458 H 1141.17 1.54076 6.07465 0
M  V30 8459 H 1142.96 -1.95704 6.0346 0
M  V30 8460 P 1144.82 -1.25109 8.70152 0
M  V30 8461 O 1146.24 -1.35274 9.21221 0
M  V30 8462 O 1144.46 -0.0769065 7.84762 0
M  V30 8463 O 1144.5 -2.55232 7.81161 0
M  V30 8464 C 1144.34 -3.79939 8.58154 0
M  V30 8465 C 1144.88 -4.94023 7.72785 0
M  V30 8466 O 1143.82 -5.18726 6.91205 0
M  V30 8467 C 1146.1 -4.69597 6.85231 0
M  V30 8468 O 1146.83 -5.83832 6.51337 0
M  V30 8469 C 1145.43 -3.96706 5.66633 0
M  V30 8470 O 1146.23 -4.15414 4.49689 0
M  V30 8471 C 1144.09 -4.66153 5.59313 0
M  V30 8472 H 1144.12 -5.47679 4.85214 0
M  V30 8473 H 1145.31 -2.89008 5.86566 0
M  V30 8474 H 1146.79 -4.0121 7.36511 0
M  V30 8475 H 1145.1 -5.80182 8.37584 0
M  V30 8476 H 1144.91 -3.73517 9.52265 0
M  V30 8477 H 1143.28 -3.97163 8.80359 0
M  V30 8478 H 1145.91 -4.90969 4.01921 0
M  V30 8479 P 1147.77 -5.75688 6.64379 0
M  V30 8480 O 1149.19 -6.11849 7.01846 0
M  V30 8481 O 1147.41 -4.30744 6.56026 0
M  V30 8482 O 1147.45 -6.37042 5.19165 0
M  V30 8483 C 1147.29 -7.83578 5.16515 0
M  V30 8484 C 1147.83 -8.33398 3.83019 0
M  V30 8485 O 1146.77 -8.10074 3.01034 0
M  V30 8486 C 1149.05 -7.65514 3.2257 0
M  V30 8487 O 1149.78 -8.4329 2.32297 0
M  V30 8488 C 1148.38 -6.40075 2.62207 0
M  V30 8489 O 1149.18 -5.92589 1.53712 0
M  V30 8490 C 1147.04 -6.9454 2.18503 0
M  V30 8491 H 1147.07 -7.23063 1.12091 0
M  V30 8492 H 1148.26 -5.6025 3.37201 0
M  V30 8493 H 1149.74 -7.35707 4.02681 0
M  V30 8494 H 1148.05 -9.40912 3.9095 0
M  V30 8495 H 1147.86 -8.29056 5.99158 0
M  V30 8496 H 1146.23 -8.10073 5.25882 0
M  V30 8497 H 1148.86 -6.30324 0.726794 0
M  V30 8498 P 1150.72 -8.4349 2.47671 0
M  V30 8499 O 1152.14 -8.94359 2.59696 0
M  V30 8500 O 1150.36 -7.1704 3.19006 0
M  V30 8501 O 1150.4 -8.16596 0.923387 0
M  V30 8502 C 1150.24 -9.38437 0.108857 0
M  V30 8503 C 1150.78 -9.08076 -1.28339 0
M  V30 8504 O 1149.72 -8.44229 -1.84713 0
M  V30 8505 C 1152 -8.18386 -1.42505 0
M  V30 8506 O 1152.74 -8.3501 -2.60497 0
M  V30 8507 C 1151.33 -6.80225 -1.25468 0
M  V30 8508 O 1152.13 -5.81526 -1.91035 0
M  V30 8509 C 1149.99 -7.02416 -1.9168 0
M  V30 8510 N 1148.95 -6.31033 -1.20314 0
M  V30 8511 C 1149.01 -6.18781 0.121293 0
M  V30 8512 N 1147.97 -5.49762 0.588272 0
M  V30 8513 C 1147.23 -5.22015 -0.488988 0
M  V30 8514 C 1145.93 -4.61966 -0.596448 0
M  V30 8515 O 1145.19 -4.19162 0.309059 0
M  V30 8516 N 1145.5 -4.53773 -1.878 0
M  V30 8517 C 1146.24 -4.99623 -2.99082 0
M  V30 8518 N 1145.65 -4.78912 -4.21227 0
M  V30 8519 N 1147.4 -5.59957 -2.91093 0
M  V30 8520 C 1147.85 -5.70225 -1.64218 0
M  V30 8521 H 1150.02 -6.6888 -2.96621 0
M  V30 8522 H 1151.21 -6.53517 -0.192194 0
M  V30 8523 H 1152.69 -8.36563 -0.598329 0
M  V30 8524 H 1151 -10.0291 -1.79807 0
M  V30 8525 H 1150.81 -10.2138 0.558219 0
M  V30 8526 H 1149.18 -9.6579 0.0444202 0
M  V30 8527 H 1144.6 -4.12883 -2.05283 0
M  V30 8528 H 1149.81 -6.59596 0.745856 0
M  V30 8529 H 1144.74 -4.31425 -4.2628 0
M  V30 8530 H 1146.11 -5.11219 -5.07148 0
M  V30 8531 H 1151.82 -5.69466 -2.79593 0
M  V30 8532 P 1153.67 -8.4349 -2.47671 0
M  V30 8533 O 1155.09 -8.92785 -2.65057 0
M  V30 8534 O 1153.31 -7.7568 -1.19296 0
M  V30 8535 O 1153.35 -7.36886 -3.63805 0
M  V30 8536 C 1153.19 -7.95349 -4.982 0
M  V30 8537 C 1153.73 -6.94537 -5.98908 0
M  V30 8538 O 1152.67 -6.10347 -6.11815 0
M  V30 8539 C 1154.95 -6.11426 -5.62335 0
M  V30 8540 O 1155.69 -5.6162 -6.70584 0
M  V30 8541 C 1154.28 -5.04409 -4.73308 0
M  V30 8542 O 1155.08 -3.85929 -4.75106 0
M  V30 8543 C 1152.94 -4.8728 -5.41006 0
M  V30 8544 N 1151.9 -4.65812 -4.42377 0
M  V30 8545 C 1151.96 -5.27109 -3.24335 0
M  V30 8546 N 1150.92 -4.94293 -2.47735 0
M  V30 8547 C 1150.18 -4.1271 -3.23359 0
M  V30 8548 C 1148.88 -3.56384 -2.99934 0
M  V30 8549 O 1148.14 -3.69331 -2.00616 0
M  V30 8550 N 1148.45 -2.80206 -4.03316 0
M  V30 8551 C 1149.19 -2.58614 -5.2172 0
M  V30 8552 N 1148.6 -1.75154 -6.13278 0
M  V30 8553 N 1150.35 -3.13689 -5.47619 0
M  V30 8554 C 1150.8 -3.90921 -4.46436 0
M  V30 8555 H 1152.97 -4.02333 -6.11157 0
M  V30 8556 H 1154.16 -5.39383 -3.69487 0
M  V30 8557 H 1155.64 -6.71414 -5.02615 0
M  V30 8558 H 1153.95 -7.4649 -6.93477 0
M  V30 8559 H 1153.76 -8.89416 -5.05237 0
M  V30 8560 H 1152.13 -8.14876 -5.18409 0
M  V30 8561 H 1147.55 -2.36355 -3.95916 0
M  V30 8562 H 1152.76 -5.95212 -2.93859 0
M  V30 8563 H 1147.69 -1.32473 -5.91856 0
M  V30 8564 H 1149.06 -1.5588 -7.03026 0
M  V30 8565 H 1154.77 -3.27906 -5.43085 0
M  V30 8566 P 1156.62 -5.75688 -6.64379 0
M  V30 8567 O 1158.05 -6.07627 -7.05504 0
M  V30 8568 O 1156.26 -5.88047 -5.19722 0
M  V30 8569 O 1156.3 -4.2322 -7.04443 0
M  V30 8570 C 1156.14 -3.99743 -8.4911 0
M  V30 8571 C 1156.68 -2.60516 -8.79425 0
M  V30 8572 O 1155.62 -1.82684 -8.4467 0
M  V30 8573 C 1157.9 -2.10343 -8.03628 0
M  V30 8574 O 1158.64 -1.09919 -8.67766 0
M  V30 8575 C 1157.23 -1.68446 -6.70876 0
M  V30 8576 O 1158.03 -0.678137 -6.08433 0
M  V30 8577 C 1155.89 -1.17436 -7.18567 0
M  V30 8578 H 1155.92 -0.0804732 -7.31656 0
M  V30 8579 H 1157.11 -2.54037 -6.02537 0
M  V30 8580 H 1158.59 -2.93881 -7.85526 0
M  V30 8581 H 1156.9 -2.53065 -9.86973 0
M  V30 8582 H 1156.71 -4.75072 -9.05887 0
M  V30 8583 H 1155.08 -4.05244 -8.76668 0
M  V30 8584 H 1157.72 0.177647 -6.34251 0
M  V30 8585 P 1159.57 -1.25109 -8.70152 0
M  V30 8586 O 1160.98 -1.3516 -9.26897 0
M  V30 8587 O 1159.2 -2.18141 -7.59181 0
M  V30 8588 O 1159.25 0.248118 -8.21325 0
M  V30 8589 C 1159.09 1.22779 -9.30434 0
M  V30 8590 C 1159.63 2.56265 -8.80568 0
M  V30 8591 O 1158.58 3.02944 -8.09255 0
M  V30 8592 C 1160.85 2.57523 -7.89775 0
M  V30 8593 O 1161.59 3.7668 -7.89438 0
M  V30 8594 C 1160.18 2.20997 -6.55446 0
M  V30 8595 O 1160.98 2.71851 -5.48419 0
M  V30 8596 C 1158.84 2.89693 -6.67988 0
M  V30 8597 N 1157.8 2.08895 -6.07487 0
M  V30 8598 C 1156.77 2.72974 -5.43836 0
M  V30 8599 O 1156.8 3.97779 -5.34036 0
M  V30 8600 N 1155.75 2.0005 -4.91983 0
M  V30 8601 C 1155.8 0.66501 -5.00098 0
M  V30 8602 N 1154.79 -0.0305439 -4.4919 0
M  V30 8603 C 1156.9 -0.0100979 -5.61099 0
M  V30 8604 C 1157.86 0.74189 -6.14236 0
M  V30 8605 H 1158.88 3.8874 -6.19774 0
M  V30 8606 H 1160.06 1.12673 -6.44018 0
M  V30 8607 H 1161.54 1.783 -8.19631 0
M  V30 8608 H 1159.85 3.21673 -9.66791 0
M  V30 8609 H 1159.66 0.901032 -10.1892 0
M  V30 8610 H 1158.03 1.33036 -9.56493 0
M  V30 8611 H 1156.95 -1.09591 -5.64358 0
M  V30 8612 H 1158.71 0.260263 -6.6359 0
M  V30 8613 H 1154 0.460194 -4.04793 0
M  V30 8614 H 1154.8 -1.05716 -4.53953 0
M  V30 8615 H 1160.76 3.62759 -5.33442 0
M  V30 8616 P 1162.52 3.65191 -7.99657 0
M  V30 8617 O 1163.95 3.89332 -8.45794 0
M  V30 8618 O 1162.16 2.28472 -7.50807 0
M  V30 8619 O 1162.2 4.64972 -6.77611 0
M  V30 8620 C 1162.04 6.06319 -7.16352 0
M  V30 8621 C 1162.58 6.91731 -6.02299 0
M  V30 8622 O 1161.53 6.92449 -5.17064 0
M  V30 8623 C 1163.8 6.43627 -5.25174 0
M  V30 8624 O 1164.54 7.43686 -4.60469 0
M  V30 8625 C 1163.13 5.40275 -4.31916 0
M  V30 8626 O 1163.93 5.25279 -3.14438 0
M  V30 8627 C 1161.79 6.04847 -4.05327 0
M  V30 8628 H 1161.83 6.62195 -3.11261 0
M  V30 8629 H 1163.01 4.42556 -4.81383 0
M  V30 8630 H 1164.49 5.92458 -5.93643 0
M  V30 8631 H 1162.8 7.92655 -6.402 0
M  V30 8632 H 1162.61 6.26671 -8.0846 0
M  V30 8633 H 1160.98 6.29101 -7.32804 0
M  V30 8634 H 1163.62 5.84315 -2.47318 0
M  V30 8635 P 1165.48 7.39546 -4.75277 0
M  V30 8636 O 1166.9 7.84798 -5.01039 0
M  V30 8637 O 1165.12 5.9812 -5.08098 0
M  V30 8638 O 1165.15 7.57503 -3.1866 0
M  V30 8639 C 1164.99 8.97357 -2.74833 0
M  V30 8640 C 1165.53 9.07548 -1.32709 0
M  V30 8641 O 1164.48 8.62072 -0.606159 0
M  V30 8642 C 1166.75 8.25383 -0.938334 0
M  V30 8643 O 1167.49 8.74577 0.146954 0
M  V30 8644 C 1166.08 6.8802 -0.712559 0
M  V30 8645 O 1166.88 6.1189 0.194655 0
M  V30 8646 C 1164.74 7.27966 -0.139777 0
M  V30 8647 H 1164.78 7.25354 0.961601 0
M  V30 8648 H 1165.96 6.32557 -1.65702 0
M  V30 8649 H 1167.44 8.19355 -1.79097 0
M  V30 8650 H 1165.75 10.1294 -1.10029 0
M  V30 8651 H 1165.56 9.64276 -3.41316 0
M  V30 8652 H 1163.93 9.25417 -2.76357 0
M  V30 8653 H 1166.57 6.25267 1.07847 0
M  V30 8654 P 1168.43 8.791 9.41699e-12 0
M  V30 8655 O 1169.85 9.31096 0.027933 0
M  V30 8656 O 1168.07 7.77869 -1.04071 0
M  V30 8657 O 1168.1 8.09533 1.41463 0
M  V30 8658 C 1167.94 9.0349 2.53943 0
M  V30 8659 C 1168.48 8.35226 3.79016 0
M  V30 8660 O 1167.43 7.57992 4.15078 0
M  V30 8661 C 1169.7 7.45087 3.67298 0
M  V30 8662 O 1170.44 7.27796 4.85194 0
M  V30 8663 C 1169.03 6.17323 3.12027 0
M  V30 8664 O 1169.83 5.04231 3.47188 0
M  V30 8665 C 1167.69 6.19961 3.81809 0
M  V30 8666 H 1167.73 5.58218 4.73051 0
M  V30 8667 H 1168.91 6.21726 2.02589 0
M  V30 8668 H 1170.39 7.86112 2.9231 0
M  V30 8669 H 1168.7 9.11627 4.55076 0
M  V30 8670 H 1168.51 9.9573 2.34194 0
M  V30 8671 H 1166.88 9.2792 2.67832 0
M  V30 8672 H 1169.52 4.67702 4.28772 0
M  V30 8673 P 1171.38 7.39546 4.75277 0
M  V30 8674 O 1172.8 7.81777 5.05738 0
M  V30 8675 O 1171.02 7.1065 3.32998 0
M  V30 8676 O 1171.05 6.04542 5.56673 0
M  V30 8677 C 1170.89 6.22772 7.02095 0
M  V30 8678 C 1171.43 4.97725 7.70406 0
M  V30 8679 O 1170.38 4.13256 7.58987 0
M  V30 8680 C 1172.65 4.28231 7.11815 0
M  V30 8681 O 1173.39 3.49945 8.01648 0
M  V30 8682 C 1171.98 3.5063 5.96244 0
M  V30 8683 O 1172.78 2.36482 5.64681 0
M  V30 8684 C 1170.65 3.15122 6.56374 0
M  V30 8685 H 1170.68 2.13853 6.99751 0
M  V30 8686 H 1171.86 4.13501 5.06559 0
M  V30 8687 H 1173.34 5.03285 6.70911 0
M  V30 8688 H 1171.65 5.20877 8.75697 0
M  V30 8689 H 1171.46 7.11046 7.35349 0
M  V30 8690 H 1169.83 6.35815 7.26986 0
M  V30 8691 H 1172.47 1.61644 6.13565 0
M  V30 8692 P 1174.33 3.65191 7.99657 0
M  V30 8693 O 1175.75 3.8425 8.48115 0
M  V30 8694 O 1173.97 4.17805 6.64342 0
M  V30 8695 O 1174 2.07613 7.95143 0
M  V30 8696 C 1173.84 1.44328 9.27336 0
M  V30 8697 C 1174.38 0.0220036 9.17197 0
M  V30 8698 O 1173.33 -0.626867 8.61923 0
M  V30 8699 C 1175.6 -0.24586 8.30336 0
M  V30 8700 O 1176.34 -1.39011 8.63583 0
M  V30 8701 C 1174.93 -0.273849 6.91158 0
M  V30 8702 O 1175.73 -1.06348 6.02892 0
M  V30 8703 C 1173.6 -0.897649 7.22545 0
M  V30 8704 H 1173.63 -1.9841 7.04286 0
M  V30 8705 H 1174.81 0.739928 6.497 0
M  V30 8706 H 1176.29 0.60668 8.36503 0
M  V30 8707 H 1174.6 -0.352479 10.1829 0
M  V30 8708 H 1174.41 2.00611 10.0304 0
M  V30 8709 H 1172.78 1.41843 9.55327 0
M  V30 8710 H 1175.42 -1.95734 6.03555 0
M  V30 8711 P 1177.28 -1.25109 8.70152 0
M  V30 8712 O 1178.7 -1.35274 9.21221 0
M  V30 8713 O 1176.92 -0.0769065 7.84762 0
M  V30 8714 O 1176.95 -2.55232 7.81161 0
M  V30 8715 C 1176.79 -3.79939 8.58154 0
M  V30 8716 C 1177.33 -4.94023 7.72785 0
M  V30 8717 O 1176.28 -5.18726 6.91205 0
M  V30 8718 C 1178.55 -4.69597 6.85231 0
M  V30 8719 O 1179.29 -5.83832 6.51337 0
M  V30 8720 C 1177.88 -3.96706 5.66633 0
M  V30 8721 O 1178.68 -4.15414 4.49689 0
M  V30 8722 C 1176.55 -4.66153 5.59313 0
M  V30 8723 H 1176.58 -5.47679 4.85214 0
M  V30 8724 H 1177.76 -2.89008 5.86566 0
M  V30 8725 H 1179.25 -4.0121 7.36511 0
M  V30 8726 H 1177.55 -5.80182 8.37584 0
M  V30 8727 H 1177.36 -3.73517 9.52265 0
M  V30 8728 H 1175.73 -3.97163 8.80359 0
M  V30 8729 H 1178.37 -4.90969 4.01921 0
M  V30 8730 P 1180.23 -5.75688 6.64379 0
M  V30 8731 O 1181.65 -6.11849 7.01846 0
M  V30 8732 O 1179.87 -4.30744 6.56026 0
M  V30 8733 O 1179.9 -6.37042 5.19165 0
M  V30 8734 C 1179.74 -7.83578 5.16515 0
M  V30 8735 C 1180.28 -8.33398 3.83019 0
M  V30 8736 O 1179.23 -8.10074 3.01034 0
M  V30 8737 C 1181.5 -7.65514 3.2257 0
M  V30 8738 O 1182.24 -8.4329 2.32297 0
M  V30 8739 C 1180.83 -6.40075 2.62207 0
M  V30 8740 O 1181.63 -5.92589 1.53712 0
M  V30 8741 C 1179.5 -6.9454 2.18503 0
M  V30 8742 H 1179.53 -7.23063 1.12091 0
M  V30 8743 H 1180.71 -5.6025 3.37201 0
M  V30 8744 H 1182.2 -7.35707 4.02681 0
M  V30 8745 H 1180.5 -9.40912 3.9095 0
M  V30 8746 H 1180.31 -8.29056 5.99158 0
M  V30 8747 H 1178.68 -8.10073 5.25882 0
M  V30 8748 H 1181.32 -6.30324 0.726794 0
M  V30 8749 P 1183.18 -8.4349 2.47671 0
M  V30 8750 O 1184.58 -8.98227 2.65696 0
M  V30 8751 O 1182.8 -7.20409 3.23964 0
M  V30 8752 O 1182.86 -8.16496 0.923275 0
M  V30 8753 C 1182.7 -9.38437 0.108857 0
M  V30 8754 C 1183.24 -9.08076 -1.28339 0
M  V30 8755 O 1182.18 -8.44131 -1.84692 0
M  V30 8756 C 1184.45 -8.18386 -1.42505 0
M  V30 8757 O 1185.19 -8.3501 -2.60497 0
M  V30 8758 C 1183.79 -6.80225 -1.25468 0
M  V30 8759 O 1184.58 -5.81526 -1.91035 0
M  V30 8760 C 1182.45 -7.02416 -1.9168 0
M  V30 8761 N 1181.4 -6.31033 -1.20314 0
M  V30 8762 C 1180.37 -5.77149 -1.928 0
M  V30 8763 O 1180.41 -5.8521 -3.17729 0
M  V30 8764 N 1179.36 -5.15445 -1.27997 0
M  V30 8765 C 1179.41 -5.04472 0.0534726 0
M  V30 8766 C 1180.5 -5.55244 0.808522 0
M  V30 8767 C 1181.47 -6.18542 0.13981 0
M  V30 8768 H 1182.48 -6.68789 -2.9658 0
M  V30 8769 H 1183.66 -6.53498 -0.198729 0
M  V30 8770 H 1185.15 -8.36663 -0.5984 0
M  V30 8771 H 1183.45 -10.0273 -1.8081 0
M  V30 8772 H 1183.26 -10.2138 0.558219 0
M  V30 8773 H 1181.63 -9.6569 0.0444156 0
M  V30 8774 H 1180.55 -5.43017 1.88792 0
M  V30 8775 H 1182.31 -6.60539 0.686773 0
M  V30 8776 H 1184.37 -5.79638 -2.8315 0
M  V30 8777 P 1186.13 -8.4349 -2.47671 0
M  V30 8778 O 1187.55 -8.92593 -2.65 0
M  V30 8779 O 1185.77 -7.7568 -1.19296 0
M  V30 8780 O 1185.81 -7.36886 -3.63805 0
M  V30 8781 C 1185.65 -7.95349 -4.982 0
M  V30 8782 C 1186.19 -6.94612 -5.98974 0
M  V30 8783 O 1185.13 -6.10347 -6.11815 0
M  V30 8784 C 1187.4 -6.11426 -5.62335 0
M  V30 8785 O 1188.14 -5.6162 -6.70584 0
M  V30 8786 C 1186.74 -5.04409 -4.73308 0
M  V30 8787 O 1187.53 -3.85992 -4.75183 0
M  V30 8788 C 1185.4 -4.8728 -5.41006 0
M  V30 8789 H 1185.43 -4.02333 -6.11157 0
M  V30 8790 H 1186.61 -5.39466 -3.69543 0
M  V30 8791 H 1188.1 -6.71916 -5.01943 0
M  V30 8792 H 1186.4 -7.4649 -6.93477 0
M  V30 8793 H 1186.21 -8.89416 -5.05237 0
M  V30 8794 H 1184.58 -8.14876 -5.18409 0
M  V30 8795 H 1187.22 -3.27957 -5.4317 0
M  V30 8796 P 1189.08 -5.75688 -6.64379 0
M  V30 8797 O 1190.5 -6.07627 -7.05504 0
M  V30 8798 O 1188.72 -5.88047 -5.19722 0
M  V30 8799 O 1188.76 -4.2322 -7.04443 0
M  V30 8800 C 1188.6 -3.99743 -8.4911 0
M  V30 8801 C 1189.14 -2.60516 -8.79425 0
M  V30 8802 O 1188.08 -1.82684 -8.4467 0
M  V30 8803 C 1190.35 -2.10343 -8.03628 0
M  V30 8804 O 1191.09 -1.09919 -8.67766 0
M  V30 8805 C 1189.69 -1.68446 -6.70876 0
M  V30 8806 O 1190.48 -0.678137 -6.08433 0
M  V30 8807 C 1188.35 -1.17436 -7.18567 0
M  V30 8808 H 1188.38 -0.0804732 -7.31656 0
M  V30 8809 H 1189.56 -2.54037 -6.02537 0
M  V30 8810 H 1191.05 -2.93881 -7.85526 0
M  V30 8811 H 1189.35 -2.53065 -9.86973 0
M  V30 8812 H 1189.16 -4.75072 -9.05887 0
M  V30 8813 H 1187.53 -4.05244 -8.76668 0
M  V30 8814 H 1190.17 0.177647 -6.34251 0
M  V30 8815 P 1192.03 -1.25109 -8.70152 0
M  V30 8816 O 1193.45 -1.29744 -9.22016 0
M  V30 8817 O 1191.67 -2.13714 -7.55141 0
M  V30 8818 O 1191.71 0.248149 -8.21425 0
M  V30 8819 C 1191.55 1.22779 -9.30434 0
M  V30 8820 C 1192.09 2.56293 -8.80664 0
M  V30 8821 O 1191.03 3.02979 -8.09349 0
M  V30 8822 C 1193.31 2.57523 -7.89775 0
M  V30 8823 O 1194.04 3.7668 -7.89438 0
M  V30 8824 C 1192.64 2.20997 -6.55446 0
M  V30 8825 O 1193.44 2.71895 -5.48509 0
M  V30 8826 C 1191.3 2.89693 -6.67988 0
M  V30 8827 H 1191.33 3.88793 -6.19859 0
M  V30 8828 H 1192.51 1.12046 -6.44229 0
M  V30 8829 H 1194 1.7746 -8.19711 0
M  V30 8830 H 1192.3 3.20706 -9.67112 0
M  V30 8831 H 1192.11 0.901032 -10.1892 0
M  V30 8832 H 1190.48 1.33049 -9.56592 0
M  V30 8833 H 1193.12 3.57847 -5.23962 0
M  V30 8834 P 1194.98 3.65191 -7.99657 0
M  V30 8835 O 1196.4 3.89332 -8.45794 0
M  V30 8836 O 1194.62 2.28472 -7.50807 0
M  V30 8837 O 1194.66 4.64972 -6.77611 0
M  V30 8838 C 1194.5 6.06319 -7.16352 0
M  V30 8839 C 1195.04 6.91731 -6.02299 0
M  V30 8840 O 1193.98 6.92449 -5.17064 0
M  V30 8841 C 1196.26 6.43627 -5.25174 0
M  V30 8842 O 1196.99 7.43686 -4.60469 0
M  V30 8843 C 1195.59 5.40275 -4.31916 0
M  V30 8844 O 1196.39 5.25279 -3.14438 0
M  V30 8845 C 1194.25 6.04847 -4.05327 0
M  V30 8846 H 1194.28 6.62195 -3.11261 0
M  V30 8847 H 1195.46 4.42556 -4.81383 0
M  V30 8848 H 1196.95 5.92458 -5.93643 0
M  V30 8849 H 1195.25 7.92655 -6.402 0
M  V30 8850 H 1195.06 6.26671 -8.0846 0
M  V30 8851 H 1193.43 6.29101 -7.32804 0
M  V30 8852 H 1196.07 5.84315 -2.47318 0
M  V30 8853 P 1197.93 7.39546 -4.75277 0
M  V30 8854 O 1199.35 7.84798 -5.01039 0
M  V30 8855 O 1197.57 5.9812 -5.08098 0
M  V30 8856 O 1197.61 7.57503 -3.1866 0
M  V30 8857 C 1197.45 8.97357 -2.74833 0
M  V30 8858 C 1197.99 9.07548 -1.32709 0
M  V30 8859 O 1196.93 8.62072 -0.606159 0
M  V30 8860 C 1199.21 8.25383 -0.938334 0
M  V30 8861 O 1199.94 8.74577 0.146954 0
M  V30 8862 C 1198.54 6.8802 -0.712559 0
M  V30 8863 O 1199.34 6.1189 0.194655 0
M  V30 8864 C 1197.2 7.27966 -0.139777 0
M  V30 8865 H 1197.23 7.25354 0.961601 0
M  V30 8866 H 1198.42 6.32557 -1.65702 0
M  V30 8867 H 1199.9 8.19355 -1.79097 0
M  V30 8868 H 1198.21 10.1294 -1.10029 0
M  V30 8869 H 1198.02 9.64276 -3.41316 0
M  V30 8870 H 1196.39 9.25417 -2.76357 0
M  V30 8871 H 1199.02 6.25267 1.07847 0
M  V30 8872 P 1200.88 8.791 9.72715e-12 0
M  V30 8873 O 1202.3 9.31096 0.027933 0
M  V30 8874 O 1200.52 7.77869 -1.04071 0
M  V30 8875 O 1200.56 8.09533 1.41463 0
M  V30 8876 C 1200.4 9.0349 2.53943 0
M  V30 8877 C 1200.94 8.35226 3.79016 0
M  V30 8878 O 1199.88 7.57992 4.15078 0
M  V30 8879 C 1202.16 7.45087 3.67298 0
M  V30 8880 O 1202.89 7.27796 4.85194 0
M  V30 8881 C 1201.49 6.17323 3.12027 0
M  V30 8882 O 1202.29 5.04231 3.47188 0
M  V30 8883 C 1200.15 6.19961 3.81809 0
M  V30 8884 H 1200.18 5.58218 4.73051 0
M  V30 8885 H 1201.37 6.21726 2.02589 0
M  V30 8886 H 1202.85 7.86112 2.9231 0
M  V30 8887 H 1201.16 9.11627 4.55076 0
M  V30 8888 H 1200.97 9.9573 2.34194 0
M  V30 8889 H 1199.34 9.2792 2.67832 0
M  V30 8890 H 1201.97 4.67702 4.28772 0
M  V30 8891 P 1203.83 7.39546 4.75277 0
M  V30 8892 O 1205.25 7.81777 5.05738 0
M  V30 8893 O 1203.47 7.1065 3.32998 0
M  V30 8894 O 1203.51 6.04542 5.56673 0
M  V30 8895 C 1203.35 6.22772 7.02095 0
M  V30 8896 C 1203.89 4.97725 7.70406 0
M  V30 8897 O 1202.83 4.13256 7.58987 0
M  V30 8898 C 1205.11 4.28231 7.11815 0
M  V30 8899 O 1205.85 3.49945 8.01648 0
M  V30 8900 C 1204.44 3.5063 5.96244 0
M  V30 8901 O 1205.24 2.36482 5.64681 0
M  V30 8902 C 1203.1 3.15122 6.56374 0
M  V30 8903 H 1203.13 2.13853 6.99751 0
M  V30 8904 H 1204.32 4.13501 5.06559 0
M  V30 8905 H 1205.8 5.03285 6.70911 0
M  V30 8906 H 1204.11 5.20877 8.75697 0
M  V30 8907 H 1203.92 7.11046 7.35349 0
M  V30 8908 H 1202.29 6.35815 7.26986 0
M  V30 8909 H 1204.93 1.61644 6.13565 0
M  V30 8910 P 1206.78 3.65191 7.99657 0
M  V30 8911 O 1208.21 3.8425 8.48115 0
M  V30 8912 O 1206.42 4.17805 6.64342 0
M  V30 8913 O 1206.46 2.07613 7.95143 0
M  V30 8914 C 1206.3 1.44328 9.27336 0
M  V30 8915 C 1206.84 0.0220036 9.17197 0
M  V30 8916 O 1205.78 -0.626867 8.61923 0
M  V30 8917 C 1208.06 -0.24586 8.30336 0
M  V30 8918 O 1208.8 -1.39011 8.63583 0
M  V30 8919 C 1207.39 -0.273849 6.91158 0
M  V30 8920 O 1208.19 -1.06348 6.02892 0
M  V30 8921 C 1206.05 -0.897649 7.22545 0
M  V30 8922 H 1206.08 -1.9841 7.04286 0
M  V30 8923 H 1207.27 0.739928 6.497 0
M  V30 8924 H 1208.75 0.60668 8.36503 0
M  V30 8925 H 1207.06 -0.352479 10.1829 0
M  V30 8926 H 1206.87 2.00611 10.0304 0
M  V30 8927 H 1205.24 1.41843 9.55327 0
M  V30 8928 H 1207.88 -1.95734 6.03555 0
M  V30 8929 P 1209.73 -1.25109 8.70152 0
M  V30 8930 O 1211.16 -1.35274 9.21221 0
M  V30 8931 O 1209.37 -0.0769065 7.84762 0
M  V30 8932 O 1209.41 -2.55232 7.81161 0
M  V30 8933 C 1209.25 -3.79939 8.58154 0
M  V30 8934 C 1209.79 -4.94023 7.72785 0
M  V30 8935 O 1208.73 -5.18726 6.91205 0
M  V30 8936 C 1211.01 -4.69597 6.85231 0
M  V30 8937 O 1211.75 -5.83832 6.51337 0
M  V30 8938 C 1210.34 -3.96706 5.66633 0
M  V30 8939 O 1211.14 -4.15414 4.49689 0
M  V30 8940 C 1209 -4.66153 5.59313 0
M  V30 8941 H 1209.03 -5.47679 4.85214 0
M  V30 8942 H 1210.22 -2.89008 5.86566 0
M  V30 8943 H 1211.7 -4.0121 7.36511 0
M  V30 8944 H 1210.01 -5.80182 8.37584 0
M  V30 8945 H 1209.82 -3.73517 9.52265 0
M  V30 8946 H 1208.19 -3.97163 8.80359 0
M  V30 8947 H 1210.83 -4.90969 4.01921 0
M  V30 8948 P 1212.68 -5.75688 6.64379 0
M  V30 8949 O 1214.11 -6.11849 7.01846 0
M  V30 8950 O 1212.32 -4.30744 6.56026 0
M  V30 8951 O 1212.36 -6.37042 5.19165 0
M  V30 8952 C 1212.2 -7.83578 5.16515 0
M  V30 8953 C 1212.74 -8.33398 3.83019 0
M  V30 8954 O 1211.69 -8.10074 3.01034 0
M  V30 8955 C 1213.96 -7.65514 3.2257 0
M  V30 8956 O 1214.7 -8.4329 2.32297 0
M  V30 8957 C 1213.29 -6.40075 2.62207 0
M  V30 8958 O 1214.09 -5.92589 1.53712 0
M  V30 8959 C 1211.95 -6.9454 2.18503 0
M  V30 8960 H 1211.99 -7.23063 1.12091 0
M  V30 8961 H 1213.17 -5.6025 3.37201 0
M  V30 8962 H 1214.65 -7.35707 4.02681 0
M  V30 8963 H 1212.96 -9.40912 3.9095 0
M  V30 8964 H 1212.77 -8.29056 5.99158 0
M  V30 8965 H 1211.14 -8.10073 5.25882 0
M  V30 8966 H 1213.78 -6.30324 0.726794 0
M  V30 8967 P 1215.63 -8.4349 2.47671 0
M  V30 8968 O 1217.06 -8.94167 2.5964 0
M  V30 8969 O 1215.27 -7.1704 3.19006 0
M  V30 8970 O 1215.31 -8.16596 0.923387 0
M  V30 8971 C 1215.15 -9.38437 0.108857 0
M  V30 8972 C 1215.69 -9.08175 -1.28353 0
M  V30 8973 O 1214.64 -8.44229 -1.84713 0
M  V30 8974 C 1216.91 -8.18386 -1.42505 0
M  V30 8975 O 1217.65 -8.3501 -2.60497 0
M  V30 8976 C 1216.24 -6.80225 -1.25468 0
M  V30 8977 O 1217.04 -5.81621 -1.91066 0
M  V30 8978 C 1214.9 -7.02416 -1.9168 0
M  V30 8979 H 1214.94 -6.6888 -2.96621 0
M  V30 8980 H 1216.12 -6.53617 -0.192223 0
M  V30 8981 H 1217.6 -8.36622 -0.589963 0
M  V30 8982 H 1215.91 -10.0291 -1.79807 0
M  V30 8983 H 1215.72 -10.2138 0.558219 0
M  V30 8984 H 1214.09 -9.6579 0.0444202 0
M  V30 8985 H 1216.73 -5.69556 -2.79637 0
M  V30 8986 P 1218.59 -8.4349 -2.47671 0
M  V30 8987 O 1220.01 -8.92593 -2.65 0
M  V30 8988 O 1218.23 -7.7568 -1.19296 0
M  V30 8989 O 1218.26 -7.36886 -3.63805 0
M  V30 8990 C 1218.1 -7.95349 -4.982 0
M  V30 8991 C 1218.64 -6.94612 -5.98974 0
M  V30 8992 O 1217.59 -6.10347 -6.11815 0
M  V30 8993 C 1219.86 -6.11426 -5.62335 0
M  V30 8994 O 1220.6 -5.6162 -6.70584 0
M  V30 8995 C 1219.19 -5.04409 -4.73308 0
M  V30 8996 O 1219.99 -3.85992 -4.75183 0
M  V30 8997 C 1217.85 -4.8728 -5.41006 0
M  V30 8998 H 1217.89 -4.02333 -6.11157 0
M  V30 8999 H 1219.07 -5.39466 -3.69543 0
M  V30 9000 H 1220.55 -6.71916 -5.01943 0
M  V30 9001 H 1218.86 -7.4649 -6.93477 0
M  V30 9002 H 1218.67 -8.89416 -5.05237 0
M  V30 9003 H 1217.04 -8.14876 -5.18409 0
M  V30 9004 H 1219.68 -3.27957 -5.4317 0
M  V30 9005 P 1221.54 -5.75688 -6.64379 0
M  V30 9006 O 1222.96 -6.07627 -7.05504 0
M  V30 9007 O 1221.18 -5.88047 -5.19722 0
M  V30 9008 O 1221.21 -4.2322 -7.04443 0
M  V30 9009 C 1221.05 -3.99743 -8.4911 0
M  V30 9010 C 1221.59 -2.60516 -8.79425 0
M  V30 9011 O 1220.54 -1.82684 -8.4467 0
M  V30 9012 C 1222.81 -2.10343 -8.03628 0
M  V30 9013 O 1223.55 -1.09919 -8.67766 0
M  V30 9014 C 1222.14 -1.68446 -6.70876 0
M  V30 9015 O 1222.94 -0.678137 -6.08433 0
M  V30 9016 C 1220.8 -1.17436 -7.18567 0
M  V30 9017 H 1220.84 -0.0804732 -7.31656 0
M  V30 9018 H 1222.02 -2.54037 -6.02537 0
M  V30 9019 H 1223.5 -2.93881 -7.85526 0
M  V30 9020 H 1221.81 -2.53065 -9.86973 0
M  V30 9021 H 1221.62 -4.75072 -9.05887 0
M  V30 9022 H 1219.99 -4.05244 -8.76668 0
M  V30 9023 H 1222.63 0.177647 -6.34251 0
M  V30 9024 P 1224.49 -1.25109 -8.70152 0
M  V30 9025 O 1225.91 -1.29744 -9.22016 0
M  V30 9026 O 1224.13 -2.13714 -7.55141 0
M  V30 9027 O 1224.16 0.248149 -8.21425 0
M  V30 9028 C 1224 1.22779 -9.30434 0
M  V30 9029 C 1224.54 2.56293 -8.80664 0
M  V30 9030 O 1223.49 3.02979 -8.09349 0
M  V30 9031 C 1225.76 2.57523 -7.89775 0
M  V30 9032 O 1226.5 3.7668 -7.89438 0
M  V30 9033 C 1225.09 2.20997 -6.55446 0
M  V30 9034 O 1225.89 2.71895 -5.48509 0
M  V30 9035 C 1223.76 2.89693 -6.67988 0
M  V30 9036 H 1223.79 3.88793 -6.19859 0
M  V30 9037 H 1224.97 1.12046 -6.44229 0
M  V30 9038 H 1226.45 1.7746 -8.19711 0
M  V30 9039 H 1224.76 3.20706 -9.67112 0
M  V30 9040 H 1224.57 0.901032 -10.1892 0
M  V30 9041 H 1222.94 1.33049 -9.56592 0
M  V30 9042 H 1225.58 3.57847 -5.23962 0
M  V30 9043 P 1227.44 3.65191 -7.99657 0
M  V30 9044 O 1228.86 3.89374 -8.45885 0
M  V30 9045 O 1227.08 2.28472 -7.50807 0
M  V30 9046 O 1227.11 4.64972 -6.77611 0
M  V30 9047 C 1226.95 6.06383 -7.16428 0
M  V30 9048 C 1227.49 6.91731 -6.02299 0
M  V30 9049 O 1226.44 6.92369 -5.17005 0
M  V30 9050 C 1228.71 6.43627 -5.25174 0
M  V30 9051 O 1229.45 7.43686 -4.60469 0
M  V30 9052 C 1228.04 5.40275 -4.31916 0
M  V30 9053 O 1228.84 5.24878 -3.14911 0
M  V30 9054 C 1226.71 6.04847 -4.05327 0
M  V30 9055 N 1225.66 5.04166 -3.98114 0
M  V30 9056 C 1225.83 3.84629 -4.59066 0
M  V30 9057 N 1224.81 3.0363 -4.45343 0
M  V30 9058 C 1223.92 3.76722 -3.68523 0
M  V30 9059 C 1222.65 3.43528 -3.17088 0
M  V30 9060 N 1222.09 4.44526 -2.44231 0
M  V30 9061 C 1222.69 5.65243 -2.20146 0
M  V30 9062 N 1223.87 6.00221 -2.65453 0
M  V30 9063 C 1224.44 5.00564 -3.39083 0
M  V30 9064 H 1227.92 4.42969 -4.80867 0
M  V30 9065 H 1229.4 5.92458 -5.93643 0
M  V30 9066 H 1227.71 7.93295 -6.39407 0
M  V30 9067 H 1227.52 6.26671 -8.0846 0
M  V30 9068 H 1225.89 6.29101 -7.32804 0
M  V30 9069 H 1226.73 3.58193 -5.14248 0
M  V30 9070 H 1228.53 5.84223 -2.47279 0
M  V30 9071 P 1230.39 7.39546 -4.75277 0
M  V30 9072 O 1231.81 7.84798 -5.01039 0
M  V30 9073 O 1230.03 5.9812 -5.08098 0
M  V30 9074 O 1230.06 7.57503 -3.1866 0
M  V30 9075 C 1229.9 8.97357 -2.74833 0
M  V30 9076 C 1230.44 9.07548 -1.32709 0
M  V30 9077 O 1229.39 8.62072 -0.606159 0
M  V30 9078 C 1231.66 8.25383 -0.938334 0
M  V30 9079 O 1232.4 8.74577 0.146954 0
M  V30 9080 C 1230.99 6.8802 -0.712559 0
M  V30 9081 O 1231.79 6.1189 0.194655 0
M  V30 9082 C 1229.66 7.27966 -0.139777 0
M  V30 9083 H 1229.69 7.25354 0.961601 0
M  V30 9084 H 1230.87 6.32557 -1.65702 0
M  V30 9085 H 1232.36 8.19355 -1.79097 0
M  V30 9086 H 1230.66 10.1294 -1.10029 0
M  V30 9087 H 1230.47 9.64276 -3.41316 0
M  V30 9088 H 1228.84 9.25417 -2.76357 0
M  V30 9089 H 1231.48 6.25267 1.07847 0
M  V30 9090 P 1233.34 8.791 1.00373e-11 0
M  V30 9091 O 1234.76 9.31096 0.027933 0
M  V30 9092 O 1232.98 7.77869 -1.04071 0
M  V30 9093 O 1233.02 8.09533 1.41463 0
M  V30 9094 C 1232.86 9.0349 2.53943 0
M  V30 9095 C 1233.4 8.35226 3.79016 0
M  V30 9096 O 1232.34 7.57992 4.15078 0
M  V30 9097 C 1234.61 7.45087 3.67298 0
M  V30 9098 O 1235.35 7.27796 4.85194 0
M  V30 9099 C 1233.94 6.17323 3.12027 0
M  V30 9100 O 1234.74 5.04231 3.47188 0
M  V30 9101 C 1232.61 6.19961 3.81809 0
M  V30 9102 H 1232.64 5.58218 4.73051 0
M  V30 9103 H 1233.82 6.21726 2.02589 0
M  V30 9104 H 1235.31 7.86112 2.9231 0
M  V30 9105 H 1233.61 9.11627 4.55076 0
M  V30 9106 H 1233.42 9.9573 2.34194 0
M  V30 9107 H 1231.79 9.2792 2.67832 0
M  V30 9108 H 1234.43 4.67702 4.28772 0
M  V30 9109 P 1236.29 7.39546 4.75277 0
M  V30 9110 O 1237.69 7.89013 5.04841 0
M  V30 9111 O 1235.91 7.16603 3.32298 0
M  V30 9112 O 1235.97 6.04468 5.56605 0
M  V30 9113 C 1235.81 6.22772 7.02095 0
M  V30 9114 C 1236.35 4.97671 7.70322 0
M  V30 9115 O 1235.29 4.13208 7.58899 0
M  V30 9116 C 1237.56 4.28231 7.11815 0
M  V30 9117 O 1238.3 3.49945 8.01648 0
M  V30 9118 C 1236.9 3.5063 5.96244 0
M  V30 9119 O 1237.69 2.36443 5.64589 0
M  V30 9120 C 1235.56 3.15122 6.56374 0
M  V30 9121 N 1234.51 3.22311 5.55692 0
M  V30 9122 C 1233.48 2.32244 5.62437 0
M  V30 9123 O 1233.52 1.43107 6.50341 0
M  V30 9124 N 1232.47 2.40811 4.73368 0
M  V30 9125 C 1232.52 3.344 3.77753 0
M  V30 9126 C 1233.61 4.24712 3.66679 0
M  V30 9127 C 1234.58 4.15625 4.58307 0
M  V30 9128 H 1235.59 2.13823 6.99656 0
M  V30 9129 H 1236.77 4.12931 5.06895 0
M  V30 9130 H 1238.26 5.02674 6.71494 0
M  V30 9131 H 1236.56 5.20001 8.76217 0
M  V30 9132 H 1236.37 7.11046 7.35349 0
M  V30 9133 H 1234.74 6.35749 7.26911 0
M  V30 9134 H 1233.66 4.9828 2.86753 0
M  V30 9135 H 1235.42 4.84464 4.54228 0
M  V30 9136 H 1237.48 1.65592 6.23485 0
M  V30 9137 P 1239.24 3.65191 7.99657 0
M  V30 9138 O 1240.66 3.8425 8.48115 0
M  V30 9139 O 1238.88 4.17805 6.64342 0
M  V30 9140 O 1238.92 2.07613 7.95143 0
M  V30 9141 C 1238.76 1.44328 9.27336 0
M  V30 9142 C 1239.3 0.0220036 9.17197 0
M  V30 9143 O 1238.24 -0.626867 8.61923 0
M  V30 9144 C 1240.51 -0.24586 8.30336 0
M  V30 9145 O 1241.25 -1.39011 8.63583 0
M  V30 9146 C 1239.85 -0.273849 6.91158 0
M  V30 9147 O 1240.64 -1.06348 6.02892 0
M  V30 9148 C 1238.51 -0.897649 7.22545 0
M  V30 9149 H 1238.54 -1.9841 7.04286 0
M  V30 9150 H 1239.72 0.739928 6.497 0
M  V30 9151 H 1241.21 0.60668 8.36503 0
M  V30 9152 H 1239.51 -0.352479 10.1829 0
M  V30 9153 H 1239.32 2.00611 10.0304 0
M  V30 9154 H 1237.69 1.41843 9.55327 0
M  V30 9155 H 1240.33 -1.95734 6.03555 0
M  V30 9156 P 1242.19 -1.25109 8.70152 0
M  V30 9157 O 1243.61 -1.35274 9.21221 0
M  V30 9158 O 1241.83 -0.0769065 7.84762 0
M  V30 9159 O 1241.87 -2.55232 7.81161 0
M  V30 9160 C 1241.71 -3.79939 8.58154 0
M  V30 9161 C 1242.25 -4.94023 7.72785 0
M  V30 9162 O 1241.19 -5.18726 6.91205 0
M  V30 9163 C 1243.46 -4.69597 6.85231 0
M  V30 9164 O 1244.2 -5.83832 6.51337 0
M  V30 9165 C 1242.8 -3.96706 5.66633 0
M  V30 9166 O 1243.59 -4.15414 4.49689 0
M  V30 9167 C 1241.46 -4.66153 5.59313 0
M  V30 9168 H 1241.49 -5.47679 4.85214 0
M  V30 9169 H 1242.67 -2.89008 5.86566 0
M  V30 9170 H 1244.16 -4.0121 7.36511 0
M  V30 9171 H 1242.46 -5.80182 8.37584 0
M  V30 9172 H 1242.27 -3.73517 9.52265 0
M  V30 9173 H 1240.64 -3.97163 8.80359 0
M  V30 9174 H 1243.28 -4.90969 4.01921 0
M  V30 9175 P 1245.14 -5.75688 6.64379 0
M  V30 9176 O 1246.56 -6.11981 7.01997 0
M  V30 9177 O 1244.78 -4.30744 6.56026 0
M  V30 9178 O 1244.82 -6.37042 5.19165 0
M  V30 9179 C 1244.66 -7.83578 5.16515 0
M  V30 9180 C 1245.2 -8.33307 3.82977 0
M  V30 9181 O 1244.14 -8.10074 3.01034 0
M  V30 9182 C 1246.42 -7.65514 3.2257 0
M  V30 9183 O 1247.15 -8.4329 2.32297 0
M  V30 9184 C 1245.75 -6.40075 2.62207 0
M  V30 9185 O 1246.55 -5.92492 1.53687 0
M  V30 9186 C 1244.41 -6.9454 2.18503 0
M  V30 9187 N 1243.37 -5.95905 2.39948 0
M  V30 9188 C 1243.43 -5.13994 3.44742 0
M  V30 9189 N 1242.38 -4.30684 3.46712 0
M  V30 9190 C 1241.65 -4.65583 2.41086 0
M  V30 9191 C 1240.34 -4.20877 1.99581 0
M  V30 9192 O 1239.61 -3.35913 2.52616 0
M  V30 9193 N 1239.91 -4.83271 0.873406 0
M  V30 9194 C 1240.66 -5.82006 0.185129 0
M  V30 9195 N 1240.07 -6.30619 -0.95439 0
M  V30 9196 N 1241.82 -6.28443 0.578524 0
M  V30 9197 C 1242.27 -5.68486 1.70138 0
M  V30 9198 H 1244.44 -7.23063 1.12091 0
M  V30 9199 H 1245.62 -5.60165 3.3715 0
M  V30 9200 H 1247.11 -7.3611 4.01946 0
M  V30 9201 H 1245.41 -9.40912 3.9095 0
M  V30 9202 H 1245.22 -8.29056 5.99158 0
M  V30 9203 H 1243.59 -8.10073 5.25882 0
M  V30 9204 H 1239.02 -4.58323 0.505262 0
M  V30 9205 H 1244.22 -5.14564 4.1935 0
M  V30 9206 H 1239.15 -5.93402 -1.25364 0
M  V30 9207 H 1240.53 -7.0425 -1.50254 0
M  V30 9208 H 1246.23 -6.30224 0.72668 0
M  V30 9209 P 1248.09 -8.4349 2.47671 0
M  V30 9210 O 1249.51 -8.94263 2.59668 0
M  V30 9211 O 1247.73 -7.1704 3.19006 0
M  V30 9212 O 1247.77 -8.16596 0.923387 0
M  V30 9213 C 1247.61 -9.38537 0.108869 0
M  V30 9214 C 1248.15 -9.08175 -1.28353 0
M  V30 9215 O 1247.09 -8.44131 -1.84692 0
M  V30 9216 C 1249.37 -8.18386 -1.42505 0
M  V30 9217 O 1250.1 -8.3501 -2.60497 0
M  V30 9218 C 1248.7 -6.80225 -1.25468 0
M  V30 9219 O 1249.5 -5.81716 -1.90454 0
M  V30 9220 C 1247.36 -7.02416 -1.9168 0
M  V30 9221 N 1246.32 -6.31033 -1.20314 0
M  V30 9222 C 1246.49 -5.98817 0.0994088 0
M  V30 9223 N 1245.46 -5.35403 0.621694 0
M  V30 9224 C 1244.57 -5.25212 -0.43376 0
M  V30 9225 C 1243.31 -4.64602 -0.519722 0
M  V30 9226 N 1242.71 -4.01457 0.519136 0
M  V30 9227 N 1242.74 -4.7568 -1.76013 0
M  V30 9228 C 1243.34 -5.3653 -2.83017 0
M  V30 9229 N 1244.52 -5.93676 -2.79782 0
M  V30 9230 C 1245.1 -5.84061 -1.56249 0
M  V30 9231 H 1247.39 -6.68789 -2.9658 0
M  V30 9232 H 1248.58 -6.53498 -0.198729 0
M  V30 9233 H 1250.06 -8.36622 -0.589963 0
M  V30 9234 H 1248.36 -10.0273 -1.8081 0
M  V30 9235 H 1248.17 -10.2138 0.558219 0
M  V30 9236 H 1246.54 -9.6579 0.0444202 0
M  V30 9237 H 1242.81 -5.37113 -3.77321 0
M  V30 9238 H 1247.39 -6.23209 0.660562 0
M  V30 9239 H 1241.78 -3.58834 0.394862 0
M  V30 9240 H 1243.18 -3.96059 1.43048 0
M  V30 9241 H 1249.18 -5.69466 -2.79593 0
M  V30 9242 P 1251.04 -8.4349 -2.47671 0
M  V30 9243 O 1252.46 -8.92593 -2.65 0
M  V30 9244 O 1250.68 -7.7568 -1.19296 0
M  V30 9245 O 1250.72 -7.36886 -3.63805 0
M  V30 9246 C 1250.56 -7.95349 -4.982 0
M  V30 9247 C 1251.1 -6.94612 -5.98974 0
M  V30 9248 O 1250.04 -6.10347 -6.11815 0
M  V30 9249 C 1252.32 -6.11426 -5.62335 0
M  V30 9250 O 1253.05 -5.6162 -6.70584 0
M  V30 9251 C 1251.65 -5.04409 -4.73308 0
M  V30 9252 O 1252.45 -3.85992 -4.75183 0
M  V30 9253 C 1250.31 -4.8728 -5.41006 0
M  V30 9254 H 1250.34 -4.02333 -6.11157 0
M  V30 9255 H 1251.53 -5.39466 -3.69543 0
M  V30 9256 H 1253.01 -6.71916 -5.01943 0
M  V30 9257 H 1251.32 -7.4649 -6.93477 0
M  V30 9258 H 1251.13 -8.89416 -5.05237 0
M  V30 9259 H 1249.5 -8.14876 -5.18409 0
M  V30 9260 H 1252.13 -3.27957 -5.4317 0
M  V30 9261 P 1253.99 -5.75688 -6.64379 0
M  V30 9262 O 1255.41 -6.07627 -7.05504 0
M  V30 9263 O 1253.63 -5.88047 -5.19722 0
M  V30 9264 O 1253.67 -4.2322 -7.04443 0
M  V30 9265 C 1253.51 -3.99743 -8.4911 0
M  V30 9266 C 1254.05 -2.60516 -8.79425 0
M  V30 9267 O 1252.99 -1.82684 -8.4467 0
M  V30 9268 C 1255.27 -2.10343 -8.03628 0
M  V30 9269 O 1256.01 -1.09919 -8.67766 0
M  V30 9270 C 1254.6 -1.68446 -6.70876 0
M  V30 9271 O 1255.4 -0.678137 -6.08433 0
M  V30 9272 C 1253.26 -1.17436 -7.18567 0
M  V30 9273 H 1253.29 -0.0804732 -7.31656 0
M  V30 9274 H 1254.48 -2.54037 -6.02537 0
M  V30 9275 H 1255.96 -2.93881 -7.85526 0
M  V30 9276 H 1254.27 -2.53065 -9.86973 0
M  V30 9277 H 1254.08 -4.75072 -9.05887 0
M  V30 9278 H 1252.45 -4.05244 -8.76668 0
M  V30 9279 H 1255.09 0.177647 -6.34251 0
M  V30 9280 P 1256.94 -1.25109 -8.70152 0
M  V30 9281 O 1258.36 -1.29744 -9.22016 0
M  V30 9282 O 1256.58 -2.13714 -7.55141 0
M  V30 9283 O 1256.62 0.248149 -8.21425 0
M  V30 9284 C 1256.46 1.22779 -9.30434 0
M  V30 9285 C 1257 2.56293 -8.80664 0
M  V30 9286 O 1255.94 3.02979 -8.09349 0
M  V30 9287 C 1258.22 2.57523 -7.89775 0
M  V30 9288 O 1258.96 3.7668 -7.89438 0
M  V30 9289 C 1257.55 2.20997 -6.55446 0
M  V30 9290 O 1258.35 2.71895 -5.48509 0
M  V30 9291 C 1256.21 2.89693 -6.67988 0
M  V30 9292 H 1256.24 3.88793 -6.19859 0
M  V30 9293 H 1257.43 1.12046 -6.44229 0
M  V30 9294 H 1258.91 1.7746 -8.19711 0
M  V30 9295 H 1257.22 3.20706 -9.67112 0
M  V30 9296 H 1257.03 0.901032 -10.1892 0
M  V30 9297 H 1255.4 1.33049 -9.56592 0
M  V30 9298 H 1258.04 3.57847 -5.23962 0
M  V30 9299 P 1259.89 3.65191 -7.99657 0
M  V30 9300 O 1261.32 3.89416 -8.45976 0
M  V30 9301 O 1259.53 2.28472 -7.50807 0
M  V30 9302 O 1259.57 4.64972 -6.77611 0
M  V30 9303 C 1259.41 6.06319 -7.16352 0
M  V30 9304 C 1259.95 6.91655 -6.02234 0
M  V30 9305 O 1258.9 6.92449 -5.17064 0
M  V30 9306 C 1261.17 6.43627 -5.25174 0
M  V30 9307 O 1261.91 7.43686 -4.60469 0
M  V30 9308 C 1260.5 5.40275 -4.31916 0
M  V30 9309 O 1261.3 5.25193 -3.14386 0
M  V30 9310 C 1259.16 6.04847 -4.05327 0
M  V30 9311 N 1258.12 5.04166 -3.98114 0
M  V30 9312 C 1258.18 3.96049 -4.75587 0
M  V30 9313 N 1257.14 3.15559 -4.54006 0
M  V30 9314 C 1256.4 3.78802 -3.62491 0
M  V30 9315 C 1255.1 3.476 -3.10071 0
M  V30 9316 O 1254.36 2.51136 -3.37021 0
M  V30 9317 N 1254.67 4.39088 -2.19956 0
M  V30 9318 C 1255.42 5.53215 -1.81733 0
M  V30 9319 N 1254.82 6.31963 -0.860928 0
M  V30 9320 N 1256.57 5.86688 -2.32562 0
M  V30 9321 C 1257.03 4.97525 -3.23407 0
M  V30 9322 H 1259.19 6.62195 -3.11261 0
M  V30 9323 H 1260.38 4.42488 -4.8131 0
M  V30 9324 H 1261.86 5.93051 -5.9305 0
M  V30 9325 H 1260.17 7.92655 -6.402 0
M  V30 9326 H 1259.98 6.26671 -8.0846 0
M  V30 9327 H 1258.35 6.29101 -7.32804 0
M  V30 9328 H 1253.77 4.25523 -1.77604 0
M  V30 9329 H 1258.98 3.75576 -5.47333 0
M  V30 9330 H 1253.91 6.04684 -0.468946 0
M  V30 9331 H 1255.28 7.18054 -0.542422 0
M  V30 9332 H 1260.99 5.84223 -2.47279 0
M  V30 9333 P 1262.84 7.39546 -4.75277 0
M  V30 9334 O 1264.27 7.84798 -5.01039 0
M  V30 9335 O 1262.48 5.9812 -5.08098 0
M  V30 9336 O 1262.52 7.57503 -3.1866 0
M  V30 9337 C 1262.36 8.97357 -2.74833 0
M  V30 9338 C 1262.9 9.07548 -1.32709 0
M  V30 9339 O 1261.84 8.62072 -0.606159 0
M  V30 9340 C 1264.12 8.25383 -0.938334 0
M  V30 9341 O 1264.86 8.74577 0.146954 0
M  V30 9342 C 1263.45 6.8802 -0.712559 0
M  V30 9343 O 1264.25 6.1189 0.194655 0
M  V30 9344 C 1262.11 7.27966 -0.139777 0
M  V30 9345 H 1262.14 7.25354 0.961601 0
M  V30 9346 H 1263.33 6.32557 -1.65702 0
M  V30 9347 H 1264.81 8.19355 -1.79097 0
M  V30 9348 H 1263.12 10.1294 -1.10029 0
M  V30 9349 H 1262.93 9.64276 -3.41316 0
M  V30 9350 H 1261.3 9.25417 -2.76357 0
M  V30 9351 H 1263.94 6.25267 1.07847 0
M  V30 9352 P 1265.79 8.791 1.03475e-11 0
M  V30 9353 O 1267.22 9.31096 0.027933 0
M  V30 9354 O 1265.43 7.77869 -1.04071 0
M  V30 9355 O 1265.47 8.09533 1.41463 0
M  V30 9356 C 1265.31 9.0349 2.53943 0
M  V30 9357 C 1265.85 8.35226 3.79016 0
M  V30 9358 O 1264.8 7.57992 4.15078 0
M  V30 9359 C 1267.07 7.45087 3.67298 0
M  V30 9360 O 1267.81 7.27796 4.85194 0
M  V30 9361 C 1266.4 6.17323 3.12027 0
M  V30 9362 O 1267.2 5.04231 3.47188 0
M  V30 9363 C 1265.06 6.19961 3.81809 0
M  V30 9364 H 1265.1 5.58218 4.73051 0
M  V30 9365 H 1266.28 6.21726 2.02589 0
M  V30 9366 H 1267.76 7.86112 2.9231 0
M  V30 9367 H 1266.07 9.11627 4.55076 0
M  V30 9368 H 1265.88 9.9573 2.34194 0
M  V30 9369 H 1264.25 9.2792 2.67832 0
M  V30 9370 H 1266.89 4.67702 4.28772 0
M  V30 9371 P 1268.75 7.39546 4.75277 0
M  V30 9372 O 1270.17 7.81777 5.05738 0
M  V30 9373 O 1268.39 7.1065 3.32998 0
M  V30 9374 O 1268.42 6.04542 5.56673 0
M  V30 9375 C 1268.26 6.22772 7.02095 0
M  V30 9376 C 1268.8 4.97725 7.70406 0
M  V30 9377 O 1267.75 4.13256 7.58987 0
M  V30 9378 C 1270.02 4.28231 7.11815 0
M  V30 9379 O 1270.76 3.49945 8.01648 0
M  V30 9380 C 1269.35 3.5063 5.96244 0
M  V30 9381 O 1270.15 2.36482 5.64681 0
M  V30 9382 C 1268.01 3.15122 6.56374 0
M  V30 9383 H 1268.05 2.13853 6.99751 0
M  V30 9384 H 1269.23 4.13501 5.06559 0
M  V30 9385 H 1270.71 5.03285 6.70911 0
M  V30 9386 H 1269.02 5.20877 8.75697 0
M  V30 9387 H 1268.83 7.11046 7.35349 0
M  V30 9388 H 1267.2 6.35815 7.26986 0
M  V30 9389 H 1269.84 1.61644 6.13565 0
M  V30 9390 P 1271.7 3.65191 7.99657 0
M  V30 9391 O 1273.12 3.8425 8.48115 0
M  V30 9392 O 1271.34 4.17805 6.64342 0
M  V30 9393 O 1271.37 2.07613 7.95143 0
M  V30 9394 C 1271.21 1.44328 9.27336 0
M  V30 9395 C 1271.75 0.0220036 9.17197 0
M  V30 9396 O 1270.7 -0.626867 8.61923 0
M  V30 9397 C 1272.97 -0.24586 8.30336 0
M  V30 9398 O 1273.71 -1.39011 8.63583 0
M  V30 9399 C 1272.3 -0.273849 6.91158 0
M  V30 9400 O 1273.1 -1.06348 6.02892 0
M  V30 9401 C 1270.96 -0.897649 7.22545 0
M  V30 9402 H 1271 -1.9841 7.04286 0
M  V30 9403 H 1272.18 0.739928 6.497 0
M  V30 9404 H 1273.66 0.60668 8.36503 0
M  V30 9405 H 1271.97 -0.352479 10.1829 0
M  V30 9406 H 1271.78 2.00611 10.0304 0
M  V30 9407 H 1270.15 1.41843 9.55327 0
M  V30 9408 H 1272.79 -1.95734 6.03555 0
M  V30 9409 P 1274.65 -1.25109 8.70152 0
M  V30 9410 O 1276.07 -1.35288 9.2132 0
M  V30 9411 O 1274.29 -0.0769065 7.84762 0
M  V30 9412 O 1274.32 -2.55232 7.81161 0
M  V30 9413 C 1274.16 -3.79979 8.58246 0
M  V30 9414 C 1274.7 -4.94023 7.72785 0
M  V30 9415 O 1273.65 -5.18666 6.91125 0
M  V30 9416 C 1275.92 -4.69597 6.85231 0
M  V30 9417 O 1276.66 -5.83832 6.51337 0
M  V30 9418 C 1275.25 -3.96706 5.66633 0
M  V30 9419 O 1276.05 -4.14896 4.5003 0
M  V30 9420 C 1273.92 -4.66153 5.59313 0
M  V30 9421 N 1272.87 -3.71582 5.24027 0
M  V30 9422 C 1273.04 -2.39715 5.48833 0
M  V30 9423 N 1272.01 -1.65863 5.12845 0
M  V30 9424 C 1271.13 -2.57637 4.5973 0
M  V30 9425 C 1269.86 -2.40278 4.01027 0
M  V30 9426 N 1269.26 -1.19549 3.86744 0
M  V30 9427 N 1269.3 -3.57711 3.59575 0
M  V30 9428 C 1269.9 -4.80324 3.70476 0
M  V30 9429 N 1271.08 -5.01121 4.23801 0
M  V30 9430 C 1271.65 -3.84757 4.66372 0
M  V30 9431 H 1273.95 -5.47604 4.85148 0
M  V30 9432 H 1275.13 -2.8955 5.86187 0
M  V30 9433 H 1276.61 -4.0121 7.36511 0
M  V30 9434 H 1274.92 -5.81019 8.37003 0
M  V30 9435 H 1274.73 -3.73517 9.52265 0
M  V30 9436 H 1273.1 -3.97163 8.80359 0
M  V30 9437 H 1269.36 -5.66348 3.3183 0
M  V30 9438 H 1273.94 -1.98804 5.94332 0
M  V30 9439 H 1268.33 -1.13147 3.4281 0
M  V30 9440 H 1269.74 -0.344074 4.19692 0
M  V30 9441 H 1275.74 -4.90891 4.01857 0
M  V30 9442 P 1277.6 -5.75688 6.64379 0
M  V30 9443 O 1279.02 -6.11849 7.01846 0
M  V30 9444 O 1277.24 -4.30744 6.56026 0
M  V30 9445 O 1277.27 -6.37042 5.19165 0
M  V30 9446 C 1277.11 -7.83578 5.16515 0
M  V30 9447 C 1277.65 -8.33398 3.83019 0
M  V30 9448 O 1276.6 -8.10074 3.01034 0
M  V30 9449 C 1278.87 -7.65514 3.2257 0
M  V30 9450 O 1279.61 -8.4329 2.32297 0
M  V30 9451 C 1278.2 -6.40075 2.62207 0
M  V30 9452 O 1279 -5.92589 1.53712 0
M  V30 9453 C 1276.87 -6.9454 2.18503 0
M  V30 9454 H 1276.9 -7.23063 1.12091 0
M  V30 9455 H 1278.08 -5.6025 3.37201 0
M  V30 9456 H 1279.56 -7.35707 4.02681 0
M  V30 9457 H 1277.87 -9.40912 3.9095 0
M  V30 9458 H 1277.68 -8.29056 5.99158 0
M  V30 9459 H 1276.05 -8.10073 5.25882 0
M  V30 9460 H 1278.69 -6.30324 0.726794 0
M  V30 9461 P 1280.55 -8.4349 2.47671 0
M  V30 9462 O 1281.97 -8.94167 2.5964 0
M  V30 9463 O 1280.19 -7.1704 3.19006 0
M  V30 9464 O 1280.22 -8.16596 0.923387 0
M  V30 9465 C 1280.06 -9.38437 0.108857 0
M  V30 9466 C 1280.6 -9.08175 -1.28353 0
M  V30 9467 O 1279.55 -8.44229 -1.84713 0
M  V30 9468 C 1281.82 -8.18386 -1.42505 0
M  V30 9469 O 1282.56 -8.3501 -2.60497 0
M  V30 9470 C 1281.15 -6.80225 -1.25468 0
M  V30 9471 O 1281.95 -5.81621 -1.91066 0
M  V30 9472 C 1279.82 -7.02416 -1.9168 0
M  V30 9473 H 1279.85 -6.6888 -2.96621 0
M  V30 9474 H 1281.03 -6.53617 -0.192223 0
M  V30 9475 H 1282.52 -8.36622 -0.589963 0
M  V30 9476 H 1280.82 -10.0291 -1.79807 0
M  V30 9477 H 1280.63 -10.2138 0.558219 0
M  V30 9478 H 1279 -9.6579 0.0444202 0
M  V30 9479 H 1281.64 -5.69556 -2.79637 0
M  V30 9480 P 1283.5 -8.4349 -2.47671 0
M  V30 9481 O 1284.92 -8.92593 -2.65 0
M  V30 9482 O 1283.14 -7.7568 -1.19296 0
M  V30 9483 O 1283.17 -7.36886 -3.63805 0
M  V30 9484 C 1283.01 -7.95349 -4.982 0
M  V30 9485 C 1283.55 -6.94612 -5.98974 0
M  V30 9486 O 1282.5 -6.10347 -6.11815 0
M  V30 9487 C 1284.77 -6.11426 -5.62335 0
M  V30 9488 O 1285.51 -5.6162 -6.70584 0
M  V30 9489 C 1284.1 -5.04409 -4.73308 0
M  V30 9490 O 1284.9 -3.85992 -4.75183 0
M  V30 9491 C 1282.77 -4.8728 -5.41006 0
M  V30 9492 H 1282.8 -4.02333 -6.11157 0
M  V30 9493 H 1283.98 -5.39466 -3.69543 0
M  V30 9494 H 1285.47 -6.71916 -5.01943 0
M  V30 9495 H 1283.77 -7.4649 -6.93477 0
M  V30 9496 H 1283.58 -8.89416 -5.05237 0
M  V30 9497 H 1281.95 -8.14876 -5.18409 0
M  V30 9498 H 1284.59 -3.27957 -5.4317 0
M  V30 9499 P 1286.45 -5.75688 -6.64379 0
M  V30 9500 O 1287.87 -6.07627 -7.05504 0
M  V30 9501 O 1286.09 -5.88047 -5.19722 0
M  V30 9502 O 1286.13 -4.2322 -7.04443 0
M  V30 9503 C 1285.97 -3.99743 -8.4911 0
M  V30 9504 C 1286.51 -2.60516 -8.79425 0
M  V30 9505 O 1285.45 -1.82684 -8.4467 0
M  V30 9506 C 1287.72 -2.10343 -8.03628 0
M  V30 9507 O 1288.46 -1.09919 -8.67766 0
M  V30 9508 C 1287.05 -1.68446 -6.70876 0
M  V30 9509 O 1287.85 -0.678137 -6.08433 0
M  V30 9510 C 1285.72 -1.17436 -7.18567 0
M  V30 9511 H 1285.75 -0.0804732 -7.31656 0
M  V30 9512 H 1286.93 -2.54037 -6.02537 0
M  V30 9513 H 1288.42 -2.93881 -7.85526 0
M  V30 9514 H 1286.72 -2.53065 -9.86973 0
M  V30 9515 H 1286.53 -4.75072 -9.05887 0
M  V30 9516 H 1284.9 -4.05244 -8.76668 0
M  V30 9517 H 1287.54 0.177647 -6.34251 0
M  V30 9518 P 1289.4 -1.25109 -8.70152 0
M  V30 9519 O 1290.82 -1.29744 -9.22016 0
M  V30 9520 O 1289.04 -2.13714 -7.55141 0
M  V30 9521 O 1289.08 0.248149 -8.21425 0
M  V30 9522 C 1288.92 1.22779 -9.30434 0
M  V30 9523 C 1289.46 2.56293 -8.80664 0
M  V30 9524 O 1288.4 3.02979 -8.09349 0
M  V30 9525 C 1290.67 2.57523 -7.89775 0
M  V30 9526 O 1291.41 3.7668 -7.89438 0
M  V30 9527 C 1290.01 2.20997 -6.55446 0
M  V30 9528 O 1290.8 2.71895 -5.48509 0
M  V30 9529 C 1288.67 2.89693 -6.67988 0
M  V30 9530 H 1288.7 3.88793 -6.19859 0
M  V30 9531 H 1289.88 1.12046 -6.44229 0
M  V30 9532 H 1291.37 1.7746 -8.19711 0
M  V30 9533 H 1289.67 3.20706 -9.67112 0
M  V30 9534 H 1289.48 0.901032 -10.1892 0
M  V30 9535 H 1287.85 1.33049 -9.56592 0
M  V30 9536 H 1290.49 3.57847 -5.23962 0
M  V30 9537 P 1292.35 3.65191 -7.99657 0
M  V30 9538 O 1293.77 3.89332 -8.45794 0
M  V30 9539 O 1291.99 2.28472 -7.50807 0
M  V30 9540 O 1292.03 4.64972 -6.77611 0
M  V30 9541 C 1291.87 6.06319 -7.16352 0
M  V30 9542 C 1292.41 6.91731 -6.02299 0
M  V30 9543 O 1291.35 6.92449 -5.17064 0
M  V30 9544 C 1293.62 6.43627 -5.25174 0
M  V30 9545 O 1294.36 7.43686 -4.60469 0
M  V30 9546 C 1292.96 5.40275 -4.31916 0
M  V30 9547 O 1293.75 5.25279 -3.14438 0
M  V30 9548 C 1291.62 6.04847 -4.05327 0
M  V30 9549 H 1291.65 6.62195 -3.11261 0
M  V30 9550 H 1292.83 4.42556 -4.81383 0
M  V30 9551 H 1294.32 5.92458 -5.93643 0
M  V30 9552 H 1292.62 7.92655 -6.402 0
M  V30 9553 H 1292.43 6.26671 -8.0846 0
M  V30 9554 H 1290.8 6.29101 -7.32804 0
M  V30 9555 H 1293.44 5.84315 -2.47318 0
M  V30 9556 P 1295.3 7.39546 -4.75277 0
M  V30 9557 O 1296.72 7.84798 -5.01039 0
M  V30 9558 O 1294.94 5.9812 -5.08098 0
M  V30 9559 O 1294.98 7.57503 -3.1866 0
M  V30 9560 C 1294.82 8.97357 -2.74833 0
M  V30 9561 C 1295.36 9.07548 -1.32709 0
M  V30 9562 O 1294.3 8.62072 -0.606159 0
M  V30 9563 C 1296.58 8.25383 -0.938334 0
M  V30 9564 O 1297.31 8.74577 0.146954 0
M  V30 9565 C 1295.91 6.8802 -0.712559 0
M  V30 9566 O 1296.71 6.1189 0.194655 0
M  V30 9567 C 1294.57 7.27966 -0.139777 0
M  V30 9568 H 1294.6 7.25354 0.961601 0
M  V30 9569 H 1295.78 6.32557 -1.65702 0
M  V30 9570 H 1297.27 8.19355 -1.79097 0
M  V30 9571 H 1295.57 10.1294 -1.10029 0
M  V30 9572 H 1295.38 9.64276 -3.41316 0
M  V30 9573 H 1293.75 9.25417 -2.76357 0
M  V30 9574 H 1296.39 6.25267 1.07847 0
M  V30 9575 P 1298.25 8.791 1.06576e-11 0
M  V30 9576 O 1299.67 9.31096 0.027933 0
M  V30 9577 O 1297.89 7.77869 -1.04071 0
M  V30 9578 O 1297.93 8.09533 1.41463 0
M  V30 9579 C 1297.77 9.0349 2.53943 0
M  V30 9580 C 1298.31 8.35226 3.79016 0
M  V30 9581 O 1297.25 7.57992 4.15078 0
M  V30 9582 C 1299.53 7.45087 3.67298 0
M  V30 9583 O 1300.26 7.27796 4.85194 0
M  V30 9584 C 1298.86 6.17323 3.12027 0
M  V30 9585 O 1299.66 5.04231 3.47188 0
M  V30 9586 C 1297.52 6.19961 3.81809 0
M  V30 9587 H 1297.55 5.58218 4.73051 0
M  V30 9588 H 1298.73 6.21726 2.02589 0
M  V30 9589 H 1300.22 7.86112 2.9231 0
M  V30 9590 H 1298.52 9.11627 4.55076 0
M  V30 9591 H 1298.33 9.9573 2.34194 0
M  V30 9592 H 1296.7 9.2792 2.67832 0
M  V30 9593 H 1299.34 4.67702 4.28772 0
M  V30 9594 P 1301.2 7.39546 4.75277 0
M  V30 9595 O 1302.62 7.81777 5.05738 0
M  V30 9596 O 1300.84 7.1065 3.32998 0
M  V30 9597 O 1300.88 6.04542 5.56673 0
M  V30 9598 C 1300.72 6.22772 7.02095 0
M  V30 9599 C 1301.26 4.97725 7.70406 0
M  V30 9600 O 1300.2 4.13256 7.58987 0
M  V30 9601 C 1302.48 4.28231 7.11815 0
M  V30 9602 O 1303.21 3.49945 8.01648 0
M  V30 9603 C 1301.81 3.5063 5.96244 0
M  V30 9604 O 1302.61 2.36482 5.64681 0
M  V30 9605 C 1300.47 3.15122 6.56374 0
M  V30 9606 H 1300.5 2.13853 6.99751 0
M  V30 9607 H 1301.69 4.13501 5.06559 0
M  V30 9608 H 1303.17 5.03285 6.70911 0
M  V30 9609 H 1301.48 5.20877 8.75697 0
M  V30 9610 H 1301.29 7.11046 7.35349 0
M  V30 9611 H 1299.66 6.35815 7.26986 0
M  V30 9612 H 1302.29 1.61644 6.13565 0
M  V30 9613 P 1304.15 3.65191 7.99657 0
M  V30 9614 O 1305.57 3.84292 8.48206 0
M  V30 9615 O 1303.79 4.17805 6.64342 0
M  V30 9616 O 1303.83 2.07613 7.95143 0
M  V30 9617 C 1303.67 1.44344 9.27435 0
M  V30 9618 C 1304.21 0.0220036 9.17197 0
M  V30 9619 O 1303.15 -0.626794 8.61824 0
M  V30 9620 C 1305.43 -0.24586 8.30336 0
M  V30 9621 O 1306.16 -1.39011 8.63583 0
M  V30 9622 C 1304.76 -0.273849 6.91158 0
M  V30 9623 O 1305.56 -1.05728 6.029 0
M  V30 9624 C 1303.42 -0.897649 7.22545 0
M  V30 9625 N 1302.38 -0.292839 6.41732 0
M  V30 9626 C 1302.55 0.950603 5.91308 0
M  V30 9627 N 1301.52 1.37732 5.21105 0
M  V30 9628 C 1300.63 0.318109 5.26039 0
M  V30 9629 C 1299.37 0.146766 4.6727 0
M  V30 9630 N 1298.77 1.08519 3.89983 0
M  V30 9631 N 1298.8 -1.06525 4.95887 0
M  V30 9632 C 1299.4 -2.0378 5.71347 0
M  V30 9633 N 1300.58 -1.92445 6.27451 0
M  V30 9634 C 1301.16 -0.715382 6.00353 0
M  V30 9635 H 1303.45 -1.98383 7.04189 0
M  V30 9636 H 1304.64 0.733318 6.49674 0
M  V30 9637 H 1306.12 0.60668 8.36503 0
M  V30 9638 H 1304.42 -0.362662 10.1825 0
M  V30 9639 H 1304.23 2.00611 10.0304 0
M  V30 9640 H 1302.6 1.41843 9.55327 0
M  V30 9641 H 1298.87 -2.97041 5.85344 0
M  V30 9642 H 1303.45 1.54076 6.07465 0
M  V30 9643 H 1297.84 0.901517 3.49562 0
M  V30 9644 H 1299.24 1.97957 3.71669 0
M  V30 9645 H 1305.24 -1.95704 6.0346 0
M  V30 9646 P 1307.1 -1.25109 8.70152 0
M  V30 9647 O 1308.52 -1.35274 9.21221 0
M  V30 9648 O 1306.74 -0.0769065 7.84762 0
M  V30 9649 O 1306.78 -2.55232 7.81161 0
M  V30 9650 C 1306.62 -3.79939 8.58154 0
M  V30 9651 C 1307.16 -4.94023 7.72785 0
M  V30 9652 O 1306.1 -5.18726 6.91205 0
M  V30 9653 C 1308.38 -4.69597 6.85231 0
M  V30 9654 O 1309.12 -5.83832 6.51337 0
M  V30 9655 C 1307.71 -3.96706 5.66633 0
M  V30 9656 O 1308.51 -4.15414 4.49689 0
M  V30 9657 C 1306.37 -4.66153 5.59313 0
M  V30 9658 H 1306.4 -5.47679 4.85214 0
M  V30 9659 H 1307.59 -2.89008 5.86566 0
M  V30 9660 H 1309.07 -4.0121 7.36511 0
M  V30 9661 H 1307.38 -5.80182 8.37584 0
M  V30 9662 H 1307.19 -3.73517 9.52265 0
M  V30 9663 H 1305.56 -3.97163 8.80359 0
M  V30 9664 H 1308.2 -4.90969 4.01921 0
M  V30 9665 P 1310.05 -5.75688 6.64379 0
M  V30 9666 O 1311.48 -6.11849 7.01846 0
M  V30 9667 O 1309.69 -4.30744 6.56026 0
M  V30 9668 O 1309.73 -6.37042 5.19165 0
M  V30 9669 C 1309.57 -7.83578 5.16515 0
M  V30 9670 C 1310.11 -8.33398 3.83019 0
M  V30 9671 O 1309.05 -8.10074 3.01034 0
M  V30 9672 C 1311.33 -7.65514 3.2257 0
M  V30 9673 O 1312.07 -8.4329 2.32297 0
M  V30 9674 C 1310.66 -6.40075 2.62207 0
M  V30 9675 O 1311.46 -5.92589 1.53712 0
M  V30 9676 C 1309.32 -6.9454 2.18503 0
M  V30 9677 H 1309.35 -7.23063 1.12091 0
M  V30 9678 H 1310.54 -5.6025 3.37201 0
M  V30 9679 H 1312.02 -7.35707 4.02681 0
M  V30 9680 H 1310.33 -9.40912 3.9095 0
M  V30 9681 H 1310.14 -8.29056 5.99158 0
M  V30 9682 H 1308.51 -8.10073 5.25882 0
M  V30 9683 H 1311.15 -6.30324 0.726794 0
M  V30 9684 P 1313 -8.4349 2.47671 0
M  V30 9685 O 1314.43 -8.94167 2.5964 0
M  V30 9686 O 1312.64 -7.1704 3.19006 0
M  V30 9687 O 1312.68 -8.16596 0.923387 0
M  V30 9688 C 1312.52 -9.38437 0.108857 0
M  V30 9689 C 1313.06 -9.08175 -1.28353 0
M  V30 9690 O 1312 -8.44229 -1.84713 0
M  V30 9691 C 1314.28 -8.18386 -1.42505 0
M  V30 9692 O 1315.02 -8.3501 -2.60497 0
M  V30 9693 C 1313.61 -6.80225 -1.25468 0
M  V30 9694 O 1314.41 -5.81621 -1.91066 0
M  V30 9695 C 1312.27 -7.02416 -1.9168 0
M  V30 9696 H 1312.3 -6.6888 -2.96621 0
M  V30 9697 H 1313.49 -6.53617 -0.192223 0
M  V30 9698 H 1314.97 -8.36622 -0.589963 0
M  V30 9699 H 1313.28 -10.0291 -1.79807 0
M  V30 9700 H 1313.09 -10.2138 0.558219 0
M  V30 9701 H 1311.46 -9.6579 0.0444202 0
M  V30 9702 H 1314.1 -5.69556 -2.79637 0
M  V30 9703 P 1315.95 -8.4349 -2.47671 0
M  V30 9704 O 1317.38 -8.92689 -2.65029 0
M  V30 9705 O 1315.59 -7.7568 -1.19296 0
M  V30 9706 O 1315.63 -7.36886 -3.63805 0
M  V30 9707 C 1315.47 -7.95433 -4.98253 0
M  V30 9708 C 1316.01 -6.94612 -5.98974 0
M  V30 9709 O 1314.96 -6.10277 -6.11744 0
M  V30 9710 C 1317.23 -6.11426 -5.62335 0
M  V30 9711 O 1317.97 -5.6162 -6.70584 0
M  V30 9712 C 1316.56 -5.04409 -4.73308 0
M  V30 9713 O 1317.36 -3.86404 -4.74719 0
M  V30 9714 C 1315.22 -4.8728 -5.41006 0
M  V30 9715 N 1314.18 -4.65812 -4.42377 0
M  V30 9716 C 1314.35 -5.09132 -3.15382 0
M  V30 9717 N 1313.32 -4.84021 -2.3716 0
M  V30 9718 C 1312.44 -4.18386 -3.20441 0
M  V30 9719 C 1311.17 -3.6275 -2.94905 0
M  V30 9720 N 1310.57 -3.65794 -1.73372 0
M  V30 9721 N 1310.61 -3.05008 -4.05243 0
M  V30 9722 C 1311.21 -2.98348 -5.28159 0
M  V30 9723 N 1312.38 -3.48171 -5.56333 0
M  V30 9724 C 1312.96 -4.06869 -4.47212 0
M  V30 9725 H 1315.26 -4.02278 -6.11074 0
M  V30 9726 H 1316.44 -5.39013 -3.70026 0
M  V30 9727 H 1317.92 -6.71916 -5.01943 0
M  V30 9728 H 1316.23 -7.45796 -6.94223 0
M  V30 9729 H 1316.04 -8.89416 -5.05237 0
M  V30 9730 H 1314.41 -8.14876 -5.18409 0
M  V30 9731 H 1310.67 -2.47853 -6.07807 0
M  V30 9732 H 1315.25 -5.59989 -2.81362 0
M  V30 9733 H 1309.64 -3.23218 -1.60782 0
M  V30 9734 H 1311.05 -4.10523 -0.937856 0
M  V30 9735 H 1317.05 -3.27906 -5.43085 0
M  V30 9736 P 1318.9 -5.75688 -6.64379 0
M  V30 9737 O 1320.33 -6.07692 -7.0558 0
M  V30 9738 O 1318.54 -5.88047 -5.19722 0
M  V30 9739 O 1318.58 -4.2322 -7.04443 0
M  V30 9740 C 1318.42 -3.99785 -8.49201 0
M  V30 9741 C 1318.96 -2.60516 -8.79425 0
M  V30 9742 O 1317.91 -1.82663 -8.44573 0
M  V30 9743 C 1320.18 -2.10343 -8.03628 0
M  V30 9744 O 1320.92 -1.09919 -8.67766 0
M  V30 9745 C 1319.51 -1.68446 -6.70876 0
M  V30 9746 O 1320.31 -0.684109 -6.08265 0
M  V30 9747 C 1318.17 -1.17436 -7.18567 0
M  V30 9748 N 1317.13 -1.52699 -6.23988 0
M  V30 9749 C 1317.3 -2.578 -5.40574 0
M  V30 9750 N 1316.27 -2.78966 -4.61193 0
M  V30 9751 C 1315.39 -1.78725 -4.95769 0
M  V30 9752 C 1314.12 -1.45727 -4.44207 0
M  V30 9753 N 1313.56 -0.374977 -5.05812 0
M  V30 9754 C 1314.16 0.345585 -6.05615 0
M  V30 9755 N 1315.33 0.0787651 -6.56253 0
M  V30 9756 C 1315.91 -1.00499 -5.96189 0
M  V30 9757 H 1319.39 -2.53396 -6.02698 0
M  V30 9758 H 1320.87 -2.93881 -7.85526 0
M  V30 9759 H 1319.18 -2.52078 -9.87225 0
M  V30 9760 H 1318.99 -4.75072 -9.05887 0
M  V30 9761 H 1317.36 -4.05244 -8.76668 0
M  V30 9762 H 1318.2 -3.18977 -5.3945 0
M  V30 9763 H 1320 0.177619 -6.34151 0
M  V30 9764 P 1321.86 -1.25109 -8.70152 0
M  V30 9765 O 1323.28 -1.29758 -9.22115 0
M  V30 9766 O 1321.5 -2.13714 -7.55141 0
M  V30 9767 O 1321.53 0.248149 -8.21425 0
M  V30 9768 C 1321.37 1.22792 -9.30533 0
M  V30 9769 C 1321.91 2.56293 -8.80664 0
M  V30 9770 O 1320.86 3.02944 -8.09255 0
M  V30 9771 C 1323.13 2.57523 -7.89775 0
M  V30 9772 O 1323.87 3.7668 -7.89438 0
M  V30 9773 C 1322.46 2.20997 -6.55446 0
M  V30 9774 O 1323.26 2.71302 -5.48691 0
M  V30 9775 C 1321.12 2.89693 -6.67988 0
M  V30 9776 N 1320.08 2.08895 -6.07487 0
M  V30 9777 C 1320.25 0.753809 -5.94137 0
M  V30 9778 N 1319.22 0.146592 -5.38801 0
M  V30 9779 C 1318.34 1.1768 -5.13693 0
M  V30 9780 C 1317.07 1.17563 -4.52477 0
M  V30 9781 N 1316.51 2.41918 -4.45789 0
M  V30 9782 C 1317.11 3.56493 -4.90792 0
M  V30 9783 N 1318.29 3.61423 -5.47817 0
M  V30 9784 C 1318.86 2.37779 -5.5588 0
M  V30 9785 H 1322.34 1.12673 -6.44018 0
M  V30 9786 H 1323.82 1.7746 -8.19711 0
M  V30 9787 H 1322.13 3.21673 -9.66791 0
M  V30 9788 H 1321.94 0.901032 -10.1892 0
M  V30 9789 H 1320.31 1.33049 -9.56592 0
M  V30 9790 H 1321.15 0.233081 -6.26266 0
M  V30 9791 H 1322.95 3.5779 -5.23879 0
M  V30 9792 P 1324.81 3.65191 -7.99657 0
M  V30 9793 O 1326.23 3.89332 -8.45794 0
M  V30 9794 O 1324.45 2.28472 -7.50807 0
M  V30 9795 O 1324.48 4.64972 -6.77611 0
M  V30 9796 C 1324.32 6.06319 -7.16352 0
M  V30 9797 C 1324.86 6.91731 -6.02299 0
M  V30 9798 O 1323.81 6.92449 -5.17064 0
M  V30 9799 C 1326.08 6.43627 -5.25174 0
M  V30 9800 O 1326.82 7.43686 -4.60469 0
M  V30 9801 C 1325.41 5.40275 -4.31916 0
M  V30 9802 O 1326.21 5.25279 -3.14438 0
M  V30 9803 C 1324.07 6.04847 -4.05327 0
M  V30 9804 H 1324.11 6.62195 -3.11261 0
M  V30 9805 H 1325.29 4.42556 -4.81383 0
M  V30 9806 H 1326.77 5.92458 -5.93643 0
M  V30 9807 H 1325.08 7.92655 -6.402 0
M  V30 9808 H 1324.89 6.26671 -8.0846 0
M  V30 9809 H 1323.26 6.29101 -7.32804 0
M  V30 9810 H 1325.9 5.84315 -2.47318 0
M  V30 9811 P 1327.76 7.39546 -4.75277 0
M  V30 9812 O 1329.18 7.84798 -5.01039 0
M  V30 9813 O 1327.4 5.9812 -5.08098 0
M  V30 9814 O 1327.43 7.57503 -3.1866 0
M  V30 9815 C 1327.27 8.97357 -2.74833 0
M  V30 9816 C 1327.81 9.07548 -1.32709 0
M  V30 9817 O 1326.76 8.62072 -0.606159 0
M  V30 9818 C 1329.03 8.25383 -0.938334 0
M  V30 9819 O 1329.77 8.74577 0.146954 0
M  V30 9820 C 1328.36 6.8802 -0.712559 0
M  V30 9821 O 1329.16 6.1189 0.194655 0
M  V30 9822 C 1327.03 7.27966 -0.139777 0
M  V30 9823 H 1327.06 7.25354 0.961601 0
M  V30 9824 H 1328.24 6.32557 -1.65702 0
M  V30 9825 H 1329.72 8.19355 -1.79097 0
M  V30 9826 H 1328.03 10.1294 -1.10029 0
M  V30 9827 H 1327.84 9.64276 -3.41316 0
M  V30 9828 H 1326.21 9.25417 -2.76357 0
M  V30 9829 H 1328.85 6.25267 1.07847 0
M  V30 9830 P 1330.71 8.791 1.0718e-11 0
M  V30 9831 O 1332.13 9.31096 0.027933 0
M  V30 9832 O 1330.35 7.77869 -1.04071 0
M  V30 9833 O 1330.38 8.09533 1.41463 0
M  V30 9834 C 1330.22 9.0349 2.53943 0
M  V30 9835 C 1330.76 8.35226 3.79016 0
M  V30 9836 O 1329.71 7.57992 4.15078 0
M  V30 9837 C 1331.98 7.45087 3.67298 0
M  V30 9838 O 1332.72 7.27796 4.85194 0
M  V30 9839 C 1331.31 6.17323 3.12027 0
M  V30 9840 O 1332.11 5.04231 3.47188 0
M  V30 9841 C 1329.98 6.19961 3.81809 0
M  V30 9842 H 1330.01 5.58218 4.73051 0
M  V30 9843 H 1331.19 6.21726 2.02589 0
M  V30 9844 H 1332.68 7.86112 2.9231 0
M  V30 9845 H 1330.98 9.11627 4.55076 0
M  V30 9846 H 1330.79 9.9573 2.34194 0
M  V30 9847 H 1329.16 9.2792 2.67832 0
M  V30 9848 H 1331.8 4.67702 4.28772 0
M  V30 9849 P 1333.66 7.39546 4.75277 0
M  V30 9850 O 1335.08 7.81777 5.05738 0
M  V30 9851 O 1333.3 7.1065 3.32998 0
M  V30 9852 O 1333.33 6.04542 5.56673 0
M  V30 9853 C 1333.17 6.22772 7.02095 0
M  V30 9854 C 1333.71 4.97725 7.70406 0
M  V30 9855 O 1332.66 4.13256 7.58987 0
M  V30 9856 C 1334.93 4.28231 7.11815 0
M  V30 9857 O 1335.67 3.49945 8.01648 0
M  V30 9858 C 1334.26 3.5063 5.96244 0
M  V30 9859 O 1335.06 2.36482 5.64681 0
M  V30 9860 C 1332.93 3.15122 6.56374 0
M  V30 9861 H 1332.96 2.13853 6.99751 0
M  V30 9862 H 1334.14 4.13501 5.06559 0
M  V30 9863 H 1335.63 5.03285 6.70911 0
M  V30 9864 H 1333.93 5.20877 8.75697 0
M  V30 9865 H 1333.74 7.11046 7.35349 0
M  V30 9866 H 1332.11 6.35815 7.26986 0
M  V30 9867 H 1334.75 1.61644 6.13565 0
M  V30 9868 P 1336.61 3.65191 7.99657 0
M  V30 9869 O 1338.03 3.8425 8.48115 0
M  V30 9870 O 1336.25 4.17805 6.64342 0
M  V30 9871 O 1336.29 2.07613 7.95143 0
M  V30 9872 C 1336.13 1.44328 9.27336 0
M  V30 9873 C 1336.67 0.0220036 9.17197 0
M  V30 9874 O 1335.61 -0.626867 8.61923 0
M  V30 9875 C 1337.88 -0.24586 8.30336 0
M  V30 9876 O 1338.62 -1.39011 8.63583 0
M  V30 9877 C 1337.21 -0.273849 6.91158 0
M  V30 9878 O 1338.01 -1.06348 6.02892 0
M  V30 9879 C 1335.88 -0.897649 7.22545 0
M  V30 9880 H 1335.91 -1.9841 7.04286 0
M  V30 9881 H 1337.09 0.739928 6.497 0
M  V30 9882 H 1338.58 0.60668 8.36503 0
M  V30 9883 H 1336.88 -0.352479 10.1829 0
M  V30 9884 H 1336.69 2.00611 10.0304 0
M  V30 9885 H 1335.06 1.41843 9.55327 0
M  V30 9886 H 1337.7 -1.95734 6.03555 0
M  V30 9887 P 1339.56 -1.25109 8.70152 0
M  V30 9888 O 1340.98 -1.35274 9.21221 0
M  V30 9889 O 1339.2 -0.0769065 7.84762 0
M  V30 9890 O 1339.24 -2.55232 7.81161 0
M  V30 9891 C 1339.08 -3.79939 8.58154 0
M  V30 9892 C 1339.62 -4.94023 7.72785 0
M  V30 9893 O 1338.56 -5.18726 6.91205 0
M  V30 9894 C 1340.83 -4.69597 6.85231 0
M  V30 9895 O 1341.57 -5.83832 6.51337 0
M  V30 9896 C 1340.16 -3.96706 5.66633 0
M  V30 9897 O 1340.96 -4.15414 4.49689 0
M  V30 9898 C 1338.83 -4.66153 5.59313 0
M  V30 9899 H 1338.86 -5.47679 4.85214 0
M  V30 9900 H 1340.04 -2.89008 5.86566 0
M  V30 9901 H 1341.53 -4.0121 7.36511 0
M  V30 9902 H 1339.83 -5.80182 8.37584 0
M  V30 9903 H 1339.64 -3.73517 9.52265 0
M  V30 9904 H 1338.01 -3.97163 8.80359 0
M  V30 9905 H 1340.65 -4.90969 4.01921 0
M  V30 9906 P 1342.51 -5.75688 6.64379 0
M  V30 9907 O 1343.93 -6.11849 7.01846 0
M  V30 9908 O 1342.15 -4.30744 6.56026 0
M  V30 9909 O 1342.19 -6.37042 5.19165 0
M  V30 9910 C 1342.03 -7.83578 5.16515 0
M  V30 9911 C 1342.57 -8.33398 3.83019 0
M  V30 9912 O 1341.51 -8.10074 3.01034 0
M  V30 9913 C 1343.78 -7.65514 3.2257 0
M  V30 9914 O 1344.52 -8.4329 2.32297 0
M  V30 9915 C 1343.12 -6.40075 2.62207 0
M  V30 9916 O 1343.91 -5.92589 1.53712 0
M  V30 9917 C 1341.78 -6.9454 2.18503 0
M  V30 9918 H 1341.81 -7.23063 1.12091 0
M  V30 9919 H 1342.99 -5.6025 3.37201 0
M  V30 9920 H 1344.48 -7.35707 4.02681 0
M  V30 9921 H 1342.78 -9.40912 3.9095 0
M  V30 9922 H 1342.59 -8.29056 5.99158 0
M  V30 9923 H 1340.96 -8.10073 5.25882 0
M  V30 9924 H 1343.6 -6.30324 0.726794 0
M  V30 9925 P 1345.46 -8.4349 2.47671 0
M  V30 9926 O 1346.88 -8.94167 2.5964 0
M  V30 9927 O 1345.1 -7.1704 3.19006 0
M  V30 9928 O 1345.14 -8.16596 0.923387 0
M  V30 9929 C 1344.98 -9.38437 0.108857 0
M  V30 9930 C 1345.52 -9.08175 -1.28353 0
M  V30 9931 O 1344.46 -8.44229 -1.84713 0
M  V30 9932 C 1346.73 -8.18386 -1.42505 0
M  V30 9933 O 1347.47 -8.3501 -2.60497 0
M  V30 9934 C 1346.07 -6.80225 -1.25468 0
M  V30 9935 O 1346.86 -5.81621 -1.91066 0
M  V30 9936 C 1344.73 -7.02416 -1.9168 0
M  V30 9937 H 1344.76 -6.6888 -2.96621 0
M  V30 9938 H 1345.94 -6.53617 -0.192223 0
M  V30 9939 H 1347.43 -8.36622 -0.589963 0
M  V30 9940 H 1345.73 -10.0291 -1.79807 0
M  V30 9941 H 1345.54 -10.2138 0.558219 0
M  V30 9942 H 1343.91 -9.6579 0.0444202 0
M  V30 9943 H 1346.55 -5.69556 -2.79637 0
M  V30 9944 P 1348.41 -8.4349 -2.47671 0
M  V30 9945 O 1349.83 -8.92593 -2.65 0
M  V30 9946 O 1348.05 -7.7568 -1.19296 0
M  V30 9947 O 1348.09 -7.36886 -3.63805 0
M  V30 9948 C 1347.93 -7.95349 -4.982 0
M  V30 9949 C 1348.47 -6.94612 -5.98974 0
M  V30 9950 O 1347.41 -6.10347 -6.11815 0
M  V30 9951 C 1349.69 -6.11426 -5.62335 0
M  V30 9952 O 1350.42 -5.6162 -6.70584 0
M  V30 9953 C 1349.02 -5.04409 -4.73308 0
M  V30 9954 O 1349.82 -3.85992 -4.75183 0
M  V30 9955 C 1347.68 -4.8728 -5.41006 0
M  V30 9956 H 1347.71 -4.02333 -6.11157 0
M  V30 9957 H 1348.89 -5.39466 -3.69543 0
M  V30 9958 H 1350.38 -6.71916 -5.01943 0
M  V30 9959 H 1348.68 -7.4649 -6.93477 0
M  V30 9960 H 1348.49 -8.89416 -5.05237 0
M  V30 9961 H 1346.86 -8.14876 -5.18409 0
M  V30 9962 H 1349.5 -3.27957 -5.4317 0
M  V30 9963 P 1351.36 -5.75688 -6.64379 0
M  V30 9964 O 1352.78 -6.07627 -7.05504 0
M  V30 9965 O 1351 -5.88047 -5.19722 0
M  V30 9966 O 1351.04 -4.2322 -7.04443 0
M  V30 9967 C 1350.88 -3.99743 -8.4911 0
M  V30 9968 C 1351.42 -2.60516 -8.79425 0
M  V30 9969 O 1350.36 -1.82684 -8.4467 0
M  V30 9970 C 1352.64 -2.10343 -8.03628 0
M  V30 9971 O 1353.37 -1.09919 -8.67766 0
M  V30 9972 C 1351.97 -1.68446 -6.70876 0
M  V30 9973 O 1352.77 -0.678137 -6.08433 0
M  V30 9974 C 1350.63 -1.17436 -7.18567 0
M  V30 9975 H 1350.66 -0.0804732 -7.31656 0
M  V30 9976 H 1351.85 -2.54037 -6.02537 0
M  V30 9977 H 1353.33 -2.93881 -7.85526 0
M  V30 9978 H 1351.64 -2.53065 -9.86973 0
M  V30 9979 H 1351.45 -4.75072 -9.05887 0
M  V30 9980 H 1349.82 -4.05244 -8.76668 0
M  V30 9981 H 1352.45 0.177647 -6.34251 0
M  V30 9982 P 1354.31 -1.25109 -8.70152 0
M  V30 9983 O 1355.73 -1.29744 -9.22016 0
M  V30 9984 O 1353.95 -2.13714 -7.55141 0
M  V30 9985 O 1353.99 0.248149 -8.21425 0
M  V30 9986 C 1353.83 1.22779 -9.30434 0
M  V30 9987 C 1354.37 2.56293 -8.80664 0
M  V30 9988 O 1353.31 3.02979 -8.09349 0
M  V30 9989 C 1355.59 2.57523 -7.89775 0
M  V30 9990 O 1356.32 3.7668 -7.89438 0
M  V30 9991 C 1354.92 2.20997 -6.55446 0
M  V30 9992 O 1355.72 2.71895 -5.48509 0
M  V30 9993 C 1353.58 2.89693 -6.67988 0
M  V30 9994 H 1353.61 3.88793 -6.19859 0
M  V30 9995 H 1354.8 1.12046 -6.44229 0
M  V30 9996 H 1356.28 1.7746 -8.19711 0
M  V30 9997 H 1354.59 3.20706 -9.67112 0
M  V30 9998 H 1354.4 0.901032 -10.1892 0
M  V30 9999 H 1352.77 1.33049 -9.56592 0
M  V30 10000 H 1355.4 3.57847 -5.23962 0
M  V30 10001 P 1357.26 3.65191 -7.99657 0
M  V30 10002 O 1358.68 3.89332 -8.45794 0
M  V30 10003 O 1356.9 2.28472 -7.50807 0
M  V30 10004 O 1356.94 4.64972 -6.77611 0
M  V30 10005 C 1356.78 6.06319 -7.16352 0
M  V30 10006 C 1357.32 6.91731 -6.02299 0
M  V30 10007 O 1356.26 6.92449 -5.17064 0
M  V30 10008 C 1358.54 6.43627 -5.25174 0
M  V30 10009 O 1359.28 7.43686 -4.60469 0
M  V30 10010 C 1357.87 5.40275 -4.31916 0
M  V30 10011 O 1358.67 5.25279 -3.14438 0
M  V30 10012 C 1356.53 6.04847 -4.05327 0
M  V30 10013 H 1356.56 6.62195 -3.11261 0
M  V30 10014 H 1357.75 4.42556 -4.81383 0
M  V30 10015 H 1359.23 5.92458 -5.93643 0
M  V30 10016 H 1357.54 7.92655 -6.402 0
M  V30 10017 H 1357.35 6.26671 -8.0846 0
M  V30 10018 H 1355.72 6.29101 -7.32804 0
M  V30 10019 H 1358.36 5.84315 -2.47318 0
M  V30 10020 P 1360.21 7.39546 -4.75277 0
M  V30 10021 O 1361.63 7.84798 -5.01039 0
M  V30 10022 O 1359.85 5.9812 -5.08098 0
M  V30 10023 O 1359.89 7.57503 -3.1866 0
M  V30 10024 C 1359.73 8.97357 -2.74833 0
M  V30 10025 C 1360.27 9.07548 -1.32709 0
M  V30 10026 O 1359.21 8.62072 -0.606159 0
M  V30 10027 C 1361.49 8.25383 -0.938334 0
M  V30 10028 O 1362.23 8.74577 0.146954 0
M  V30 10029 C 1360.82 6.8802 -0.712559 0
M  V30 10030 O 1361.62 6.1189 0.194655 0
M  V30 10031 C 1359.48 7.27966 -0.139777 0
M  V30 10032 H 1359.51 7.25354 0.961601 0
M  V30 10033 H 1360.7 6.32557 -1.65702 0
M  V30 10034 H 1362.18 8.19355 -1.79097 0
M  V30 10035 H 1360.49 10.1294 -1.10029 0
M  V30 10036 H 1360.3 9.64276 -3.41316 0
M  V30 10037 H 1358.67 9.25417 -2.76357 0
M  V30 10038 H 1361.31 6.25267 1.07847 0
M  V30 10039 P 1363.16 8.791 1.10281e-11 0
M  V30 10040 O 1364.59 9.31096 0.027933 0
M  V30 10041 O 1362.8 7.77869 -1.04071 0
M  V30 10042 O 1362.84 8.09533 1.41463 0
M  V30 10043 C 1362.68 9.0349 2.53943 0
M  V30 10044 C 1363.22 8.35226 3.79016 0
M  V30 10045 O 1362.16 7.57992 4.15078 0
M  V30 10046 C 1364.44 7.45087 3.67298 0
M  V30 10047 O 1365.18 7.27796 4.85194 0
M  V30 10048 C 1363.77 6.17323 3.12027 0
M  V30 10049 O 1364.57 5.04231 3.47188 0
M  V30 10050 C 1362.43 6.19961 3.81809 0
M  V30 10051 H 1362.46 5.58218 4.73051 0
M  V30 10052 H 1363.65 6.21726 2.02589 0
M  V30 10053 H 1365.13 7.86112 2.9231 0
M  V30 10054 H 1363.44 9.11627 4.55076 0
M  V30 10055 H 1363.25 9.9573 2.34194 0
M  V30 10056 H 1361.62 9.2792 2.67832 0
M  V30 10057 H 1364.26 4.67702 4.28772 0
M  V30 10058 P 1366.11 7.39546 4.75277 0
M  V30 10059 O 1367.53 7.81861 5.05793 0
M  V30 10060 O 1365.75 7.1065 3.32998 0
M  V30 10061 O 1365.79 6.04542 5.56673 0
M  V30 10062 C 1365.63 6.22839 7.02169 0
M  V30 10063 C 1366.17 4.97725 7.70406 0
M  V30 10064 O 1365.12 4.13208 7.58899 0
M  V30 10065 C 1367.39 4.28231 7.11815 0
M  V30 10066 O 1368.13 3.49945 8.01648 0
M  V30 10067 C 1366.72 3.5063 5.96244 0
M  V30 10068 O 1367.52 2.37008 5.64352 0
M  V30 10069 C 1365.38 3.15122 6.56374 0
M  V30 10070 N 1364.34 3.22311 5.55692 0
M  V30 10071 C 1364.51 3.99655 4.46046 0
M  V30 10072 N 1363.48 3.97599 3.63918 0
M  V30 10073 C 1362.6 3.11159 4.25334 0
M  V30 10074 C 1361.33 2.64972 3.85157 0
M  V30 10075 N 1360.76 1.78482 4.74759 0
M  V30 10076 C 1361.37 1.37463 5.90819 0
M  V30 10077 N 1362.54 1.7733 6.31889 0
M  V30 10078 C 1363.12 2.64393 5.43725 0
M  V30 10079 H 1366.6 4.12931 5.06895 0
M  V30 10080 H 1368.08 5.03285 6.70911 0
M  V30 10081 H 1366.39 5.20001 8.76217 0
M  V30 10082 H 1366.2 7.11046 7.35349 0
M  V30 10083 H 1364.57 6.35815 7.26986 0
M  V30 10084 H 1365.41 4.58037 4.27732 0
M  V30 10085 H 1367.21 1.61619 6.13468 0
M  V30 10086 P 1369.06 3.65191 7.99657 0
M  V30 10087 O 1370.49 3.8425 8.48115 0
M  V30 10088 O 1368.7 4.17805 6.64342 0
M  V30 10089 O 1368.74 2.07613 7.95143 0
M  V30 10090 C 1368.58 1.44328 9.27336 0
M  V30 10091 C 1369.12 0.0220036 9.17197 0
M  V30 10092 O 1368.07 -0.626867 8.61923 0
M  V30 10093 C 1370.34 -0.24586 8.30336 0
M  V30 10094 O 1371.08 -1.39011 8.63583 0
M  V30 10095 C 1369.67 -0.273849 6.91158 0
M  V30 10096 O 1370.47 -1.06348 6.02892 0
M  V30 10097 C 1368.33 -0.897649 7.22545 0
M  V30 10098 H 1368.37 -1.9841 7.04286 0
M  V30 10099 H 1369.55 0.739928 6.497 0
M  V30 10100 H 1371.03 0.60668 8.36503 0
M  V30 10101 H 1369.34 -0.352479 10.1829 0
M  V30 10102 H 1369.15 2.00611 10.0304 0
M  V30 10103 H 1367.52 1.41843 9.55327 0
M  V30 10104 H 1370.16 -1.95734 6.03555 0
M  V30 10105 P 1372.02 -1.25109 8.70152 0
M  V30 10106 O 1373.44 -1.35274 9.21221 0
M  V30 10107 O 1371.66 -0.0769065 7.84762 0
M  V30 10108 O 1371.69 -2.55232 7.81161 0
M  V30 10109 C 1371.53 -3.79939 8.58154 0
M  V30 10110 C 1372.07 -4.94023 7.72785 0
M  V30 10111 O 1371.02 -5.18726 6.91205 0
M  V30 10112 C 1373.29 -4.69597 6.85231 0
M  V30 10113 O 1374.03 -5.83832 6.51337 0
M  V30 10114 C 1372.62 -3.96706 5.66633 0
M  V30 10115 O 1373.42 -4.15414 4.49689 0
M  V30 10116 C 1371.28 -4.66153 5.59313 0
M  V30 10117 H 1371.32 -5.47679 4.85214 0
M  V30 10118 H 1372.5 -2.89008 5.86566 0
M  V30 10119 H 1373.98 -4.0121 7.36511 0
M  V30 10120 H 1372.29 -5.80182 8.37584 0
M  V30 10121 H 1372.1 -3.73517 9.52265 0
M  V30 10122 H 1370.47 -3.97163 8.80359 0
M  V30 10123 H 1373.11 -4.90969 4.01921 0
M  V30 10124 P 1374.97 -5.75688 6.64379 0
M  V30 10125 O 1376.39 -6.11849 7.01846 0
M  V30 10126 O 1374.61 -4.30744 6.56026 0
M  V30 10127 O 1374.64 -6.37042 5.19165 0
M  V30 10128 C 1374.48 -7.83578 5.16515 0
M  V30 10129 C 1375.02 -8.33398 3.83019 0
M  V30 10130 O 1373.97 -8.10074 3.01034 0
M  V30 10131 C 1376.24 -7.65514 3.2257 0
M  V30 10132 O 1376.98 -8.4329 2.32297 0
M  V30 10133 C 1375.57 -6.40075 2.62207 0
M  V30 10134 O 1376.37 -5.92589 1.53712 0
M  V30 10135 C 1374.23 -6.9454 2.18503 0
M  V30 10136 H 1374.27 -7.23063 1.12091 0
M  V30 10137 H 1375.45 -5.6025 3.37201 0
M  V30 10138 H 1376.93 -7.35707 4.02681 0
M  V30 10139 H 1375.24 -9.40912 3.9095 0
M  V30 10140 H 1375.05 -8.29056 5.99158 0
M  V30 10141 H 1373.42 -8.10073 5.25882 0
M  V30 10142 H 1376.06 -6.30324 0.726794 0
M  V30 10143 P 1377.92 -8.4349 2.47671 0
M  V30 10144 O 1379.34 -8.94167 2.5964 0
M  V30 10145 O 1377.56 -7.1704 3.19006 0
M  V30 10146 O 1377.59 -8.16596 0.923387 0
M  V30 10147 C 1377.43 -9.38437 0.108857 0
M  V30 10148 C 1377.97 -9.08175 -1.28353 0
M  V30 10149 O 1376.92 -8.44229 -1.84713 0
M  V30 10150 C 1379.19 -8.18386 -1.42505 0
M  V30 10151 O 1379.93 -8.3501 -2.60497 0
M  V30 10152 C 1378.52 -6.80225 -1.25468 0
M  V30 10153 O 1379.32 -5.81621 -1.91066 0
M  V30 10154 C 1377.19 -7.02416 -1.9168 0
M  V30 10155 H 1377.22 -6.6888 -2.96621 0
M  V30 10156 H 1378.4 -6.53617 -0.192223 0
M  V30 10157 H 1379.88 -8.36622 -0.589963 0
M  V30 10158 H 1378.19 -10.0291 -1.79807 0
M  V30 10159 H 1378 -10.2138 0.558219 0
M  V30 10160 H 1376.37 -9.6579 0.0444202 0
M  V30 10161 H 1379.01 -5.69556 -2.79637 0
M  V30 10162 P 1380.87 -8.4349 -2.47671 0
M  V30 10163 O 1382.29 -8.92593 -2.65 0
M  V30 10164 O 1380.51 -7.7568 -1.19296 0
M  V30 10165 O 1380.54 -7.36886 -3.63805 0
M  V30 10166 C 1380.38 -7.95349 -4.982 0
M  V30 10167 C 1380.92 -6.94612 -5.98974 0
M  V30 10168 O 1379.87 -6.10347 -6.11815 0
M  V30 10169 C 1382.14 -6.11426 -5.62335 0
M  V30 10170 O 1382.88 -5.6162 -6.70584 0
M  V30 10171 C 1381.47 -5.04409 -4.73308 0
M  V30 10172 O 1382.27 -3.85992 -4.75183 0
M  V30 10173 C 1380.14 -4.8728 -5.41006 0
M  V30 10174 H 1380.17 -4.02333 -6.11157 0
M  V30 10175 H 1381.35 -5.39466 -3.69543 0
M  V30 10176 H 1382.83 -6.71916 -5.01943 0
M  V30 10177 H 1381.14 -7.4649 -6.93477 0
M  V30 10178 H 1380.95 -8.89416 -5.05237 0
M  V30 10179 H 1379.32 -8.14876 -5.18409 0
M  V30 10180 H 1381.96 -3.27957 -5.4317 0
M  V30 10181 P 1383.82 -5.75688 -6.64379 0
M  V30 10182 O 1385.24 -6.07627 -7.05504 0
M  V30 10183 O 1383.46 -5.88047 -5.19722 0
M  V30 10184 O 1383.49 -4.2322 -7.04443 0
M  V30 10185 C 1383.33 -3.99743 -8.4911 0
M  V30 10186 C 1383.87 -2.60516 -8.79425 0
M  V30 10187 O 1382.82 -1.82684 -8.4467 0
M  V30 10188 C 1385.09 -2.10343 -8.03628 0
M  V30 10189 O 1385.83 -1.09919 -8.67766 0
M  V30 10190 C 1384.42 -1.68446 -6.70876 0
M  V30 10191 O 1385.22 -0.678137 -6.08433 0
M  V30 10192 C 1383.09 -1.17436 -7.18567 0
M  V30 10193 H 1383.12 -0.0804732 -7.31656 0
M  V30 10194 H 1384.3 -2.54037 -6.02537 0
M  V30 10195 H 1385.79 -2.93881 -7.85526 0
M  V30 10196 H 1384.09 -2.53065 -9.86973 0
M  V30 10197 H 1383.9 -4.75072 -9.05887 0
M  V30 10198 H 1382.27 -4.05244 -8.76668 0
M  V30 10199 H 1384.91 0.177647 -6.34251 0
M  V30 10200 P 1386.77 -1.25109 -8.70152 0
M  V30 10201 O 1388.19 -1.29744 -9.22016 0
M  V30 10202 O 1386.41 -2.13714 -7.55141 0
M  V30 10203 O 1386.44 0.248149 -8.21425 0
M  V30 10204 C 1386.28 1.22779 -9.30434 0
M  V30 10205 C 1386.82 2.56293 -8.80664 0
M  V30 10206 O 1385.77 3.02979 -8.09349 0
M  V30 10207 C 1388.04 2.57523 -7.89775 0
M  V30 10208 O 1388.78 3.7668 -7.89438 0
M  V30 10209 C 1387.37 2.20997 -6.55446 0
M  V30 10210 O 1388.17 2.71895 -5.48509 0
M  V30 10211 C 1386.04 2.89693 -6.67988 0
M  V30 10212 H 1386.07 3.88793 -6.19859 0
M  V30 10213 H 1387.25 1.12046 -6.44229 0
M  V30 10214 H 1388.74 1.7746 -8.19711 0
M  V30 10215 H 1387.04 3.20706 -9.67112 0
M  V30 10216 H 1386.85 0.901032 -10.1892 0
M  V30 10217 H 1385.22 1.33049 -9.56592 0
M  V30 10218 H 1387.86 3.57847 -5.23962 0
M  V30 10219 H 1390.41 3.39234 -7.5115 0
M  V30 END ATOM
M  V30 BEGIN BOND
M  V30 END BOND
M  V30 END CTAB
M  END
$$$$
