drugbank_target|P08559 Pyruvate dehydrogenase E1 component subunit alpha, somatic form, mitochondrial (DB00157)
 OpenBabel12092119343D

  0  0  0     0  0            999 V3000
M  V30 BEGIN CTAB
M  V30 COUNTS 6045 6102 0 0 0
M  V30 BEGIN ATOM
M  V30 1 H -0.908 1.98254 -0.117106 0
M  V30 2 N 0 1.576 0 0
M  V30 3 C 0.933 2.03868 1.02534 0
M  V30 4 C 1.911 0.928543 1.3348 0
M  V30 5 O 3.095 1.19667 1.45644 0
M  V30 6 C 0.222 2.43627 2.35294 0
M  V30 7 C -0.732 3.65373 2.2001 0
M  V30 8 S 0.101 5.13292 1.52614 0
M  V30 9 C 1.257 5.56322 2.86805 0
M  V30 10 H 1.49 2.90518 0.631377 0
M  V30 11 H -0.977 1.52953 0.210867 0
M  V30 12 H 0.981 2.67203 3.11629 0
M  V30 13 H -0.358 1.57376 2.7183 0
M  V30 14 H -1.165 3.90944 3.18086 0
M  V30 15 H -1.563 3.418 1.51819 0
M  V30 16 H 0.729 5.58782 3.83104 0
M  V30 17 H 1.672 6.56266 2.65933 0
M  V30 18 H 2.08 4.83886 2.90714 0
M  V30 19 N 1.4781 -0.272755 1.55222 0
M  V30 20 C 2.8941 -0.619959 1.47067 0
M  V30 21 C 3.0941 -1.895 0.684978 0
M  V30 22 O 2.1501 -2.51675 0.203931 0
M  V30 23 C 3.4631 -0.746693 2.91282 0
M  V30 24 C 5.0111 -0.840731 3.01497 0
M  V30 25 C 5.4861 -0.99924 4.46967 0
M  V30 26 N 6.9771 -1.06476 4.50796 0
M  V30 27 C 7.7121 -1.20621 5.6057 0
M  V30 28 N 7.2081 -1.31483 6.80209 0
M  V30 29 N 9.0011 -1.23733 5.48312 0
M  V30 30 H 1.1521 0.564606 2.04758 0
M  V30 31 H 3.4151 0.191177 0.928523 0
M  V30 32 H 3.1211 0.119753 3.51496 0
M  V30 33 H 2.9951 -1.6269 3.40311 0
M  V30 34 H 5.3821 -1.69764 2.41379 0
M  V30 35 H 5.4631 0.0640874 2.5572 0
M  V30 36 H 5.1071 -0.146984 5.07687 0
M  V30 37 H 5.0371 -1.91871 4.90401 0
M  V30 38 H 7.5281 -0.993196 3.64615 0
M  V30 39 H 7.8411 -1.42111 7.59621 0
M  V30 40 H 6.1861 -1.28487 6.8302 0
M  V30 41 H 9.3771 -1.14877 4.53785 0
M  V30 42 H 9.5501 -1.34412 6.33906 0
M  V30 43 N 2.9562 -1.48159 -0.537278 0
M  V30 44 C 3.9032 -1.62138 -1.64256 0
M  V30 45 C 4.8732 -0.463668 -1.59497 0
M  V30 46 O 6.0582 -0.686241 -1.78032 0
M  V30 47 C 3.1982 -1.66028 -3.02537 0
M  V30 48 C 2.3112 -2.92855 -3.17585 0
M  V30 49 C 1.4462 -2.87952 -4.46382 0
M  V30 50 C 0.4852 -4.09516 -4.54932 0
M  V30 51 N -0.3778 -4.02733 -5.75109 0
M  V30 52 H 4.4622 -2.56529 -1.51647 0
M  V30 53 H 1.9992 -1.27224 -0.738414 0
M  V30 54 H 3.9572 -1.66265 -3.82638 0
M  V30 55 H 2.5872 -0.751331 -3.13934 0
M  V30 56 H 1.6392 -3.02395 -2.30784 0
M  V30 57 H 2.9512 -3.82822 -3.19764 0
M  V30 58 H 2.1052 -2.8655 -5.34765 0
M  V30 59 H 0.8442 -1.95702 -4.46712 0
M  V30 60 H -0.1508 -4.11201 -3.64957 0
M  V30 61 H 1.0742 -5.02917 -4.56346 0
M  V30 62 H -0.9798 -3.13299 -5.76351 0
M  V30 63 H -1.0628 -4.86397 -5.78752 0
M  V30 64 H 0.2052 -4.05379 -6.65799 0
M  V30 65 N 4.4343 0.785586 -1.36625 0
M  V30 66 C 5.3673 1.90509 -1.25625 0
M  V30 67 C 6.3453 1.62 -0.139607 0
M  V30 68 O 7.5293 1.8591 -0.31141 0
M  V30 69 C 4.6563 3.25419 -0.939158 0
M  V30 70 C 3.7023 3.72856 -2.07077 0
M  V30 71 S 4.5353 3.88162 -3.68904 0
M  V30 72 C 5.6913 5.25942 -3.39317 0
M  V30 73 H 5.9243 1.99549 -2.20381 0
M  V30 74 H 3.4573 0.945226 -1.22085 0
M  V30 75 H 5.4153 4.03346 -0.763029 0
M  V30 76 H 4.0763 3.14099 -0.00931402 0
M  V30 77 H 3.2693 4.70624 -1.80357 0
M  V30 78 H 2.8713 3.01989 -2.20632 0
M  V30 79 H 5.1633 6.10651 -2.93447 0
M  V30 80 H 6.1063 5.57668 -4.36363 0
M  V30 81 H 6.5143 4.93224 -2.74573 0
M  V30 82 N 5.9124 1.20967 1.01018 0
M  V30 83 C 6.8424 0.988272 2.11555 0
M  V30 84 C 7.8234 -0.0849778 1.69888 0
M  V30 85 O 9.0084 0.0738202 1.9406 0
M  V30 86 C 6.1384 0.546528 3.42973 0
M  V30 87 C 5.0924 1.56375 3.9841 0
M  V30 88 C 4.4184 0.97842 5.25672 0
M  V30 89 C 5.7184 2.94922 4.31066 0
M  V30 90 H 7.4124 1.91276 2.30334 0
M  V30 91 H 4.9584 0.921073 1.1069 0
M  V30 92 H 6.9114 0.378839 4.19694 0
M  V30 93 H 5.6354 -0.413598 3.23971 0
M  V30 94 H 4.2944 1.71891 3.23804 0
M  V30 95 H 3.9424 0.0101688 5.02999 0
M  V30 96 H 3.6424 1.65784 5.63728 0
M  V30 97 H 5.1664 0.821939 6.05043 0
M  V30 98 H 6.5804 2.8288 4.9865 0
M  V30 99 H 4.9774 3.5983 4.80253 0
M  V30 100 H 6.0474 3.4616 3.39561 0
M  V30 101 N 7.3905 -1.2043 1.01659 0
M  V30 102 C 8.3535 -2.21433 0.591616 0
M  V30 103 C 9.3535 -1.57203 -0.338226 0
M  V30 104 O 10.5435 -1.73737 -0.126918 0
M  V30 105 C 7.6755 -3.40628 -0.136058 0
M  V30 106 H 8.8685 -2.60545 1.48514 0
M  V30 107 H 6.4215 -1.33893 0.806379 0
M  V30 108 H 7.1565 -3.07019 -1.04449 0
M  V30 109 H 6.9415 -3.88475 0.531917 0
M  V30 110 H 8.4315 -4.15475 -0.420735 0
M  V30 111 N 8.8686 -0.792821 -1.36206 0
M  V30 112 C 9.8316 -0.199459 -2.2833 0
M  V30 113 C 10.8316 0.605189 -1.48977 0
M  V30 114 O 12.0216 0.425685 -1.68919 0
M  V30 115 C 9.1536 0.723523 -3.33134 0
M  V30 116 H 10.3466 -1.01181 -2.82316 0
M  V30 117 H 7.8996 -0.562485 -1.45828 0
M  V30 118 H 8.6346 1.56008 -2.84309 0
M  V30 119 H 8.4196 0.148436 -3.91819 0
M  V30 120 H 9.9096 1.13344 -4.01924 0
M  V30 121 N 10.3467 1.47872 -0.545128 0
M  V30 122 C 11.5927 2.02793 -0.0166104 0
M  V30 123 C 11.9257 1.41987 1.32489 0
M  V30 124 O 11.2007 0.571045 1.85928 0
M  V30 125 C 11.4837 3.59989 0.0893294 0
M  V30 126 C 11.3367 4.3125 -1.27841 0
M  V30 127 C 12.6557 4.32606 0.808724 0
M  V30 128 H 9.7747 0.736962 -0.00751035 0
M  V30 129 H 12.4167 1.76433 -0.705085 0
M  V30 130 H 10.5667 3.82579 0.675681 0
M  V30 131 H 12.2387 4.20035 -1.90704 0
M  V30 132 H 10.4817 3.92076 -1.85632 0
M  V30 133 H 11.1527 5.39736 -1.15713 0
M  V30 134 H 13.6287 4.14936 0.310992 0
M  V30 135 H 12.5047 5.42251 0.851782 0
M  V30 136 H 12.7657 4.00963 1.86229 0
M  V30 137 N 11.8248 0.280983 1.55075 0
M  V30 138 C 13.0498 -0.340154 2.04592 0
M  V30 139 C 13.4748 -1.48246 1.15779 0
M  V30 140 O 12.8328 -1.80614 0.15761 0
M  V30 141 C 12.8808 -0.793104 3.5177 0
M  V30 142 O 11.9848 -1.89981 3.66034 0
M  V30 143 H 11.3258 -0.0694289 0.66036 0
M  V30 144 H 13.8558 0.416993 2.00306 0
M  V30 145 H 13.8658 -1.08729 3.93245 0
M  V30 146 H 12.5408 0.0426163 4.15878 0
M  V30 147 H 11.1178 -1.60771 3.36463 0
M  V30 148 N 13.3029 -1.57598 0.00835791 0
M  V30 149 C 14.7189 -1.55764 -0.347822 0
M  V30 150 C 14.9189 -1.01186 -1.74252 0
M  V30 151 O 13.9749 -0.649371 -2.44007 0
M  V30 152 C 15.2879 -2.99927 -0.215407 0
M  V30 153 C 16.8359 -3.11656 -0.289725 0
M  V30 154 C 17.3109 -4.57621 -0.18634 0
M  V30 155 N 18.8019 -4.62557 -0.243978 0
M  V30 156 C 19.5369 -5.73094 -0.18745 0
M  V30 157 N 19.0329 -6.92753 -0.0810331 0
M  V30 158 N 20.8259 -5.61588 -0.239925 0
M  V30 159 H 12.9769 -1.91411 0.92062 0
M  V30 160 H 15.2399 -0.879562 0.353659 0
M  V30 161 H 14.9459 -3.43729 0.744512 0
M  V30 162 H 14.8199 -3.63865 -0.994097 0
M  V30 163 H 17.2069 -2.67779 -1.24009 0
M  V30 164 H 17.2879 -2.5048 0.51898 0
M  V30 165 H 16.9319 -5.02174 0.760519 0
M  V30 166 H 16.8619 -5.16752 -1.01364 0
M  V30 167 H 19.3529 -3.76481 -0.327217 0
M  V30 168 H 19.6659 -7.72787 -0.0440241 0
M  V30 169 H 18.0109 -6.94984 -0.0465419 0
M  V30 170 H 21.2019 -4.66996 -0.321317 0
M  V30 171 H 21.3749 -6.47714 -0.192407 0
M  V30 172 N 14.781 0.264519 -1.55364 0
M  V30 173 C 16.027 0.99646 -1.76631 0
M  V30 174 C 16.36 1.85632 -0.570478 0
M  V30 175 O 15.635 1.89647 0.43175 0
M  V30 176 C 15.918 1.87187 -3.07625 0
M  V30 177 C 15.771 1.04138 -4.37579 0
M  V30 178 C 17.09 2.85749 -3.34717 0
M  V30 179 H 14.209 0.360841 -0.642622 0
M  V30 180 H 16.851 0.268218 -1.88097 0
M  V30 181 H 15.001 2.49279 -2.9798 0
M  V30 182 H 16.673 0.440517 -4.59192 0
M  V30 183 H 14.916 0.345115 -4.32425 0
M  V30 184 H 15.587 1.68729 -5.2558 0
M  V30 185 H 18.063 2.33793 -3.4421 0
M  V30 186 H 16.939 3.44136 -4.27623 0
M  V30 187 H 17.2 3.61311 -2.54768 0
M  V30 188 N 16.2591 1.48442 0.529413 0
M  V30 189 C 17.1891 1.65902 1.64313 0
M  V30 190 C 18.1701 0.507897 1.6234 0
M  V30 191 O 19.3551 0.740503 1.79528 0
M  V30 192 C 16.4851 1.69911 3.02898 0
M  V30 193 C 15.4391 2.8453 3.19729 0
M  V30 194 C 14.7651 2.73629 4.59381 0
M  V30 195 C 16.0651 4.25821 3.02447 0
M  V30 196 H 17.7591 2.5914 1.49955 0
M  V30 197 H 15.3051 1.24709 0.719982 0
M  V30 198 H 17.2581 1.80715 3.80684 0
M  V30 199 H 15.9821 0.732524 3.18279 0
M  V30 200 H 14.6411 2.73283 2.44361 0
M  V30 201 H 14.2891 1.74938 4.71599 0
M  V30 202 H 13.9891 3.50541 4.71588 0
M  V30 203 H 15.5131 2.86401 5.39265 0
M  V30 204 H 16.9271 4.37898 3.70024 0
M  V30 205 H 15.3241 5.03735 3.26146 0
M  V30 206 H 16.3941 4.42244 1.98867 0
M  V30 207 N 17.7372 -0.778329 1.37039 0
M  V30 208 C 18.9622 -1.57248 1.35233 0
M  V30 209 C 19.3872 -1.87999 -0.0615568 0
M  V30 210 O 18.7452 -1.48734 -1.03672 0
M  V30 211 C 18.7932 -2.86353 2.19167 0
M  V30 212 O 17.8972 -3.80442 1.59178 0
M  V30 213 H 17.2382 -0.476569 0.462362 0
M  V30 214 H 19.7682 -0.963853 1.80474 0
M  V30 215 H 19.7782 -3.35519 2.32145 0
M  V30 216 H 18.4532 -2.63299 3.21942 0
M  V30 217 H 17.0302 -3.39067 1.55203 0
M  V30 218 N 19.2153 -1.21501 -1.00376 0
M  V30 219 C 20.4633 -1.03095 -1.73827 0
M  V30 220 C 20.7843 0.436341 -1.90055 0
M  V30 221 O 20.0543 1.31466 -1.45236 0
M  V30 222 H 18.6343 -0.378487 -0.644016 0
M  V30 223 H 21.2963 -1.52831 -1.20949 0
M  V30 224 H 20.3923 -1.49991 -2.73695 0
M  V30 225 N 20.6934 1.19889 -1.02296 0
M  V30 226 C 21.6564 2.21116 -0.603351 0
M  V30 227 C 22.6564 1.5738 0.329884 0
M  V30 228 O 23.8464 1.73802 0.117702 0
M  V30 229 C 20.9784 3.40696 0.117992 0
M  V30 230 H 22.1714 2.59754 -1.49893 0
M  V30 231 H 19.7244 1.33463 -0.813468 0
M  V30 232 H 20.4594 3.07569 1.0282 0
M  V30 233 H 20.2444 3.88188 -0.552511 0
M  V30 234 H 21.7344 4.15692 0.398696 0
M  V30 235 N 22.1715 0.800033 1.35784 0
M  V30 236 C 23.3965 0.388511 2.03729 0
M  V30 237 C 23.8215 -0.990481 1.5991 0
M  V30 238 O 23.1795 -1.64013 0.772612 0
M  V30 239 C 23.2275 0.4726 3.5749 0
M  V30 240 O 22.3315 -0.51646 4.09153 0
M  V30 241 H 21.6725 0.163271 0.643614 0
M  V30 242 H 24.2025 1.0841 1.73518 0
M  V30 243 H 24.2125 0.34003 4.06581 0
M  V30 244 H 22.8875 1.47848 3.88734 0
M  V30 245 H 21.4645 -0.344673 3.71304 0
M  V30 246 N 23.6496 -1.47581 0.552962 0
M  V30 247 C 24.5816 -2.27997 -0.234533 0
M  V30 248 C 25.5946 -1.36753 -0.883321 0
M  V30 249 O 26.7836 -1.61612 -0.757889 0
M  V30 250 C 23.8836 -3.10879 -1.34935 0
M  V30 251 C 23.0566 -4.30056 -0.798158 0
M  V30 252 C 22.1156 -4.94567 -1.79694 0
M  V30 253 O 21.1416 -5.53087 -1.34474 0
M  V30 254 N 22.3436 -4.88878 -3.13015 0
M  V30 255 H 25.1086 -2.96222 0.455255 0
M  V30 256 H 22.6696 -1.57163 0.388761 0
M  V30 257 H 24.6616 -3.50903 -2.01616 0
M  V30 258 H 23.2316 -2.44924 -1.94244 0
M  V30 259 H 22.4516 -3.94174 0.0453079 0
M  V30 260 H 23.7396 -5.07152 -0.409173 0
M  V30 261 H 23.1376 -4.42526 -3.52402 0
M  V30 262 H 21.6946 -5.32934 -3.75266 0
M  V30 263 N 25.1277 -0.289203 -1.54924 0
M  V30 264 C 26.0747 0.592115 -2.23075 0
M  V30 265 C 27.0447 1.13881 -1.20915 0
M  V30 266 O 28.2297 1.18551 -1.495 0
M  V30 267 C 25.3697 1.76376 -2.96623 0
M  V30 268 C 24.4827 1.24959 -4.13533 0
M  V30 269 C 23.6177 2.38416 -4.74691 0
M  V30 270 C 22.6567 1.84072 -5.83767 0
M  V30 271 N 21.7937 2.91057 -6.38929 0
M  V30 272 H 26.6337 0.00432038 -2.98 0
M  V30 273 H 24.1707 -0.00963529 -1.47097 0
M  V30 274 H 26.1287 2.45268 -3.3749 0
M  V30 275 H 24.7587 2.32337 -2.24097 0
M  V30 276 H 23.8107 0.453307 -3.77689 0
M  V30 277 H 25.1227 0.811662 -4.92152 0
M  V30 278 H 24.2767 3.15276 -5.18349 0
M  V30 279 H 23.0157 2.8553 -3.95378 0
M  V30 280 H 22.0207 1.05697 -5.39545 0
M  V30 281 H 23.2457 1.37877 -6.64956 0
M  V30 282 H 21.1917 3.37526 -5.62505 0
M  V30 283 H 21.1087 2.51724 -7.12861 0
M  V30 284 H 22.3767 3.6785 -6.87246 0
M  V30 285 N 26.6058 1.57591 -0.0167156 0
M  V30 286 C 28.0168 1.79201 0.523834 0
M  V30 287 C 28.3678 0.925796 1.72984 0
M  V30 288 O 27.4928 0.132792 2.15992 0
M  V30 289 C 28.0878 3.25 0.957091 0
M  V30 290 C 26.6468 3.47648 1.44283 0
M  V30 291 C 25.7938 2.74374 0.401757 0
M  V30 292 H 28.7448 1.56831 -0.242816 0
M  V30 293 H 28.7658 3.34031 1.82219 0
M  V30 294 H 28.2778 3.88019 0.0791415 0
M  V30 295 H 26.3788 2.89866 2.34113 0
M  V30 296 H 26.4918 4.56352 1.45877 0
M  V30 297 H 24.8558 2.39485 0.867121 0
M  V30 298 H 25.6388 3.40102 -0.467513 0
M  V30 299 N 28.0839 -0.256276 1.55502 0
M  V30 300 C 29.0469 -1.30047 1.88734 0
M  V30 301 C 30.0469 -1.4154 0.763086 0
M  V30 302 O 31.2369 -1.40403 1.03115 0
M  V30 303 C 28.3689 -2.67953 2.10747 0
M  V30 304 H 29.5619 -1.01802 2.82093 0
M  V30 305 H 27.1149 -0.495134 1.4825 0
M  V30 306 H 27.8499 -3.01351 1.19825 0
M  V30 307 H 27.6349 -2.60993 2.92617 0
M  V30 308 H 29.1249 -3.43368 2.37673 0
M  V30 309 N 29.562 -1.4872 -0.521534 0
M  V30 310 C 30.787 -1.61101 -1.30618 0
M  V30 311 C 31.212 -0.274611 -1.86085 0
M  V30 312 O 30.57 0.754937 -1.64834 0
M  V30 313 C 30.618 -2.66709 -2.4269 0
M  V30 314 O 29.722 -2.24456 -3.45967 0
M  V30 315 H 29.063 -0.539921 -0.386499 0
M  V30 316 H 31.593 -1.94767 -0.626645 0
M  V30 317 H 31.603 -2.88245 -2.88754 0
M  V30 318 H 30.278 -3.63727 -2.01682 0
M  V30 319 H 28.855 -2.13168 -3.05964 0
M  V30 320 N 31.0401 0.771051 -1.3745 0
M  V30 321 C 32.4561 1.07171 -1.18265 0
M  V30 322 C 32.6561 2.01491 -0.019287 0
M  V30 323 O 31.7121 2.44244 0.640408 0
M  V30 324 C 33.0251 1.66854 -2.50161 0
M  V30 325 C 34.5731 1.79109 -2.56689 0
M  V30 326 C 35.0481 2.42205 -3.88717 0
M  V30 327 N 36.5391 2.49655 -3.90162 0
M  V30 328 C 37.2741 2.9933 -4.8907 0
M  V30 329 N 36.7701 3.49172 -5.98374 0
M  V30 330 N 38.5631 2.9821 -4.76474 0
M  V30 331 H 30.7141 0.144796 -2.11906 0
M  V30 332 H 32.9771 0.126863 -0.939473 0
M  V30 333 H 32.6831 1.05017 -3.35655 0
M  V30 334 H 32.5571 2.6614 -2.673 0
M  V30 335 H 34.9441 2.40077 -1.71601 0
M  V30 336 H 35.0251 0.785757 -2.43433 0
M  V30 337 H 34.6691 1.81875 -4.74219 0
M  V30 338 H 34.5991 3.43345 -3.99276 0
M  V30 339 H 37.0901 2.14383 -3.11205 0
M  V30 340 H 37.4031 3.8548 -6.69795 0
M  V30 341 H 35.7481 3.47275 -6.02018 0
M  V30 342 H 38.9391 2.58572 -3.90203 0
M  V30 343 H 39.1121 3.36613 -5.53711 0
M  V30 344 N 32.5182 1.22032 0.997298 0
M  V30 345 C 33.7642 1.04376 1.73878 0
M  V30 346 C 34.0972 -0.420716 1.89588 0
M  V30 347 O 33.3722 -1.31202 1.43583 0
M  V30 348 C 33.6552 1.75047 3.14691 0
M  V30 349 C 33.5082 3.29062 3.06656 0
M  V30 350 C 34.8272 1.49928 4.13775 0
M  V30 351 H 31.9462 0.380578 0.631133 0
M  V30 352 H 34.5882 1.50312 1.16217 0
M  V30 353 H 32.7382 1.35996 3.63919 0
M  V30 354 H 34.4102 3.7753 2.65083 0
M  V30 355 H 32.6532 3.58967 2.43568 0
M  V30 356 H 33.3242 3.73683 4.06282 0
M  V30 357 H 35.8002 1.83842 3.73285 0
M  V30 358 H 34.6762 2.01878 5.10428 0
M  V30 359 H 34.9372 0.430929 4.39995 0
M  V30 360 N 33.9963 -1.19345 1.0293 0
M  V30 361 C 34.9263 -2.2481 0.631105 0
M  V30 362 C 35.9073 -1.66245 -0.360104 0
M  V30 363 O 37.0923 -1.92677 -0.242726 0
M  V30 364 C 34.2223 -3.47295 -0.0184607 0
M  V30 365 C 33.1763 -4.18536 0.895073 0
M  V30 366 C 32.5023 -5.34586 0.110592 0
M  V30 367 C 33.8023 -4.73287 2.209 0
M  V30 368 H 35.4963 -2.58372 1.51275 0
M  V30 369 H 33.0423 -1.24194 0.728818 0
M  V30 370 H 34.9953 -4.20268 -0.308675 0
M  V30 371 H 33.7193 -3.12933 -0.934907 0
M  V30 372 H 32.3783 -3.47446 1.16949 0
M  V30 373 H 32.0263 -4.96469 -0.807902 0
M  V30 374 H 31.7263 -5.83183 0.719087 0
M  V30 375 H 33.2503 -6.10355 -0.172871 0
M  V30 376 H 34.6643 -5.38013 1.98028 0
M  V30 377 H 33.0613 -5.32373 2.76946 0
M  V30 378 H 34.1313 -3.91331 2.86336 0
M  V30 379 N 35.4744 -0.807222 -1.35358 0
M  V30 380 C 36.7204 -0.388463 -1.99045 0
M  V30 381 C 37.0534 1.04184 -1.63888 0
M  V30 382 O 36.3284 1.72292 -0.902535 0
M  V30 383 C 36.6114 -0.572783 -3.55515 0
M  V30 384 C 36.4644 -2.04807 -4.00468 0
M  V30 385 C 37.7834 0.00114064 -4.401 0
M  V30 386 H 34.9024 -0.142619 -0.723069 0
M  V30 387 H 37.5444 -1.01687 -1.60498 0
M  V30 388 H 35.6944 -0.0378425 -3.88482 0
M  V30 389 H 37.3664 -2.64544 -3.77908 0
M  V30 390 H 35.6094 -2.54427 -3.51353 0
M  V30 391 H 36.2804 -2.12792 -5.09337 0
M  V30 392 H 38.7564 -0.455716 -4.13597 0
M  V30 393 H 37.6324 -0.157737 -5.48673 0
M  V30 394 H 37.8934 1.09488 -4.28328 0
M  V30 395 N 36.9525 1.47285 -0.560781 0
M  V30 396 C 37.9155 2.28535 0.174488 0
M  V30 397 C 38.9155 1.37153 0.839388 0
M  V30 398 O 40.1055 1.59748 0.694702 0
M  V30 399 C 37.2375 3.16934 1.25561 0
M  V30 400 H 38.4305 2.95012 -0.539262 0
M  V30 401 H 35.9835 1.53034 -0.317865 0
M  V30 402 H 36.7185 2.55157 2.00164 0
M  V30 403 H 36.5035 3.8419 0.783604 0
M  V30 404 H 37.9935 3.78143 1.77193 0
M  V30 405 N 38.4306 0.297415 1.54768 0
M  V30 406 C 39.6556 -0.318435 2.04941 0
M  V30 407 C 40.0806 -1.4701 1.17345 0
M  V30 408 O 39.4386 -1.80436 0.176758 0
M  V30 409 C 39.4866 -0.755749 3.52592 0
M  V30 410 O 38.5906 -1.86088 3.68028 0
M  V30 411 H 37.9316 -0.062421 0.661059 0
M  V30 412 H 40.4616 0.438215 1.99852 0
M  V30 413 H 40.4716 -1.04552 3.94376 0
M  V30 414 H 39.1466 0.0867233 4.1581 0
M  V30 415 H 37.7236 -1.57193 3.38149 0
M  V30 416 N 39.9087 -1.5758 0.0250728 0
M  V30 417 C 41.3247 -1.56124 -0.331282 0
M  V30 418 C 41.5247 -1.03029 -1.73169 0
M  V30 419 O 40.5807 -0.675215 -2.43305 0
M  V30 420 C 41.8937 -3.00139 -0.183584 0
M  V30 421 C 43.4417 -3.11946 -0.256654 0
M  V30 422 C 43.9167 -4.57793 -0.137792 0
M  V30 423 N 45.4077 -4.6279 -0.194904 0
M  V30 424 C 46.1427 -5.7326 -0.126655 0
M  V30 425 N 45.6387 -6.928 -0.00755288 0
M  V30 426 N 47.4317 -5.61811 -0.180348 0
M  V30 427 H 39.5827 -1.90424 0.94087 0
M  V30 428 H 41.8457 -0.875761 0.362968 0
M  V30 429 H 41.5517 -3.4292 0.780927 0
M  V30 430 H 41.4257 -3.64899 -0.955448 0
M  V30 431 H 43.8127 -2.69079 -1.21162 0
M  V30 432 H 43.8937 -2.49915 0.545517 0
M  V30 433 H 43.5377 -5.01339 0.813739 0
M  V30 434 H 43.4677 -5.17798 -0.958775 0
M  V30 435 H 45.9587 -3.76807 -0.287267 0
M  V30 436 H 46.2717 -7.72791 0.0379428 0
M  V30 437 H 44.6167 -6.94995 0.0271731 0
M  V30 438 H 47.8077 -4.6731 -0.271767 0
M  V30 439 H 47.9807 -6.47882 -0.123697 0
M  V30 440 N 41.3868 0.248026 -1.55636 0
M  V30 441 C 42.3348 1.32683 -1.91045 0
M  V30 442 C 43.3288 1.49883 -0.789401 0
M  V30 443 O 44.5348 1.51371 -0.974007 0
M  V30 444 H 40.9098 0.444272 -0.606734 0
M  V30 445 H 42.8808 1.00085 -2.81115 0
M  V30 446 C 41.6298 2.6755 -2.22064 0
M  V30 447 H 40.9528 2.55114 -3.07826 0
M  V30 448 H 42.3928 3.41912 -2.50743 0
M  V30 449 C 40.8518 3.20556 -1.0366 0
M  V30 450 O 41.3818 4.00695 -0.284016 0
M  V30 451 N 39.5878 2.78568 -0.82753 0
M  V30 452 H 39.1348 2.1351 -1.44123 0
M  V30 453 H 39.0928 3.14378 -0.0369803 0
M  V30 454 N 42.8649 1.48995 0.513639 0
M  V30 455 C 44.1119 1.57843 1.26854 0
M  V30 456 C 44.4399 0.259501 1.92761 0
M  V30 457 O 43.6949 -0.75159 1.80692 0
M  V30 458 C 43.9939 2.67756 2.36731 0
M  V30 459 C 43.6599 4.09669 1.88368 0
M  V30 460 C 42.3219 4.48291 1.74896 0
M  V30 461 C 44.6739 4.98537 1.52021 0
M  V30 462 C 42.0019 5.73568 1.23438 0
M  V30 463 C 44.3539 6.24319 1.0202 0
M  V30 464 C 43.0179 6.61783 0.871778 0
M  V30 465 H 42.2879 0.577587 0.464192 0
M  V30 466 H 44.9349 1.82778 0.571366 0
M  V30 467 H 43.2399 2.36743 3.12185 0
M  V30 468 H 44.9369 2.71813 2.9482 0
M  V30 469 H 41.5269 3.79176 1.99808 0
M  V30 470 H 45.7109 4.69363 1.61281 0
M  V30 471 H 40.9669 6.01304 1.10648 0
M  V30 472 H 45.1409 6.92566 0.729722 0
M  V30 473 H 42.7679 7.5874 0.470852 0
M  V30 474 N 44.343 -0.763751 1.37857 0
M  V30 475 C 45.306 -1.85889 1.34081 0
M  V30 476 C 46.306 -1.58949 0.243277 0
M  V30 477 O 47.496 -1.66882 0.499589 0
M  V30 478 C 44.628 -3.23176 1.08489 0
M  V30 479 H 45.821 -1.90648 2.31502 0
M  V30 480 H 43.374 -0.964367 1.23003 0
M  V30 481 H 44.109 -3.24091 0.116318 0
M  V30 482 H 43.894 -3.44124 1.8794 0
M  V30 483 H 45.384 -4.03254 1.08517 0
M  V30 484 N 45.8211 -1.22559 -0.990812 0
M  V30 485 C 46.7691 -0.994798 -2.10253 0
M  V30 486 C 47.7631 0.0627798 -1.69284 0
M  V30 487 O 48.9691 -0.0898392 -1.79776 0
M  V30 488 H 45.3441 -0.304527 -0.687581 0
M  V30 489 H 47.3151 -1.93812 -2.26891 0
M  V30 490 C 46.0641 -0.591439 -3.42633 0
M  V30 491 H 45.3871 -1.3969 -3.74602 0
M  V30 492 H 46.8271 -0.469385 -4.21394 0
M  V30 493 C 45.2861 0.699232 -3.29564 0
M  V30 494 O 45.8161 1.75112 -3.61523 0
M  V30 495 N 44.0221 0.671182 -2.82743 0
M  V30 496 H 43.5691 -0.185136 -2.56934 0
M  V30 497 H 43.5271 1.53502 -2.7438 0
M  V30 498 N 47.2992 1.18797 -1.03562 0
M  V30 499 C 48.5762 1.84469 -0.650434 0
M  V30 500 C 48.9562 1.92319 0.870433 0
M  V30 501 O 48.3042 1.44528 1.76986 0
M  V30 502 C 48.5142 3.2306 -1.32036 0
M  V30 503 C 49.8622 3.9915 -1.44792 0
M  V30 504 O 50.8862 3.32481 -1.27806 0
M  V30 505 O 49.7452 5.18587 -1.72423 0
M  V30 506 H 46.8392 0.795251 -0.226946 0
M  V30 507 H 49.3852 1.26231 -1.13419 0
M  V30 508 H 48.1572 3.1222 -2.3587 0
M  V30 509 H 47.7802 3.88949 -0.8249 0
M  V30 510 N 48.7773 0.814389 1.34928 0
M  V30 511 C 49.7403 0.235759 2.27984 0
M  V30 512 C 50.7403 -0.581412 1.49921 0
M  V30 513 O 51.9303 -0.398758 1.69575 0
M  V30 514 C 49.0623 -0.670433 3.34242 0
M  V30 515 H 50.2553 1.05659 2.80671 0
M  V30 516 H 47.8083 0.585614 1.44915 0
M  V30 517 H 48.5433 -1.51466 2.86755 0
M  V30 518 H 48.3283 -0.0860822 3.92005 0
M  V30 519 H 49.8183 -1.06935 4.03676 0
M  V30 520 N 50.2554 -1.46986 0.568584 0
M  V30 521 C 51.4834 -2.0683 0.0539956 0
M  V30 522 C 51.8984 -1.41953 -1.24478 0
M  V30 523 O 51.2554 -0.519933 -1.74937 0
M  V30 524 C 51.3064 -3.61254 -0.133362 0
M  V30 525 O 51.0274 -4.237 1.11399 0
M  V30 526 C 52.5284 -4.37992 -0.683927 0
M  V30 527 H 49.7484 -0.669058 0.0510141 0
M  V30 528 H 52.2924 -1.88824 0.785234 0
M  V30 529 H 50.4474 -3.78735 -0.81477 0
M  V30 530 H 50.8614 -5.16388 0.91888 0
M  V30 531 H 52.3354 -5.46684 -0.764263 0
M  V30 532 H 52.8124 -4.05058 -1.69778 0
M  V30 533 H 53.4184 -4.25283 -0.0378494 0
M  V30 534 N 51.7335 -0.305618 -1.54608 0
M  V30 535 C 52.9805 0.302298 -2.00231 0
M  V30 536 C 53.3085 1.5354 -1.19398 0
M  V30 537 O 52.5635 1.93973 -0.259423 0
M  V30 538 C 52.8625 0.698983 -3.50498 0
M  V30 539 C 52.5285 -0.432903 -4.48817 0
M  V30 540 C 51.1905 -0.743622 -4.75419 0
M  V30 541 C 53.5425 -1.19409 -5.07337 0
M  V30 542 C 50.8705 -1.81857 -5.57804 0
M  V30 543 C 53.2225 -2.25899 -5.90891 0
M  V30 544 C 51.8865 -2.57572 -6.15803 0
M  V30 545 H 51.1565 0.110619 -0.732697 0
M  V30 546 H 53.8035 -0.425674 -1.86709 0
M  V30 547 H 52.1085 1.50711 -3.61654 0
M  V30 548 H 53.8055 1.1806 -3.83227 0
M  V30 549 H 50.3955 -0.18063 -4.28219 0
M  V30 550 H 54.5795 -0.967295 -4.86782 0
M  V30 551 H 49.8355 -2.06864 -5.75341 0
M  V30 552 H 54.0095 -2.85335 -6.35261 0
M  V30 553 H 51.6365 -3.40998 -6.7943 0
M  V30 554 N 53.2116 1.57565 -0.0334293 0
M  V30 555 C 54.1216 2.13943 0.962572 0
M  V30 556 C 55.1376 1.09276 1.35406 0
M  V30 557 O 56.3136 1.41355 1.4346 0
M  V30 558 C 53.3786 2.65887 2.22497 0
M  V30 559 C 52.4396 3.85286 1.8935 0
M  V30 560 C 51.6726 4.34743 3.09571 0
M  V30 561 O 51.8956 3.83352 4.22371 0
M  V30 562 O 50.8296 5.26538 2.91618 0
M  V30 563 H 54.6556 2.99333 0.513169 0
M  V30 564 H 52.2406 1.4822 0.18743 0
M  V30 565 H 54.1226 2.99346 2.96598 0
M  V30 566 H 52.7976 1.83578 2.6661 0
M  V30 567 H 51.7046 3.56746 1.1262 0
M  V30 568 H 53.0376 4.68771 1.5005 0
M  V30 569 N 54.6897 -0.239769 1.55765 0
M  V30 570 C 55.9387 -0.964754 1.77131 0
M  V30 571 C 56.2517 -1.86213 0.59868 0
M  V30 572 O 57.4577 -2.6244 0.695522 0
M  V30 573 C 55.9137 -1.76552 3.1362 0
M  V30 574 C 55.5217 -0.915185 4.38553 0
M  V30 575 C 57.2657 -2.48281 3.44321 0
M  V30 576 C 55.1727 -1.71225 5.66071 0
M  V30 577 H 54.1027 -0.363953 0.660344 0
M  V30 578 H 56.7537 -0.219181 1.82186 0
M  V30 579 H 55.1357 -2.55331 3.02691 0
M  V30 580 H 56.3097 -0.169217 4.60489 0
M  V30 581 H 54.6247 -0.310889 4.15238 0
M  V30 582 H 57.2217 -3.08382 4.36812 0
M  V30 583 H 57.5647 -3.20256 2.65973 0
M  V30 584 H 58.0977 -1.76507 3.56497 0
M  V30 585 H 54.8367 -1.03612 6.4726 0
M  V30 586 H 54.3567 -2.43331 5.48224 0
M  V30 587 H 56.0357 -2.27758 6.05587 0
M  V30 588 N 56.1678 -1.49265 -0.50573 0
M  V30 589 C 57.1148 -1.65585 -1.6078 0
M  V30 590 C 58.0848 -0.497396 -1.58478 0
M  V30 591 O 59.2698 -0.72385 -1.76536 0
M  V30 592 C 56.4098 -1.72408 -2.98948 0
M  V30 593 C 55.5228 -2.99525 -3.11301 0
M  V30 594 C 54.6578 -2.97356 -4.40174 0
M  V30 595 C 53.6968 -4.19074 -4.46143 0
M  V30 596 N 52.8338 -4.14841 -5.66437 0
M  V30 597 H 57.6738 -2.59688 -1.46172 0
M  V30 598 H 55.2108 -1.28761 -0.711261 0
M  V30 599 H 57.1688 -1.74344 -3.79025 0
M  V30 600 H 55.7988 -0.817753 -3.1227 0
M  V30 601 H 54.8508 -3.07222 -2.24318 0
M  V30 602 H 56.1628 -3.89518 -3.11572 0
M  V30 603 H 55.3168 -2.97829 -5.28567 0
M  V30 604 H 54.0558 -2.05133 -4.42461 0
M  V30 605 H 53.0608 -4.1885 -3.56153 0
M  V30 606 H 54.2858 -5.12483 -4.45575 0
M  V30 607 H 52.2318 -3.25453 -5.69575 0
M  V30 608 H 52.1488 -4.98564 -5.68304 0
M  V30 609 H 53.4168 -4.1941 -6.57051 0
M  V30 610 N 57.6459 0.756429 -1.3826 0
M  V30 611 C 58.5929 1.87011 -1.35261 0
M  V30 612 C 59.5629 1.64695 -0.215616 0
M  V30 613 O 60.7479 1.864 -0.407399 0
M  V30 614 C 57.8879 3.24275 -1.18068 0
M  V30 615 C 57.0009 3.58442 -2.41129 0
M  V30 616 C 56.1359 4.84994 -2.16689 0
M  V30 617 C 55.1749 5.11939 -3.35537 0
M  V30 618 N 54.3119 6.29685 -3.10549 0
M  V30 619 H 59.1519 1.8891 -2.30472 0
M  V30 620 H 56.6889 0.923373 -1.14509 0
M  V30 621 H 58.6469 4.03479 -1.06116 0
M  V30 622 H 57.2769 3.21711 -0.264973 0
M  V30 623 H 56.3289 2.74103 -2.63764 0
M  V30 624 H 57.6409 3.74283 -3.29717 0
M  V30 625 H 56.7949 5.72135 -2.01857 0
M  V30 626 H 55.5339 4.71286 -1.25462 0
M  V30 627 H 54.5389 4.23268 -3.50891 0
M  V30 628 H 55.7639 5.27546 -4.27635 0
M  V30 629 H 53.7099 6.17306 -2.21967 0
M  V30 630 H 53.6269 6.46014 -3.92686 0
M  V30 631 H 54.8949 7.19722 -2.99367 0
M  V30 632 N 59.124 1.23083 0.984299 0
M  V30 633 C 60.364 1.07226 1.74017 0
M  V30 634 C 60.728 -0.384766 1.88105 0
M  V30 635 O 61.929 -0.664411 2.60459 0
M  V30 636 C 60.2 1.77348 3.10294 0
M  V30 637 S 61.759 1.77014 4.01512 0
M  V30 638 H 58.577 0.383819 0.598502 0
M  V30 639 H 61.179 1.56158 1.17622 0
M  V30 640 H 59.883 2.82506 2.97689 0
M  V30 641 H 59.414 1.28682 3.71759 0
M  V30 642 H 61.429 0.825956 4.89277 0
M  V30 643 N 60.6021 -1.18246 1.0419 0
M  V30 644 C 61.8791 -1.84121 0.660208 0
M  V30 645 C 62.2591 -1.92778 -0.860221 0
M  V30 646 O 61.6071 -1.45464 -1.76217 0
M  V30 647 C 61.8171 -3.22355 1.33747 0
M  V30 648 C 63.1651 -3.98376 1.46906 0
M  V30 649 O 64.1891 -3.31799 1.29568 0
M  V30 650 O 63.0481 -5.17665 1.75171 0
M  V30 651 H 60.1421 -0.794036 0.231161 0
M  V30 652 H 62.6881 -1.25628 1.14087 0
M  V30 653 H 61.4601 -3.10964 2.37522 0
M  V30 654 H 61.0831 -3.88506 0.845515 0
M  V30 655 N 62.0802 -0.821533 -1.34494 0
M  V30 656 C 63.0102 -0.257138 -2.3208 0
M  V30 657 C 63.9912 0.625645 -1.58176 0
M  V30 658 O 65.1762 0.552811 -1.86166 0
M  V30 659 C 62.3062 0.582958 -3.42372 0
M  V30 660 C 61.2602 -0.202571 -4.2752 0
M  V30 661 C 60.5862 0.760179 -5.29269 0
M  V30 662 C 61.8862 -1.40998 -5.02908 0
M  V30 663 H 63.5802 -1.07247 -2.79532 0
M  V30 664 H 61.1262 -0.517163 -1.34393 0
M  V30 665 H 63.0792 0.987972 -4.09655 0
M  V30 666 H 61.8032 1.43133 -2.93565 0
M  V30 667 H 60.4622 -0.588936 -3.61838 0
M  V30 668 H 60.1102 1.60447 -4.76724 0
M  V30 669 H 59.8102 0.238809 -5.87115 0
M  V30 670 H 61.3342 1.16308 -5.9942 0
M  V30 671 H 62.7482 -1.07905 -5.63054 0
M  V30 672 H 61.1452 -1.86689 -5.70322 0
M  V30 673 H 62.2152 -2.1889 -4.32684 0
M  V30 674 N 63.5583 1.46682 -0.576371 0
M  V30 675 C 64.5083 2.27278 0.181288 0
M  V30 676 C 65.4923 1.35497 0.867721 0
M  V30 677 O 66.6843 1.59717 0.762863 0
M  V30 678 C 63.8133 3.21703 1.19841 0
M  V30 679 C 62.8993 4.20969 0.51442 0
M  V30 680 N 63.2903 5.03999 -0.426407 0
M  V30 681 C 61.5883 4.39373 0.765963 0
M  V30 682 C 62.2893 5.75812 -0.825565 0
M  V30 683 N 61.2653 5.43315 -0.176116 0
M  V30 684 H 65.0673 2.88863 -0.541785 0
M  V30 685 H 62.5813 1.57455 -0.397697 0
M  V30 686 H 64.5783 3.78145 1.75533 0
M  V30 687 H 63.2383 2.61677 1.92238 0
M  V30 688 H 64.2493 5.11659 -0.8016 0
M  V30 689 H 60.9263 3.90502 1.47698 0
M  V30 690 H 62.3163 6.52577 -1.59976 0
M  V30 691 N 65.0364 0.313813 1.54444 0
M  V30 692 C 66.4524 -0.0391619 1.59552 0
M  V30 693 C 66.6524 -1.51322 1.33056 0
M  V30 694 O 65.7084 -2.26782 1.11022 0
M  V30 695 C 67.0214 0.370302 2.98411 0
M  V30 696 C 68.5694 0.320139 3.11358 0
M  V30 697 C 69.0444 0.704617 4.52547 0
M  V30 698 N 70.5354 0.657645 4.58508 0
M  V30 699 C 71.2704 0.927453 5.6585 0
M  V30 700 N 70.7664 1.26389 6.81174 0
M  V30 701 N 72.5594 0.853662 5.5558 0
M  V30 702 H 64.7104 1.27433 1.69925 0
M  V30 703 H 66.9734 0.517511 0.794284 0
M  V30 704 H 66.6794 1.39694 3.22767 0
M  V30 705 H 66.5534 -0.269619 3.76235 0
M  V30 706 H 68.9404 -0.697275 2.86744 0
M  V30 707 H 69.0214 0.99486 2.35661 0
M  V30 708 H 68.6654 1.7199 4.77893 0
M  V30 709 H 68.5954 0.00768843 5.26599 0
M  V30 710 H 71.0864 0.409067 3.75679 0
M  V30 711 H 71.3994 1.4554 7.58972 0
M  V30 712 H 69.7444 1.30206 6.82694 0
M  V30 713 H 72.9354 0.590383 4.64362 0
M  V30 714 H 73.1084 1.0673 6.3915 0
M  V30 715 N 66.5145 -1.57545 0.0417849 0
M  V30 716 C 67.4445 -2.14009 -0.933929 0
M  V30 717 C 68.4255 -1.05938 -1.33083 0
M  V30 718 O 69.6105 -1.33833 -1.40721 0
M  V30 719 C 66.7405 -2.67747 -2.21199 0
M  V30 720 C 65.6945 -3.80718 -1.95544 0
M  V30 721 C 65.0205 -4.20935 -3.29724 0
M  V30 722 C 66.3205 -5.06258 -1.28452 0
M  V30 723 H 68.0145 -2.95788 -0.463645 0
M  V30 724 H 65.5605 -1.42285 -0.221573 0
M  V30 725 H 67.5135 -3.05886 -2.89848 0
M  V30 726 H 66.2375 -1.83147 -2.70416 0
M  V30 727 H 64.8965 -3.43037 -1.2931 0
M  V30 728 H 64.5445 -3.33298 -3.76724 0
M  V30 729 H 64.2445 -4.9707 -3.13361 0
M  V30 730 H 65.7685 -4.61666 -3.9962 0
M  V30 731 H 67.1825 -5.41903 -1.8712 0
M  V30 732 H 65.5795 -5.87475 -1.22445 0
M  V30 733 H 66.6495 -4.84207 -0.259219 0
M  V30 734 N 67.9926 0.231505 -1.5589 0
M  V30 735 C 68.9026 1.308 -1.94752 0
M  V30 736 C 69.9186 1.51826 -0.849989 0
M  V30 737 O 71.0946 1.6515 -1.15271 0
M  V30 738 C 68.1596 2.63968 -2.24771 0
M  V30 739 C 67.2206 2.51331 -3.48039 0
M  V30 740 C 66.4536 3.78148 -3.76616 0
M  V30 741 O 66.6766 4.80722 -3.07022 0
M  V30 742 O 65.6106 3.75857 -4.70123 0
M  V30 743 H 69.4366 1.0083 -2.86474 0
M  V30 744 H 67.0216 0.433547 -1.42971 0
M  V30 745 H 68.9036 3.42633 -2.45318 0
M  V30 746 H 67.5786 2.9364 -1.36225 0
M  V30 747 H 66.4856 1.709 -3.32782 0
M  V30 748 H 67.8186 2.26601 -4.36936 0
M  V30 749 N 69.4707 1.49531 0.497807 0
M  V30 750 C 70.3807 1.69176 1.62532 0
M  V30 751 C 71.3967 0.5744 1.64246 0
M  V30 752 O 72.5727 0.849497 1.82608 0
M  V30 753 C 69.6377 1.75695 2.98885 0
M  V30 754 C 68.6987 2.9929 3.07773 0
M  V30 755 C 67.9317 3.05488 4.37622 0
M  V30 756 O 68.1547 2.19192 5.26603 0
M  V30 757 O 67.0887 3.9798 4.51548 0
M  V30 758 H 70.9147 2.647 1.48887 0
M  V30 759 H 68.4997 1.3331 0.674441 0
M  V30 760 H 70.3817 1.82317 3.79919 0
M  V30 761 H 69.0567 0.8335 3.12785 0
M  V30 762 H 67.9637 2.98183 2.25915 0
M  V30 763 H 69.2967 3.91125 2.98801 0
M  V30 764 N 70.9488 -0.749086 1.3866 0
M  V30 765 C 72.1968 -1.50535 1.34847 0
M  V30 766 C 72.5178 -1.94909 -0.0595016 0
M  V30 767 O 71.7878 -1.67973 -1.00806 0
M  V30 768 H 70.3678 -0.558395 0.49619 0
M  V30 769 H 73.0298 -0.890165 1.73384 0
M  V30 770 H 72.1258 -2.39413 2.00219 0
M  V30 771 N 72.4269 -1.23603 -0.977757 0
M  V30 772 C 73.8379 -1.06424 -1.53398 0
M  V30 773 C 74.1889 0.367578 -1.92726 0
M  V30 774 O 73.3139 1.25465 -1.76316 0
M  V30 775 C 73.9089 -1.92568 -2.78753 0
M  V30 776 C 72.4679 -1.79642 -3.30765 0
M  V30 777 C 71.6149 -1.88111 -2.03739 0
M  V30 778 H 74.5659 -1.37227 -0.797152 0
M  V30 779 H 74.5869 -1.45203 -3.51705 0
M  V30 780 H 74.0989 -2.96771 -2.50098 0
M  V30 781 H 72.1999 -0.782325 -3.64294 0
M  V30 782 H 72.3129 -2.63174 -4.00345 0
M  V30 783 H 70.6769 -1.31723 -2.17994 0
M  V30 784 H 71.4599 -2.93875 -1.77461 0
M  V30 785 N 73.905 1.17692 -1.04816 0
M  V30 786 C 75.316 1.69501 -0.782698 0
M  V30 787 C 75.667 1.83456 0.695577 0
M  V30 788 O 74.792 1.51942 1.54086 0
M  V30 789 C 75.387 3.07874 -1.41419 0
M  V30 790 C 73.946 3.56864 -1.19686 0
M  V30 791 C 73.093 2.3322 -1.50012 0
M  V30 792 H 76.044 1.02262 -1.2136 0
M  V30 793 H 76.065 3.71528 -0.821428 0
M  V30 794 H 75.577 2.97685 -2.49009 0
M  V30 795 H 73.678 3.72337 -0.140043 0
M  V30 796 H 73.791 4.39851 -1.89916 0
M  V30 797 H 72.155 2.37501 -0.920071 0
M  V30 798 H 72.938 2.25644 -2.58727 0
M  V30 799 N 75.3831 0.828654 1.34056 0
M  V30 800 C 76.6291 0.42008 1.98402 0
M  V30 801 C 76.9621 -1.01564 1.65525 0
M  V30 802 O 76.2371 -1.70834 0.929831 0
M  V30 803 C 76.5201 0.62927 3.54559 0
M  V30 804 C 76.3731 2.11152 3.97159 0
M  V30 805 C 77.6921 0.0688756 4.40046 0
M  V30 806 H 74.8111 0.154104 0.720709 0
M  V30 807 H 77.4531 1.04228 1.5886 0
M  V30 808 H 75.6031 0.0996418 3.88372 0
M  V30 809 H 77.2751 2.70522 3.73651 0
M  V30 810 H 75.5181 2.59985 3.47261 0
M  V30 811 H 76.1891 2.20868 5.05887 0
M  V30 812 H 78.6651 0.521458 4.1282 0
M  V30 813 H 77.5411 0.245006 5.48353 0
M  V30 814 H 77.8021 -1.0266 4.30015 0
M  V30 815 N 76.8612 -1.46375 0.584142 0
M  V30 816 C 78.0892 -2.06761 0.0759296 0
M  V30 817 C 78.5042 -1.43266 -1.22965 0
M  V30 818 O 77.8612 -0.538458 -1.74376 0
M  V30 819 C 77.9122 -3.61375 -0.0950384 0
M  V30 820 O 77.6332 -4.22495 1.15887 0
M  V30 821 C 79.1342 -4.38693 -0.637434 0
M  V30 822 H 76.3542 -0.668479 0.0581075 0
M  V30 823 H 78.8982 -1.8798 0.805218 0
M  V30 824 H 77.0532 -3.79578 -0.774554 0
M  V30 825 H 77.4672 -5.15385 0.973598 0
M  V30 826 H 78.9412 -5.47464 -0.706237 0
M  V30 827 H 79.4182 -4.06836 -1.65472 0
M  V30 828 H 80.0242 -4.25299 0.00725967 0
M  V30 829 N 78.3393 -0.321999 -1.54275 0
M  V30 830 C 79.5673 0.283052 -2.04955 0
M  V30 831 C 79.9823 1.45904 -1.19823 0
M  V30 832 O 79.3393 1.81063 -0.228545 0
M  V30 833 C 79.3903 0.719028 -3.54277 0
M  V30 834 O 79.1113 -0.410175 -4.36176 0
M  V30 835 C 80.6123 1.38705 -4.21041 0
M  V30 836 H 77.8323 0.0584616 -0.668448 0
M  V30 837 H 80.3763 -0.467734 -1.99079 0
M  V30 838 H 78.5313 1.41979 -3.60445 0
M  V30 839 H 78.9453 -0.0669416 -5.24457 0
M  V30 840 H 80.4193 1.64306 -5.2698 0
M  V30 841 H 80.8963 2.33385 -3.72059 0
M  V30 842 H 81.5023 0.728906 -4.19007 0
M  V30 843 N 79.8174 1.5752 -0.0501392 0
M  V30 844 C 81.0634 1.92936 0.624798 0
M  V30 845 C 81.3964 0.928685 1.70555 0
M  V30 846 O 80.6714 -0.0454779 1.94447 0
M  V30 847 C 80.9544 3.38737 1.22185 0
M  V30 848 C 80.8074 4.49552 0.149218 0
M  V30 849 C 82.1264 3.84913 2.13378 0
M  V30 850 H 79.2454 0.701604 0.225657 0
M  V30 851 H 81.8874 1.89671 -0.111693 0
M  V30 852 H 80.0374 3.4165 1.84953 0
M  V30 853 H 81.7094 4.58768 -0.482648 0
M  V30 854 H 79.9524 4.30638 -0.522841 0
M  V30 855 H 80.6234 5.48653 0.606966 0
M  V30 856 H 83.0994 3.8387 1.60572 0
M  V30 857 H 81.9754 4.87584 2.52097 0
M  V30 858 H 82.2364 3.21611 3.03346 0
M  V30 859 N 81.2955 -0.223234 1.56011 0
M  V30 860 C 82.2255 -1.27988 1.95298 0
M  V30 861 C 83.2065 -1.48976 0.820979 0
M  V30 862 O 84.3915 -1.61188 1.08315 0
M  V30 863 C 81.5215 -2.63 2.26822 0
M  V30 864 C 80.4755 -2.56671 3.42497 0
M  V30 865 C 79.8015 -3.95697 3.59622 0
M  V30 866 C 81.1015 -2.11601 4.77517 0
M  V30 867 H 82.7955 -0.953525 2.8381 0
M  V30 868 H 80.3415 -0.457244 1.36548 0
M  V30 869 H 82.2945 -3.37077 2.52898 0
M  V30 870 H 81.0185 -2.9732 1.35161 0
M  V30 871 H 79.6775 -1.85051 3.16467 0
M  V30 872 H 79.3255 -4.27322 2.6534 0
M  V30 873 H 79.0255 -3.92345 4.37424 0
M  V30 874 H 80.5495 -4.71438 3.88044 0
M  V30 875 H 81.9635 -2.7542 5.02809 0
M  V30 876 H 80.3605 -2.19311 5.5859 0
M  V30 877 H 81.4305 -1.06824 4.72987 0
M  V30 878 N 82.7736 -1.49793 -0.48987 0
M  V30 879 C 84.0016 -1.63568 -1.26701 0
M  V30 880 C 84.4166 -0.311465 -1.86213 0
M  V30 881 O 83.7736 0.704416 -1.68357 0
M  V30 882 C 83.8246 -2.71284 -2.38929 0
M  V30 883 O 83.5456 -3.9857 -1.81861 0
M  V30 884 C 85.0466 -2.95864 -3.3012 0
M  V30 885 H 82.2666 -0.550342 -0.383881 0
M  V30 886 H 84.8106 -1.95898 -0.586864 0
M  V30 887 H 82.9656 -2.417 -3.02753 0
M  V30 888 H 83.3796 -4.57993 -2.55622 0
M  V30 889 H 84.8536 -3.74941 -4.05121 0
M  V30 890 H 85.3306 -2.06206 -3.87783 0
M  V30 891 H 85.9366 -3.26907 -2.72051 0
M  V30 892 N 84.2517 0.741722 -1.39055 0
M  V30 893 C 85.6677 1.04638 -1.20512 0
M  V30 894 C 85.8677 2.01405 -0.0620218 0
M  V30 895 O 84.9237 2.45547 0.588457 0
M  V30 896 C 86.2367 1.6151 -2.53643 0
M  V30 897 C 87.7847 1.73623 -2.6043 0
M  V30 898 C 88.2597 2.33906 -3.93767 0
M  V30 899 N 89.7507 2.41323 -3.9537 0
M  V30 900 C 90.4857 2.88888 -4.95309 0
M  V30 901 N 89.9817 3.36401 -6.05645 0
M  V30 902 N 91.7747 2.88037 -4.82692 0
M  V30 903 H 83.9257 0.0998155 -2.12165 0
M  V30 904 H 86.1887 0.106907 -0.941953 0
M  V30 905 H 85.8947 0.978739 -3.37807 0
M  V30 906 H 85.7687 2.60411 -2.72885 0
M  V30 907 H 88.1557 2.36384 -1.76655 0
M  V30 908 H 88.2367 0.733945 -2.45045 0
M  V30 909 H 87.8807 1.71776 -4.7797 0
M  V30 910 H 87.8107 3.34799 -4.06469 0
M  V30 911 H 90.3017 2.07734 -3.15682 0
M  V30 912 H 90.6147 3.71186 -6.77821 0
M  V30 913 H 88.9597 3.34427 -6.09248 0
M  V30 914 H 92.1507 2.50237 -3.95599 0
M  V30 915 H 92.3237 3.24792 -5.60726 0
M  V30 916 N 85.7298 1.2412 0.971189 0
M  V30 917 C 86.6398 1.04747 2.09917 0
M  V30 918 C 87.6558 -0.0107162 1.73997 0
M  V30 919 O 88.8318 0.186714 2.00533 0
M  V30 920 C 85.8968 0.650828 3.40537 0
M  V30 921 C 84.9578 1.7851 3.90426 0
M  V30 922 C 84.1908 1.40729 5.14812 0
M  V30 923 O 84.4138 0.29557 5.69634 0
M  V30 924 O 83.3478 2.23168 5.58999 0
M  V30 925 H 87.1738 1.99304 2.29154 0
M  V30 926 H 84.7588 1.02908 1.08307 0
M  V30 927 H 86.6408 0.440992 4.19086 0
M  V30 928 H 85.3158 -0.265649 3.22608 0
M  V30 929 H 84.2228 2.04966 3.12953 0
M  V30 930 H 85.5558 2.68023 4.12825 0
M  V30 931 N 87.2079 -1.17134 1.05439 0
M  V30 932 C 88.4849 -1.83411 0.679699 0
M  V30 933 C 88.8649 -1.9368 -0.839726 0
M  V30 934 O 88.2129 -1.47325 -1.74664 0
M  V30 935 C 88.4229 -3.20918 1.37159 0
M  V30 936 C 89.7709 -3.96796 1.51123 0
M  V30 937 O 90.7949 -3.30406 1.3308 0
M  V30 938 O 89.6539 -5.15778 1.80651 0
M  V30 939 H 86.7479 -0.79154 0.239569 0
M  V30 940 H 89.2939 -1.24411 1.15413 0
M  V30 941 H 88.0659 -3.08428 2.40807 0
M  V30 942 H 87.6889 -3.87587 0.886674 0
M  V30 943 N 88.686 -0.835752 -1.33615 0
M  V30 944 C 89.934 -0.429109 -1.97492 0
M  V30 945 C 90.255 1.01433 -1.66543 0
M  V30 946 O 89.525 1.70611 -0.962744 0
M  V30 947 H 88.105 -0.155686 -0.730596 0
M  V30 948 H 90.767 -1.06802 -1.63031 0
M  V30 949 H 89.863 -0.55861 -3.0706 0
M  V30 950 N 90.1641 1.46063 -0.591896 0
M  V30 951 C 91.0941 2.33172 0.123673 0
M  V30 952 C 92.0751 1.45897 0.87453 0
M  V30 953 O 93.2601 1.74698 0.848181 0
M  V30 954 C 90.3901 3.28336 1.13194 0
M  V30 955 C 89.3441 4.25124 0.495324 0
M  V30 956 C 88.6701 5.09863 1.61071 0
M  V30 957 C 89.9701 5.19143 -0.573425 0
M  V30 958 H 91.6641 2.93252 -0.603646 0
M  V30 959 H 89.2101 1.41014 -0.291741 0
M  V30 960 H 91.1631 3.88137 1.64097 0
M  V30 961 H 89.8871 2.66383 1.88965 0
M  V30 962 H 88.5461 3.66599 0.00729452 0
M  V30 963 H 88.1941 4.44288 2.35832 0
M  V30 964 H 87.8941 5.75417 1.19035 0
M  V30 965 H 89.4181 5.72529 2.12233 0
M  V30 966 H 90.8321 5.73106 -0.1491 0
M  V30 967 H 89.2291 5.93089 -0.914636 0
M  V30 968 H 90.2991 4.62519 -1.45617 0
M  V30 969 N 91.6422 0.330177 1.54103 0
M  V30 970 C 92.5892 -0.532762 2.24567 0
M  V30 971 C 93.5592 -1.10635 1.23892 0
M  V30 972 O 94.7442 -1.14546 1.5259 0
M  V30 973 C 91.8842 -1.6845 3.01195 0
M  V30 974 C 90.9972 -1.13951 4.167 0
M  V30 975 C 90.1322 -2.25746 4.80845 0
M  V30 976 C 89.1712 -1.6853 5.88442 0
M  V30 977 N 88.3082 -2.74014 6.46421 0
M  V30 978 H 93.1482 0.0746905 2.97906 0
M  V30 979 H 90.6852 0.048632 1.4702 0
M  V30 980 H 92.6432 -2.36234 3.43874 0
M  V30 981 H 91.2732 -2.26314 2.30178 0
M  V30 982 H 90.3252 -0.35301 3.78758 0
M  V30 983 H 91.6372 -0.680892 4.94131 0
M  V30 984 H 90.7912 -3.01422 5.26526 0
M  V30 985 H 89.5302 -2.74947 4.0281 0
M  V30 986 H 88.5352 -0.913543 5.42157 0
M  V30 987 H 89.7602 -1.20198 6.68378 0
M  V30 988 H 87.7062 -3.22494 5.71256 0
M  V30 989 H 87.6232 -2.32735 7.19285 0
M  V30 990 H 88.8912 -3.49499 6.96757 0
M  V30 991 N 93.1203 -1.57491 0.0584922 0
M  V30 992 C 94.3503 -1.9701 -0.622134 0
M  V30 993 C 94.7583 -0.935034 -1.6448 0
M  V30 994 O 94.1013 0.0882904 -1.83488 0
M  V30 995 C 94.1633 -3.32794 -1.35972 0
M  V30 996 C 93.8273 -4.54343 -0.492043 0
M  V30 997 C 94.8243 -5.19323 0.244901 0
M  V30 998 C 92.5093 -5.00534 -0.420821 0
M  V30 999 C 94.5033 -6.28835 1.04143 0
M  V30 1000 C 92.1903 -6.09921 0.379389 0
M  V30 1001 C 93.1883 -6.73933 1.10919 0
M  V30 1002 O 92.8763 -7.81216 1.89623 0
M  V30 1003 H 92.6083 -0.653127 -0.174359 0
M  V30 1004 H 95.1623 -2.05029 0.123418 0
M  V30 1005 H 93.3923 -3.21351 -2.15105 0
M  V30 1006 H 95.0813 -3.5701 -1.93129 0
M  V30 1007 H 95.8473 -4.8459 0.19939 0
M  V30 1008 H 91.7263 -4.50496 -0.978474 0
M  V30 1009 H 95.2703 -6.7873 1.61157 0
M  V30 1010 H 91.1673 -6.44089 0.426512 0
M  V30 1011 H 91.9353 -7.98029 1.81913 0
M  V30 1012 N 94.5984 0.214957 -1.56127 0
M  V30 1013 C 95.8284 0.953707 -1.8327 0
M  V30 1014 C 96.2364 1.78181 -0.636262 0
M  V30 1015 O 95.5794 1.79191 0.404516 0
M  V30 1016 C 95.6414 1.91516 -3.0424 0
M  V30 1017 C 95.3054 1.27094 -4.38972 0
M  V30 1018 C 96.3024 0.657575 -5.15725 0
M  V30 1019 C 93.9874 1.28073 -4.85698 0
M  V30 1020 C 95.9814 0.0625968 -6.37369 0
M  V30 1021 C 93.6684 0.681914 -6.07283 0
M  V30 1022 C 94.6664 0.0739046 -6.8296 0
M  V30 1023 O 94.3544 -0.515582 -8.02245 0
M  V30 1024 H 94.0864 0.284764 -0.613095 0
M  V30 1025 H 96.6404 0.233283 -2.04071 0
M  V30 1026 H 94.8704 2.67475 -2.79274 0
M  V30 1027 H 96.5594 2.52001 -3.18198 0
M  V30 1028 H 97.3254 0.642288 -4.80728 0
M  V30 1029 H 93.2044 1.74337 -4.26764 0
M  V30 1030 H 96.7484 -0.412593 -6.96379 0
M  V30 1031 H 92.6454 0.694636 -6.41752 0
M  V30 1032 H 93.4134 -0.410544 -8.1747 0
M  V30 1033 N 96.0765 1.50051 0.48192 0
M  V30 1034 C 97.4925 1.37237 0.814756 0
M  V30 1035 C 97.6925 0.420109 1.97072 0
M  V30 1036 O 96.7485 -0.141246 2.52105 0
M  V30 1037 C 98.0615 2.78375 1.13701 0
M  V30 1038 C 99.6095 2.87213 1.2441 0
M  V30 1039 C 100.084 4.29161 1.59954 0
M  V30 1040 N 101.575 4.32061 1.66967 0
M  V30 1041 C 102.31 5.38879 1.95952 0
M  V30 1042 N 101.806 6.55918 2.23031 0
M  V30 1043 N 103.599 5.26312 1.97363 0
M  V30 1044 H 95.7505 2.10546 -0.28005 0
M  V30 1045 H 98.0135 0.945921 -0.0627454 0
M  V30 1046 H 97.7195 3.49845 0.360787 0
M  V30 1047 H 97.5935 3.14941 2.07586 0
M  V30 1048 H 99.9805 2.15969 2.01101 0
M  V30 1049 H 100.061 2.54204 0.285299 0
M  V30 1050 H 99.7055 5.00938 0.838067 0
M  V30 1051 H 99.6355 4.59648 2.56966 0
M  V30 1052 H 102.126 3.47661 1.48123 0
M  V30 1053 H 102.439 7.33139 2.44391 0
M  V30 1054 H 100.784 6.59112 2.20447 0
M  V30 1055 H 103.975 4.33876 1.75697 0
M  V30 1056 H 104.148 6.09649 2.19618 0
M  V30 1057 N 97.5546 -0.734337 1.39446 0
M  V30 1058 C 98.4876 -1.85715 1.32609 0
M  V30 1059 C 99.4656 -1.6137 0.199636 0
M  V30 1060 O 100.65 -1.84626 0.380195 0
M  V30 1061 C 97.7766 -3.21709 1.05929 0
M  V30 1062 C 96.8226 -3.64913 2.20773 0
M  V30 1063 S 97.6556 -3.74203 3.83056 0
M  V30 1064 C 98.8116 -5.12986 3.58603 0
M  V30 1065 H 99.0446 -1.91232 2.27635 0
M  V30 1066 H 96.5776 -0.899263 1.25509 0
M  V30 1067 H 98.5356 -4.00236 0.912203 0
M  V30 1068 H 97.1966 -3.13848 0.125883 0
M  V30 1069 H 96.3896 -4.63606 1.97699 0
M  V30 1070 H 95.9916 -2.93593 2.31688 0
M  V30 1071 H 98.2836 -5.99339 3.15909 0
M  V30 1072 H 99.2266 -5.41088 4.5676 0
M  V30 1073 H 99.6346 -4.82694 2.9269 0
M  V30 1074 N 99.0327 -1.24633 -0.964593 0
M  V30 1075 C 99.9657 -0.984662 -2.05863 0
M  V30 1076 C 100.944 0.0826554 -1.6239 0
M  V30 1077 O 102.128 -0.0549296 -1.8842 0
M  V30 1078 C 99.2547 -0.486529 -3.35187 0
M  V30 1079 C 98.3007 -1.54286 -3.97615 0
M  V30 1080 S 99.1337 -3.12513 -4.34851 0
M  V30 1081 C 100.29 -2.6441 -5.67308 0
M  V30 1082 H 100.523 -1.91104 -2.27743 0
M  V30 1083 H 98.0557 -1.08052 -1.10291 0
M  V30 1084 H 100.014 -0.205757 -4.09984 0
M  V30 1085 H 98.6747 0.419186 -3.1129 0
M  V30 1086 H 97.8677 -1.14481 -4.90826 0
M  V30 1087 H 97.4697 -1.7738 -3.2926 0
M  V30 1088 H 99.7617 -2.07416 -6.44969 0
M  V30 1089 H 100.705 -3.56222 -6.11973 0
M  V30 1090 H 101.113 -2.04734 -5.26065 0
M  V30 1091 N 100.511 1.16574 -1.06058 0
M  V30 1092 C 101.443 2.2045 -0.627239 0
M  V30 1093 C 102.456 1.59752 0.313534 0
M  V30 1094 O 103.645 1.78192 0.104896 0
M  V30 1095 C 100.745 3.3875 0.100974 0
M  V30 1096 C 99.9178 4.29008 -0.852687 0
M  V30 1097 C 98.9768 5.25944 -0.164152 0
M  V30 1098 O 98.0028 5.63535 -0.801047 0
M  V30 1099 N 99.2048 5.70075 1.09518 0
M  V30 1100 H 101.97 2.58249 -1.52077 0
M  V30 1101 H 99.5308 1.3156 -0.943594 0
M  V30 1102 H 101.523 4.00638 0.57194 0
M  V30 1103 H 100.093 2.99476 0.89628 0
M  V30 1104 H 99.3128 3.64419 -1.50308 0
M  V30 1105 H 100.601 4.86195 -1.49972 0
M  V30 1106 H 99.9988 5.41624 1.6328 0
M  V30 1107 H 98.5558 6.34067 1.51006 0
M  V30 1108 N 101.989 0.842826 1.3317 0
M  V30 1109 C 103.217 0.454055 2.01856 0
M  V30 1110 C 103.632 -0.94587 1.63397 0
M  V30 1111 O 102.989 -1.61534 0.849302 0
M  V30 1112 C 103.04 0.569715 3.56982 0
M  V30 1113 O 102.761 1.91448 3.94055 0
M  V30 1114 C 104.262 0.178412 4.42941 0
M  V30 1115 H 101.482 0.17979 0.646465 0
M  V30 1116 H 104.026 1.1365 1.70012 0
M  V30 1117 H 102.181 -0.0648587 3.87346 0
M  V30 1118 H 102.595 1.90282 4.88767 0
M  V30 1119 H 104.069 0.310376 5.51127 0
M  V30 1120 H 104.546 -0.880056 4.30293 0
M  V30 1121 H 105.152 0.787579 4.17944 0
M  V30 1122 N 103.467 -1.45747 0.599634 0
M  V30 1123 C 104.713 -2.02592 0.0918643 0
M  V30 1124 C 105.046 -1.46806 -1.27128 0
M  V30 1125 O 104.321 -0.639658 -1.83681 0
M  V30 1126 C 104.604 -3.60073 0.0443398 0
M  V30 1127 C 104.457 -4.26208 1.43759 0
M  V30 1128 C 105.776 -4.35309 -0.647608 0
M  V30 1129 H 102.895 -0.736175 0.034857 0
M  V30 1130 H 105.537 -1.73694 0.770081 0
M  V30 1131 H 103.687 -3.84823 -0.533224 0
M  V30 1132 H 105.359 -4.12668 2.06162 0
M  V30 1133 H 103.602 -3.84916 2.00056 0
M  V30 1134 H 104.273 -5.35069 1.35665 0
M  V30 1135 H 106.749 -4.15805 -0.156776 0
M  V30 1136 H 105.625 -5.45038 -0.649942 0
M  V30 1137 H 105.886 -4.07598 -1.71219 0
M  V30 1138 N 104.945 -0.338344 -1.53925 0
M  V30 1139 C 106.361 0.0137736 -1.59594 0
M  V30 1140 C 106.561 1.49186 -1.35447 0
M  V30 1141 O 105.617 2.24987 -1.14616 0
M  V30 1142 C 106.93 -0.41773 -2.97784 0
M  V30 1143 C 108.478 -0.369633 -3.1081 0
M  V30 1144 C 108.953 -0.776524 -4.51369 0
M  V30 1145 N 110.444 -0.730506 -4.57403 0
M  V30 1146 C 111.179 -1.01736 -5.64303 0
M  V30 1147 N 110.675 -1.3721 -6.79077 0
M  V30 1148 N 112.468 -0.941942 -5.54151 0
M  V30 1149 H 104.619 -1.3012 -1.67876 0
M  V30 1150 H 106.882 -0.530082 -0.78595 0
M  V30 1151 H 106.588 -1.44811 -3.20504 0
M  V30 1152 H 106.462 0.209729 -3.76616 0
M  V30 1153 H 108.849 0.651568 -2.87817 0
M  V30 1154 H 108.93 -1.03223 -2.34049 0
M  V30 1155 H 108.574 -1.79571 -4.75096 0
M  V30 1156 H 108.504 -0.0914649 -5.26521 0
M  V30 1157 H 110.995 -0.468783 -3.74981 0
M  V30 1158 H 111.308 -1.57597 -7.5656 0
M  V30 1159 H 109.653 -1.4105 -6.80536 0
M  V30 1160 H 112.844 -0.664184 -4.63364 0
M  V30 1161 H 113.017 -1.16884 -6.37371 0
M  V30 1162 N 106.423 1.57458 -0.0668435 0
M  V30 1163 C 107.839 1.56947 0.289772 0
M  V30 1164 C 108.039 1.07584 1.70376 0
M  V30 1165 O 107.095 0.739486 2.41429 0
M  V30 1166 C 108.408 3.0052 0.103943 0
M  V30 1167 C 109.956 3.12517 0.173857 0
M  V30 1168 C 110.431 4.57997 0.0163682 0
M  V30 1169 N 111.922 4.63144 0.0721352 0
M  V30 1170 C 112.657 5.73394 -0.0253794 0
M  V30 1171 N 112.153 6.92576 -0.176133 0
M  V30 1172 N 113.946 5.62091 0.0313305 0
M  V30 1173 H 106.097 1.87863 -0.991027 0
M  V30 1174 H 108.36 0.86583 -0.38606 0
M  V30 1175 H 108.066 3.40729 -0.871572 0
M  V30 1176 H 107.94 3.67304 0.858366 0
M  V30 1177 H 110.327 2.72197 1.13985 0
M  V30 1178 H 110.408 2.48381 -0.611586 0
M  V30 1179 H 110.052 4.99005 -0.946374 0
M  V30 1180 H 109.982 5.20158 0.821153 0
M  V30 1181 H 112.473 3.77436 0.187263 0
M  V30 1182 H 112.786 7.72418 -0.242821 0
M  V30 1183 H 111.131 6.94678 -0.211429 0
M  V30 1184 H 114.322 4.67867 0.147773 0
M  V30 1185 H 114.495 6.47982 -0.048121 0
M  V30 1186 N 107.901 -0.206675 1.56239 0
M  V30 1187 C 108.834 -1.28383 1.88661 0
M  V30 1188 C 109.812 -1.44504 0.745481 0
M  V30 1189 O 110.996 -1.60079 0.995336 0
M  V30 1190 C 108.123 -2.65211 2.10667 0
M  V30 1191 C 107.169 -2.66025 3.33366 0
M  V30 1192 S 108.002 -2.18609 4.88846 0
M  V30 1193 C 109.158 -3.57283 5.13906 0
M  V30 1194 H 109.391 -1.00691 2.7973 0
M  V30 1195 H 106.924 -0.409627 1.48867 0
M  V30 1196 H 108.882 -3.43979 2.24029 0
M  V30 1197 H 107.543 -2.90121 1.20369 0
M  V30 1198 H 106.736 -3.66607 3.45855 0
M  V30 1199 H 106.338 -1.95331 3.18938 0
M  V30 1200 H 108.63 -4.53074 5.03717 0
M  V30 1201 H 109.573 -3.49699 6.15724 0
M  V30 1202 H 109.981 -3.51659 4.41583 0
M  V30 1203 N 109.379 -1.50304 -0.473955 0
M  V30 1204 C 110.289 -1.7174 -1.5982 0
M  V30 1205 C 111.305 -0.600457 -1.63311 0
M  V30 1206 O 112.481 -0.878441 -1.81233 0
M  V30 1207 C 109.546 -1.80427 -2.96052 0
M  V30 1208 C 108.607 -3.04148 -3.02972 0
M  V30 1209 C 107.84 -3.12411 -4.32706 0
M  V30 1210 O 108.063 -2.27542 -5.23049 0
M  V30 1211 O 106.997 -4.05113 -4.45159 0
M  V30 1212 H 110.823 -2.67035 -1.44657 0
M  V30 1213 H 108.408 -1.34366 -0.653148 0
M  V30 1214 H 110.29 -1.88338 -3.7697 0
M  V30 1215 H 108.965 -0.883156 -3.11419 0
M  V30 1216 H 107.872 -3.0174 -2.21142 0
M  V30 1217 H 109.205 -3.95829 -2.92541 0
M  V30 1218 N 110.857 0.726932 -1.39834 0
M  V30 1219 C 111.787 1.85405 -1.41941 0
M  V30 1220 C 112.768 1.67751 -0.281728 0
M  V30 1221 O 113.953 1.8795 -0.488717 0
M  V30 1222 C 111.083 3.23243 -1.2701 0
M  V30 1223 C 110.037 3.55549 -2.38262 0
M  V30 1224 C 109.363 4.9241 -2.08415 0
M  V30 1225 C 110.663 3.577 -3.80589 0
M  V30 1226 H 112.357 1.83899 -2.36266 0
M  V30 1227 H 109.903 0.883349 -1.13723 0
M  V30 1228 H 111.856 4.01775 -1.27103 0
M  V30 1229 H 110.58 3.25296 -0.291564 0
M  V30 1230 H 109.239 2.79351 -2.37399 0
M  V30 1231 H 108.887 4.91052 -1.0898 0
M  V30 1232 H 108.587 5.14992 -2.82943 0
M  V30 1233 H 110.111 5.73289 -2.10171 0
M  V30 1234 H 111.525 4.26293 -3.83337 0
M  V30 1235 H 109.922 3.91804 -4.54543 0
M  V30 1236 H 110.992 2.57328 -4.10987 0
M  V30 1237 N 112.336 1.25143 0.95797 0
M  V30 1238 C 113.283 1.05235 2.05412 0
M  V30 1239 C 114.253 -0.0374561 1.66058 0
M  V30 1240 O 115.438 0.119073 1.90428 0
M  V30 1241 C 112.578 0.673589 3.38462 0
M  V30 1242 C 111.691 1.8379 3.90954 0
M  V30 1243 C 110.826 1.40381 5.12315 0
M  V30 1244 C 109.865 2.53746 5.57027 0
M  V30 1245 N 109.002 2.11136 6.69601 0
M  V30 1246 H 113.842 1.99048 2.21774 0
M  V30 1247 H 111.379 0.991277 1.08683 0
M  V30 1248 H 113.337 0.434964 4.14926 0
M  V30 1249 H 111.967 -0.227554 3.21997 0
M  V30 1250 H 111.019 2.18992 3.11041 0
M  V30 1251 H 112.331 2.68937 4.20089 0
M  V30 1252 H 111.485 1.12464 5.96185 0
M  V30 1253 H 110.224 0.523015 4.84887 0
M  V30 1254 H 109.229 2.82412 4.71724 0
M  V30 1255 H 110.454 3.42398 5.86464 0
M  V30 1256 H 108.4 1.25468 6.4389 0
M  V30 1257 H 108.317 2.89832 6.98236 0
M  V30 1258 H 109.585 1.86385 7.56889 0
M  V30 1259 N 113.814 -1.1601 1.06675 0
M  V30 1260 C 114.777 -2.18724 0.685001 0
M  V30 1261 C 115.777 -1.58496 -0.271246 0
M  V30 1262 O 116.967 -1.74119 -0.0531156 0
M  V30 1263 C 114.099 -3.40899 0.00853648 0
M  V30 1264 H 115.292 -2.54011 1.59431 0
M  V30 1265 H 112.845 -1.30352 0.862441 0
M  V30 1266 H 113.58 -3.11173 -0.913337 0
M  V30 1267 H 113.365 -3.8587 0.696204 0
M  V30 1268 H 114.855 -4.16886 -0.24414 0
M  V30 1269 N 115.292 -0.849877 -1.32721 0
M  V30 1270 C 116.569 -0.372405 -1.92022 0
M  V30 1271 C 116.949 1.1435 -1.77447 0
M  V30 1272 O 116.297 1.96296 -1.16962 0
M  V30 1273 C 116.507 -0.831482 -3.3895 0
M  V30 1274 C 117.855 -0.845882 -4.16089 0
M  V30 1275 O 118.879 -0.775806 -3.47649 0
M  V30 1276 O 117.738 -0.943753 -5.38289 0
M  V30 1277 H 114.832 -0.107667 -0.819961 0
M  V30 1278 H 117.378 -0.93646 -1.41522 0
M  V30 1279 H 116.15 -1.87448 -3.4348 0
M  V30 1280 H 115.773 -0.24461 -3.96847 0
M  V30 1281 N 116.77 1.45427 -0.607355 0
M  V30 1282 C 117.702 2.2871 0.149752 0
M  V30 1283 C 118.715 1.39937 0.831958 0
M  V30 1284 O 119.904 1.64313 0.697385 0
M  V30 1285 C 117.004 3.15673 1.23304 0
M  V30 1286 C 116.177 4.32722 0.637996 0
M  V30 1287 C 115.236 5.00895 1.61215 0
M  V30 1288 O 114.262 5.57697 1.13854 0
M  V30 1289 N 115.464 5.00159 2.94655 0
M  V30 1290 H 118.229 2.94328 -0.564882 0
M  V30 1291 H 115.79 1.55612 -0.446823 0
M  V30 1292 H 117.782 3.58144 1.88454 0
M  V30 1293 H 116.352 2.51965 1.8502 0
M  V30 1294 H 115.572 3.93734 -0.191572 0
M  V30 1295 H 116.86 5.08321 0.220665 0
M  V30 1296 H 116.258 4.553 3.35735 0
M  V30 1297 H 114.815 5.46495 3.55228 0
M  V30 1298 N 118.248 0.346503 1.53744 0
M  V30 1299 C 119.178 -0.501193 2.28058 0
M  V30 1300 C 120.159 -1.10014 1.29734 0
M  V30 1301 O 121.344 -1.12097 1.58581 0
M  V30 1302 C 118.474 -1.65078 3.05559 0
M  V30 1303 C 117.428 -1.18003 4.11411 0
M  V30 1304 C 116.754 -2.41837 4.76884 0
M  V30 1305 C 118.054 -0.278394 5.21558 0
M  V30 1306 H 119.748 0.11875 2.99164 0
M  V30 1307 H 117.294 0.0585531 1.43881 0
M  V30 1308 H 119.247 -2.25028 3.56287 0
M  V30 1309 H 117.971 -2.29767 2.32109 0
M  V30 1310 H 116.63 -0.603331 3.61601 0
M  V30 1311 H 116.278 -3.0494 4.00026 0
M  V30 1312 H 115.978 -2.1102 5.48402 0
M  V30 1313 H 117.502 -3.02508 5.30397 0
M  V30 1314 H 118.916 -0.784823 5.67903 0
M  V30 1315 H 117.313 -0.0619707 6.00068 0
M  V30 1316 H 118.383 0.684677 4.80042 0
M  V30 1317 N 119.726 -1.57421 0.075193 0
M  V30 1318 C 120.956 -1.97659 -0.601203 0
M  V30 1319 C 121.364 -0.952427 -1.63479 0
M  V30 1320 O 120.707 0.0688241 -1.83571 0
M  V30 1321 C 120.769 -3.34218 -1.32434 0
M  V30 1322 C 120.433 -4.5484 -0.443826 0
M  V30 1323 C 121.43 -5.19034 0.299969 0
M  V30 1324 C 119.115 -5.00952 -0.367709 0
M  V30 1325 C 121.109 -6.27695 1.10807 0
M  V30 1326 C 118.796 -6.09484 0.444058 0
M  V30 1327 C 119.794 -6.72719 1.18061 0
M  V30 1328 O 119.482 -7.79161 1.97898 0
M  V30 1329 H 119.214 -0.65494 -0.167422 0
M  V30 1330 H 121.768 -2.04886 0.145157 0
M  V30 1331 H 119.998 -3.23615 -2.11685 0
M  V30 1332 H 121.687 -3.59038 -1.89331 0
M  V30 1333 H 122.453 -4.84351 0.250776 0
M  V30 1334 H 118.332 -4.51509 -0.930638 0
M  V30 1335 H 121.876 -6.76982 1.68347 0
M  V30 1336 H 117.773 -6.43601 0.494803 0
M  V30 1337 H 118.541 -7.96055 1.90367 0
M  V30 1338 N 121.204 0.198386 -1.56346 0
M  V30 1339 C 122.151 1.24589 -1.94284 0
M  V30 1340 C 123.121 1.454 -0.802997 0
M  V30 1341 O 124.306 1.58588 -1.06087 0
M  V30 1342 C 121.446 2.58631 -2.28482 0
M  V30 1343 C 120.559 2.45426 -3.55514 0
M  V30 1344 C 119.694 3.7215 -3.79049 0
M  V30 1345 C 118.733 3.53763 -4.99518 0
M  V30 1346 N 117.87 4.72491 -5.19323 0
M  V30 1347 H 122.71 0.915356 -2.83593 0
M  V30 1348 H 120.247 0.440629 -1.40346 0
M  V30 1349 H 122.205 3.3672 -2.46324 0
M  V30 1350 H 120.835 2.89734 -1.42317 0
M  V30 1351 H 119.887 1.58652 -3.45737 0
M  V30 1352 H 121.199 2.27772 -4.43758 0
M  V30 1353 H 120.353 4.58679 -3.97113 0
M  V30 1354 H 119.092 3.92754 -2.89129 0
M  V30 1355 H 118.097 2.65619 -4.8138 0
M  V30 1356 H 119.322 3.34607 -5.90944 0
M  V30 1357 H 117.268 4.93365 -4.3235 0
M  V30 1358 H 117.185 4.5765 -6.01741 0
M  V30 1359 H 118.453 5.6038 -5.41843 0
M  V30 1360 N 122.682 1.50554 0.465978 0
M  V30 1361 C 123.614 1.65949 1.58093 0
M  V30 1362 C 124.627 0.540827 1.53554 0
M  V30 1363 O 125.816 0.814187 1.5885 0
M  V30 1364 C 122.916 1.63261 2.96983 0
M  V30 1365 C 122.089 2.91245 3.26336 0
M  V30 1366 C 121.148 2.8113 4.44806 0
M  V30 1367 O 120.174 3.55086 4.44862 0
M  V30 1368 N 121.376 1.95032 5.46756 0
M  V30 1369 H 124.141 2.62122 1.45301 0
M  V30 1370 H 121.702 1.48082 0.65448 0
M  V30 1371 H 123.694 1.54101 3.74212 0
M  V30 1372 H 122.264 0.748032 3.03518 0
M  V30 1373 H 121.484 3.14493 2.37672 0
M  V30 1374 H 122.772 3.76022 3.42761 0
M  V30 1375 H 122.17 1.3427 5.49534 0
M  V30 1376 H 120.727 1.91772 6.2295 0
M  V30 1377 N 124.16 -0.719506 1.40217 0
M  V30 1378 C 125.107 -1.83359 1.40172 0
M  V30 1379 C 126.077 -1.64065 0.259206 0
M  V30 1380 O 127.262 -1.85254 0.456677 0
M  V30 1381 C 124.402 -3.2103 1.26624 0
M  V30 1382 C 123.515 -3.51923 2.50548 0
M  V30 1383 C 122.65 -4.79079 2.29471 0
M  V30 1384 C 121.689 -5.02863 3.48992 0
M  V30 1385 N 120.826 -6.2123 3.27135 0
M  V30 1386 H 125.666 -1.82733 2.35399 0
M  V30 1387 H 123.203 -0.892688 1.16917 0
M  V30 1388 H 125.161 -4.00524 1.16776 0
M  V30 1389 H 123.791 -3.20895 0.350176 0
M  V30 1390 H 122.843 -2.67014 2.70939 0
M  V30 1391 H 124.155 -3.6541 3.39525 0
M  V30 1392 H 123.309 -5.66582 2.16955 0
M  V30 1393 H 122.048 -4.67794 1.37913 0
M  V30 1394 H 121.053 -4.13816 3.6199 0
M  V30 1395 H 122.278 -5.16023 4.41472 0
M  V30 1396 H 120.224 -6.11204 2.38256 0
M  V30 1397 H 120.141 -6.35375 4.09675 0
M  V30 1398 H 121.409 -7.11532 3.18344 0
M  V30 1399 N 125.638 -1.25649 -0.95132 0
M  V30 1400 C 126.887 -1.09988 -1.69073 0
M  V30 1401 C 127.2 0.358355 -1.92289 0
M  V30 1402 O 128.406 0.635466 -2.63958 0
M  V30 1403 C 126.862 -1.92012 -3.044 0
M  V30 1404 C 126.47 -3.42347 -2.88968 0
M  V30 1405 C 128.214 -1.8493 -3.82101 0
M  V30 1406 C 126.121 -4.16655 -4.19705 0
M  V30 1407 H 125.051 -0.407993 -0.63408 0
M  V30 1408 H 127.702 -1.49873 -1.05879 0
M  V30 1409 H 126.084 -1.44952 -3.68517 0
M  V30 1410 H 127.258 -3.97104 -2.33762 0
M  V30 1411 H 125.573 -3.50557 -2.24719 0
M  V30 1412 H 128.17 -2.37739 -4.78941 0
M  V30 1413 H 128.513 -0.817883 -4.08187 0
M  V30 1414 H 129.046 -2.29758 -3.2474 0
M  V30 1415 H 125.785 -5.20224 -3.98807 0
M  V30 1416 H 125.305 -3.66681 -4.74663 0
M  V30 1417 H 126.984 -4.24551 -4.88227 0
M  V30 1418 N 127.117 1.15442 -1.07289 0
M  V30 1419 C 128.366 1.85557 -0.790669 0
M  V30 1420 C 128.679 1.83186 0.685739 0
M  V30 1421 O 129.885 2.48977 1.0827 0
M  V30 1422 C 128.341 3.33038 -1.36433 0
M  V30 1423 C 127.949 3.43856 -2.8717 0
M  V30 1424 C 129.693 4.0834 -1.1601 0
M  V30 1425 C 127.6 4.85482 -3.3773 0
M  V30 1426 H 126.53 0.695122 -0.292098 0
M  V30 1427 H 129.181 1.30219 -1.29287 0
M  V30 1428 H 127.563 3.88043 -0.789864 0
M  V30 1429 H 128.737 2.98961 -3.50655 0
M  V30 1430 H 127.052 2.81998 -3.06376 0
M  V30 1431 H 129.649 5.12859 -1.51262 0
M  V30 1432 H 129.992 4.16182 -0.0991007 0
M  V30 1433 H 130.525 3.59603 -1.70089 0
M  V30 1434 H 127.264 4.82823 -4.43353 0
M  V30 1435 H 126.784 5.30961 -2.78999 0
M  V30 1436 H 128.463 5.54335 -3.33648 0
M  V30 1437 N 128.595 0.856903 1.32268 0
M  V30 1438 C 130.011 0.547061 1.49931 0
M  V30 1439 C 130.211 -0.921781 1.7918 0
M  V30 1440 O 129.267 -1.70469 1.8627 0
M  V30 1441 C 130.58 1.43599 2.64196 0
M  V30 1442 C 132.128 1.43665 2.78081 0
M  V30 1443 C 132.603 2.31085 3.95428 0
M  V30 1444 N 134.094 2.28893 4.02694 0
M  V30 1445 C 134.829 2.93262 4.92732 0
M  V30 1446 N 134.325 3.66751 5.87763 0
M  V30 1447 N 136.118 2.82638 4.85873 0
M  V30 1448 H 128.269 1.8075 1.11549 0
M  V30 1449 H 130.532 0.772144 0.549997 0
M  V30 1450 H 130.238 2.48058 2.49319 0
M  V30 1451 H 130.112 1.12502 3.60032 0
M  V30 1452 H 132.499 0.399701 2.92381 0
M  V30 1453 H 132.58 1.7878 1.82952 0
M  V30 1454 H 132.224 3.34849 3.81888 0
M  V30 1455 H 132.154 1.93302 4.89839 0
M  V30 1456 H 134.645 1.75466 3.34694 0
M  V30 1457 H 134.958 4.13027 6.53168 0
M  V30 1458 H 133.303 3.70859 5.87783 0
M  V30 1459 H 136.494 2.24774 4.10602 0
M  V30 1460 H 136.667 3.33084 5.55841 0
M  V30 1461 N 130.073 -1.45103 0.615059 0
M  V30 1462 C 131.321 -2.01784 0.112955 0
M  V30 1463 C 131.642 -1.48504 -1.26378 0
M  V30 1464 O 130.912 -0.682245 -1.83636 0
M  V30 1465 H 129.492 -0.745993 0.0387668 0
M  V30 1466 H 132.154 -1.77808 0.798141 0
M  V30 1467 H 131.25 -3.12025 0.0684069 0
M  V30 1468 N 131.551 -0.354651 -1.53558 0
M  V30 1469 C 132.798 0.238443 -2.01091 0
M  V30 1470 C 133.126 1.49663 -1.24222 0
M  V30 1471 O 132.381 1.93049 -0.321003 0
M  V30 1472 C 132.68 0.587121 -3.52545 0
M  V30 1473 C 132.346 -0.575472 -4.47213 0
M  V30 1474 C 131.008 -0.894497 -4.72813 0
M  V30 1475 C 133.36 -1.35489 -5.03281 0
M  V30 1476 C 130.688 -1.99511 -5.51736 0
M  V30 1477 C 133.04 -2.44583 -5.83405 0
M  V30 1478 C 131.704 -2.77033 -6.07296 0
M  V30 1479 H 130.974 0.0872526 -0.735845 0
M  V30 1480 H 133.621 -0.484859 -1.8526 0
M  V30 1481 H 131.926 1.39129 -3.66265 0
M  V30 1482 H 133.623 1.05809 -3.86789 0
M  V30 1483 H 130.213 -0.316774 -4.27428 0
M  V30 1484 H 134.397 -1.12167 -4.83459 0
M  V30 1485 H 129.653 -2.25063 -5.68469 0
M  V30 1486 H 133.827 -3.05401 -6.25862 0
M  V30 1487 H 131.454 -3.6244 -6.68237 0
M  V30 1488 N 133.029 1.57378 -0.0835403 0
M  V30 1489 C 134.269 1.95808 0.586381 0
M  V30 1490 C 134.633 0.963706 1.66062 0
M  V30 1491 O 135.834 1.23608 2.38693 0
M  V30 1492 C 134.105 3.38808 1.13771 0
M  V30 1493 S 135.664 3.99225 1.82112 0
M  V30 1494 H 132.482 0.684675 0.191679 0
M  V30 1495 H 135.084 1.94843 -0.160194 0
M  V30 1496 H 133.788 4.08954 0.344197 0
M  V30 1497 H 133.319 3.43344 1.92038 0
M  V30 1498 H 135.334 3.87087 3.10449 0
M  V30 1499 N 134.507 -0.190092 1.56449 0
M  V30 1500 C 135.457 -1.23977 1.91347 0
M  V30 1501 C 136.441 -1.40747 0.779693 0
M  V30 1502 O 137.633 -1.43033 1.04262 0
M  V30 1503 C 134.762 -2.58347 2.26079 0
M  V30 1504 C 133.848 -2.4535 3.45925 0
M  V30 1505 N 134.239 -2.02039 4.63696 0
M  V30 1506 C 132.537 -2.76229 3.50162 0
M  V30 1507 C 133.238 -2.01053 5.4585 0
M  V30 1508 N 132.214 -2.42747 4.8639 0
M  V30 1509 H 136.016 -0.896318 2.79899 0
M  V30 1510 H 133.53 -0.398496 1.57435 0
M  V30 1511 H 135.527 -3.34173 2.49267 0
M  V30 1512 H 134.187 -2.93512 1.38856 0
M  V30 1513 H 135.198 -1.7267 4.88268 0
M  V30 1514 H 131.875 -3.15556 2.73369 0
M  V30 1515 H 133.265 -1.69426 6.50188 0
M  V30 1516 N 135.985 -1.50799 -0.457987 0
M  V30 1517 C 136.915 -1.73553 -1.5621 0
M  V30 1518 C 137.896 -0.584774 -1.59732 0
M  V30 1519 O 139.081 -0.825314 -1.7579 0
M  V30 1520 C 136.211 -1.84169 -2.94447 0
M  V30 1521 C 135.165 -2.99461 -3.0579 0
M  V30 1522 C 134.491 -2.95235 -4.45803 0
M  V30 1523 C 135.791 -4.39766 -2.81786 0
M  V30 1524 H 137.485 -2.66 -1.37421 0
M  V30 1525 H 135.031 -1.28002 -0.659662 0
M  V30 1526 H 136.984 -1.98672 -3.71628 0
M  V30 1527 H 135.708 -0.883545 -3.14422 0
M  V30 1528 H 134.367 -2.8463 -2.31044 0
M  V30 1529 H 134.015 -1.97239 -4.62715 0
M  V30 1530 H 133.715 -3.72642 -4.54326 0
M  V30 1531 H 135.239 -3.11803 -5.24987 0
M  V30 1532 H 136.653 -4.55054 -3.4871 0
M  V30 1533 H 135.05 -5.18722 -3.0174 0
M  V30 1534 H 136.12 -4.51229 -1.7754 0
M  V30 1535 N 137.463 0.71206 -1.40597 0
M  V30 1536 C 138.703 1.48438 -1.40519 0
M  V30 1537 C 139.067 1.91998 -0.00767611 0
M  V30 1538 O 140.268 2.6854 0.118239 0
M  V30 1539 C 138.539 2.67514 -2.37004 0
M  V30 1540 S 140.098 3.56875 -2.55315 0
M  V30 1541 H 136.916 0.507457 -0.498005 0
M  V30 1542 H 139.518 0.832355 -1.76896 0
M  V30 1543 H 138.222 2.33689 -3.37368 0
M  V30 1544 H 137.753 3.37625 -2.01923 0
M  V30 1545 H 139.768 4.62081 -1.8082 0
M  V30 1546 N 138.941 1.26152 0.944643 0
M  V30 1547 C 140.218 1.02247 1.66748 0
M  V30 1548 C 140.598 -0.448202 2.06287 0
M  V30 1549 O 139.946 -1.42779 1.78399 0
M  V30 1550 C 140.156 1.96788 2.88228 0
M  V30 1551 C 141.504 2.25201 3.59958 0
M  V30 1552 O 142.528 1.94626 2.98327 0
M  V30 1553 O 141.387 2.77242 4.70956 0
M  V30 1554 H 138.481 0.388517 0.730057 0
M  V30 1555 H 141.027 1.37348 0.99668 0
M  V30 1556 H 139.799 2.96047 2.55875 0
M  V30 1557 H 139.422 1.62145 3.63035 0
M  V30 1558 N 140.419 -1.14872 1.07899 0
M  V30 1559 C 141.667 -1.85422 0.803941 0
M  V30 1560 C 141.988 -1.83051 -0.67211 0
M  V30 1561 O 141.258 -1.27532 -1.48703 0
M  V30 1562 H 139.838 -0.686537 0.294408 0
M  V30 1563 H 142.5 -1.39226 1.3639 0
M  V30 1564 H 141.596 -2.90399 1.14346 0
M  V30 1565 N 141.898 -0.863906 -1.31812 0
M  V30 1566 C 142.83 -0.272485 -2.27575 0
M  V30 1567 C 143.843 0.56104 -1.52827 0
M  V30 1568 O 145.032 0.384021 -1.7432 0
M  V30 1569 C 142.132 0.63283 -3.32939 0
M  V30 1570 C 141.305 -0.166902 -4.37081 0
M  V30 1571 C 140.364 0.665608 -5.21973 0
M  V30 1572 O 139.39 0.0958091 -5.69119 0
M  V30 1573 N 140.592 1.9787 -5.45736 0
M  V30 1574 H 143.357 -1.0954 -2.78964 0
M  V30 1575 H 140.918 -0.724791 -1.4477 0
M  V30 1576 H 142.91 1.19532 -3.86645 0
M  V30 1577 H 141.48 1.35642 -2.81638 0
M  V30 1578 H 140.7 -0.910838 -3.83533 0
M  V30 1579 H 141.988 -0.715874 -5.03739 0
M  V30 1580 H 141.386 2.46484 -5.09178 0
M  V30 1581 H 139.943 2.48911 -6.024 0
M  V30 1582 N 143.376 1.44774 -0.622745 0
M  V30 1583 C 144.286 2.34433 0.0886031 0
M  V30 1584 C 145.302 1.52131 0.844529 0
M  V30 1585 O 146.478 1.84886 0.798691 0
M  V30 1586 C 143.543 3.29986 1.0635 0
M  V30 1587 C 142.604 4.28195 0.307873 0
M  V30 1588 C 141.837 5.19183 1.23633 0
M  V30 1589 O 142.06 5.13918 2.47476 0
M  V30 1590 O 140.994 5.97515 0.725189 0
M  V30 1591 H 144.82 2.96693 -0.648599 0
M  V30 1592 H 142.405 1.44408 -0.382957 0
M  V30 1593 H 144.287 3.88825 1.6246 0
M  V30 1594 H 142.962 2.70269 1.78146 0
M  V30 1595 H 141.869 3.72927 -0.296064 0
M  V30 1596 H 143.202 4.90808 -0.3699 0
M  V30 1597 N 144.854 0.36279 1.53368 0
M  V30 1598 C 145.817 -0.472679 2.24273 0
M  V30 1599 C 146.817 -1.012 1.24961 0
M  V30 1600 O 148.007 -0.898194 1.49259 0
M  V30 1601 C 145.139 -1.66039 2.97731 0
M  V30 1602 H 146.332 0.14773 2.99536 0
M  V30 1603 H 143.885 0.114434 1.55881 0
M  V30 1604 H 144.62 -2.31896 2.26704 0
M  V30 1605 H 144.405 -1.28066 3.70596 0
M  V30 1606 H 145.895 -2.25252 3.51641 0
M  V30 1607 N 146.332 -1.57332 0.0918853 0
M  V30 1608 C 147.572 -1.96117 -0.575988 0
M  V30 1609 C 147.936 -0.972499 -1.65549 0
M  V30 1610 O 149.137 -1.24872 -2.38034 0
M  V30 1611 C 147.408 -3.39407 -1.11973 0
M  V30 1612 S 148.967 -4.00185 -1.79992 0
M  V30 1613 H 145.785 -0.685682 -0.188045 0
M  V30 1614 H 148.387 -1.94755 0.170525 0
M  V30 1615 H 147.091 -4.09131 -0.322504 0
M  V30 1616 H 146.622 -3.44358 -1.90214 0
M  V30 1617 H 148.637 -3.88728 -3.08391 0
M  V30 1618 N 147.81 0.181792 -1.56548 0
M  V30 1619 C 149.05 0.906711 -1.83189 0
M  V30 1620 C 149.414 1.79882 -0.671312 0
M  V30 1621 O 150.615 2.56054 -0.81792 0
M  V30 1622 C 148.886 1.69023 -3.14906 0
M  V30 1623 S 150.445 2.46535 -3.62996 0
M  V30 1624 H 147.263 0.303877 -0.642791 0
M  V30 1625 H 149.865 0.169107 -1.94767 0
M  V30 1626 H 148.569 1.02571 -3.97376 0
M  V30 1627 H 148.1 2.46941 -3.06241 0
M  V30 1628 H 150.115 3.71014 -3.29489 0
M  V30 1629 N 149.288 1.51039 0.449983 0
M  V30 1630 C 150.534 1.63322 1.20223 0
M  V30 1631 C 150.867 0.34241 1.91158 0
M  V30 1632 O 150.142 -0.657344 1.83055 0
M  V30 1633 C 150.425 2.82801 2.22925 0
M  V30 1634 C 150.278 4.21823 1.56157 0
M  V30 1635 C 151.597 2.97807 3.24035 0
M  V30 1636 H 148.716 0.594407 0.435718 0
M  V30 1637 H 151.358 1.83489 0.493136 0
M  V30 1638 H 149.508 2.65738 2.834 0
M  V30 1639 H 151.18 4.50526 0.991162 0
M  V30 1640 H 149.423 4.25105 0.864172 0
M  V30 1641 H 150.094 5.01391 2.30891 0
M  V30 1642 H 152.57 3.13497 2.73603 0
M  V30 1643 H 151.446 3.82992 3.93202 0
M  V30 1644 H 151.707 2.09328 3.89402 0
M  V30 1645 N 150.766 -0.704594 1.40972 0
M  V30 1646 C 152.014 -1.46169 1.39568 0
M  V30 1647 C 152.335 -1.95 0.00253745 0
M  V30 1648 O 151.605 -1.71095 -0.954114 0
M  V30 1649 H 150.185 -0.542326 0.513704 0
M  V30 1650 H 152.847 -0.834553 1.76128 0
M  V30 1651 H 151.943 -2.32922 2.07735 0
M  V30 1652 N 152.244 -1.26651 -0.937939 0
M  V30 1653 C 153.174 -1.10993 -2.05433 0
M  V30 1654 C 154.155 -0.0142161 -1.70094 0
M  V30 1655 O 155.34 -0.186837 -1.93299 0
M  V30 1656 C 152.47 -0.745561 -3.39203 0
M  V30 1657 C 151.424 -1.79337 -3.88616 0
M  V30 1658 C 150.75 -1.28324 -5.19073 0
M  V30 1659 C 152.05 -3.19553 -4.13138 0
M  V30 1660 H 153.744 -2.0438 -2.1879 0
M  V30 1661 H 151.29 -0.984041 -1.05131 0
M  V30 1662 H 153.243 -0.622888 -4.16771 0
M  V30 1663 H 151.967 0.22401 -3.25831 0
M  V30 1664 H 150.626 -1.90477 -3.13231 0
M  V30 1665 H 150.274 -0.303414 -5.02084 0
M  V30 1666 H 149.974 -1.98369 -5.53103 0
M  V30 1667 H 151.498 -1.1733 -5.99221 0
M  V30 1668 H 152.912 -3.11471 -4.81309 0
M  V30 1669 H 151.309 -3.87218 -4.58457 0
M  V30 1670 H 152.379 -3.65368 -3.18801 0
M  V30 1671 N 153.722 1.14298 -1.08507 0
M  V30 1672 C 154.632 2.23027 -0.727753 0
M  V30 1673 C 155.648 1.71952 0.26619 0
M  V30 1674 O 156.824 2.011 0.109882 0
M  V30 1675 C 153.889 3.46403 -0.143541 0
M  V30 1676 C 152.95 4.12413 -1.19223 0
M  V30 1677 C 152.183 5.29899 -0.635798 0
M  V30 1678 O 152.406 5.67796 0.544393 0
M  V30 1679 O 151.34 5.85717 -1.38634 0
M  V30 1680 H 155.166 2.55945 -1.63481 0
M  V30 1681 H 152.751 1.22248 -0.858817 0
M  V30 1682 H 154.633 4.21018 0.179404 0
M  V30 1683 H 153.308 3.15206 0.736659 0
M  V30 1684 H 152.215 3.39667 -1.56772 0
M  V30 1685 H 153.548 4.47718 -2.04474 0
M  V30 1686 N 155.201 0.870884 1.31352 0
M  V30 1687 C 156.164 0.332243 2.26779 0
M  V30 1688 C 157.164 -0.517302 1.52252 0
M  V30 1689 O 158.354 -0.326477 1.71113 0
M  V30 1690 C 155.486 -0.528066 3.36785 0
M  V30 1691 H 156.679 1.17469 2.75937 0
M  V30 1692 H 154.232 0.64655 1.423 0
M  V30 1693 H 154.967 -1.39167 2.92922 0
M  V30 1694 H 154.752 0.0802582 3.92018 0
M  V30 1695 H 156.242 -0.897179 4.07849 0
M  V30 1696 N 156.679 -1.44442 0.630414 0
M  V30 1697 C 157.927 -2.01653 0.134351 0
M  V30 1698 C 158.248 -1.49836 -1.24796 0
M  V30 1699 O 157.518 -0.701684 -1.82902 0
M  V30 1700 H 156.098 -0.74554 0.0466769 0
M  V30 1701 H 158.76 -1.76952 0.816955 0
M  V30 1702 H 157.856 -3.11935 0.101498 0
M  V30 1703 N 158.157 -0.370918 -1.53173 0
M  V30 1704 C 159.406 0.218249 -2.00516 0
M  V30 1705 C 159.719 1.49429 -1.26215 0
M  V30 1706 O 160.925 2.16239 -1.64174 0
M  V30 1707 C 159.381 0.43948 -3.57207 0
M  V30 1708 C 158.989 -0.822244 -4.4039 0
M  V30 1709 C 160.733 0.986012 -4.1289 0
M  V30 1710 C 158.64 -0.570304 -5.88644 0
M  V30 1711 H 157.57 0.0853333 -0.749156 0
M  V30 1712 H 160.221 -0.490483 -1.76823 0
M  V30 1713 H 158.603 1.20961 -3.77074 0
M  V30 1714 H 159.777 -1.59557 -4.32294 0
M  V30 1715 H 158.092 -1.29238 -3.95836 0
M  V30 1716 H 160.689 1.18991 -5.21292 0
M  V30 1717 H 161.032 1.94972 -3.6782 0
M  V30 1718 H 161.565 0.27592 -3.96842 0
M  V30 1719 H 158.304 -1.50449 -6.38001 0
M  V30 1720 H 157.824 0.164427 -5.99575 0
M  V30 1721 H 159.503 -0.19784 -6.46697 0
M  V30 1722 N 159.635 1.57281 -0.100228 0
M  V30 1723 C 160.583 2.15542 0.874328 0
M  V30 1724 C 161.577 1.09962 1.28859 0
M  V30 1725 O 162.783 1.28298 1.26252 0
M  V30 1726 H 159.158 0.689567 0.300003 0
M  V30 1727 H 161.129 2.96241 0.35829 0
M  V30 1728 C 159.878 2.75454 2.1218 0
M  V30 1729 H 159.201 3.56384 1.81193 0
M  V30 1730 H 160.641 3.19781 2.78417 0
M  V30 1731 C 159.1 1.71602 2.89921 0
M  V30 1732 O 159.63 1.15804 3.84646 0
M  V30 1733 N 157.836 1.41975 2.53558 0
M  V30 1734 H 157.383 1.87539 1.76598 0
M  V30 1735 H 157.341 0.727274 3.05873 0
M  V30 1736 N 161.113 -0.173488 1.56642 0
M  V30 1737 C 162.524 -0.736155 1.71574 0
M  V30 1738 C 162.875 -1.82888 0.710389 0
M  V30 1739 O 162 -2.16017 -0.1287 0
M  V30 1740 C 162.595 -1.34211 3.11083 0
M  V30 1741 C 161.154 -1.85162 3.27707 0
M  V30 1742 C 160.301 -0.729765 2.67525 0
M  V30 1743 H 163.252 0.0518786 1.58615 0
M  V30 1744 H 163.273 -2.21178 3.09613 0
M  V30 1745 H 162.785 -0.546579 3.84232 0
M  V30 1746 H 160.886 -2.67366 2.59512 0
M  V30 1747 H 160.999 -1.99855 4.35425 0
M  V30 1748 H 159.363 -1.14965 2.27278 0
M  V30 1749 H 160.146 0.0538806 3.43258 0
M  V30 1750 N 162.591 -1.51276 -0.441967 0
M  V30 1751 C 163.819 -1.67516 -1.21434 0
M  V30 1752 C 164.234 -0.37055 -1.85128 0
M  V30 1753 O 163.591 0.650498 -1.70513 0
M  V30 1754 C 163.642 -2.78748 -2.30177 0
M  V30 1755 O 163.363 -4.04154 -1.69089 0
M  V30 1756 C 164.864 -3.06217 -3.20541 0
M  V30 1757 H 162.084 -0.562276 -0.366178 0
M  V30 1758 H 164.628 -1.97666 -0.524244 0
M  V30 1759 H 162.783 -2.5121 -2.94911 0
M  V30 1760 H 163.197 -4.65894 -2.40922 0
M  V30 1761 H 164.671 -3.8764 -3.92987 0
M  V30 1762 H 165.148 -2.18439 -3.81026 0
M  V30 1763 H 165.754 -3.35397 -2.61513 0
M  V30 1764 N 164.069 0.697108 -1.41344 0
M  V30 1765 C 165.346 1.45154 -1.31109 0
M  V30 1766 C 165.726 2.11009 0.0620449 0
M  V30 1767 O 165.074 2.01571 1.07618 0
M  V30 1768 C 165.284 2.47223 -2.46337 0
M  V30 1769 C 166.632 3.1252 -2.87431 0
M  V30 1770 O 167.656 2.57547 -2.46065 0
M  V30 1771 O 166.515 4.12083 -3.58957 0
M  V30 1772 H 163.609 0.646365 -0.515889 0
M  V30 1773 H 166.155 0.727716 -1.53305 0
M  V30 1774 H 164.927 1.97204 -3.37974 0
M  V30 1775 H 164.55 3.27116 -2.2601 0
M  V30 1776 N 165.547 1.27147 0.931209 0
M  V30 1777 C 166.497 1.06227 2.01742 0
M  V30 1778 C 167.481 -0.00859065 1.60898 0
M  V30 1779 O 168.673 0.209537 1.75755 0
M  V30 1780 C 165.802 0.707787 3.35924 0
M  V30 1781 C 164.888 1.81661 3.83223 0
M  V30 1782 N 165.279 3.05564 4.03069 0
M  V30 1783 C 163.577 1.70249 4.12227 0
M  V30 1784 C 164.278 3.77697 4.42403 0
M  V30 1785 N 163.254 3.0544 4.49675 0
M  V30 1786 H 167.056 2.00261 2.15111 0
M  V30 1787 H 164.57 1.1781 1.11779 0
M  V30 1788 H 166.567 0.539043 4.134 0
M  V30 1789 H 165.227 -0.224964 3.2392 0
M  V30 1790 H 166.238 3.41363 3.89476 0
M  V30 1791 H 162.915 0.840329 4.08956 0
M  V30 1792 H 164.305 4.84168 4.65866 0
M  V30 1793 N 167.025 -1.13721 1.09112 0
M  V30 1794 C 167.955 -2.21148 0.749385 0
M  V30 1795 C 168.936 -1.6792 -0.271475 0
M  V30 1796 O 170.121 -1.93693 -0.140251 0
M  V30 1797 C 167.251 -3.46905 0.165659 0
M  V30 1798 C 166.205 -4.13203 1.11567 0
M  V30 1799 C 165.531 -5.33248 0.393809 0
M  V30 1800 C 166.831 -4.60912 2.45678 0
M  V30 1801 H 168.525 -2.4999 1.64758 0
M  V30 1802 H 166.071 -1.20156 0.793626 0
M  V30 1803 H 168.024 -4.21313 -0.085466 0
M  V30 1804 H 166.748 -3.17449 -0.767714 0
M  V30 1805 H 165.407 -3.40758 1.35202 0
M  V30 1806 H 165.055 -5.00054 -0.543599 0
M  V30 1807 H 164.755 -5.78552 1.02721 0
M  V30 1808 H 166.279 -6.10413 0.150908 0
M  V30 1809 H 167.693 -5.26759 2.26269 0
M  V30 1810 H 166.09 -5.16944 3.04776 0
M  V30 1811 H 167.16 -3.75603 3.06677 0
M  V30 1812 N 168.503 -0.877838 -1.30888 0
M  V30 1813 C 169.752 -0.488793 -1.95688 0
M  V30 1814 C 170.065 0.965485 -1.70111 0
M  V30 1815 O 171.271 1.46104 -2.28836 0
M  V30 1816 C 169.727 -0.823201 -3.50359 0
M  V30 1817 C 169.335 -2.29477 -3.84765 0
M  V30 1818 C 171.079 -0.503009 -4.21509 0
M  V30 1819 C 168.986 -2.57118 -5.32583 0
M  V30 1820 H 167.916 -0.179062 -0.732429 0
M  V30 1821 H 170.567 -1.07183 -1.48943 0
M  V30 1822 H 168.949 -0.169331 -3.95638 0
M  V30 1823 H 170.123 -2.99236 -3.5042 0
M  V30 1824 H 168.438 -2.58178 -3.267 0
M  V30 1825 H 171.035 -0.68665 -5.30273 0
M  V30 1826 H 171.378 0.557109 -4.12555 0
M  V30 1827 H 171.911 -1.11376 -3.8189 0
M  V30 1828 H 168.65 -3.61843 -5.4658 0
M  V30 1829 H 168.17 -1.91961 -5.68253 0
M  V30 1830 H 169.849 -2.42251 -5.99936 0
M  V30 1831 N 169.982 1.44106 -0.638065 0
M  V30 1832 C 171.21 2.06336 -0.152615 0
M  V30 1833 C 171.625 1.47731 1.17563 0
M  V30 1834 O 170.982 0.602806 1.72257 0
M  V30 1835 C 171.033 3.61479 -0.0391491 0
M  V30 1836 O 170.754 4.17903 -1.31487 0
M  V30 1837 C 172.255 4.40757 0.474176 0
M  V30 1838 H 169.475 0.665862 -0.0828776 0
M  V30 1839 H 172.019 1.84862 -0.87443 0
M  V30 1840 H 170.174 3.82191 0.633142 0
M  V30 1841 H 170.588 5.11416 -1.16421 0
M  V30 1842 H 172.062 5.49707 0.502562 0
M  V30 1843 H 172.539 4.12697 1.50258 0
M  V30 1844 H 173.145 4.24979 -0.165102 0
M  V30 1845 N 171.46 0.379036 1.52974 0
M  V30 1846 C 172.423 -0.448865 2.24762 0
M  V30 1847 C 173.423 -0.998689 1.26027 0
M  V30 1848 O 174.613 -0.882313 1.50203 0
M  V30 1849 C 171.745 -1.62872 2.99476 0
M  V30 1850 H 172.938 0.179491 2.99362 0
M  V30 1851 H 170.491 0.13096 1.5575 0
M  V30 1852 H 171.226 -2.29479 2.29151 0
M  V30 1853 H 171.011 -1.24128 3.71934 0
M  V30 1854 H 172.501 -2.2151 3.5401 0
M  V30 1855 N 172.938 -1.57226 0.108567 0
M  V30 1856 C 174.168 -1.9889 -0.559142 0
M  V30 1857 C 174.576 -0.986889 -1.61422 0
M  V30 1858 O 173.919 0.0298705 -1.83676 0
M  V30 1859 C 173.981 -3.36952 -1.25315 0
M  V30 1860 C 173.645 -4.55679 -0.347248 0
M  V30 1861 C 174.642 -5.18281 0.409996 0
M  V30 1862 C 172.327 -5.0162 -0.261367 0
M  V30 1863 C 174.321 -6.25203 1.24096 0
M  V30 1864 C 172.008 -6.08405 0.573238 0
M  V30 1865 C 173.006 -6.70063 1.32304 0
M  V30 1866 O 172.694 -7.74788 2.14381 0
M  V30 1867 H 172.426 -0.658343 -0.153492 0
M  V30 1868 H 174.98 -2.04532 0.188584 0
M  V30 1869 H 173.21 -3.28032 -2.04773 0
M  V30 1870 H 174.899 -3.62974 -1.81673 0
M  V30 1871 H 175.665 -4.8371 0.353457 0
M  V30 1872 H 171.544 -4.53381 -0.834656 0
M  V30 1873 H 175.088 -6.73259 1.82669 0
M  V30 1874 H 170.985 -6.42406 0.631208 0
M  V30 1875 H 171.753 -7.91837 2.07209 0
M  V30 1876 N 174.416 0.165178 -1.56732 0
M  V30 1877 C 175.832 0.517174 -1.50988 0
M  V30 1878 C 176.032 1.84331 -0.813894 0
M  V30 1879 O 175.088 2.49672 -0.37682 0
M  V30 1880 C 176.401 0.544261 -2.95733 0
M  V30 1881 C 177.949 0.631039 -3.06573 0
M  V30 1882 C 178.424 0.68896 -4.52788 0
M  V30 1883 N 179.915 0.751683 -4.5706 0
M  V30 1884 C 180.65 0.817177 -5.67547 0
M  V30 1885 N 180.146 0.843129 -6.8765 0
M  V30 1886 N 181.939 0.856668 -5.55534 0
M  V30 1887 H 174.09 -0.704318 -2.00382 0
M  V30 1888 H 176.353 -0.254687 -0.913148 0
M  V30 1889 H 176.059 -0.361607 -3.49836 0
M  V30 1890 H 175.933 1.3886 -3.5071 0
M  V30 1891 H 178.32 1.52733 -2.52501 0
M  V30 1892 H 178.401 -0.240095 -2.54671 0
M  V30 1893 H 178.045 -0.2031 -5.07494 0
M  V30 1894 H 177.975 1.57633 -5.02454 0
M  V30 1895 H 180.466 0.739661 -3.70591 0
M  V30 1896 H 180.779 0.894448 -7.67606 0
M  V30 1897 H 179.124 0.811304 -6.90248 0
M  V30 1898 H 182.315 0.833437 -4.60621 0
M  V30 1899 H 182.488 0.904247 -6.4166 0
M  V30 1900 N 175.894 1.51508 0.433938 0
M  V30 1901 C 176.857 1.72473 1.50949 0
M  V30 1902 C 177.857 0.594725 1.49398 0
M  V30 1903 O 179.047 0.862315 1.5136 0
M  V30 1904 C 176.179 1.78431 2.90474 0
M  V30 1905 H 177.372 2.68467 1.33662 0
M  V30 1906 H 174.925 1.41549 0.662836 0
M  V30 1907 H 175.66 0.842645 3.13161 0
M  V30 1908 H 175.445 2.60558 2.93005 0
M  V30 1909 H 176.935 1.96479 3.68491 0
M  V30 1910 N 177.372 -0.689602 1.41712 0
M  V30 1911 C 178.322 -1.79571 1.40493 0
M  V30 1912 C 179.306 -1.58473 0.278409 0
M  V30 1913 O 180.498 -1.69204 0.519532 0
M  V30 1914 C 177.627 -3.17923 1.29536 0
M  V30 1915 C 176.713 -3.44695 2.47075 0
M  V30 1916 N 177.104 -3.42132 3.72531 0
M  V30 1917 C 175.402 -3.75269 2.41017 0
M  V30 1918 C 176.103 -3.67976 4.50521 0
M  V30 1919 N 175.079 -3.88014 3.80718 0
M  V30 1920 H 178.881 -1.75961 2.35404 0
M  V30 1921 H 176.395 -0.889839 1.35851 0
M  V30 1922 H 178.392 -3.97167 1.26745 0
M  V30 1923 H 177.052 -3.22741 0.356153 0
M  V30 1924 H 178.063 -3.22375 4.05333 0
M  V30 1925 H 174.74 -3.87421 1.55599 0
M  V30 1926 H 176.13 -3.7208 5.59469 0
M  V30 1927 N 178.85 -1.27639 -0.924453 0
M  V30 1928 C 180.098 -1.13941 -1.66918 0
M  V30 1929 C 180.419 0.314589 -1.92446 0
M  V30 1930 O 179.689 1.21964 -1.53303 0
M  V30 1931 H 178.269 -0.418678 -0.618642 0
M  V30 1932 H 180.931 -1.60213 -1.10985 0
M  V30 1933 H 180.027 -1.67094 -2.63602 0
M  V30 1934 N 180.328 1.1314 -1.09713 0
M  V30 1935 C 181.575 1.84484 -0.834987 0
M  V30 1936 C 181.903 1.83689 0.639418 0
M  V30 1937 O 181.158 1.2724 1.4869 0
M  V30 1938 C 181.457 3.32167 -1.3191 0
M  V30 1939 C 181.123 3.53139 -2.80363 0
M  V30 1940 C 179.785 3.58571 -3.20905 0
M  V30 1941 C 182.137 3.60866 -3.76065 0
M  V30 1942 C 179.465 3.69267 -4.55916 0
M  V30 1943 C 181.817 3.73089 -5.10869 0
M  V30 1944 C 180.481 3.76775 -5.50996 0
M  V30 1945 H 179.751 0.675073 -0.305544 0
M  V30 1946 H 182.398 1.33554 -1.37243 0
M  V30 1947 H 180.703 3.85469 -0.701517 0
M  V30 1948 H 182.4 3.85821 -1.09284 0
M  V30 1949 H 178.99 3.49569 -2.47991 0
M  V30 1950 H 183.174 3.55946 -3.45855 0
M  V30 1951 H 178.43 3.70388 -4.86438 0
M  V30 1952 H 182.604 3.78011 -5.84877 0
M  V30 1953 H 180.231 3.84815 -6.55608 0
M  V30 1954 N 181.806 0.884767 1.30421 0
M  V30 1955 C 183.034 0.518044 2.0031 0
M  V30 1956 C 183.449 -0.893408 1.66324 0
M  V30 1957 O 182.806 -1.5875 0.900262 0
M  V30 1958 C 182.857 0.682997 3.54989 0
M  V30 1959 O 182.578 2.03888 3.87764 0
M  V30 1960 C 184.079 0.31924 4.42149 0
M  V30 1961 H 181.299 0.200265 0.640418 0
M  V30 1962 H 183.843 1.19001 1.6631 0
M  V30 1963 H 181.998 0.0584052 3.87356 0
M  V30 1964 H 182.412 2.05735 4.82466 0
M  V30 1965 H 183.886 0.485555 5.4986 0
M  V30 1966 H 184.363 -0.742717 4.32875 0
M  V30 1967 H 184.969 0.920147 4.15227 0
M  V30 1968 N 183.284 -1.43765 0.645699 0
M  V30 1969 C 184.531 -2.01898 0.15604 0
M  V30 1970 C 184.859 -1.50887 -1.22733 0
M  V30 1971 O 184.114 -0.689271 -1.8316 0
M  V30 1972 C 184.413 -3.57238 0.107679 0
M  V30 1973 C 184.079 -4.27564 1.43178 0
M  V30 1974 C 182.741 -4.46492 1.7944 0
M  V30 1975 C 185.093 -4.67454 2.30513 0
M  V30 1976 C 182.421 -5.02573 3.02716 0
M  V30 1977 C 184.773 -5.24901 3.53074 0
M  V30 1978 C 183.437 -5.42046 3.89541 0
M  V30 1979 H 182.707 -0.738797 0.057099 0
M  V30 1980 H 185.354 -1.72341 0.834912 0
M  V30 1981 H 183.659 -3.86293 -0.654618 0
M  V30 1982 H 185.356 -3.99965 -0.287938 0
M  V30 1983 H 181.946 -4.13171 1.13963 0
M  V30 1984 H 186.13 -4.5253 2.0379 0
M  V30 1985 H 181.386 -5.14033 3.31028 0
M  V30 1986 H 185.56 -5.54758 4.20971 0
M  V30 1987 H 183.187 -5.85268 4.85145 0
M  V30 1988 N 184.763 -0.387143 -1.52771 0
M  V30 1989 C 185.991 0.195869 -2.05971 0
M  V30 1990 C 186.406 1.40691 -1.25903 0
M  V30 1991 O 185.763 1.79931 -0.305134 0
M  V30 1992 C 185.814 0.56812 -3.57008 0
M  V30 1993 O 185.535 -0.594803 -4.34043 0
M  V30 1994 C 187.036 1.20723 -4.26545 0
M  V30 1995 H 184.256 0.0300578 -0.670326 0
M  V30 1996 H 186.8 -0.551749 -1.96916 0
M  V30 1997 H 184.955 1.26564 -3.66143 0
M  V30 1998 H 185.369 -0.289322 -5.23701 0
M  V30 1999 H 186.843 1.41807 -5.33474 0
M  V30 2000 H 187.32 2.17395 -3.81623 0
M  V30 2001 H 187.926 0.550535 -4.21722 0
M  V30 2002 N 186.241 1.57166 -0.116904 0
M  V30 2003 C 187.657 1.5779 0.239693 0
M  V30 2004 C 187.857 1.1295 1.66867 0
M  V30 2005 O 186.913 0.81592 2.38954 0
M  V30 2006 C 188.226 3.00699 0.00828202 0
M  V30 2007 C 189.774 3.12912 0.0743438 0
M  V30 2008 C 190.249 4.57817 -0.129348 0
M  V30 2009 N 191.74 4.63139 -0.075247 0
M  V30 2010 C 192.475 5.73023 -0.207788 0
M  V30 2011 N 191.971 6.91665 -0.396382 0
M  V30 2012 N 193.764 5.61906 -0.14751 0
M  V30 2013 H 185.915 1.84615 -1.05029 0
M  V30 2014 H 188.178 0.85311 -0.41341 0
M  V30 2015 H 187.884 3.37784 -0.979531 0
M  V30 2016 H 187.758 3.69848 0.741077 0
M  V30 2017 H 190.145 2.75686 1.05268 0
M  V30 2018 H 190.226 2.4631 -0.690297 0
M  V30 2019 H 189.87 4.95742 -1.10465 0
M  V30 2020 H 189.8 5.22507 0.655253 0
M  V30 2021 H 192.291 3.7784 0.0670898 0
M  V30 2022 H 192.604 7.71255 -0.488437 0
M  V30 2023 H 190.949 6.93654 -0.432329 0
M  V30 2024 H 194.14 4.681 -0.00115036 0
M  V30 2025 H 194.313 6.47501 -0.254247 0
M  V30 2026 N 187.719 -0.156864 1.56817 0
M  V30 2027 C 188.967 -0.869404 1.82444 0
M  V30 2028 C 189.288 -1.82147 0.69623 0
M  V30 2029 O 188.558 -1.93847 -0.28287 0
M  V30 2030 H 187.138 -0.324043 0.673056 0
M  V30 2031 H 189.8 -0.153224 1.94297 0
M  V30 2032 H 188.896 -1.43761 2.77019 0
M  V30 2033 N 189.197 -1.51736 -0.425897 0
M  V30 2034 C 190.127 -1.76827 -1.52494 0
M  V30 2035 C 191.108 -0.618524 -1.58456 0
M  V30 2036 O 192.293 -0.862416 -1.74 0
M  V30 2037 C 189.423 -1.90374 -2.90474 0
M  V30 2038 C 188.377 -3.0588 -2.99369 0
M  V30 2039 C 187.703 -3.04625 -4.3944 0
M  V30 2040 C 189.003 -4.45644 -2.72394 0
M  V30 2041 H 190.697 -2.68855 -1.31748 0
M  V30 2042 H 188.243 -1.29372 -0.632362 0
M  V30 2043 H 190.196 -2.0651 -3.6733 0
M  V30 2044 H 188.92 -0.95004 -3.12477 0
M  V30 2045 H 187.579 -2.89467 -2.24954 0
M  V30 2046 H 187.227 -2.0701 -4.58428 0
M  V30 2047 H 186.927 -3.82195 -4.46319 0
M  V30 2048 H 188.451 -3.22869 -5.18255 0
M  V30 2049 H 189.865 -4.62348 -3.38979 0
M  V30 2050 H 188.262 -5.25006 -2.9067 0
M  V30 2051 H 189.332 -4.54893 -1.67929 0
M  V30 2052 N 190.675 0.682077 -1.42076 0
M  V30 2053 C 191.9 1.47558 -1.45744 0
M  V30 2054 C 192.325 1.87977 -0.0680981 0
M  V30 2055 O 191.683 1.55522 0.9318 0
M  V30 2056 C 191.731 2.70575 -2.38373 0
M  V30 2057 O 190.835 3.68573 -1.85007 0
M  V30 2058 H 190.176 0.443585 -0.494093 0
M  V30 2059 H 192.706 0.837238 -1.86686 0
M  V30 2060 H 192.716 3.18729 -2.54707 0
M  V30 2061 H 191.391 2.40495 -3.39315 0
M  V30 2062 H 189.968 3.2757 -1.78192 0
M  V30 2063 N 192.153 1.28127 0.917671 0
M  V30 2064 C 193.399 1.15223 1.66888 0
M  V30 2065 C 193.732 -0.299293 1.9188 0
M  V30 2066 O 193.007 -1.21805 1.51637 0
M  V30 2067 C 193.29 1.94706 3.02922 0
M  V30 2068 C 193.143 3.47898 2.85109 0
M  V30 2069 C 194.462 1.75939 4.03402 0
M  V30 2070 H 191.581 0.419946 0.605652 0
M  V30 2071 H 194.223 1.57398 1.06423 0
M  V30 2072 H 192.373 1.58864 3.54534 0
M  V30 2073 H 194.045 3.93624 2.40537 0
M  V30 2074 H 192.288 3.7373 2.20246 0
M  V30 2075 H 192.959 3.98765 3.81694 0
M  V30 2076 H 195.435 2.07209 3.60837 0
M  V30 2077 H 194.311 2.33931 4.96556 0
M  V30 2078 H 194.572 0.709877 4.36364 0
M  V30 2079 N 193.631 -1.12557 1.10312 0
M  V30 2080 C 195.047 -1.36036 0.834649 0
M  V30 2081 C 195.247 -1.93946 -0.546539 0
M  V30 2082 O 194.303 -2.16484 -1.29966 0
M  V30 2083 C 195.616 -2.30312 1.9333 0
M  V30 2084 C 197.164 -2.43906 1.9616 0
M  V30 2085 C 197.639 -3.41496 3.05195 0
M  V30 2086 N 199.13 -3.49053 3.04494 0
M  V30 2087 C 199.865 -4.24471 3.85502 0
M  V30 2088 N 199.361 -5.02966 4.76442 0
M  V30 2089 N 201.154 -4.19864 3.73725 0
M  V30 2090 H 193.305 -0.733246 1.99342 0
M  V30 2091 H 195.568 -0.385234 0.866198 0
M  V30 2092 H 195.274 -1.94933 2.92735 0
M  V30 2093 H 195.148 -3.30421 1.81939 0
M  V30 2094 H 197.535 -2.78567 0.973886 0
M  V30 2095 H 197.616 -1.4369 2.11629 0
M  V30 2096 H 197.26 -3.07565 4.04186 0
M  V30 2097 H 197.19 -4.41539 2.86968 0
M  V30 2098 H 199.681 -2.93053 2.38596 0
M  V30 2099 H 199.994 -5.57846 5.34815 0
M  V30 2100 H 198.339 -5.02167 4.80472 0
M  V30 2101 H 201.53 -3.57623 3.02032 0
M  V30 2102 H 201.703 -4.78386 4.37093 0
M  V30 2103 N 195.109 -0.891671 -1.2995 0
M  V30 2104 C 196.019 -0.367691 -2.31701 0
M  V30 2105 C 197.035 0.533486 -1.6562 0
M  V30 2106 O 198.211 0.424997 -1.96865 0
M  V30 2107 C 195.276 0.403406 -3.44345 0
M  V30 2108 C 194.337 -0.528328 -4.26037 0
M  V30 2109 C 193.57 0.206063 -5.33302 0
M  V30 2110 O 193.793 1.43119 -5.52153 0
M  V30 2111 O 192.727 -0.447281 -6.00236 0
M  V30 2112 H 196.553 -1.21163 -2.78484 0
M  V30 2113 H 194.138 -0.655725 -1.34241 0
M  V30 2114 H 196.02 0.839753 -4.12948 0
M  V30 2115 H 194.695 1.22354 -2.99685 0
M  V30 2116 H 193.602 -1.01362 -3.60106 0
M  V30 2117 H 194.935 -1.31465 -4.74318 0
M  V30 2118 N 196.587 1.43421 -0.653314 0
M  V30 2119 C 197.836 2.01032 -0.164076 0
M  V30 2120 C 198.149 1.52147 1.22926 0
M  V30 2121 O 199.355 2.02031 1.81371 0
M  V30 2122 C 197.811 3.59082 -0.24252 0
M  V30 2123 C 197.419 4.1696 -1.63855 0
M  V30 2124 C 199.163 4.24079 0.18911 0
M  V30 2125 C 197.07 5.67304 -1.67092 0
M  V30 2126 H 196 0.751798 -0.0575769 0
M  V30 2127 H 198.651 1.6439 -0.815362 0
M  V30 2128 H 197.033 3.93125 0.476276 0
M  V30 2129 H 198.207 3.94416 -2.38271 0
M  V30 2130 H 196.522 3.64335 -2.01616 0
M  V30 2131 H 199.119 5.34381 0.184775 0
M  V30 2132 H 199.462 3.98005 1.22056 0
M  V30 2133 H 199.995 3.94918 -0.477938 0
M  V30 2134 H 196.734 5.98145 -2.68146 0
M  V30 2135 H 196.254 5.91904 -0.970014 0
M  V30 2136 H 197.933 6.31344 -1.4147 0
M  V30 2137 N 198.065 0.39524 1.52563 0
M  V30 2138 C 198.995 -0.428384 2.29537 0
M  V30 2139 C 199.976 -1.05831 1.33169 0
M  V30 2140 O 201.161 -1.06995 1.62067 0
M  V30 2141 C 198.291 -1.55274 3.10656 0
M  V30 2142 C 197.245 -1.04855 4.14957 0
M  V30 2143 C 196.571 -2.26543 4.84337 0
M  V30 2144 C 197.871 -0.112324 5.22179 0
M  V30 2145 H 199.565 0.213867 2.98635 0
M  V30 2146 H 197.111 0.104298 1.43622 0
M  V30 2147 H 199.064 -2.1358 3.63265 0
M  V30 2148 H 197.788 -2.22266 2.39302 0
M  V30 2149 H 196.447 -0.487985 3.63338 0
M  V30 2150 H 196.095 -2.92059 4.09525 0
M  V30 2151 H 195.795 -1.93466 5.54837 0
M  V30 2152 H 197.319 -2.85481 5.39753 0
M  V30 2153 H 198.733 -0.603752 5.70112 0
M  V30 2154 H 197.13 0.128968 5.99961 0
M  V30 2155 H 198.2 0.837052 4.77621 0
M  V30 2156 N 199.544 -1.57102 0.125237 0
M  V30 2157 C 200.507 -2.14471 -0.80838 0
M  V30 2158 C 201.507 -1.0811 -1.19033 0
M  V30 2159 O 202.697 -1.33856 -1.11482 0
M  V30 2160 C 199.829 -2.69005 -2.09402 0
M  V30 2161 H 201.022 -2.98297 -0.309696 0
M  V30 2162 H 198.575 -1.55807 -0.124051 0
M  V30 2163 H 199.31 -1.88785 -2.63687 0
M  V30 2164 H 199.095 -3.46799 -1.82957 0
M  V30 2165 H 200.585 -3.13278 -2.76128 0
M  V30 2166 N 201.022 0.148545 -1.56898 0
M  V30 2167 C 201.932 1.20293 -2.01412 0
M  V30 2168 C 202.948 1.47107 -0.929273 0
M  V30 2169 O 204.124 1.58807 -1.23863 0
M  V30 2170 C 201.189 2.51682 -2.38447 0
M  V30 2171 C 200.25 2.32529 -3.60872 0
M  V30 2172 C 199.483 3.57653 -3.96132 0
M  V30 2173 O 199.706 4.63771 -3.32073 0
M  V30 2174 O 198.64 3.50408 -4.89385 0
M  V30 2175 H 202.466 0.855025 -2.91416 0
M  V30 2176 H 200.051 0.357151 -1.45068 0
M  V30 2177 H 201.933 3.29147 -2.63135 0
M  V30 2178 H 200.608 2.86006 -1.51599 0
M  V30 2179 H 199.515 1.53019 -3.41373 0
M  V30 2180 H 200.848 2.03121 -4.48333 0
M  V30 2181 N 202.5 1.5196 0.417844 0
M  V30 2182 C 203.43 1.77634 1.51554 0
M  V30 2183 C 204.411 0.626918 1.58126 0
M  V30 2184 O 205.596 0.871632 1.7354 0
M  V30 2185 C 202.726 1.91911 2.8946 0
M  V30 2186 C 201.68 3.07463 2.97743 0
M  V30 2187 C 201.006 3.06951 4.37819 0
M  V30 2188 C 202.306 4.47082 2.70027 0
M  V30 2189 H 204 2.6955 1.3032 0
M  V30 2190 H 201.546 1.29706 0.625492 0
M  V30 2191 H 203.499 2.08455 3.6623 0
M  V30 2192 H 202.223 0.966598 3.11969 0
M  V30 2193 H 200.882 2.90656 2.23416 0
M  V30 2194 H 200.53 2.09438 4.57323 0
M  V30 2195 H 200.23 3.84556 4.44286 0
M  V30 2196 H 201.754 3.25613 5.16535 0
M  V30 2197 H 203.168 4.6414 3.36522 0
M  V30 2198 H 201.565 5.2654 2.87881 0
M  V30 2199 H 202.635 4.55777 1.65514 0
M  V30 2200 N 203.978 -0.674533 1.42435 0
M  V30 2201 C 205.206 -1.46283 1.46317 0
M  V30 2202 C 205.621 -1.88653 0.0745836 0
M  V30 2203 O 204.978 -1.58151 -0.91074 0
M  V30 2204 C 205.029 -2.71178 2.3905 0
M  V30 2205 O 204.75 -2.30586 3.72507 0
M  V30 2206 C 206.251 -3.64738 2.51955 0
M  V30 2207 H 203.471 -0.450104 0.497642 0
M  V30 2208 H 206.015 -0.828792 1.86953 0
M  V30 2209 H 204.17 -3.3077 2.01667 0
M  V30 2210 H 204.584 -3.11241 4.22172 0
M  V30 2211 H 206.058 -4.49096 3.20962 0
M  V30 2212 H 206.535 -4.10656 1.55752 0
M  V30 2213 H 207.141 -3.11038 2.90061 0
M  V30 2214 N 205.456 -1.28612 -0.910864 0
M  V30 2215 C 206.704 -1.15705 -1.65701 0
M  V30 2216 C 207.025 0.29416 -1.92769 0
M  V30 2217 O 206.295 1.20331 -1.54588 0
M  V30 2218 H 204.875 -0.425216 -0.614167 0
M  V30 2219 H 207.537 -1.61381 -1.0928 0
M  V30 2220 H 206.633 -1.6988 -2.61815 0
M  V30 2221 N 206.934 1.1197 -1.10907 0
M  V30 2222 C 208.35 1.35591 -0.841852 0
M  V30 2223 C 208.55 1.94233 0.536246 0
M  V30 2224 O 207.606 2.1717 1.28816 0
M  V30 2225 C 208.919 2.29284 -1.94549 0
M  V30 2226 C 210.467 2.42862 -1.97451 0
M  V30 2227 C 210.942 3.39873 -3.07002 0
M  V30 2228 N 212.433 3.47433 -3.06341 0
M  V30 2229 C 213.168 4.22421 -3.87748 0
M  V30 2230 N 212.664 5.00432 -4.79103 0
M  V30 2231 N 214.457 4.17876 -3.75946 0
M  V30 2232 H 206.608 0.722664 -1.99728 0
M  V30 2233 H 208.871 0.380635 -0.868229 0
M  V30 2234 H 208.577 1.93378 -2.93765 0
M  V30 2235 H 208.451 3.29452 -1.83688 0
M  V30 2236 H 210.838 2.78046 -0.988645 0
M  V30 2237 H 210.919 1.42566 -2.12388 0
M  V30 2238 H 210.563 3.05417 -4.05811 0
M  V30 2239 H 210.493 4.40011 -2.89306 0
M  V30 2240 H 212.984 2.91784 -2.40147 0
M  V30 2241 H 213.297 5.55002 -5.37766 0
M  V30 2242 H 211.642 4.99612 -4.83128 0
M  V30 2243 H 214.833 3.56016 -3.03924 0
M  V30 2244 H 215.006 4.76061 -4.39624 0
M  V30 2245 N 208.412 0.89855 1.29475 0
M  V30 2246 C 209.359 0.373819 2.27753 0
M  V30 2247 C 210.329 -0.543444 1.56958 0
M  V30 2248 O 211.514 -0.468934 1.84948 0
M  V30 2249 C 208.654 -0.393648 3.42848 0
M  V30 2250 C 207.767 0.554379 4.28428 0
M  V30 2251 C 206.902 -0.230026 5.30702 0
M  V30 2252 C 205.941 0.712599 6.07938 0
M  V30 2253 N 205.078 -0.0373283 7.0209 0
M  V30 2254 H 209.918 1.21699 2.72017 0
M  V30 2255 H 207.455 0.611456 1.33789 0
M  V30 2256 H 209.413 -0.85466 4.08352 0
M  V30 2257 H 208.043 -1.20128 2.99615 0
M  V30 2258 H 207.095 1.13391 3.63107 0
M  V30 2259 H 208.407 1.27597 4.82204 0
M  V30 2260 H 207.561 -0.752288 6.02018 0
M  V30 2261 H 206.3 -0.984758 4.77654 0
M  V30 2262 H 205.305 1.24637 5.35486 0
M  V30 2263 H 206.53 1.46664 6.63074 0
M  V30 2264 H 204.476 -0.774348 6.51414 0
M  V30 2265 H 204.393 0.624374 7.53417 0
M  V30 2266 H 205.661 -0.539891 7.77628 0
M  V30 2267 N 209.89 -1.43072 0.660911 0
M  V30 2268 C 211.138 -2.01323 0.177094 0
M  V30 2269 C 211.459 -1.5245 -1.2159 0
M  V30 2270 O 210.729 -0.740322 -1.81373 0
M  V30 2271 H 209.309 -0.744382 0.0624804 0
M  V30 2272 H 211.971 -1.75179 0.854305 0
M  V30 2273 H 211.067 -3.11649 0.167641 0
M  V30 2274 N 211.368 -0.403325 -1.52352 0
M  V30 2275 C 212.616 0.174003 -2.0135 0
M  V30 2276 C 212.937 1.46139 -1.29106 0
M  V30 2277 O 212.207 1.91448 -0.415253 0
M  V30 2278 H 210.787 0.0672911 -0.743963 0
M  V30 2279 H 213.449 -0.538235 -1.87321 0
M  V30 2280 H 212.545 0.374254 -3.09848 0
M  V30 2281 N 212.846 1.57033 -0.133567 0
M  V30 2282 C 214.086 1.97575 0.523789 0
M  V30 2283 C 214.45 1.01605 1.62912 0
M  V30 2284 O 215.651 1.3114 2.3464 0
M  V30 2285 C 213.922 3.42256 1.02935 0
M  V30 2286 S 215.481 4.04817 1.69319 0
M  V30 2287 H 212.299 0.690427 0.169799 0
M  V30 2288 H 214.901 1.94234 -0.222101 0
M  V30 2289 H 213.605 4.09842 0.213917 0
M  V30 2290 H 213.136 3.4928 1.81017 0
M  V30 2291 H 215.151 3.96767 2.97977 0
M  V30 2292 N 214.325 -0.140222 1.56975 0
M  V30 2293 C 215.288 -1.15689 1.97861 0
M  V30 2294 C 216.288 -1.3549 0.865974 0
M  V30 2295 O 217.478 -1.32367 1.13246 0
M  V30 2296 C 214.61 -2.51582 2.30042 0
M  V30 2297 H 215.803 -0.805971 2.88867 0
M  V30 2298 H 213.356 -0.383801 1.51515 0
M  V30 2299 H 214.091 -2.91632 1.41849 0
M  V30 2300 H 213.876 -2.38569 3.11171 0
M  V30 2301 H 215.366 -3.24792 2.62488 0
M  V30 2302 N 215.803 -1.52179 -0.40978 0
M  V30 2303 C 216.75 -1.75475 -1.49924 0
M  V30 2304 C 217.72 -0.597175 -1.54994 0
M  V30 2305 O 218.905 -0.834655 -1.71575 0
M  V30 2306 C 216.045 -1.9107 -2.87378 0
M  V30 2307 C 215.158 -3.18717 -2.91622 0
M  V30 2308 C 214.293 -3.24747 -4.20372 0
M  V30 2309 C 213.332 -4.46598 -4.18588 0
M  V30 2310 N 212.469 -4.50025 -5.38908 0
M  V30 2311 H 217.309 -2.68458 -1.29361 0
M  V30 2312 H 214.846 -1.33024 -0.627934 0
M  V30 2313 H 216.804 -1.98096 -3.6717 0
M  V30 2314 H 215.434 -1.01469 -3.06437 0
M  V30 2315 H 214.486 -3.20866 -2.04326 0
M  V30 2316 H 215.798 -4.08544 -2.86169 0
M  V30 2317 H 214.952 -3.30841 -5.08556 0
M  V30 2318 H 213.691 -2.32857 -4.28519 0
M  V30 2319 H 212.696 -4.40652 -3.28794 0
M  V30 2320 H 213.921 -5.39783 -4.12081 0
M  V30 2321 H 211.867 -3.61017 -5.47725 0
M  V30 2322 H 211.784 -5.33697 -5.35447 0
M  V30 2323 H 213.052 -4.60347 -6.29048 0
M  V30 2324 N 217.281 0.66697 -1.42791 0
M  V30 2325 C 218.529 1.42417 -1.43394 0
M  V30 2326 C 218.85 1.94925 -0.0542373 0
M  V30 2327 O 218.12 1.73564 0.908415 0
M  V30 2328 H 216.7 0.528515 -0.527902 0
M  V30 2329 H 219.362 0.787562 -1.78279 0
M  V30 2330 H 218.458 2.27333 -2.13837 0
M  V30 2331 N 218.759 1.29093 0.90403 0
M  V30 2332 C 219.706 1.13853 2.00764 0
M  V30 2333 C 220.676 0.0330084 1.66067 0
M  V30 2334 O 221.861 0.199733 1.89752 0
M  V30 2335 C 219.001 0.816537 3.35301 0
M  V30 2336 C 218.114 2.00206 3.82807 0
M  V30 2337 C 217.249 1.61983 5.059 0
M  V30 2338 C 216.288 2.77143 5.45764 0
M  V30 2339 N 215.425 2.39346 6.60044 0
M  V30 2340 H 220.265 2.08276 2.13132 0
M  V30 2341 H 217.802 1.03648 1.04381 0
M  V30 2342 H 219.76 0.610557 4.12708 0
M  V30 2343 H 218.39 -0.090779 3.22672 0
M  V30 2344 H 217.442 2.31988 3.01473 0
M  V30 2345 H 218.754 2.86512 4.08304 0
M  V30 2346 H 217.908 1.37649 5.90879 0
M  V30 2347 H 216.647 0.728202 4.82233 0
M  V30 2348 H 215.652 3.02165 4.59322 0
M  V30 2349 H 216.877 3.66964 5.71414 0
M  V30 2350 H 214.823 1.52665 6.37989 0
M  V30 2351 H 214.74 3.19185 6.85315 0
M  V30 2352 H 216.008 2.1832 7.48303 0
M  V30 2353 N 220.237 -1.11381 1.11499 0
M  V30 2354 C 221.485 -1.8277 0.862524 0
M  V30 2355 C 221.806 -1.85097 -0.613534 0
M  V30 2356 O 221.076 -1.32198 -1.4457 0
M  V30 2357 H 219.656 -0.676823 0.316101 0
M  V30 2358 H 222.318 -1.34816 1.4075 0
M  V30 2359 H 221.414 -2.86614 1.23527 0
M  V30 2360 N 221.715 -0.905404 -1.28997 0
M  V30 2361 C 222.963 -0.533192 -1.9494 0
M  V30 2362 C 223.284 0.924618 -1.71685 0
M  V30 2363 O 222.554 1.65268 -1.05183 0
M  V30 2364 H 221.134 -0.194194 -0.721317 0
M  V30 2365 H 223.796 -1.15294 -1.57141 0
M  V30 2366 H 222.892 -0.72059 -3.03667 0
M  V30 2367 N 223.193 1.4272 -0.668489 0
M  V30 2368 C 224.418 2.06484 -0.194758 0
M  V30 2369 C 224.843 1.49862 1.13679 0
M  V30 2370 O 224.201 0.614582 1.70565 0
M  V30 2371 C 224.249 3.60353 -0.133546 0
M  V30 2372 O 223.353 4.02464 0.899806 0
M  V30 2373 H 222.694 0.656137 -0.10188 0
M  V30 2374 H 225.224 1.82964 -0.915722 0
M  V30 2375 H 225.234 4.07976 0.0447041 0
M  V30 2376 H 223.909 4.00938 -1.1055 0
M  V30 2377 H 222.486 3.66402 0.693109 0
M  V30 2378 N 224.671 0.411399 1.52136 0
M  V30 2379 C 225.604 -0.457614 2.23565 0
M  V30 2380 C 226.582 -1.04613 1.24478 0
M  V30 2381 O 227.766 -1.09356 1.53536 0
M  V30 2382 C 224.893 -1.6354 2.96602 0
M  V30 2383 C 223.939 -1.17005 4.10137 0
M  V30 2384 S 224.772 -0.13333 5.35334 0
M  V30 2385 C 225.928 -1.31638 6.119 0
M  V30 2386 H 226.161 0.148883 2.96927 0
M  V30 2387 H 223.694 0.195713 1.53155 0
M  V30 2388 H 225.652 -2.31074 3.39286 0
M  V30 2389 H 224.313 -2.21324 2.22878 0
M  V30 2390 H 223.506 -2.05005 4.60422 0
M  V30 2391 H 223.108 -0.573319 3.6958 0
M  V30 2392 H 225.4 -2.23957 6.39413 0
M  V30 2393 H 226.343 -0.854014 7.02931 0
M  V30 2394 H 226.751 -1.54321 5.42997 0
M  V30 2395 N 226.149 -1.5696 0.141893 0
M  V30 2396 C 227.099 -2.13074 -0.811383 0
M  V30 2397 C 228.083 -1.05726 -1.21288 0
M  V30 2398 O 229.275 -1.31914 -1.18015 0
M  V30 2399 C 226.404 -2.75186 -2.0525 0
M  V30 2400 C 225.49 -3.8965 -1.67432 0
M  V30 2401 N 225.881 -4.95733 -1.0041 0
M  V30 2402 C 224.179 -4.00262 -1.96739 0
M  V30 2403 C 224.88 -5.75858 -0.822345 0
M  V30 2404 N 223.856 -5.26452 -1.3546 0
M  V30 2405 H 227.658 -2.92465 -0.290031 0
M  V30 2406 H 225.172 -1.6229 -0.0598218 0
M  V30 2407 H 227.169 -3.13745 -2.74535 0
M  V30 2408 H 225.829 -1.97266 -2.57907 0
M  V30 2409 H 226.84 -5.13607 -0.665441 0
M  V30 2410 H 223.517 -3.33412 -2.51282 0
M  V30 2411 H 224.907 -6.71254 -0.294496 0
M  V30 2412 N 227.627 0.131896 -1.57047 0
M  V30 2413 C 228.56 1.19236 -1.94571 0
M  V30 2414 C 229.538 1.40782 -0.813576 0
M  V30 2415 O 230.722 1.55148 -1.07058 0
M  V30 2416 C 227.849 2.54858 -2.23081 0
M  V30 2417 C 226.895 2.49817 -3.45679 0
M  V30 2418 S 227.728 1.95036 -4.98719 0
M  V30 2419 C 228.884 3.32357 -5.30367 0
M  V30 2420 H 229.117 0.872297 -2.84215 0
M  V30 2421 H 226.65 0.338134 -1.50652 0
M  V30 2422 H 228.608 3.32898 -2.40185 0
M  V30 2423 H 227.269 2.84047 -1.34074 0
M  V30 2424 H 226.462 3.49688 -3.62952 0
M  V30 2425 H 226.064 1.79892 -3.27895 0
M  V30 2426 H 228.356 4.28525 -5.2476 0
M  V30 2427 H 229.299 3.19923 -6.31708 0
M  V30 2428 H 229.707 3.3019 -4.57859 0
M  V30 2429 N 229.106 1.52395 0.401703 0
M  V30 2430 C 230.336 1.70429 1.1678 0
M  V30 2431 C 230.744 0.416702 1.84554 0
M  V30 2432 O 230.087 -0.617697 1.73003 0
M  V30 2433 C 230.149 2.78919 2.26814 0
M  V30 2434 C 229.813 4.20437 1.79113 0
M  V30 2435 C 230.81 5.04028 1.27482 0
M  V30 2436 C 228.495 4.66704 1.85722 0
M  V30 2437 C 230.489 6.31961 0.830913 0
M  V30 2438 C 228.176 5.94625 1.40942 0
M  V30 2439 C 229.174 6.77082 0.897128 0
M  V30 2440 O 228.862 8.02607 0.455822 0
M  V30 2441 H 228.594 0.574272 0.356634 0
M  V30 2442 H 231.148 1.99767 0.477724 0
M  V30 2443 H 229.378 2.44973 2.99207 0
M  V30 2444 H 231.067 2.8548 2.88541 0
M  V30 2445 H 231.833 4.69471 1.21744 0
M  V30 2446 H 227.712 4.0262 2.24539 0
M  V30 2447 H 231.256 6.96271 0.430368 0
M  V30 2448 H 227.153 6.28688 1.46362 0
M  V30 2449 H 227.921 8.16453 0.578457 0
M  V30 2450 N 230.584 -0.659388 1.43143 0
M  V30 2451 C 231.547 -1.75432 1.47501 0
M  V30 2452 C 232.547 -1.56707 0.360512 0
M  V30 2453 O 233.737 -1.62717 0.622002 0
M  V30 2454 C 230.869 -3.14239 1.32162 0
M  V30 2455 H 232.062 -1.7295 2.45006 0
M  V30 2456 H 229.615 -0.870469 1.29817 0
M  V30 2457 H 230.35 -3.22336 0.356401 0
M  V30 2458 H 230.135 -3.29235 2.12948 0
M  V30 2459 H 231.625 -3.94094 1.3813 0
M  V30 2460 N 232.062 -1.29571 -0.897171 0
M  V30 2461 C 233.009 -1.14916 -2.00158 0
M  V30 2462 C 233.979 -0.0418149 -1.66047 0
M  V30 2463 O 235.164 -0.209793 -1.89643 0
M  V30 2464 C 232.304 -0.834307 -3.34863 0
M  V30 2465 C 231.417 -2.02234 -3.8174 0
M  V30 2466 C 230.552 -1.64664 -5.05034 0
M  V30 2467 C 229.591 -2.80033 -5.44286 0
M  V30 2468 N 228.728 -2.42843 -6.58765 0
M  V30 2469 H 233.568 -2.09403 -2.12025 0
M  V30 2470 H 231.105 -1.042 -1.0383 0
M  V30 2471 H 233.063 -0.632436 -4.12379 0
M  V30 2472 H 231.693 0.0736656 -3.22716 0
M  V30 2473 H 230.745 -2.33583 -3.00238 0
M  V30 2474 H 232.057 -2.88673 -4.06779 0
M  V30 2475 H 231.211 -1.4078 -5.9014 0
M  V30 2476 H 229.95 -0.753766 -4.8184 0
M  V30 2477 H 228.955 -3.04596 -4.57713 0
M  V30 2478 H 230.18 -3.69989 -5.6946 0
M  V30 2479 H 228.126 -1.56046 -6.3717 0
M  V30 2480 H 228.043 -3.22815 -6.83613 0
M  V30 2481 H 229.311 -2.22285 -7.47134 0
M  V30 2482 N 233.54 1.10788 -1.12088 0
M  V30 2483 C 234.488 2.19111 -0.780587 0
M  V30 2484 C 235.482 1.67818 0.230961 0
M  V30 2485 O 236.688 1.79777 0.0895427 0
M  V30 2486 H 233.063 0.714477 -0.234578 0
M  V30 2487 H 235.034 2.45055 -1.70266 0
M  V30 2488 C 233.783 3.46818 -0.24747 0
M  V30 2489 H 233.106 3.86646 -1.01712 0
M  V30 2490 H 234.546 4.23973 -0.0476291 0
M  V30 2491 C 233.005 3.20968 1.02378 0
M  V30 2492 O 233.535 3.42298 2.10226 0
M  V30 2493 N 231.741 2.74658 0.949271 0
M  V30 2494 H 231.288 2.57501 0.0715173 0
M  V30 2495 H 231.246 2.57739 1.80049 0
M  V30 2496 N 235.018 0.912232 1.28515 0
M  V30 2497 C 236.265 0.544599 1.95039 0
M  V30 2498 C 236.593 -0.911435 1.71823 0
M  V30 2499 O 235.848 -1.66317 1.03137 0
M  V30 2500 C 236.147 0.798392 3.48368 0
M  V30 2501 C 235.813 2.23374 3.91682 0
M  V30 2502 C 234.475 2.62617 4.03219 0
M  V30 2503 C 236.827 3.16786 4.13879 0
M  V30 2504 C 234.155 3.94429 4.3433 0
M  V30 2505 C 236.507 4.48161 4.46469 0
M  V30 2506 C 235.171 4.8726 4.56217 0
M  V30 2507 H 234.441 0.199283 0.7137 0
M  V30 2508 H 237.088 1.15327 1.52879 0
M  V30 2509 H 235.393 0.106908 3.91654 0
M  V30 2510 H 237.09 0.493141 3.97956 0
M  V30 2511 H 233.68 1.91922 3.83228 0
M  V30 2512 H 237.864 2.87677 4.0442 0
M  V30 2513 H 233.12 4.24426 4.40082 0
M  V30 2514 H 237.294 5.20559 4.62592 0
M  V30 2515 H 234.921 5.89431 4.80078 0
M  V30 2516 N 236.496 -1.42363 0.676048 0
M  V30 2517 C 237.726 -2.05561 0.206967 0
M  V30 2518 C 238.134 -1.50887 -1.14148 0
M  V30 2519 O 237.477 -0.643933 -1.72044 0
M  V30 2520 C 237.539 -3.5944 0.0659508 0
M  V30 2521 C 237.203 -4.36812 1.34331 0
M  V30 2522 C 238.2 -4.67383 2.27704 0
M  V30 2523 C 235.885 -4.76429 1.59125 0
M  V30 2524 C 237.879 -5.36509 3.44147 0
M  V30 2525 C 235.566 -5.45294 2.75857 0
M  V30 2526 C 236.564 -5.75259 3.68193 0
M  V30 2527 O 236.252 -6.42712 4.82883 0
M  V30 2528 H 235.984 -0.668872 0.0979084 0
M  V30 2529 H 238.538 -1.83467 0.923531 0
M  V30 2530 H 236.768 -3.80197 -0.706204 0
M  V30 2531 H 238.457 -4.0427 -0.363418 0
M  V30 2532 H 239.223 -4.37275 2.09799 0
M  V30 2533 H 235.102 -4.52498 0.881258 0
M  V30 2534 H 238.646 -5.59814 4.16238 0
M  V30 2535 H 234.543 -5.7482 2.93688 0
M  V30 2536 H 235.311 -6.61204 4.82444 0
M  V30 2537 N 237.974 -0.419461 -1.51915 0
M  V30 2538 C 239.222 0.152637 -2.01523 0
M  V30 2539 C 239.543 1.44762 -1.30649 0
M  V30 2540 O 238.813 1.90997 -0.435535 0
M  V30 2541 H 237.393 0.0593966 -0.744635 0
M  V30 2542 H 240.055 -0.558073 -1.86739 0
M  V30 2543 H 239.151 0.341369 -3.10227 0
M  V30 2544 N 239.452 1.56882 -0.150215 0
M  V30 2545 C 240.7 1.9584 0.499105 0
M  V30 2546 C 241.021 1.03623 1.65188 0
M  V30 2547 O 240.291 0.0984084 1.95653 0
M  V30 2548 H 238.871 0.723119 0.187373 0
M  V30 2549 H 241.533 1.9358 -0.226466 0
M  V30 2550 H 240.629 2.99638 0.873122 0
M  V30 2551 N 240.93 -0.123565 1.57115 0
M  V30 2552 C 241.878 -1.17082 2.00984 0
M  V30 2553 C 242.872 -1.43136 0.906009 0
M  V30 2554 O 244.078 -1.43152 1.09121 0
M  V30 2555 H 240.453 -0.394653 0.64012 0
M  V30 2556 H 242.424 -0.774292 2.88179 0
M  V30 2557 C 241.173 -2.49057 2.42623 0
M  V30 2558 H 240.496 -2.29846 3.27125 0
M  V30 2559 H 241.936 -3.20906 2.7712 0
M  V30 2560 C 240.395 -3.11305 1.28805 0
M  V30 2561 O 240.925 -3.97171 0.60153 0
M  V30 2562 N 239.131 -2.71111 1.04628 0
M  V30 2563 H 238.678 -2.01382 1.60634 0
M  V30 2564 H 238.636 -3.1309 0.286685 0
M  V30 2565 N 242.408 -1.52605 -0.393616 0
M  V30 2566 C 243.656 -1.67093 -1.13685 0
M  V30 2567 C 243.977 -0.411011 -1.90619 0
M  V30 2568 O 243.247 0.574491 -1.87287 0
M  V30 2569 H 241.827 -0.615923 -0.422668 0
M  V30 2570 H 244.489 -1.89704 -0.447039 0
M  V30 2571 H 243.585 -2.51922 -1.84232 0
M  V30 2572 N 243.887 0.651787 -1.4349 0
M  V30 2573 C 245.136 1.40754 -1.44469 0
M  V30 2574 C 245.449 1.95463 -0.0731845 0
M  V30 2575 O 246.655 2.71471 0.0395721 0
M  V30 2576 C 245.111 2.54735 -2.5424 0
M  V30 2577 C 244.719 2.06628 -3.97504 0
M  V30 2578 C 246.463 3.32092 -2.64414 0
M  V30 2579 C 244.37 3.17829 -4.98737 0
M  V30 2580 H 243.3 0.528862 -0.53742 0
M  V30 2581 H 245.951 0.703365 -1.69485 0
M  V30 2582 H 244.333 3.2763 -2.22428 0
M  V30 2583 H 245.507 1.40734 -4.38783 0
M  V30 2584 H 243.822 1.42146 -3.91387 0
M  V30 2585 H 246.419 4.14952 -3.37223 0
M  V30 2586 H 246.762 3.80217 -1.69532 0
M  V30 2587 H 247.295 2.66279 -2.95534 0
M  V30 2588 H 244.034 2.74671 -5.95177 0
M  V30 2589 H 243.554 3.82429 -4.62069 0
M  V30 2590 H 245.233 3.82937 -5.21505 0
M  V30 2591 N 245.365 1.30045 0.890287 0
M  V30 2592 C 246.611 1.18737 1.64406 0
M  V30 2593 C 246.944 -0.258525 1.92472 0
M  V30 2594 O 246.219 -1.18562 1.54186 0
M  V30 2595 C 246.502 2.01087 2.98724 0
M  V30 2596 C 246.355 3.53867 2.77665 0
M  V30 2597 C 247.674 1.84457 3.9958 0
M  V30 2598 H 244.793 0.432698 0.596608 0
M  V30 2599 H 247.435 1.5962 1.0306 0
M  V30 2600 H 245.585 1.66349 3.51084 0
M  V30 2601 H 247.257 3.98637 2.32133 0
M  V30 2602 H 245.5 3.78318 2.12269 0
M  V30 2603 H 246.171 4.06772 3.7315 0
M  V30 2604 H 248.647 2.14817 3.56361 0
M  V30 2605 H 247.523 2.44411 4.91482 0
M  V30 2606 H 247.784 0.802276 4.3476 0
M  V30 2607 N 246.843 -1.10192 1.12674 0
M  V30 2608 C 248.091 -1.81845 0.881861 0
M  V30 2609 C 248.412 -1.85737 -0.593867 0
M  V30 2610 O 247.682 -1.33724 -1.4316 0
M  V30 2611 H 246.262 -0.673432 0.323261 0
M  V30 2612 H 248.924 -1.33316 1.42172 0
M  V30 2613 H 248.02 -2.85288 1.2656 0
M  V30 2614 N 248.321 -0.919034 -1.28029 0
M  V30 2615 C 249.284 -0.416182 -2.2539 0
M  V30 2616 C 250.284 0.460438 -1.54067 0
M  V30 2617 O 251.474 0.262744 -1.72207 0
M  V30 2618 C 248.606 0.402707 -3.38513 0
M  V30 2619 H 249.799 -1.27629 -2.71387 0
M  V30 2620 H 247.352 -0.698919 -1.39803 0
M  V30 2621 H 248.087 1.282 -2.97885 0
M  V30 2622 H 247.872 -0.225698 -3.9145 0
M  V30 2623 H 249.362 0.745191 -4.10897 0
M  V30 2624 N 249.799 1.42003 -0.683588 0
M  V30 2625 C 250.731 2.29183 0.0283068 0
M  V30 2626 C 251.744 1.4415 0.756611 0
M  V30 2627 O 252.933 1.67779 0.609306 0
M  V30 2628 C 250.033 3.21765 1.06398 0
M  V30 2629 C 249.206 4.35496 0.407723 0
M  V30 2630 C 248.265 5.08737 1.34437 0
M  V30 2631 O 247.291 5.62948 0.841318 0
M  V30 2632 N 248.493 5.15075 2.67728 0
M  V30 2633 H 251.258 2.9092 -0.720105 0
M  V30 2634 H 248.819 1.53025 -0.528682 0
M  V30 2635 H 250.811 3.6763 1.69204 0
M  V30 2636 H 249.381 2.61418 1.71404 0
M  V30 2637 H 248.601 3.92165 -0.400012 0
M  V30 2638 H 249.889 5.08776 -0.0490956 0
M  V30 2639 H 249.287 4.72457 3.11129 0
M  V30 2640 H 247.844 5.64556 3.2576 0
M  V30 2641 N 251.277 0.427512 1.51691 0
M  V30 2642 C 252.523 -0.142439 2.02299 0
M  V30 2643 C 252.856 -1.43214 1.31162 0
M  V30 2644 O 252.131 -1.89833 0.423511 0
M  V30 2645 C 252.414 -0.371301 3.58181 0
M  V30 2646 C 252.267 0.936358 4.39946 0
M  V30 2647 C 253.586 -1.14542 4.24933 0
M  V30 2648 H 250.705 -0.0502937 0.735282 0
M  V30 2649 H 253.347 0.564584 1.81418 0
M  V30 2650 H 251.497 -0.973559 3.76104 0
M  V30 2651 H 253.169 1.57184 4.33694 0
M  V30 2652 H 251.412 1.5432 4.05423 0
M  V30 2653 H 252.083 0.730388 5.47147 0
M  V30 2654 H 254.559 -0.635362 4.11221 0
M  V30 2655 H 253.435 -1.27431 5.33903 0
M  V30 2656 H 253.696 -2.17093 3.85127 0
M  V30 2657 N 252.755 -1.56801 0.158532 0
M  V30 2658 C 254.166 -1.83189 -0.360366 0
M  V30 2659 C 254.517 -1.07778 -1.63946 0
M  V30 2660 O 253.642 -0.326718 -2.13919 0
M  V30 2661 C 254.237 -3.32297 -0.660595 0
M  V30 2662 C 252.796 -3.59227 -1.12398 0
M  V30 2663 C 251.943 -2.76877 -0.153097 0
M  V30 2664 H 254.894 -1.54008 0.383031 0
M  V30 2665 H 254.915 -3.4908 -1.51405 0
M  V30 2666 H 254.427 -3.87156 0.270527 0
M  V30 2667 H 252.528 -3.09766 -2.07064 0
M  V30 2668 H 252.641 -4.67632 -1.04197 0
M  V30 2669 H 251.005 -2.46319 -0.647983 0
M  V30 2670 H 251.788 -3.34511 0.77182 0
M  V30 2671 N 254.233 0.115231 -1.57178 0
M  V30 2672 C 255.163 1.1423 -2.03651 0
M  V30 2673 C 256.144 1.42967 -0.921655 0
M  V30 2674 O 257.329 1.53343 -1.19162 0
M  V30 2675 C 254.459 2.4675 -2.44401 0
M  V30 2676 C 253.413 2.32467 -3.59365 0
M  V30 2677 C 252.739 3.69984 -3.86026 0
M  V30 2678 C 254.039 1.78203 -4.90959 0
M  V30 2679 H 255.733 0.755749 -2.89705 0
M  V30 2680 H 253.279 0.362093 -1.39373 0
M  V30 2681 H 255.232 3.18854 -2.75517 0
M  V30 2682 H 253.956 2.87302 -1.55322 0
M  V30 2683 H 252.615 1.62811 -3.28463 0
M  V30 2684 H 252.263 4.08028 -2.94147 0
M  V30 2685 H 251.963 3.61279 -4.63412 0
M  V30 2686 H 253.487 4.43587 -4.19599 0
M  V30 2687 H 254.901 2.40128 -5.20587 0
M  V30 2688 H 253.298 1.8031 -5.72371 0
M  V30 2689 H 254.368 0.739876 -4.79222 0
M  V30 2690 N 255.711 1.52812 0.385517 0
M  V30 2691 C 256.959 1.67694 1.12797 0
M  V30 2692 C 257.28 0.421115 1.90399 0
M  V30 2693 O 256.55 -0.564551 1.87589 0
M  V30 2694 H 255.13 0.618155 0.419396 0
M  V30 2695 H 257.792 1.89938 0.436972 0
M  V30 2696 H 256.888 2.52896 1.82894 0
M  V30 2697 N 257.189 -0.644168 1.43834 0
M  V30 2698 C 258.152 -1.73857 1.49353 0
M  V30 2699 C 259.152 -1.56315 0.377112 0
M  V30 2700 O 260.342 -1.62048 0.639226 0
M  V30 2701 C 257.474 -3.12819 1.35488 0
M  V30 2702 H 258.667 -1.70342 2.46827 0
M  V30 2703 H 256.22 -0.856652 1.30733 0
M  V30 2704 H 256.955 -3.2194 0.390569 0
M  V30 2705 H 256.74 -3.26958 2.16428 0
M  V30 2706 H 258.23 -3.92606 1.42302 0
M  V30 2707 N 258.668 -1.30515 -0.883378 0
M  V30 2708 C 259.916 -1.19194 -1.63209 0
M  V30 2709 C 260.237 0.253205 -1.93349 0
M  V30 2710 O 259.507 1.17025 -1.57105 0
M  V30 2711 H 258.087 -0.438148 -0.605009 0
M  V30 2712 H 260.749 -1.63663 -1.05832 0
M  V30 2713 H 259.845 -1.75396 -2.58153 0
M  V30 2714 N 260.146 1.09593 -1.13257 0
M  V30 2715 C 261.395 1.81105 -0.887917 0
M  V30 2716 C 261.708 1.86563 0.587672 0
M  V30 2717 O 262.914 2.54367 0.949204 0
M  V30 2718 C 261.37 3.25338 -1.53895 0
M  V30 2719 C 260.978 3.28151 -3.04994 0
M  V30 2720 C 262.722 4.01617 -1.37492 0
M  V30 2721 C 260.629 4.66897 -3.6299 0
M  V30 2722 H 259.559 0.678661 -0.328534 0
M  V30 2723 H 262.21 1.23183 -1.36008 0
M  V30 2724 H 260.592 3.8331 -0.994446 0
M  V30 2725 H 261.766 2.79953 -3.66009 0
M  V30 2726 H 260.081 2.65361 -3.20893 0
M  V30 2727 H 262.678 5.04119 -1.78235 0
M  V30 2728 H 263.021 4.15072 -0.31957 0
M  V30 2729 H 263.554 3.50082 -1.88912 0
M  V30 2730 H 260.293 4.58643 -4.68323 0
M  V30 2731 H 259.813 5.15426 -3.06752 0
M  V30 2732 H 261.492 5.3587 -3.62563 0
M  V30 2733 N 261.624 0.925811 1.2754 0
M  V30 2734 C 262.587 0.428129 2.25166 0
M  V30 2735 C 263.587 -0.452261 1.54309 0
M  V30 2736 O 264.777 -0.253608 1.72344 0
M  V30 2737 C 261.909 -0.384749 3.38722 0
M  V30 2738 H 263.102 1.29066 2.70706 0
M  V30 2739 H 260.655 0.706323 1.3943 0
M  V30 2740 H 261.39 -1.26618 2.98561 0
M  V30 2741 H 261.175 0.246454 3.91325 0
M  V30 2742 H 262.665 -0.723389 4.11287 0
M  V30 2743 N 263.102 -1.41638 0.69111 0
M  V30 2744 C 264.032 -2.3347 0.037248 0
M  V30 2745 C 265.013 -1.51575 -0.771947 0
M  V30 2746 O 266.198 -1.80126 -0.72582 0
M  V30 2747 C 263.328 -3.35354 -0.903064 0
M  V30 2748 C 262.282 -4.27526 -0.201288 0
M  V30 2749 C 261.608 -5.19747 -1.25565 0
M  V30 2750 C 262.908 -5.13959 0.929689 0
M  V30 2751 H 264.602 -2.88397 0.804227 0
M  V30 2752 H 262.148 -1.38669 0.388189 0
M  V30 2753 H 264.101 -3.98519 -1.36969 0
M  V30 2754 H 262.825 -2.78767 -1.70166 0
M  V30 2755 H 261.484 -3.65779 0.245265 0
M  V30 2756 H 261.132 -4.59479 -2.04666 0
M  V30 2757 H 260.832 -5.8225 -0.791128 0
M  V30 2758 H 262.356 -5.85789 -1.72288 0
M  V30 2759 H 263.77 -5.70718 0.543546 0
M  V30 2760 H 262.167 -5.85379 1.32103 0
M  V30 2761 H 263.237 -4.51389 1.77133 0
M  V30 2762 N 264.58 -0.43555 -1.51462 0
M  V30 2763 C 265.543 0.365137 -2.26273 0
M  V30 2764 C 266.543 0.951227 -1.29647 0
M  V30 2765 O 267.733 0.825958 -1.53374 0
M  V30 2766 C 264.865 1.51645 -3.05314 0
M  V30 2767 H 266.058 -0.290474 -2.9849 0
M  V30 2768 H 263.611 -0.188676 -1.55157 0
M  V30 2769 H 264.346 2.20816 -2.3751 0
M  V30 2770 H 264.131 1.10238 -3.76284 0
M  V30 2771 H 265.621 2.08218 -3.61987 0
M  V30 2772 N 266.058 1.56714 -0.166846 0
M  V30 2773 C 267.298 1.98641 0.481763 0
M  V30 2774 C 267.662 1.05038 1.6072 0
M  V30 2775 O 268.863 1.36087 2.31805 0
M  V30 2776 C 267.134 3.44362 0.956517 0
M  V30 2777 S 268.693 4.08317 1.60694 0
M  V30 2778 H 265.511 0.693873 0.155116 0
M  V30 2779 H 268.113 1.93719 -0.263251 0
M  V30 2780 H 266.817 4.10204 0.126936 0
M  V30 2781 H 266.348 3.53041 1.73568 0
M  V30 2782 H 268.363 4.02999 2.89494 0
M  V30 2783 N 267.536 -0.106894 1.57237 0
M  V30 2784 C 268.483 -1.13049 2.01217 0
M  V30 2785 C 269.453 -1.40471 0.886403 0
M  V30 2786 O 270.638 -1.52133 1.15153 0
M  V30 2787 C 267.778 -2.4487 2.43172 0
M  V30 2788 C 266.891 -2.24281 3.69218 0
M  V30 2789 C 266.026 -3.49417 4.00101 0
M  V30 2790 C 265.065 -3.24038 5.19294 0
M  V30 2791 N 264.202 -4.41409 5.45988 0
M  V30 2792 H 269.042 -0.748456 2.88448 0
M  V30 2793 H 266.579 -0.358054 1.42676 0
M  V30 2794 H 268.537 -3.21786 2.65537 0
M  V30 2795 H 267.167 -2.80944 1.58967 0
M  V30 2796 H 266.219 -1.38224 3.54398 0
M  V30 2797 H 267.531 -2.01512 4.56283 0
M  V30 2798 H 266.685 -4.34746 4.2318 0
M  V30 2799 H 265.424 -3.75229 3.11535 0
M  V30 2800 H 264.429 -2.37102 4.96047 0
M  V30 2801 H 265.654 -2.99584 6.09447 0
M  V30 2802 H 263.6 -4.67319 4.60379 0
M  V30 2803 H 263.517 -4.21788 6.274 0
M  V30 2804 H 264.785 -5.27836 5.73593 0
M  V30 2805 N 269.014 -1.53014 -0.377408 0
M  V30 2806 C 270.244 -1.72265 -1.14054 0
M  V30 2807 C 270.652 -0.44601 -1.83868 0
M  V30 2808 O 269.995 0.590095 -1.73964 0
M  V30 2809 C 270.057 -2.82492 -2.22348 0
M  V30 2810 C 269.721 -4.23233 -1.72402 0
M  V30 2811 C 270.718 -5.05992 -1.19448 0
M  V30 2812 C 268.403 -4.696 -1.78273 0
M  V30 2813 C 270.397 -6.33203 -0.730268 0
M  V30 2814 C 268.084 -5.96792 -1.31464 0
M  V30 2815 C 269.082 -6.78424 -0.789297 0
M  V30 2816 O 268.77 -8.0323 -0.328077 0
M  V30 2817 H 268.502 -0.579873 -0.347453 0
M  V30 2818 H 271.056 -2.00502 -0.445882 0
M  V30 2819 H 269.286 -2.49702 -2.95272 0
M  V30 2820 H 270.975 -2.90034 -2.83963 0
M  V30 2821 H 271.741 -4.71349 -1.14259 0
M  V30 2822 H 267.62 -4.06142 -2.18106 0
M  V30 2823 H 271.164 -6.96868 -0.319542 0
M  V30 2824 H 267.061 -6.30937 -1.36342 0
M  V30 2825 H 267.829 -8.1727 -0.448493 0
M  V30 2826 N 270.492 0.636531 -1.44174 0
M  V30 2827 C 271.44 1.76995 -1.50915 0
M  V30 2828 C 272.434 1.65053 -0.381295 0
M  V30 2829 O 273.64 1.71197 -0.55601 0
M  V30 2830 H 270.015 0.584247 -0.473455 0
M  V30 2831 H 271.986 1.68432 -2.4632 0
M  V30 2832 C 270.735 3.15314 -1.46534 0
M  V30 2833 H 270.058 3.25149 -2.32633 0
M  V30 2834 H 271.498 3.9453 -1.55312 0
M  V30 2835 C 269.957 3.3639 -0.185305 0
M  V30 2836 O 270.487 3.94699 0.746688 0
M  V30 2837 N 268.693 2.9046 -0.0901606 0
M  V30 2838 H 268.24 2.43193 -0.849416 0
M  V30 2839 H 268.198 3.04937 0.765553 0
M  V30 2840 N 271.97 1.30982 0.876444 0
M  V30 2841 C 273.218 1.20058 1.62575 0
M  V30 2842 C 273.539 -0.242947 1.93481 0
M  V30 2843 O 272.809 -1.1619 1.57724 0
M  V30 2844 H 271.389 0.44135 0.602677 0
M  V30 2845 H 274.051 1.64222 1.04962 0
M  V30 2846 H 273.147 1.76762 2.57219 0
M  V30 2847 N 273.449 -1.08991 1.13837 0
M  V30 2848 C 274.396 -2.15748 0.819835 0
M  V30 2849 C 275.366 -1.64636 -0.220026 0
M  V30 2850 O 276.551 -1.90582 -0.0912757 0
M  V30 2851 C 273.691 -3.4382 0.296913 0
M  V30 2852 C 272.804 -4.0881 1.39636 0
M  V30 2853 C 271.939 -5.24655 0.831314 0
M  V30 2854 C 270.978 -5.81575 1.90886 0
M  V30 2855 N 270.115 -6.88774 1.36142 0
M  V30 2856 H 274.955 -2.42338 1.73426 0
M  V30 2857 H 272.492 -1.18935 0.865613 0
M  V30 2858 H 274.45 -4.17193 -0.0244339 0
M  V30 2859 H 273.08 -3.17535 -0.580628 0
M  V30 2860 H 272.132 -3.33258 1.83422 0
M  V30 2861 H 273.444 -4.47141 2.21058 0
M  V30 2862 H 272.598 -6.04942 0.461515 0
M  V30 2863 H 271.337 -4.87698 -0.013932 0
M  V30 2864 H 270.342 -4.99946 2.28767 0
M  V30 2865 H 271.567 -6.20592 2.75758 0
M  V30 2866 H 269.513 -6.53788 0.538254 0
M  V30 2867 H 269.43 -7.25898 2.11208 0
M  V30 2868 H 270.698 -7.72806 1.01933 0
M  V30 2869 N 274.927 -0.932562 -1.27047 0
M  V30 2870 C 276.204 -0.49377 -1.89265 0
M  V30 2871 C 276.584 1.02833 -1.8436 0
M  V30 2872 O 275.932 1.88461 -1.29209 0
M  V30 2873 C 276.142 -1.04536 -3.32976 0
M  V30 2874 C 277.49 -1.10879 -4.09867 0
M  V30 2875 O 278.514 -0.995327 -3.42011 0
M  V30 2876 O 277.373 -1.28417 -5.31198 0
M  V30 2877 H 274.467 -0.159596 -0.811454 0
M  V30 2878 H 277.013 -1.02457 -1.3528 0
M  V30 2879 H 275.785 -2.08913 -3.30864 0
M  V30 2880 H 275.408 -0.496494 -3.94488 0
M  V30 2881 N 276.405 1.4127 -0.698611 0
M  V30 2882 C 277.315 2.34573 -0.0357891 0
M  V30 2883 C 278.331 1.56393 0.762701 0
M  V30 2884 O 279.507 1.8886 0.699564 0
M  V30 2885 C 276.572 3.35159 0.887089 0
M  V30 2886 C 275.633 4.29225 0.0804634 0
M  V30 2887 C 274.866 5.25006 0.959387 0
M  V30 2888 O 275.089 5.26314 2.19886 0
M  V30 2889 O 274.023 6.00519 0.407439 0
M  V30 2890 H 277.849 2.92838 -0.804957 0
M  V30 2891 H 275.434 1.42175 -0.458966 0
M  V30 2892 H 277.316 3.9689 1.41621 0
M  V30 2893 H 275.991 2.79333 1.6357 0
M  V30 2894 H 274.898 3.70833 -0.493328 0
M  V30 2895 H 276.231 4.88157 -0.629547 0
M  V30 2896 N 277.883 0.443576 1.51229 0
M  V30 2897 C 279.129 -0.120975 2.02439 0
M  V30 2898 C 279.462 -1.41815 1.32674 0
M  V30 2899 O 278.737 -1.89373 0.443622 0
M  V30 2900 C 279.02 -0.333291 3.58554 0
M  V30 2901 C 278.873 0.982968 4.38928 0
M  V30 2902 C 280.192 -1.10028 4.26124 0
M  V30 2903 H 277.311 -0.0424923 0.735774 0
M  V30 2904 H 279.953 0.583794 1.80809 0
M  V30 2905 H 278.103 -0.933614 3.77115 0
M  V30 2906 H 279.775 1.61775 4.32003 0
M  V30 2907 H 278.018 1.58611 4.03763 0
M  V30 2908 H 278.689 0.788379 5.46341 0
M  V30 2909 H 281.165 -0.591711 4.11871 0
M  V30 2910 H 280.041 -1.21761 5.35225 0
M  V30 2911 H 280.302 -2.12996 3.87408 0
M  V30 2912 N 279.361 -1.56624 0.175154 0
M  V30 2913 C 280.601 -1.98894 -0.471221 0
M  V30 2914 C 280.965 -1.05889 -1.60161 0
M  V30 2915 O 282.166 -1.37315 -2.3108 0
M  V30 2916 C 280.437 -3.44865 -0.938241 0
M  V30 2917 S 281.996 -4.09164 -1.58526 0
M  V30 2918 H 278.814 -0.694686 -0.151434 0
M  V30 2919 H 281.416 -1.93577 0.27352 0
M  V30 2920 H 280.12 -4.10265 -0.10518 0
M  V30 2921 H 279.651 -3.53956 -1.71693 0
M  V30 2922 H 281.666 -4.04528 -2.87352 0
M  V30 2923 N 280.839 0.0985539 -1.57292 0
M  V30 2924 C 281.769 1.12064 -2.04851 0
M  V30 2925 C 282.75 1.41981 -0.936767 0
M  V30 2926 O 283.935 1.52071 -1.20781 0
M  V30 2927 C 281.065 2.44144 -2.47004 0
M  V30 2928 C 280.019 2.28643 -3.6181 0
M  V30 2929 C 279.345 3.65869 -3.89929 0
M  V30 2930 C 280.645 1.72986 -4.92822 0
M  V30 2931 H 282.339 0.724979 -2.9049 0
M  V30 2932 H 279.885 0.34729 -1.39749 0
M  V30 2933 H 281.838 3.15914 -2.78884 0
M  V30 2934 H 280.562 2.85639 -1.5836 0
M  V30 2935 H 279.221 1.59318 -3.30172 0
M  V30 2936 H 278.869 4.04885 -2.98458 0
M  V30 2937 H 278.569 3.56344 -4.67218 0
M  V30 2938 H 280.093 4.39112 -4.2428 0
M  V30 2939 H 281.507 2.34593 -5.23105 0
M  V30 2940 H 279.904 1.74229 -5.74251 0
M  V30 2941 H 280.974 0.689007 -4.7998 0
M  V30 2942 N 282.317 1.53212 0.369288 0
M  V30 2943 C 283.545 1.73119 1.13303 0
M  V30 2944 C 283.96 0.458455 1.83149 0
M  V30 2945 O 283.317 -0.568403 1.73423 0
M  V30 2946 C 283.368 2.89413 2.16616 0
M  V30 2947 O 283.089 4.11761 1.49614 0
M  V30 2948 C 284.59 3.21161 3.05566 0
M  V30 2949 H 281.81 0.579107 0.338934 0
M  V30 2950 H 284.354 1.99942 0.429338 0
M  V30 2951 H 282.509 2.64994 2.82589 0
M  V30 2952 H 282.923 4.76858 2.18419 0
M  V30 2953 H 284.397 4.05949 3.74045 0
M  V30 2954 H 284.874 2.36369 3.70171 0
M  V30 2955 H 285.48 3.47492 2.45213 0
M  V30 2956 N 283.795 -0.628877 1.44509 0
M  V30 2957 C 284.725 -1.75187 1.54376 0
M  V30 2958 C 285.706 -1.65411 0.396618 0
M  V30 2959 O 286.891 -1.84137 0.617031 0
M  V30 2960 C 284.021 -3.13725 1.48976 0
M  V30 2961 C 282.975 -3.38291 2.62189 0
M  V30 2962 C 282.301 -4.76883 2.41841 0
M  V30 2963 C 283.601 -3.30632 4.04326 0
M  V30 2964 H 285.295 -1.67187 2.48373 0
M  V30 2965 H 282.841 -0.802909 1.19538 0
M  V30 2966 H 284.794 -3.92064 1.54478 0
M  V30 2967 H 283.518 -3.22515 0.514961 0
M  V30 2968 H 282.177 -2.62334 2.56079 0
M  V30 2969 H 281.825 -4.82378 1.42548 0
M  V30 2970 H 281.525 -4.94278 3.17747 0
M  V30 2971 H 283.049 -5.57449 2.49165 0
M  V30 2972 H 284.463 -3.98873 4.11793 0
M  V30 2973 H 282.86 -3.59561 4.80454 0
M  V30 2974 H 283.93 -2.28404 4.27738 0
M  V30 2975 N 285.273 -1.31445 -0.869486 0
M  V30 2976 C 286.503 -1.23942 -1.65294 0
M  V30 2977 C 286.911 0.197561 -1.88166 0
M  V30 2978 O 286.254 1.14019 -1.44033 0
M  V30 2979 C 286.316 -1.91385 -3.04322 0
M  V30 2980 C 285.98 -3.40726 -3.04557 0
M  V30 2981 C 286.977 -4.36464 -2.82481 0
M  V30 2982 C 284.662 -3.82425 -3.25663 0
M  V30 2983 C 286.656 -5.71876 -2.8149 0
M  V30 2984 C 284.343 -5.1795 -3.243 0
M  V30 2985 C 285.341 -6.12486 -3.02241 0
M  V30 2986 O 285.029 -7.45534 -3.00724 0
M  V30 2987 H 284.761 -0.429459 -0.522054 0
M  V30 2988 H 287.315 -1.73873 -1.0935 0
M  V30 2989 H 285.545 -1.36004 -3.61994 0
M  V30 2990 H 287.234 -1.77791 -3.64891 0
M  V30 2991 H 288 -4.05576 -2.65956 0
M  V30 2992 H 283.879 -3.09274 -3.41863 0
M  V30 2993 H 287.423 -6.45638 -2.64191 0
M  V30 2994 H 283.32 -5.48473 -3.40365 0
M  V30 2995 H 284.088 -7.54713 -3.16782 0
M  V30 2996 N 286.751 1.08385 -1.14413 0
M  V30 2997 C 287.999 1.80419 -0.910679 0
M  V30 2998 C 288.32 1.86658 0.564243 0
M  V30 2999 O 287.59 1.35985 1.41014 0
M  V30 3000 H 286.17 0.668204 -0.333934 0
M  V30 3001 H 288.832 1.31037 -1.44275 0
M  V30 3002 H 287.928 2.83238 -1.31082 0
M  V30 3003 N 288.23 0.939286 1.26551 0
M  V30 3004 C 289.507 0.5038 1.89001 0
M  V30 3005 C 289.887 -1.01854 1.84903 0
M  V30 3006 O 289.235 -1.87773 1.30206 0
M  V30 3007 C 289.445 1.063 3.32417 0
M  V30 3008 C 290.793 1.13051 4.09273 0
M  V30 3009 O 291.817 1.01345 3.41479 0
M  V30 3010 O 290.676 1.31233 5.30509 0
M  V30 3011 H 287.77 0.163897 0.810597 0
M  V30 3012 H 290.316 1.03173 1.34735 0
M  V30 3013 H 289.088 2.10665 3.29752 0
M  V30 3014 H 288.711 0.517408 3.94219 0
M  V30 3015 N 289.708 -1.40897 0.706093 0
M  V30 3016 C 290.956 -2.00657 0.241054 0
M  V30 3017 C 291.277 -1.56241 -1.16678 0
M  V30 3018 O 290.547 -0.79765 -1.78926 0
M  V30 3019 H 289.127 -0.742018 0.0861308 0
M  V30 3020 H 291.789 -1.72372 0.909604 0
M  V30 3021 H 290.885 -3.10958 0.266705 0
M  V30 3022 N 291.186 -0.45159 -1.50991 0
M  V30 3023 C 292.149 0.341117 -2.26647 0
M  V30 3024 C 293.149 0.937422 -1.30649 0
M  V30 3025 O 294.339 0.809644 -1.54241 0
M  V30 3026 C 291.471 1.48398 -3.06905 0
M  V30 3027 H 292.664 -0.322117 -2.98165 0
M  V30 3028 H 290.217 -0.205122 -1.54948 0
M  V30 3029 H 290.952 2.18284 -2.39838 0
M  V30 3030 H 290.737 1.06241 -3.77432 0
M  V30 3031 H 292.227 2.04367 -3.64176 0
M  V30 3032 N 292.664 1.56529 -0.183458 0
M  V30 3033 C 293.627 2.17324 0.728223 0
M  V30 3034 C 294.627 1.12453 1.14939 0
M  V30 3035 O 295.817 1.37902 1.06437 0
M  V30 3036 C 292.949 2.76591 1.99274 0
M  V30 3037 H 294.142 2.99241 0.198772 0
M  V30 3038 H 291.695 1.5616 0.0661391 0
M  V30 3039 H 292.43 1.98441 2.56499 0
M  V30 3040 H 292.215 3.5335 1.69959 0
M  V30 3041 H 293.705 3.23311 2.6431 0
M  V30 3042 N 294.142 -0.090211 1.57342 0
M  V30 3043 C 295.09 -1.12792 2.03422 0
M  V30 3044 C 296.084 -1.41182 0.936166 0
M  V30 3045 O 297.29 -1.40805 1.12133 0
M  V30 3046 H 293.665 -0.380986 0.648347 0
M  V30 3047 H 295.636 -0.71299 2.89757 0
M  V30 3048 C 294.385 -2.43855 2.47851 0
M  V30 3049 H 293.708 -2.22855 3.31927 0
M  V30 3050 H 295.148 -3.14955 2.83865 0
M  V30 3051 C 293.607 -3.08503 1.3538 0
M  V30 3052 O 294.137 -3.95805 0.685641 0
M  V30 3053 N 292.343 -2.68831 1.10355 0
M  V30 3054 H 291.89 -1.97929 1.64869 0
M  V30 3055 H 291.848 -3.12412 0.353031 0
M  V30 3056 N 295.62 -1.53406 -0.361157 0
M  V30 3057 C 296.552 -1.76446 -1.46286 0
M  V30 3058 C 297.565 -0.645322 -1.49464 0
M  V30 3059 O 298.754 -0.921681 -1.52864 0
M  V30 3060 C 295.854 -1.83332 -2.85031 0
M  V30 3061 C 295.027 -3.13033 -3.05498 0
M  V30 3062 C 294.086 -3.11104 -4.24383 0
M  V30 3063 O 293.112 -3.84888 -4.19344 0
M  V30 3064 N 294.314 -2.32234 -5.32022 0
M  V30 3065 H 297.079 -2.71508 -1.26899 0
M  V30 3066 H 294.64 -1.52238 -0.550915 0
M  V30 3067 H 296.632 -1.79514 -3.62708 0
M  V30 3068 H 295.202 -0.955342 -2.97644 0
M  V30 3069 H 294.422 -3.30119 -2.15442 0
M  V30 3070 H 295.71 -3.9874 -3.16044 0
M  V30 3071 H 295.108 -1.71807 -5.38979 0
M  V30 3072 H 293.665 -2.3423 -6.08259 0
M  V30 3073 N 297.098 0.621204 -1.44841 0
M  V30 3074 C 298.346 1.37783 -1.47852 0
M  V30 3075 C 298.667 1.94653 -0.116224 0
M  V30 3076 O 297.937 1.76367 0.852737 0
M  V30 3077 H 296.517 0.511453 -0.544449 0
M  V30 3078 H 299.179 0.730446 -1.80694 0
M  V30 3079 H 298.275 2.20414 -2.20961 0
M  V30 3080 N 298.576 1.31904 0.862503 0
M  V30 3081 C 299.508 1.16005 1.97675 0
M  V30 3082 C 300.521 0.0971234 1.6251 0
M  V30 3083 O 301.71 0.345337 1.75128 0
M  V30 3084 C 298.81 0.751791 3.30456 0
M  V30 3085 C 297.983 1.90133 3.93914 0
M  V30 3086 C 297.042 1.4779 5.05019 0
M  V30 3087 O 296.068 2.18872 5.25437 0
M  V30 3088 N 297.27 0.369491 5.79323 0
M  V30 3089 H 300.035 2.11982 2.11857 0
M  V30 3090 H 297.596 1.24337 1.03691 0
M  V30 3091 H 299.588 0.451084 4.02178 0
M  V30 3092 H 298.158 -0.116593 3.12382 0
M  V30 3093 H 297.378 2.36896 3.15078 0
M  V30 3094 H 298.666 2.67111 4.33047 0
M  V30 3095 H 298.064 -0.222299 5.65263 0
M  V30 3096 H 296.621 0.128354 6.51674 0
M  V30 3097 N 300.054 -1.07777 1.14986 0
M  V30 3098 C 301.303 -1.79669 0.916617 0
M  V30 3099 C 301.616 -1.87474 -0.557917 0
M  V30 3100 O 302.822 -2.55845 -0.908617 0
M  V30 3101 C 301.278 -3.22848 1.59051 0
M  V30 3102 C 300.886 -3.23257 3.10176 0
M  V30 3103 C 302.63 -3.99379 1.43864 0
M  V30 3104 C 300.537 -4.61063 3.70372 0
M  V30 3105 H 299.467 -0.673349 0.33929 0
M  V30 3106 H 302.118 -1.21003 1.37951 0
M  V30 3107 H 300.5 -3.8168 1.0553 0
M  V30 3108 H 301.674 -2.74095 3.70417 0
M  V30 3109 H 299.989 -2.60222 3.25074 0
M  V30 3110 H 302.586 -5.0122 1.86232 0
M  V30 3111 H 302.929 -4.14511 0.385564 0
M  V30 3112 H 303.462 -3.47032 1.94457 0
M  V30 3113 H 300.201 -4.51135 4.7556 0
M  V30 3114 H 299.721 -5.1048 3.14913 0
M  V30 3115 H 301.4 -5.30034 3.71043 0
M  V30 3116 N 301.532 -0.945985 -1.26051 0
M  V30 3117 C 302.779 -0.596118 -1.93527 0
M  V30 3118 C 303.107 0.865559 -1.74179 0
M  V30 3119 O 302.362 1.63524 -1.0751 0
M  V30 3120 C 302.661 -0.890475 -3.46129 0
M  V30 3121 C 302.327 -2.3368 -3.85622 0
M  V30 3122 C 300.989 -2.73216 -3.96114 0
M  V30 3123 C 303.341 -3.27648 -4.05334 0
M  V30 3124 C 300.669 -4.05806 -4.2372 0
M  V30 3125 C 303.021 -4.59841 -4.3443 0
M  V30 3126 C 301.685 -4.99185 -4.43137 0
M  V30 3127 H 300.955 -0.218135 -0.708165 0
M  V30 3128 H 303.602 -1.1934 -1.49768 0
M  V30 3129 H 301.907 -0.210711 -3.91233 0
M  V30 3130 H 303.604 -0.598478 -3.96509 0
M  V30 3131 H 300.194 -2.02015 -3.78005 0
M  V30 3132 H 304.378 -2.98298 -3.96651 0
M  V30 3133 H 299.634 -4.35945 -4.28675 0
M  V30 3134 H 303.808 -5.32641 -4.48628 0
M  V30 3135 H 301.435 -6.01952 -4.64282 0
M  V30 3136 N 303.011 1.40521 -0.713556 0
M  V30 3137 C 303.921 2.34522 -0.0606667 0
M  V30 3138 C 304.937 1.57193 0.74607 0
M  V30 3139 O 306.113 1.89591 0.679493 0
M  V30 3140 C 303.178 3.36081 0.851491 0
M  V30 3141 C 302.239 4.29286 0.0349339 0
M  V30 3142 C 301.472 5.25994 0.903649 0
M  V30 3143 O 301.695 5.28616 2.14292 0
M  V30 3144 O 300.629 6.00918 0.343723 0
M  V30 3145 H 304.455 2.91968 -0.835972 0
M  V30 3146 H 302.04 1.41681 -0.47402 0
M  V30 3147 H 303.922 3.98369 1.37404 0
M  V30 3148 H 302.597 2.81052 1.60598 0
M  V30 3149 H 301.504 3.70289 -0.532633 0
M  V30 3150 H 302.837 4.87462 -0.681287 0
M  V30 3151 N 304.489 0.459591 1.5075 0
M  V30 3152 C 305.452 -0.329093 2.26825 0
M  V30 3153 C 306.452 -0.930481 1.31144 0
M  V30 3154 O 307.642 -0.801453 1.54669 0
M  V30 3155 C 304.774 -1.46768 3.07688 0
M  V30 3156 H 305.967 0.337924 2.9799 0
M  V30 3157 H 303.52 0.213336 1.54837 0
M  V30 3158 H 304.255 -2.17009 2.40993 0
M  V30 3159 H 304.04 -1.04238 3.77991 0
M  V30 3160 H 305.53 -2.02433 3.65254 0
M  V30 3161 N 305.967 -1.56429 0.191757 0
M  V30 3162 C 307.197 -2.01574 -0.452928 0
M  V30 3163 C 307.605 -1.07107 -1.55964 0
M  V30 3164 O 306.948 -0.067534 -1.83576 0
M  V30 3165 C 307.01 -3.43121 -1.07278 0
M  V30 3166 C 306.674 -4.56879 -0.105214 0
M  V30 3167 C 307.671 -5.15379 0.684149 0
M  V30 3168 C 305.356 -5.023 0.00489824 0
M  V30 3169 C 307.35 -6.17746 1.57062 0
M  V30 3170 C 305.037 -6.04511 0.894935 0
M  V30 3171 C 306.035 -6.62108 1.67637 0
M  V30 3172 O 305.723 -7.62335 2.55149 0
M  V30 3173 H 305.455 -0.665554 -0.118379 0
M  V30 3174 H 308.009 -2.03245 0.296737 0
M  V30 3175 H 306.239 -3.38425 -1.87097 0
M  V30 3176 H 307.928 -3.72093 -1.62177 0
M  V30 3177 H 308.694 -4.81157 0.609365 0
M  V30 3178 H 304.573 -4.57168 -0.593156 0
M  V30 3179 H 308.117 -6.6263 2.181 0
M  V30 3180 H 304.014 -6.38157 0.970847 0
M  V30 3181 H 304.782 -7.79741 2.48892 0
M  V30 3182 N 307.445 0.0818655 -1.57387 0
M  V30 3183 C 308.393 1.11712 -2.04018 0
M  V30 3184 C 309.387 1.40683 -0.94364 0
M  V30 3185 O 310.593 1.40209 -1.12878 0
M  V30 3186 H 306.968 0.377542 -0.650358 0
M  V30 3187 H 308.939 0.697614 -2.90131 0
M  V30 3188 C 307.688 2.42537 -2.49141 0
M  V30 3189 H 307.011 2.21092 -3.33104 0
M  V30 3190 H 308.451 3.13446 -2.85531 0
M  V30 3191 C 306.91 3.0778 -1.37014 0
M  V30 3192 O 307.44 3.95436 -0.706621 0
M  V30 3193 N 305.646 2.68242 -1.11779 0
M  V30 3194 H 305.193 1.97052 -1.65917 0
M  V30 3195 H 305.151 3.1222 -0.369594 0
M  V30 3196 N 308.923 1.53595 0.353017 0
M  V30 3197 C 309.856 1.7572 1.45594 0
M  V30 3198 C 310.834 0.605961 1.50887 0
M  V30 3199 O 312.018 0.840023 1.68748 0
M  V30 3200 C 309.145 1.84732 2.83887 0
M  V30 3201 C 308.191 3.06808 2.96262 0
M  V30 3202 S 309.024 4.66065 2.63711 0
M  V30 3203 C 310.18 4.77943 4.04131 0
M  V30 3204 H 310.413 2.68994 1.26608 0
M  V30 3205 H 307.946 1.44343 0.548117 0
M  V30 3206 H 309.904 1.9061 3.63563 0
M  V30 3207 H 308.565 0.92488 3.00175 0
M  V30 3208 H 307.758 3.09761 3.97573 0
M  V30 3209 H 307.36 2.99108 2.24523 0
M  V30 3210 H 309.652 4.5877 4.98534 0
M  V30 3211 H 310.595 5.80022 4.06177 0
M  V30 3212 H 311.003 4.06472 3.91715 0
M  V30 3213 N 310.401 -0.613514 1.45168 0
M  V30 3214 C 311.364 -1.7065 1.53007 0
M  V30 3215 C 312.364 -1.5548 0.410184 0
M  V30 3216 O 313.554 -1.60656 0.673455 0
M  V30 3217 C 310.686 -3.09875 1.42093 0
M  V30 3218 H 311.879 -1.65068 2.50385 0
M  V30 3219 H 309.432 -0.828728 1.32521 0
M  V30 3220 H 310.167 -3.21039 0.458769 0
M  V30 3221 H 309.952 -3.22293 2.23315 0
M  V30 3222 H 311.442 -3.895 1.50598 0
M  V30 3223 N 311.879 -1.3236 -0.855495 0
M  V30 3224 C 312.842 -1.21164 -1.94556 0
M  V30 3225 C 313.842 -0.134908 -1.60233 0
M  V30 3226 O 315.032 -0.385249 -1.69887 0
M  V30 3227 C 312.164 -0.863192 -3.29791 0
M  V30 3228 H 313.357 -2.18038 -2.05911 0
M  V30 3229 H 310.91 -1.16179 -1.04557 0
M  V30 3230 H 311.645 0.103769 -3.24134 0
M  V30 3231 H 311.43 -1.64166 -3.56078 0
M  V30 3232 H 312.92 -0.809156 -4.09686 0
M  V30 3233 N 313.357 1.07166 -1.15556 0
M  V30 3234 C 314.287 2.16403 -0.877046 0
M  V30 3235 C 315.268 1.69217 0.173111 0
M  V30 3236 O 316.453 1.94181 0.027084 0
M  V30 3237 C 313.583 3.45349 -0.367632 0
M  V30 3238 C 312.537 4.05995 -1.35468 0
M  V30 3239 C 311.863 5.30045 -0.704038 0
M  V30 3240 C 313.163 4.45804 -2.72132 0
M  V30 3241 H 314.857 2.39959 -1.79053 0
M  V30 3242 H 312.403 1.15325 -0.862331 0
M  V30 3243 H 314.356 4.21095 -0.160317 0
M  V30 3244 H 313.08 3.21385 0.581326 0
M  V30 3245 H 311.739 3.32296 -1.54839 0
M  V30 3246 H 311.387 5.02373 0.251128 0
M  V30 3247 H 311.087 5.71579 -1.36277 0
M  V30 3248 H 312.611 6.08495 -0.50654 0
M  V30 3249 H 314.025 5.12671 -2.56595 0
M  V30 3250 H 312.422 4.98296 -3.34397 0
M  V30 3251 H 313.492 3.57083 -3.28054 0
M  V30 3252 N 314.835 0.952656 1.25548 0
M  V30 3253 C 316.081 0.616826 1.93822 0
M  V30 3254 C 316.436 -0.836684 1.73255 0
M  V30 3255 O 315.729 -1.59218 1.06584 0
M  V30 3256 C 315.923 0.908818 3.45652 0
M  V30 3257 C 315.752 2.38916 3.80984 0
M  V30 3258 C 314.522 3.04637 4.03143 0
M  V30 3259 C 316.72 3.36838 3.88645 0
M  V30 3260 N 314.702 4.42565 4.25453 0
M  V30 3261 C 316.073 4.60065 4.1562 0
M  V30 3262 C 318.128 3.31704 3.71318 0
M  V30 3263 C 316.831 5.78795 4.2707 0
M  V30 3264 C 318.857 4.4977 3.84006 0
M  V30 3265 C 318.219 5.71783 4.11392 0
M  V30 3266 H 314.318 0.27629 0.731565 0
M  V30 3267 H 316.902 1.22443 1.5138 0
M  V30 3268 H 315.073 0.330166 3.86994 0
M  V30 3269 H 316.805 0.533093 4.01174 0
M  V30 3270 H 313.56 2.55215 3.98952 0
M  V30 3271 H 313.984 5.1399 4.40617 0
M  V30 3272 H 318.626 2.3842 3.49164 0
M  V30 3273 H 316.344 6.72521 4.48041 0
M  V30 3274 H 319.93 4.47342 3.71989 0
M  V30 3275 H 318.81 6.61617 4.2099 0
M  V30 3276 N 316.313 -1.40141 0.720998 0
M  V30 3277 C 317.26 -2.30688 0.071919 0
M  V30 3278 C 318.23 -1.48476 -0.744584 0
M  V30 3279 O 319.415 -1.77201 -0.707423 0
M  V30 3280 C 316.555 -3.34724 -0.839855 0
M  V30 3281 C 315.668 -4.31998 -0.0122438 0
M  V30 3282 C 314.803 -5.23102 -0.923995 0
M  V30 3283 C 313.842 -6.12033 -0.0907969 0
M  V30 3284 N 312.979 -6.95537 -0.957718 0
M  V30 3285 H 317.819 -2.85628 0.849755 0
M  V30 3286 H 315.356 -1.40653 0.430726 0
M  V30 3287 H 317.314 -3.93618 -1.38279 0
M  V30 3288 H 315.944 -2.81274 -1.58381 0
M  V30 3289 H 314.996 -3.74841 0.64794 0
M  V30 3290 H 316.308 -4.94772 0.632595 0
M  V30 3291 H 315.462 -5.86953 -1.53527 0
M  V30 3292 H 314.201 -4.60615 -1.60264 0
M  V30 3293 H 313.206 -5.47207 0.533377 0
M  V30 3294 H 314.431 -6.76581 0.584428 0
M  V30 3295 H 312.377 -6.35633 -1.62192 0
M  V30 3296 H 312.294 -7.55099 -0.36904 0
M  V30 3297 H 313.562 -7.63832 -1.555 0
M  V30 3298 N 317.792 -0.46758 -1.50504 0
M  V30 3299 C 318.722 0.318381 -2.31319 0
M  V30 3300 C 319.703 0.993564 -1.38066 0
M  V30 3301 O 320.888 0.991411 -1.66987 0
M  V30 3302 C 318.018 1.40275 -3.17711 0
M  V30 3303 C 316.972 0.849373 -4.19487 0
M  V30 3304 C 316.298 2.03177 -4.94594 0
M  V30 3305 C 317.598 -0.136942 -5.2212 0
M  V30 3306 H 319.292 -0.356106 -2.97275 0
M  V30 3307 H 316.838 -0.172703 -1.42961 0
M  V30 3308 H 318.791 1.96004 -3.73042 0
M  V30 3309 H 317.515 2.10596 -2.49634 0
M  V30 3310 H 316.174 0.314076 -3.65252 0
M  V30 3311 H 315.822 2.72187 -4.22993 0
M  V30 3312 H 315.522 1.66774 -5.63436 0
M  V30 3313 H 317.046 2.59403 -5.52759 0
M  V30 3314 H 318.46 0.331056 -5.72343 0
M  V30 3315 H 316.857 -0.41507 -5.98663 0
M  V30 3316 H 317.927 -1.06398 -4.73083 0
M  V30 3317 N 319.27 1.56325 -0.20005 0
M  V30 3318 C 320.681 1.8408 0.31167 0
M  V30 3319 C 321.032 1.12087 1.61031 0
M  V30 3320 O 320.157 0.38332 2.12978 0
M  V30 3321 C 320.752 3.33932 0.57226 0
M  V30 3322 C 319.311 3.6208 1.02834 0
M  V30 3323 C 318.458 2.77186 0.079634 0
M  V30 3324 H 321.409 1.52939 -0.423729 0
M  V30 3325 H 321.43 3.52971 1.42096 0
M  V30 3326 H 320.942 3.86303 -0.37308 0
M  V30 3327 H 319.043 3.15147 1.98778 0
M  V30 3328 H 319.156 4.7023 0.917624 0
M  V30 3329 H 317.52 2.47951 0.582448 0
M  V30 3330 H 318.303 3.32347 -0.860238 0
M  V30 3331 N 320.748 -0.0735177 1.57428 0
M  V30 3332 C 321.988 -0.778363 1.89 0
M  V30 3333 C 322.352 -1.7483 0.793634 0
M  V30 3334 O 323.553 -2.49811 0.992367 0
M  V30 3335 C 321.824 -1.46929 3.25802 0
M  V30 3336 S 323.383 -2.20943 3.79117 0
M  V30 3337 H 320.201 -0.258874 0.662197 0
M  V30 3338 H 322.803 -0.0345338 1.95469 0
M  V30 3339 H 321.507 -0.749532 4.03497 0
M  V30 3340 H 321.038 -2.25258 3.22525 0
M  V30 3341 H 323.053 -3.47435 3.54265 0
M  V30 3342 N 322.226 -1.5378 -0.344866 0
M  V30 3343 C 323.475 -1.7018 -1.08267 0
M  V30 3344 C 323.788 -0.471 -1.89845 0
M  V30 3345 O 324.994 -0.515917 -2.66553 0
M  V30 3346 C 323.45 -3.00923 -1.97417 0
M  V30 3347 C 323.058 -4.31335 -1.21053 0
M  V30 3348 C 324.802 -3.26688 -2.71063 0
M  V30 3349 C 322.709 -5.53153 -2.09225 0
M  V30 3350 H 321.639 -0.634138 -0.407903 0
M  V30 3351 H 324.29 -1.8028 -0.342246 0
M  V30 3352 H 322.672 -2.84676 -2.75274 0
M  V30 3353 H 323.846 -4.58281 -0.481159 0
M  V30 3354 H 322.161 -4.12173 -0.591813 0
M  V30 3355 H 324.758 -4.1489 -3.37299 0
M  V30 3356 H 325.101 -2.43639 -3.37558 0
M  V30 3357 H 325.634 -3.43705 -2.0028 0
M  V30 3358 H 322.373 -6.38741 -1.47274 0
M  V30 3359 H 321.893 -5.30458 -2.79955 0
M  V30 3360 H 323.572 -5.88744 -2.68308 0
M  V30 3361 N 323.704 0.605807 -1.45491 0
M  V30 3362 C 324.951 1.36476 -1.49601 0
M  V30 3363 C 325.279 1.94007 -0.138452 0
M  V30 3364 O 324.534 1.75638 0.863114 0
M  V30 3365 C 324.833 2.53012 -2.52428 0
M  V30 3366 C 324.499 2.13617 -3.97087 0
M  V30 3367 C 323.161 2.02587 -4.36477 0
M  V30 3368 C 325.513 1.82899 -4.88055 0
M  V30 3369 C 322.841 1.59064 -5.64726 0
M  V30 3370 C 325.193 1.40861 -6.16718 0
M  V30 3371 C 323.857 1.28391 -6.55036 0
M  V30 3372 H 323.127 0.499402 -0.547429 0
M  V30 3373 H 325.774 0.684546 -1.78847 0
M  V30 3374 H 324.079 3.26379 -2.16758 0
M  V30 3375 H 325.776 3.1124 -2.52845 0
M  V30 3376 H 322.366 2.23129 -3.65939 0
M  V30 3377 H 326.55 1.90317 -4.58359 0
M  V30 3378 H 321.806 1.48034 -5.93208 0
M  V30 3379 H 325.98 1.16138 -6.86648 0
M  V30 3380 H 323.607 0.944403 -7.54311 0
M  V30 3381 N 325.182 1.32811 0.848464 0
M  V30 3382 C 326.431 1.23075 1.59798 0
M  V30 3383 C 326.744 -0.204419 1.94529 0
M  V30 3384 O 327.95 -0.423701 2.68173 0
M  V30 3385 C 326.406 2.15594 2.88179 0
M  V30 3386 C 326.014 3.64228 2.60849 0
M  V30 3387 C 327.758 2.14709 3.66197 0
M  V30 3388 C 325.665 4.48689 3.85269 0
M  V30 3389 H 324.595 0.457091 0.599653 0
M  V30 3390 H 327.246 1.57813 0.936342 0
M  V30 3391 H 325.628 1.73778 3.55833 0
M  V30 3392 H 326.802 4.14424 2.01467 0
M  V30 3393 H 325.117 3.67306 1.96151 0
M  V30 3394 H 327.714 2.75046 4.58534 0
M  V30 3395 H 328.057 1.13966 4.00397 0
M  V30 3396 H 328.59 2.54837 3.05455 0
M  V30 3397 H 325.329 5.5027 3.56207 0
M  V30 3398 H 324.849 4.03241 4.44024 0
M  V30 3399 H 326.528 4.62006 4.52946 0
M  V30 3400 N 326.66 -1.06551 1.16123 0
M  V30 3401 C 327.9 -1.80889 0.951766 0
M  V30 3402 C 328.264 -1.85062 -0.511465 0
M  V30 3403 O 329.465 -2.55353 -0.83954 0
M  V30 3404 C 327.736 -3.21609 1.55893 0
M  V30 3405 S 329.295 -4.12593 1.49373 0
M  V30 3406 H 326.113 -0.623156 0.342341 0
M  V30 3407 H 328.715 -1.27943 1.47821 0
M  V30 3408 H 327.419 -3.16165 2.61664 0
M  V30 3409 H 326.95 -3.79631 1.0317 0
M  V30 3410 H 328.965 -4.93753 0.492196 0
M  V30 3411 N 328.138 -0.959301 -1.25041 0
M  V30 3412 C 329.048 -0.489994 -2.29426 0
M  V30 3413 C 330.064 0.444944 -1.68215 0
M  V30 3414 O 331.24 0.320046 -1.98841 0
M  V30 3415 C 328.305 0.220309 -3.45999 0
M  V30 3416 C 327.366 -0.753418 -4.22637 0
M  V30 3417 C 326.599 -0.076918 -5.33645 0
M  V30 3418 O 326.822 1.13649 -5.58963 0
M  V30 3419 O 325.756 -0.764824 -5.97021 0
M  V30 3420 H 329.582 -1.35755 -2.71669 0
M  V30 3421 H 327.167 -0.725961 -1.30576 0
M  V30 3422 H 329.049 0.619677 -4.16819 0
M  V30 3423 H 327.724 1.06296 -3.0575 0
M  V30 3424 H 326.631 -1.20308 -3.54227 0
M  V30 3425 H 327.964 -1.56423 -4.66683 0
M  V30 3426 N 329.616 1.39756 -0.72842 0
M  V30 3427 C 330.564 2.32485 -0.0731849 0
M  V30 3428 C 331.558 1.52717 0.733063 0
M  V30 3429 O 332.764 1.68428 0.634988 0
M  V30 3430 H 329.139 0.751984 -0.00486469 0
M  V30 3431 H 331.11 2.85382 -0.871761 0
M  V30 3432 C 329.859 3.37773 0.824908 0
M  V30 3433 H 329.182 3.99227 0.213915 0
M  V30 3434 H 330.622 4.05121 1.25111 0
M  V30 3435 C 329.081 2.74287 1.95622 0
M  V30 3436 O 329.611 2.61618 3.04826 0
M  V30 3437 N 327.817 2.32475 1.74367 0
M  V30 3438 H 327.364 2.4298 0.855494 0
M  V30 3439 H 327.322 1.90337 2.50238 0
M  V30 3440 N 331.094 0.475555 1.50254 0
M  V30 3441 C 332.042 -0.330276 2.30243 0
M  V30 3442 C 333.036 -0.986306 1.37726 0
M  V30 3443 O 334.242 -0.9169 1.54897 0
M  V30 3444 H 330.617 -0.125353 0.741479 0
M  V30 3445 H 332.588 0.364702 2.96163 0
M  V30 3446 C 331.337 -1.39704 3.18399 0
M  V30 3447 H 330.66 -0.901621 3.89501 0
M  V30 3448 H 332.1 -1.93336 3.77355 0
M  V30 3449 C 330.559 -2.4014 2.36293 0
M  V30 3450 O 331.089 -3.45504 2.04914 0
M  V30 3451 N 329.295 -2.1197 1.98789 0
M  V30 3452 H 328.842 -1.2631 2.24507 0
M  V30 3453 H 328.8 -2.79403 1.44157 0
M  V30 3454 N 332.573 -1.56217 0.208337 0
M  V30 3455 C 333.989 -1.58919 -0.14729 0
M  V30 3456 C 334.189 -1.22486 -1.59998 0
M  V30 3457 O 333.245 -0.953849 -2.3379 0
M  V30 3458 C 334.558 -3.00236 0.167048 0
M  V30 3459 C 336.106 -3.12813 0.108219 0
M  V30 3460 C 336.581 -4.56284 0.396049 0
M  V30 3461 N 338.072 -4.61912 0.345142 0
M  V30 3462 C 338.807 -5.70837 0.541523 0
M  V30 3463 N 338.303 -6.88178 0.798968 0
M  V30 3464 N 340.096 -5.60091 0.474867 0
M  V30 3465 H 332.247 -1.78177 1.15614 0
M  V30 3466 H 334.51 -0.827555 0.462446 0
M  V30 3467 H 334.216 -3.31499 1.1748 0
M  V30 3468 H 334.09 -3.7354 -0.524184 0
M  V30 3469 H 336.477 -2.81354 -0.890157 0
M  V30 3470 H 336.558 -2.41866 0.832729 0
M  V30 3471 H 336.202 -4.88458 1.3918 0
M  V30 3472 H 336.132 -5.25439 -0.349502 0
M  V30 3473 H 338.623 -3.77589 0.153316 0
M  V30 3474 H 338.936 -7.67095 0.93727 0
M  V30 3475 H 337.281 -6.89953 0.836013 0
M  V30 3476 H 340.472 -4.67297 0.274064 0
M  V30 3477 H 340.645 -6.44917 0.631326 0
M  V30 3478 N 334.051 0.0651679 -1.57465 0
M  V30 3479 C 335.281 0.774683 -1.91526 0
M  V30 3480 C 335.689 1.71305 -0.803196 0
M  V30 3481 O 335.032 1.82231 0.231881 0
M  V30 3482 C 335.094 1.61645 -3.21109 0
M  V30 3483 C 334.758 0.846753 -4.49087 0
M  V30 3484 C 335.755 0.163024 -5.19644 0
M  V30 3485 C 333.44 0.811966 -4.95694 0
M  V30 3486 C 335.434 -0.54519 -6.35064 0
M  V30 3487 C 333.121 0.0999836 -6.11018 0
M  V30 3488 C 334.119 -0.577388 -6.80555 0
M  V30 3489 O 333.807 -1.27789 -7.93678 0
M  V30 3490 H 333.539 0.225031 -0.637446 0
M  V30 3491 H 336.093 0.0377134 -2.05365 0
M  V30 3492 H 334.323 2.39638 -3.03497 0
M  V30 3493 H 336.012 2.20525 -3.40769 0
M  V30 3494 H 336.778 0.181163 -4.84662 0
M  V30 3495 H 332.657 1.32867 -4.41438 0
M  V30 3496 H 336.201 -1.07446 -6.89276 0
M  V30 3497 H 332.098 0.0797945 -6.45451 0
M  V30 3498 H 332.866 -1.18784 -8.09835 0
M  V30 3499 N 335.529 1.53961 0.336706 0
M  V30 3500 C 336.777 1.71197 1.07405 0
M  V30 3501 C 337.098 0.481475 1.88962 0
M  V30 3502 O 336.368 -0.504585 1.8929 0
M  V30 3503 H 334.948 0.631185 0.399517 0
M  V30 3504 H 337.61 1.91232 0.376323 0
M  V30 3505 H 336.706 2.58587 1.74755 0
M  V30 3506 N 337.007 -0.598083 1.45811 0
M  V30 3507 C 337.94 -1.7223 1.49706 0
M  V30 3508 C 338.918 -1.58732 0.352535 0
M  V30 3509 O 340.102 -1.80162 0.554438 0
M  V30 3510 C 337.229 -3.10148 1.3611 0
M  V30 3511 C 336.275 -3.42209 2.54549 0
M  V30 3512 S 337.108 -3.35989 4.16979 0
M  V30 3513 C 338.264 -4.76471 4.05865 0
M  V30 3514 H 338.497 -1.68665 2.44826 0
M  V30 3515 H 336.03 -0.775541 1.33509 0
M  V30 3516 H 337.988 -3.8972 1.28953 0
M  V30 3517 H 336.649 -3.11219 0.424451 0
M  V30 3518 H 335.842 -4.42652 2.40988 0
M  V30 3519 H 335.444 -2.70173 2.58617 0
M  V30 3520 H 337.736 -5.665 3.71596 0
M  V30 3521 H 338.679 -4.95089 5.06253 0
M  V30 3522 H 339.087 -4.52599 3.37364 0
M  V30 3523 N 338.485 -1.33259 -0.841409 0
M  V30 3524 C 339.733 -1.24326 -1.59334 0
M  V30 3525 C 340.054 0.191564 -1.94057 0
M  V30 3526 O 339.324 1.11967 -1.60749 0
M  V30 3527 H 337.904 -0.457174 -0.590763 0
M  V30 3528 H 340.566 -1.66947 -1.00571 0
M  V30 3529 H 339.662 -1.8352 -2.52442 0
M  V30 3530 N 339.963 1.05934 -1.16686 0
M  V30 3531 C 341.191 1.8249 -0.974929 0
M  V30 3532 C 341.606 1.82679 0.476861 0
M  V30 3533 O 340.963 1.2486 1.33103 0
M  V30 3534 C 341.014 3.28943 -1.49929 0
M  V30 3535 O 340.735 3.28886 -2.89423 0
M  V30 3536 C 342.236 4.22215 -1.35089 0
M  V30 3537 H 339.456 0.575295 -0.345365 0
M  V30 3538 H 342 1.33631 -1.548 0
M  V30 3539 H 340.155 3.751 -0.968423 0
M  V30 3540 H 340.569 4.20493 -3.13506 0
M  V30 3541 H 342.043 5.22987 -1.76603 0
M  V30 3542 H 342.52 4.38195 -0.296935 0
M  V30 3543 H 343.126 3.81907 -1.87155 0
M  V30 3544 N 341.441 0.965919 1.2453 0
M  V30 3545 C 342.666 0.643971 1.97149 0
M  V30 3546 C 343.091 -0.779487 1.71189 0
M  V30 3547 O 342.449 -1.5288 0.974553 0
M  V30 3548 C 342.497 0.922557 3.48599 0
M  V30 3549 O 341.601 0.00707672 4.12399 0
M  V30 3550 H 340.942 0.243647 0.617683 0
M  V30 3551 H 343.472 1.29558 1.58353 0
M  V30 3552 H 343.482 0.853373 3.98976 0
M  V30 3553 H 342.157 1.95996 3.66822 0
M  V30 3554 H 340.734 0.12943 3.72675 0
M  V30 3555 N 342.919 -1.39368 0.735821 0
M  V30 3556 C 344.165 -2.00794 0.284544 0
M  V30 3557 C 344.498 -1.58255 -1.12557 0
M  V30 3558 O 343.773 -0.811819 -1.76748 0
M  V30 3559 C 344.056 -3.58011 0.387337 0
M  V30 3560 C 343.909 -4.10566 1.83728 0
M  V30 3561 C 345.228 -4.395 -0.22975 0
M  V30 3562 H 342.347 -0.729501 0.104866 0
M  V30 3563 H 344.989 -1.65564 0.93213 0
M  V30 3564 H 343.139 -3.88154 -0.164006 0
M  V30 3565 H 344.811 -3.91139 2.44556 0
M  V30 3566 H 343.054 -3.64095 2.35833 0
M  V30 3567 H 343.725 -5.19702 1.86047 0
M  V30 3568 H 346.201 -4.15406 0.240257 0
M  V30 3569 H 345.077 -5.48752 -0.127485 0
M  V30 3570 H 345.338 -4.22062 -1.3159 0
M  V30 3571 N 344.397 -0.483516 -1.5 0
M  V30 3572 C 345.307 0.309172 -2.32554 0
M  V30 3573 C 346.323 0.984159 -1.43493 0
M  V30 3574 O 347.499 0.969399 -1.76535 0
M  V30 3575 C 344.564 1.36979 -3.18493 0
M  V30 3576 C 343.625 0.710095 -4.23387 0
M  V30 3577 C 342.858 1.72018 -5.05218 0
M  V30 3578 O 343.081 2.94813 -4.88305 0
M  V30 3579 O 342.015 1.28515 -5.8802 0
M  V30 3580 H 345.841 -0.366064 -3.01486 0
M  V30 3581 H 343.426 -0.24514 -1.47375 0
M  V30 3582 H 345.308 1.98385 -3.71781 0
M  V30 3583 H 343.983 2.02828 -2.52275 0
M  V30 3584 H 342.89 0.0567539 -3.74057 0
M  V30 3585 H 344.223 0.0943557 -4.9211 0
M  V30 3586 N 345.875 1.56104 -0.216619 0
M  V30 3587 C 347.291 1.58995 0.13886 0
M  V30 3588 C 347.491 1.23333 1.59346 0
M  V30 3589 O 346.547 0.966234 2.33281 0
M  V30 3590 C 347.86 3.00143 -0.182968 0
M  V30 3591 C 349.408 3.12751 -0.124807 0
M  V30 3592 C 349.883 4.56068 -0.420241 0
M  V30 3593 N 351.374 4.61723 -0.369634 0
M  V30 3594 C 352.109 5.70542 -0.571789 0
M  V30 3595 N 351.605 6.87744 -0.835453 0
M  V30 3596 N 353.398 5.59831 -0.504563 0
M  V30 3597 H 345.549 1.77562 -1.16557 0
M  V30 3598 H 347.812 0.825091 -0.466828 0
M  V30 3599 H 347.518 3.30871 -1.19237 0
M  V30 3600 H 347.392 3.73813 0.504367 0
M  V30 3601 H 349.779 2.81822 0.875223 0
M  V30 3602 H 349.86 2.41421 -0.845544 0
M  V30 3603 H 349.504 4.87713 -1.41769 0
M  V30 3604 H 349.434 5.25617 0.321631 0
M  V30 3605 H 351.925 3.77502 -0.173338 0
M  V30 3606 H 352.238 7.66587 -0.977938 0
M  V30 3607 H 350.583 6.895 -0.872592 0
M  V30 3608 H 353.774 4.67145 -0.298842 0
M  V30 3609 H 353.947 6.44573 -0.665519 0
M  V30 3610 N 347.353 -0.0568162 1.57498 0
M  V30 3611 C 348.316 -1.05038 2.03715 0
M  V30 3612 C 349.316 -1.30709 0.936577 0
M  V30 3613 O 350.506 -1.26178 1.20103 0
M  V30 3614 C 347.638 -2.39034 2.43055 0
M  V30 3615 H 348.831 -0.651715 2.92733 0
M  V30 3616 H 346.384 -0.302947 1.53336 0
M  V30 3617 H 347.119 -2.83703 1.57108 0
M  V30 3618 H 346.904 -2.21739 3.2338 0
M  V30 3619 H 348.394 -3.10421 2.79336 0
M  V30 3620 N 348.832 -1.54138 -0.328536 0
M  V30 3621 C 349.795 -1.82462 -1.38709 0
M  V30 3622 C 350.795 -0.696229 -1.44946 0
M  V30 3623 O 351.985 -0.964535 -1.4506 0
M  V30 3624 C 349.117 -1.98018 -2.77492 0
M  V30 3625 H 350.31 -2.77037 -1.14851 0
M  V30 3626 H 347.863 -1.45779 -0.563751 0
M  V30 3627 H 348.598 -1.05637 -3.06613 0
M  V30 3628 H 348.383 -2.80124 -2.74359 0
M  V30 3629 H 349.873 -2.21396 -3.54081 0
M  V30 3630 N 350.31 0.590341 -1.46126 0
M  V30 3631 C 351.273 1.68194 -1.55703 0
M  V30 3632 C 352.273 1.54808 -0.434868 0
M  V30 3633 O 353.463 1.59564 -0.698928 0
M  V30 3634 C 350.595 3.07575 -1.47005 0
M  V30 3635 H 351.788 1.61064 -2.52979 0
M  V30 3636 H 349.341 0.807541 -1.33823 0
M  V30 3637 H 350.076 3.20268 -0.509785 0
M  V30 3638 H 349.861 3.187 -2.28414 0
M  V30 3639 H 351.351 3.87055 -1.56776 0
M  V30 3640 N 351.788 1.33704 0.83433 0
M  V30 3641 C 353.013 1.28615 1.62705 0
M  V30 3642 C 353.438 -0.139242 1.87584 0
M  V30 3643 O 352.796 -1.09734 1.4432 0
M  V30 3644 C 352.844 2.07139 2.95171 0
M  V30 3645 O 351.948 1.4331 3.86699 0
M  V30 3646 H 351.289 0.44226 0.49528 0
M  V30 3647 H 353.819 1.76335 1.03766 0
M  V30 3648 H 353.829 2.18073 3.44831 0
M  V30 3649 H 352.504 3.10779 2.76386 0
M  V30 3650 H 351.081 1.4105 3.45195 0
M  V30 3651 N 353.266 -1.05314 1.17247 0
M  V30 3652 C 354.494 -1.81971 0.984593 0
M  V30 3653 C 354.909 -1.82929 -0.467166 0
M  V30 3654 O 354.266 -1.25564 -1.32438 0
M  V30 3655 C 354.317 -3.28143 1.51672 0
M  V30 3656 O 354.038 -3.27347 2.91163 0
M  V30 3657 C 355.539 -4.21493 1.37326 0
M  V30 3658 H 352.759 -0.573455 0.348411 0
M  V30 3659 H 355.303 -1.32808 1.55506 0
M  V30 3660 H 353.458 -3.74582 0.988302 0
M  V30 3661 H 353.872 -4.18824 3.15732 0
M  V30 3662 H 355.346 -5.22043 1.79375 0
M  V30 3663 H 355.823 -4.38031 0.320169 0
M  V30 3664 H 356.429 -3.80909 1.89178 0
M  V30 3665 N 354.744 -0.972509 -1.24016 0
M  V30 3666 C 356.021 -0.553733 -1.87598 0
M  V30 3667 C 356.401 0.969158 -1.87538 0
M  V30 3668 O 355.749 1.84255 -1.35139 0
M  V30 3669 C 355.959 -1.15076 -3.29482 0
M  V30 3670 C 357.307 -1.23862 -4.06132 0
M  V30 3671 O 358.331 -1.10363 -3.38672 0
M  V30 3672 O 357.19 -1.45252 -5.26844 0
M  V30 3673 H 354.284 -0.185331 -0.805966 0
M  V30 3674 H 356.83 -1.06709 -1.31952 0
M  V30 3675 H 355.602 -2.19333 -3.2405 0
M  V30 3676 H 355.225 -0.621746 -3.92709 0
M  V30 3677 N 356.222 1.38976 -0.743202 0
M  V30 3678 C 357.452 2.04339 -0.304807 0
M  V30 3679 C 357.86 1.56162 1.06819 0
M  V30 3680 O 357.203 0.725284 1.68776 0
M  V30 3681 C 357.265 3.58716 -0.237369 0
M  V30 3682 C 356.929 4.29905 -1.55018 0
M  V30 3683 C 357.926 4.55987 -2.49744 0
M  V30 3684 C 355.611 4.68294 -1.81675 0
M  V30 3685 C 357.605 5.19478 -3.69353 0
M  V30 3686 C 355.292 5.31512 -3.0156 0
M  V30 3687 C 356.29 5.57037 -3.9522 0
M  V30 3688 O 355.978 6.18941 -5.12998 0
M  V30 3689 H 355.71 0.663439 -0.12971 0
M  V30 3690 H 358.264 1.78852 -1.01001 0
M  V30 3691 H 356.494 3.83133 0.524003 0
M  V30 3692 H 358.183 4.05543 0.170121 0
M  V30 3693 H 358.949 4.26767 -2.30423 0
M  V30 3694 H 354.828 4.47779 -1.09615 0
M  V30 3695 H 358.372 5.39318 -4.42473 0
M  V30 3696 H 354.269 5.60153 -3.20778 0
M  V30 3697 H 355.037 6.37433 -5.13441 0
M  V30 3698 N 357.7 0.491464 1.49741 0
M  V30 3699 C 358.93 -0.0534375 2.06531 0
M  V30 3700 C 359.338 -1.32233 1.35318 0
M  V30 3701 O 358.681 -1.78781 0.422243 0
M  V30 3702 C 358.743 -0.387034 3.57411 0
M  V30 3703 C 358.407 0.782764 4.50246 0
M  V30 3704 C 359.404 1.67059 4.92329 0
M  V30 3705 C 357.089 0.978866 4.9267 0
M  V30 3706 C 359.083 2.73874 5.75562 0
M  V30 3707 C 356.77 2.05022 5.75682 0
M  V30 3708 C 357.768 2.92851 6.17031 0
M  V30 3709 O 357.456 3.98138 6.98385 0
M  V30 3710 H 357.188 0.0129324 0.675876 0
M  V30 3711 H 359.742 0.685238 1.93633 0
M  V30 3712 H 357.972 -1.17918 3.68283 0
M  V30 3713 H 359.661 -0.869419 3.96479 0
M  V30 3714 H 360.427 1.53086 4.60206 0
M  V30 3715 H 356.306 0.304646 4.59992 0
M  V30 3716 H 359.85 3.42458 6.07757 0
M  V30 3717 H 355.747 2.18993 6.07217 0
M  V30 3718 H 356.515 3.95374 7.16674 0
M  V30 3719 N 359.178 -1.55987 0.224894 0
M  V30 3720 C 360.125 -2.20436 -0.68385 0
M  V30 3721 C 361.095 -1.16102 -1.18783 0
M  V30 3722 O 362.28 -1.4447 -1.24632 0
M  V30 3723 C 359.42 -2.89076 -1.88491 0
M  V30 3724 C 358.533 -4.08012 -1.41951 0
M  V30 3725 C 357.668 -4.64426 -2.5784 0
M  V30 3726 C 356.707 -5.75656 -2.08053 0
M  V30 3727 N 355.844 -6.26347 -3.17227 0
M  V30 3728 H 360.684 -2.97727 -0.12754 0
M  V30 3729 H 358.221 -1.47011 -0.0511978 0
M  V30 3730 H 360.179 -3.27059 -2.59014 0
M  V30 3731 H 358.809 -2.14298 -2.41405 0
M  V30 3732 H 357.861 -3.75492 -0.609095 0
M  V30 3733 H 359.173 -4.88375 -1.01447 0
M  V30 3734 H 358.327 -5.04869 -3.3644 0
M  V30 3735 H 357.066 -3.83233 -3.01635 0
M  V30 3736 H 356.071 -5.34712 -1.27916 0
M  V30 3737 H 357.296 -6.58686 -1.65255 0
M  V30 3738 H 355.242 -5.48067 -3.60497 0
M  V30 3739 H 355.159 -7.01843 -2.80986 0
M  V30 3740 H 356.427 -6.71447 -3.95953 0
M  V30 3741 N 360.656 0.0484629 -1.57525 0
M  V30 3742 C 362.072 0.40375 -1.54409 0
M  V30 3743 C 362.272 1.77786 -0.948384 0
M  V30 3744 O 361.328 2.46189 -0.560983 0
M  V30 3745 C 362.641 0.323394 -2.98956 0
M  V30 3746 C 364.189 0.401892 -3.10409 0
M  V30 3747 C 364.664 0.351195 -4.56652 0
M  V30 3748 N 366.155 0.410576 -4.61377 0
M  V30 3749 C 366.89 0.393933 -5.72045 0
M  V30 3750 N 366.386 0.330724 -6.9201 0
M  V30 3751 N 368.179 0.442227 -5.60358 0
M  V30 3752 H 360.33 -0.851016 -1.94606 0
M  V30 3753 H 362.593 -0.321721 -0.89174 0
M  V30 3754 H 362.299 -0.62011 -3.4619 0
M  V30 3755 H 362.173 1.12463 -3.60044 0
M  V30 3756 H 364.56 1.33582 -2.63134 0
M  V30 3757 H 364.641 -0.428342 -2.52188 0
M  V30 3758 H 364.285 -0.578987 -5.04589 0
M  V30 3759 H 364.215 1.19928 -5.12762 0
M  V30 3760 H 366.706 0.462729 -3.75056 0
M  V30 3761 H 367.019 0.322592 -7.72126 0
M  V30 3762 H 365.364 0.29706 -6.94365 0
M  V30 3763 H 368.555 0.489464 -4.65534 0
M  V30 3764 H 368.728 0.425788 -6.466 0
M  V30 3765 N 362.134 1.5431 0.320358 0
M  V30 3766 C 363.382 1.72327 1.05583 0
M  V30 3767 C 363.703 0.50149 1.88441 0
M  V30 3768 O 362.973 -0.48448 1.89815 0
M  V30 3769 H 361.553 0.635387 0.3928 0
M  V30 3770 H 364.215 1.91621 0.356019 0
M  V30 3771 H 363.311 2.60426 1.72003 0
M  V30 3772 N 363.613 -0.582584 1.46437 0
M  V30 3773 C 364.89 -1.34276 1.4223 0
M  V30 3774 C 365.27 -2.10835 0.10583 0
M  V30 3775 O 364.618 -2.09485 -0.912596 0
M  V30 3776 C 364.828 -2.26865 2.65204 0
M  V30 3777 C 366.176 -2.88691 3.11356 0
M  V30 3778 O 367.2 -2.37178 2.65753 0
M  V30 3779 O 366.059 -3.82255 3.90568 0
M  V30 3780 H 363.153 -0.603326 0.565621 0
M  V30 3781 H 365.699 -0.603591 1.58603 0
M  V30 3782 H 364.471 -1.69724 3.52576 0
M  V30 3783 H 364.094 -3.08122 2.5129 0
M  V30 3784 N 365.091 -1.34144 -0.827227 0
M  V30 3785 C 366.338 -1.26258 -1.58319 0
M  V30 3786 C 366.666 0.168595 -1.93768 0
M  V30 3787 O 365.921 1.12877 -1.59866 0
M  V30 3788 C 366.22 -2.09464 -2.89585 0
M  V30 3789 C 365.886 -3.58521 -2.73448 0
M  V30 3790 C 364.548 -3.99155 -2.68754 0
M  V30 3791 C 366.9 -4.53189 -2.57428 0
M  V30 3792 C 364.228 -5.32656 -2.45957 0
M  V30 3793 C 366.58 -5.86864 -2.36163 0
M  V30 3794 C 365.244 -6.26667 -2.29879 0
M  V30 3795 H 364.514 -0.462013 -0.579332 0
M  V30 3796 H 367.161 -1.65845 -0.95748 0
M  V30 3797 H 365.466 -1.62692 -3.56425 0
M  V30 3798 H 367.163 -2.00712 -3.47154 0
M  V30 3799 H 363.753 -3.26264 -2.77939 0
M  V30 3800 H 367.937 -4.22696 -2.60081 0
M  V30 3801 H 363.193 -5.62519 -2.39546 0
M  V30 3802 H 367.367 -6.59813 -2.22754 0
M  V30 3803 H 364.994 -7.30049 -2.11975 0
M  V30 3804 N 366.569 1.04691 -1.17803 0
M  V30 3805 C 367.818 1.77176 -0.963931 0
M  V30 3806 C 368.131 1.88888 0.508015 0
M  V30 3807 O 369.337 2.58164 0.840465 0
M  V30 3808 C 367.793 3.18518 -1.67555 0
M  V30 3809 C 367.401 3.14919 -3.18637 0
M  V30 3810 C 369.145 3.95424 -1.54402 0
M  V30 3811 C 367.052 4.51081 -3.82466 0
M  V30 3812 H 365.982 0.664116 -0.357023 0
M  V30 3813 H 368.633 1.17303 -1.4111 0
M  V30 3814 H 367.015 3.78748 -1.15613 0
M  V30 3815 H 368.189 2.64178 -3.77554 0
M  V30 3816 H 366.504 2.51512 -3.31859 0
M  V30 3817 H 369.101 4.96106 -1.99456 0
M  V30 3818 H 369.444 4.13343 -0.495329 0
M  V30 3819 H 369.977 3.41754 -2.0359 0
M  V30 3820 H 366.716 4.38368 -4.87354 0
M  V30 3821 H 366.236 5.01951 -3.28337 0
M  V30 3822 H 367.915 5.2001 -3.84965 0
M  V30 3823 N 368.047 0.979072 1.23499 0
M  V30 3824 C 369.458 0.684391 1.73704 0
M  V30 3825 C 369.809 -0.799448 1.79174 0
M  V30 3826 O 368.934 -1.62531 1.42873 0
M  V30 3827 C 369.529 1.23564 3.15464 0
M  V30 3828 C 368.088 0.99063 3.6313 0
M  V30 3829 C 367.235 1.36416 2.41425 0
M  V30 3830 H 370.186 1.15307 1.09041 0
M  V30 3831 H 370.207 0.607417 3.7562 0
M  V30 3832 H 369.719 2.31561 3.1145 0
M  V30 3833 H 367.82 -0.0733136 3.72528 0
M  V30 3834 H 367.933 1.64427 4.5 0
M  V30 3835 H 366.297 0.782616 2.42378 0
M  V30 3836 H 367.08 2.45387 2.40083 0
M  V30 3837 N 369.525 -1.3858 0.750561 0
M  V30 3838 C 370.773 -1.99789 0.30477 0
M  V30 3839 C 371.094 -1.59874 -1.11649 0
M  V30 3840 O 370.364 -0.85417 -1.76297 0
M  V30 3841 H 368.944 -0.738902 0.109694 0
M  V30 3842 H 371.606 -1.69391 0.963983 0
M  V30 3843 H 370.702 -3.09952 0.365499 0
M  V30 3844 N 371.003 -0.499398 -1.49478 0
M  V30 3845 C 371.933 0.269244 -2.31943 0
M  V30 3846 C 372.914 0.964054 -1.40143 0
M  V30 3847 O 374.099 0.955767 -1.69052 0
M  V30 3848 C 371.229 1.33504 -3.20615 0
M  V30 3849 C 370.183 0.760202 -4.21195 0
M  V30 3850 C 369.509 1.9264 -4.98792 0
M  V30 3851 C 370.809 -0.247661 -5.21712 0
M  V30 3852 H 372.503 -0.419082 -2.96452 0
M  V30 3853 H 370.049 -0.202988 -1.42562 0
M  V30 3854 H 372.002 1.88048 -3.77115 0
M  V30 3855 H 370.726 2.05253 -2.54045 0
M  V30 3856 H 369.385 0.23653 -3.65836 0
M  V30 3857 H 369.033 2.63154 -4.28671 0
M  V30 3858 H 368.733 1.54785 -5.66847 0
M  V30 3859 H 370.257 2.4762 -5.58137 0
M  V30 3860 H 371.671 0.209579 -5.72917 0
M  V30 3861 H 370.068 -0.541962 -5.97648 0
M  V30 3862 H 371.138 -1.16409 -4.7072 0
M  V30 3863 N 372.481 1.55866 -0.233164 0
M  V30 3864 C 373.897 1.59133 0.121988 0
M  V30 3865 C 374.097 1.25016 1.58029 0
M  V30 3866 O 373.153 0.990922 2.32243 0
M  V30 3867 C 374.466 2.99932 -0.214792 0
M  V30 3868 C 376.014 3.12601 -0.157971 0
M  V30 3869 C 376.489 4.55597 -0.46859 0
M  V30 3870 N 377.98 4.61305 -0.418585 0
M  V30 3871 C 378.715 5.69903 -0.63227 0
M  V30 3872 N 378.211 6.86819 -0.90835 0
M  V30 3873 N 380.004 5.59264 -0.563913 0
M  V30 3874 H 372.155 1.76315 -1.18434 0
M  V30 3875 H 374.418 0.820093 -0.475553 0
M  V30 3876 H 374.124 3.29588 -1.22739 0
M  V30 3877 H 373.998 3.74327 0.464691 0
M  V30 3878 H 376.385 2.82735 0.845283 0
M  V30 3879 H 376.466 2.40511 -0.871102 0
M  V30 3880 H 376.11 4.86182 -1.46934 0
M  V30 3881 H 376.04 5.25928 0.265865 0
M  V30 3882 H 378.531 3.77297 -0.213368 0
M  V30 3883 H 378.844 7.65507 -1.05919 0
M  V30 3884 H 377.189 6.88536 -0.945673 0
M  V30 3885 H 380.38 4.66802 -0.348372 0
M  V30 3886 H 380.553 6.43831 -0.733847 0
M  V30 3887 N 373.959 -0.0401083 1.57549 0
M  V30 3888 C 375.205 -0.734211 1.89043 0
M  V30 3889 C 375.538 -1.75591 0.829535 0
M  V30 3890 O 374.813 -1.93868 -0.156706 0
M  V30 3891 C 375.096 -1.41374 3.31188 0
M  V30 3892 C 374.949 -0.406299 4.47961 0
M  V30 3893 C 376.268 -2.35061 3.72068 0
M  V30 3894 H 373.387 -0.265447 0.687537 0
M  V30 3895 H 376.029 0.00294087 1.9 0
M  V30 3896 H 374.179 -2.04206 3.30503 0
M  V30 3897 H 375.851 0.219255 4.60779 0
M  V30 3898 H 374.094 0.275485 4.32924 0
M  V30 3899 H 374.765 -0.920022 5.44279 0
M  V30 3900 H 377.241 -1.82282 3.74049 0
M  V30 3901 H 376.117 -2.79593 4.72355 0
M  V30 3902 H 376.378 -3.21258 3.0372 0
M  V30 3903 N 375.437 -1.54477 -0.31217 0
M  V30 3904 C 376.714 -1.63891 -1.06767 0
M  V30 3905 C 377.094 -0.480028 -2.0557 0
M  V30 3906 O 376.442 0.524487 -2.22399 0
M  V30 3907 C 376.652 -3.01402 -1.75948 0
M  V30 3908 C 378 -3.57838 -2.28554 0
M  V30 3909 O 379.024 -3.03782 -1.85998 0
M  V30 3910 O 377.883 -4.52462 -3.06497 0
M  V30 3911 H 374.977 -0.664125 -0.492816 0
M  V30 3912 H 377.523 -1.66823 -0.311149 0
M  V30 3913 H 376.295 -3.77187 -1.04144 0
M  V30 3914 H 375.918 -3.02199 -2.58383 0
M  V30 3915 N 376.915 0.57481 -1.46744 0
M  V30 3916 C 378.163 1.33009 -1.52161 0
M  V30 3917 C 378.484 1.94185 -0.178092 0
M  V30 3918 O 377.754 1.7899 0.796196 0
M  V30 3919 H 376.334 0.493873 -0.560445 0
M  V30 3920 H 378.996 0.672589 -1.82927 0
M  V30 3921 H 378.092 2.13273 -2.27862 0
M  V30 3922 N 378.394 1.34581 0.820102 0
M  V30 3923 C 379.327 1.20735 1.93644 0
M  V30 3924 C 380.305 0.0983343 1.62302 0
M  V30 3925 O 381.489 0.263997 1.86642 0
M  V30 3926 C 378.616 0.856037 3.27704 0
M  V30 3927 C 377.662 1.97521 3.78005 0
M  V30 3928 S 378.495 3.58906 3.97425 0
M  V30 3929 C 379.651 3.25822 5.34407 0
M  V30 3930 H 379.884 2.15231 2.05093 0
M  V30 3931 H 377.417 1.1964 0.97599 0
M  V30 3932 H 379.375 0.660133 4.05157 0
M  V30 3933 H 378.036 -0.0706253 3.14021 0
M  V30 3934 H 377.229 1.68321 4.75062 0
M  V30 3935 H 376.831 2.12875 3.07507 0
M  V30 3936 H 379.123 2.77812 6.17922 0
M  V30 3937 H 380.066 4.22029 5.68592 0
M  V30 3938 H 380.474 2.61932 5.00052 0
M  V30 3939 N 379.872 -1.04064 1.18357 0
M  V30 3940 C 381.149 -1.74252 0.888581 0
M  V30 3941 C 381.529 -2.02138 -0.60856 0
M  V30 3942 O 380.877 -1.66656 -1.56327 0
M  V30 3943 C 381.087 -3.0277 1.73584 0
M  V30 3944 C 382.435 -3.76506 1.96286 0
M  V30 3945 O 383.459 -3.12668 1.70637 0
M  V30 3946 O 382.318 -4.91243 2.39464 0
M  V30 3947 H 379.412 -0.758271 0.330082 0
M  V30 3948 H 381.958 -1.1013 1.2911 0
M  V30 3949 H 380.73 -2.78299 2.75073 0
M  V30 3950 H 380.353 -3.74631 1.33183 0
M  V30 3951 N 381.35 -0.985608 -1.22978 0
M  V30 3952 C 382.599 -0.652881 -1.90841 0
M  V30 3953 C 382.912 0.817842 -1.77681 0
M  V30 3954 O 384.118 1.26185 -2.40395 0
M  V30 3955 C 382.574 -1.11717 -3.42122 0
M  V30 3956 C 382.182 -2.6126 -3.63933 0
M  V30 3957 C 383.926 -0.85843 -4.1573 0
M  V30 3958 C 381.833 -3.0133 -5.08876 0
M  V30 3959 H 380.763 -0.240491 -0.714619 0
M  V30 3960 H 383.414 -1.1942 -1.39324 0
M  V30 3961 H 381.796 -0.504027 -3.92779 0
M  V30 3962 H 382.97 -3.27858 -3.23799 0
M  V30 3963 H 381.285 -2.84937 -3.03644 0
M  V30 3964 H 383.882 -1.13359 -5.22546 0
M  V30 3965 H 384.225 0.205461 -4.15793 0
M  V30 3966 H 384.758 -1.43341 -3.71077 0
M  V30 3967 H 381.497 -4.06864 -5.13947 0
M  V30 3968 H 381.017 -2.3943 -5.49939 0
M  V30 3969 H 382.696 -2.92224 -5.77247 0
M  V30 3970 N 382.828 1.3818 -0.7579 0
M  V30 3971 C 383.758 2.33027 -0.148597 0
M  V30 3972 C 384.739 1.55085 0.69875 0
M  V30 3973 O 385.924 1.83384 0.639053 0
M  V30 3974 C 383.054 3.3928 0.742034 0
M  V30 3975 C 382.008 4.28 -0.00291946 0
M  V30 3976 C 381.334 5.25146 1.00625 0
M  V30 3977 C 382.634 5.08938 -1.17385 0
M  V30 3978 H 384.328 2.84231 -0.940909 0
M  V30 3979 H 381.874 1.36659 -0.453908 0
M  V30 3980 H 383.827 4.046 1.17799 0
M  V30 3981 H 382.551 2.86569 1.56671 0
M  V30 3982 H 381.21 3.64192 -0.419504 0
M  V30 3983 H 380.858 4.68721 1.8251 0
M  V30 3984 H 380.558 5.85361 0.512428 0
M  V30 3985 H 382.082 5.93342 1.44143 0
M  V30 3986 H 383.496 5.67474 -0.815224 0
M  V30 3987 H 381.893 5.7841 -1.59882 0
M  V30 3988 H 382.963 4.42424 -1.98468 0
M  V30 3989 N 384.306 0.507319 1.49211 0
M  V30 3990 C 385.546 -0.0332372 2.04373 0
M  V30 3991 C 385.91 -1.33694 1.37804 0
M  V30 3992 O 387.111 -1.96213 1.83722 0
M  V30 3993 C 385.382 -0.17599 3.56966 0
M  V30 3994 S 386.941 -0.669882 4.33657 0
M  V30 3995 H 383.759 0.00123603 0.710999 0
M  V30 3996 H 386.361 0.682725 1.83191 0
M  V30 3997 H 385.065 0.778053 4.02957 0
M  V30 3998 H 384.596 -0.917005 3.82563 0
M  V30 3999 H 386.611 -1.93806 4.56786 0
M  V30 4000 N 385.784 -1.5574 0.241426 0
M  V30 4001 C 387.03 -1.99104 -0.385406 0
M  V30 4002 C 387.363 -1.1293 -1.57988 0
M  V30 4003 O 386.638 -0.191449 -1.93555 0
M  V30 4004 C 386.921 -3.51087 -0.800616 0
M  V30 4005 C 386.774 -4.48028 0.398874 0
M  V30 4006 C 388.093 -4.08015 -1.64959 0
M  V30 4007 H 385.212 -0.723848 -0.138614 0
M  V30 4008 H 387.854 -1.86903 0.341642 0
M  V30 4009 H 386.004 -3.61615 -1.4201 0
M  V30 4010 H 387.676 -4.49487 1.03726 0
M  V30 4011 H 385.919 -4.21077 1.04293 0
M  V30 4012 H 386.59 -5.51962 0.0651056 0
M  V30 4013 H 389.066 -4.00555 -1.12672 0
M  V30 4014 H 387.942 -5.14635 -1.90898 0
M  V30 4015 H 388.203 -3.56131 -2.61961 0
M  V30 4016 N 387.262 0.0317525 -1.57568 0
M  V30 4017 C 388.678 0.38735 -1.54828 0
M  V30 4018 C 388.878 1.7677 -0.967187 0
M  V30 4019 O 387.934 2.45581 -0.587063 0
M  V30 4020 C 389.247 0.291667 -2.99282 0
M  V30 4021 C 390.795 0.368946 -3.10818 0
M  V30 4022 C 391.27 0.302741 -4.56998 0
M  V30 4023 N 392.761 0.361617 -4.61786 0
M  V30 4024 C 393.496 0.333238 -5.72431 0
M  V30 4025 N 392.992 0.257308 -6.92322 0
M  V30 4026 N 394.785 0.382769 -5.60795 0
M  V30 4027 H 386.936 -0.871609 -1.93692 0
M  V30 4028 H 389.199 -0.331161 -0.888277 0
M  V30 4029 H 388.905 -0.656794 -3.45513 0
M  V30 4030 H 388.779 1.08638 -3.61217 0
M  V30 4031 H 391.166 1.30784 -2.64536 0
M  V30 4032 H 391.247 -0.455066 -2.5172 0
M  V30 4033 H 390.891 -0.632473 -5.03947 0
M  V30 4034 H 390.821 1.14482 -5.14005 0
M  V30 4035 H 393.312 0.422923 -3.75526 0
M  V30 4036 H 393.625 0.24068 -7.72425 0
M  V30 4037 H 391.97 0.223396 -6.94641 0
M  V30 4038 H 395.161 0.44006 -4.66027 0
M  V30 4039 H 395.334 0.357184 -6.47015 0
M  V30 4040 N 388.74 1.54641 0.303973 0
M  V30 4041 C 389.65 1.88439 1.39743 0
M  V30 4042 C 390.666 0.778239 1.55626 0
M  V30 4043 O 391.842 1.07442 1.70347 0
M  V30 4044 C 388.907 2.12212 2.74166 0
M  V30 4045 C 387.968 3.35936 2.67293 0
M  V30 4046 C 387.201 3.58566 3.95305 0
M  V30 4047 O 387.424 2.84263 4.9452 0
M  V30 4048 O 386.358 4.52078 3.97378 0
M  V30 4049 H 390.184 2.81458 1.14083 0
M  V30 4050 H 387.769 1.40793 0.499768 0
M  V30 4051 H 389.651 2.29067 3.53704 0
M  V30 4052 H 388.326 1.22379 2.99675 0
M  V30 4053 H 387.233 3.24448 1.86237 0
M  V30 4054 H 388.566 4.2589 2.46736 0
M  V30 4055 N 390.218 -0.567019 1.47046 0
M  V30 4056 C 391.181 -1.65696 1.58359 0
M  V30 4057 C 392.181 -1.54097 0.459441 0
M  V30 4058 O 393.371 -1.58432 0.724225 0
M  V30 4059 C 390.503 -3.05197 1.51879 0
M  V30 4060 H 391.696 -1.57019 2.5551 0
M  V30 4061 H 389.249 -0.786148 1.3509 0
M  V30 4062 H 389.984 -3.19417 0.560673 0
M  V30 4063 H 389.769 -3.15025 2.33455 0
M  V30 4064 H 391.259 -3.84511 1.62913 0
M  V30 4065 N 391.696 -1.35014 -0.812953 0
M  V30 4066 C 392.924 -1.31031 -1.6012 0
M  V30 4067 C 393.339 0.113558 -1.88458 0
M  V30 4068 O 392.696 1.06363 -1.48301 0
M  V30 4069 C 392.747 -2.10872 -2.93624 0
M  V30 4070 O 392.468 -3.47706 -2.66518 0
M  V30 4071 C 393.969 -2.14401 -3.88004 0
M  V30 4072 H 391.189 -0.45037 -0.497401 0
M  V30 4073 H 393.733 -1.77775 -1.01076 0
M  V30 4074 H 391.888 -1.67744 -3.492 0
M  V30 4075 H 392.302 -3.89097 -3.51715 0
M  V30 4076 H 393.776 -2.74669 -4.78812 0
M  V30 4077 H 394.253 -1.14105 -4.24119 0
M  V30 4078 H 394.859 -2.57662 -3.38364 0
M  V30 4079 N 393.175 1.03435 -1.18907 0
M  V30 4080 C 394.591 1.28973 -0.940111 0
M  V30 4081 C 394.791 1.97676 0.390691 0
M  V30 4082 O 393.847 2.26127 1.12352 0
M  V30 4083 C 395.16 2.14221 -2.11021 0
M  V30 4084 C 396.708 2.27547 -2.14922 0
M  V30 4085 C 397.183 3.16164 -3.31367 0
M  V30 4086 N 398.674 3.23752 -3.31269 0
M  V30 4087 C 399.409 3.92495 -4.18014 0
M  V30 4088 N 398.905 4.63515 -5.14904 0
M  V30 4089 N 400.698 3.88838 -4.05908 0
M  V30 4090 H 392.849 0.57252 -2.04538 0
M  V30 4091 H 395.112 0.315184 -0.894071 0
M  V30 4092 H 394.818 1.71054 -3.073 0
M  V30 4093 H 394.692 3.14919 -2.0762 0
M  V30 4094 H 397.079 2.69947 -1.19217 0
M  V30 4095 H 397.16 1.26418 -2.22378 0
M  V30 4096 H 396.804 2.74474 -4.27348 0
M  V30 4097 H 396.734 4.17339 -3.21148 0
M  V30 4098 H 399.225 2.73167 -2.61129 0
M  V30 4099 H 399.538 5.13583 -5.77453 0
M  V30 4100 H 397.883 4.62398 -5.18857 0
M  V30 4101 H 401.074 3.32491 -3.29495 0
M  V30 4102 H 401.247 4.4214 -4.73726 0
M  V30 4103 N 394.653 0.992116 1.22453 0
M  V30 4104 C 395.9 0.667534 1.91181 0
M  V30 4105 C 396.228 -0.800317 1.77271 0
M  V30 4106 O 395.483 -1.59421 1.13505 0
M  V30 4107 C 395.782 1.01832 3.42586 0
M  V30 4108 C 395.448 2.47831 3.76684 0
M  V30 4109 C 394.11 2.87729 3.85701 0
M  V30 4110 C 396.462 3.42466 3.92895 0
M  V30 4111 C 393.79 4.21252 4.08367 0
M  V30 4112 C 396.142 4.75648 4.17064 0
M  V30 4113 C 394.806 5.15288 4.24305 0
M  V30 4114 H 394.076 0.244268 0.699581 0
M  V30 4115 H 396.723 1.24816 1.45235 0
M  V30 4116 H 395.028 0.355769 3.90181 0
M  V30 4117 H 396.725 0.745228 3.94014 0
M  V30 4118 H 393.315 2.15905 3.70247 0
M  V30 4119 H 397.499 3.12814 3.85307 0
M  V30 4120 H 392.755 4.51554 4.122 0
M  V30 4121 H 396.929 5.48924 4.2855 0
M  V30 4122 H 394.556 6.18769 4.41621 0
M  V30 4123 N 396.131 -1.37776 0.765217 0
M  V30 4124 C 397.094 -2.28686 0.153416 0
M  V30 4125 C 398.094 -1.47727 -0.635081 0
M  V30 4126 O 399.284 -1.68027 -0.459632 0
M  V30 4127 C 396.416 -3.31608 -0.790495 0
M  V30 4128 H 397.609 -2.84297 0.954723 0
M  V30 4129 H 395.162 -1.46932 0.53299 0
M  V30 4130 H 395.897 -2.81109 -1.61705 0
M  V30 4131 H 395.682 -3.9144 -0.227348 0
M  V30 4132 H 397.172 -3.99559 -1.21419 0
M  V30 4133 N 397.609 -0.515225 -1.4894 0
M  V30 4134 C 398.572 0.244681 -2.2789 0
M  V30 4135 C 399.572 0.881166 -1.34507 0
M  V30 4136 O 400.762 0.743497 -1.57537 0
M  V30 4137 C 397.894 1.35247 -3.12923 0
M  V30 4138 H 399.087 -0.448289 -2.96531 0
M  V30 4139 H 396.64 -0.270656 -1.53939 0
M  V30 4140 H 397.375 2.07916 -2.48881 0
M  V30 4141 H 397.16 0.901374 -3.81599 0
M  V30 4142 H 398.65 1.88737 -3.72516 0
M  V30 4143 N 399.087 1.5561 -0.249682 0
M  V30 4144 C 400.05 2.20217 0.635394 0
M  V30 4145 C 401.05 1.17227 1.10066 0
M  V30 4146 O 402.24 1.42292 1.00492 0
M  V30 4147 C 399.372 2.84794 1.87363 0
M  V30 4148 H 400.565 2.99814 0.0716752 0
M  V30 4149 H 398.118 1.563 -0.000153234 0
M  V30 4150 H 398.853 2.09142 2.47851 0
M  V30 4151 H 398.638 3.60241 1.5482 0
M  V30 4152 H 400.128 3.3423 2.5036 0
M  V30 4153 N 400.565 -0.0233959 1.57583 0
M  V30 4154 C 401.795 -0.723631 1.93513 0
M  V30 4155 C 402.203 -1.69115 0.848333 0
M  V30 4156 O 401.546 -1.82781 -0.183484 0
M  V30 4157 C 401.608 -1.53075 3.25282 0
M  V30 4158 C 401.272 -0.727388 4.51174 0
M  V30 4159 C 402.269 -0.0251924 5.19894 0
M  V30 4160 C 399.954 -0.680256 4.97672 0
M  V30 4161 C 401.948 0.713374 6.33395 0
M  V30 4162 C 399.635 0.0620523 6.11068 0
M  V30 4163 C 400.633 0.757622 6.78785 0
M  V30 4164 O 400.321 1.48787 7.90011 0
M  V30 4165 H 400.053 -0.208051 0.643188 0
M  V30 4166 H 402.607 0.0167489 2.05393 0
M  V30 4167 H 400.837 -2.31508 3.09744 0
M  V30 4168 H 402.526 -2.11413 3.46496 0
M  V30 4169 H 403.292 -0.0526003 4.84971 0
M  V30 4170 H 399.171 -1.21116 4.44805 0
M  V30 4171 H 402.715 1.25683 6.86185 0
M  V30 4172 H 398.612 0.0913634 6.45435 0
M  V30 4173 H 399.38 1.40213 8.06401 0
M  V30 4174 N 402.043 -1.548 -0.295768 0
M  V30 4175 C 403.283 -1.76069 -1.03823 0
M  V30 4176 C 403.647 -0.537992 -1.84309 0
M  V30 4177 O 404.848 -0.628514 -2.61349 0
M  V30 4178 C 403.119 -3.01705 -1.91596 0
M  V30 4179 S 404.678 -3.43998 -2.72416 0
M  V30 4180 H 401.496 -0.618852 -0.350062 0
M  V30 4181 H 404.098 -1.93009 -0.31106 0
M  V30 4182 H 402.802 -3.88812 -1.31351 0
M  V30 4183 H 402.333 -2.87366 -2.68671 0
M  V30 4184 H 404.348 -3.0148 -3.94112 0
M  V30 4185 N 403.521 0.559213 -1.47345 0
M  V30 4186 C 404.937 0.884943 -1.32819 0
M  V30 4187 C 405.137 1.98988 -0.317173 0
M  V30 4188 O 404.193 2.51031 0.272011 0
M  V30 4189 C 405.506 1.28007 -2.72093 0
M  V30 4190 C 407.054 1.39161 -2.80363 0
M  V30 4191 C 407.529 1.82031 -4.20272 0
M  V30 4192 N 409.02 1.89185 -4.22804 0
M  V30 4193 C 409.755 2.2368 -5.27973 0
M  V30 4194 N 409.251 2.56802 -6.43447 0
M  V30 4195 N 411.044 2.24436 -5.15349 0
M  V30 4196 H 403.195 -0.170304 -2.11716 0
M  V30 4197 H 405.458 -0.0135247 -0.947904 0
M  V30 4198 H 405.164 0.542027 -3.47498 0
M  V30 4199 H 405.038 2.23665 -3.03733 0
M  V30 4200 H 407.425 2.12048 -2.05231 0
M  V30 4201 H 407.506 0.41696 -2.52379 0
M  V30 4202 H 407.15 1.09715 -4.95908 0
M  V30 4203 H 407.08 2.80495 -4.45679 0
M  V30 4204 H 409.571 1.65982 -3.39497 0
M  V30 4205 H 409.884 2.82144 -7.19454 0
M  V30 4206 H 408.229 2.54387 -6.46771 0
M  V30 4207 H 411.42 1.97998 -4.24163 0
M  V30 4208 H 411.593 2.50989 -5.97418 0
M  V30 4209 N 404.999 1.35443 0.805782 0
M  V30 4210 C 406.224 1.32037 1.59941 0
M  V30 4211 C 406.649 -0.0994215 1.87837 0
M  V30 4212 O 406.007 -1.06648 1.46615 0
M  V30 4213 C 406.055 2.13354 2.90711 0
M  V30 4214 O 405.159 1.5148 3.83572 0
M  V30 4215 H 404.5 0.452666 0.485787 0
M  V30 4216 H 407.03 1.78496 1.00002 0
M  V30 4217 H 407.04 2.25338 3.40128 0
M  V30 4218 H 405.715 3.16572 2.69732 0
M  V30 4219 H 404.292 1.4834 3.42125 0
M  V30 4220 N 406.477 -1.02803 1.19454 0
M  V30 4221 C 407.725 -1.75869 0.995722 0
M  V30 4222 C 408.046 -1.89138 -0.474543 0
M  V30 4223 O 407.316 -1.42558 -1.34366 0
M  V30 4224 H 405.896 -0.651511 0.365435 0
M  V30 4225 H 408.558 -1.24004 1.50363 0
M  V30 4226 H 407.654 -2.76661 1.44447 0
M  V30 4227 N 407.956 -0.998596 -1.21925 0
M  V30 4228 C 408.903 -0.553621 -2.24062 0
M  V30 4229 C 409.873 0.416999 -1.6078 0
M  V30 4230 O 411.058 0.320482 -1.88089 0
M  V30 4231 C 408.198 0.119959 -3.44891 0
M  V30 4232 C 407.311 -0.893077 -4.22668 0
M  V30 4233 C 406.446 -0.192424 -5.30851 0
M  V30 4234 C 405.485 -1.19344 -6.00353 0
M  V30 4235 N 404.622 -0.520707 -7.00166 0
M  V30 4236 H 409.462 -1.4293 -2.61486 0
M  V30 4237 H 406.999 -0.715838 -1.28507 0
M  V30 4238 H 408.957 0.527459 -4.13852 0
M  V30 4239 H 407.587 0.959389 -3.08214 0
M  V30 4240 H 406.639 -1.41886 -3.52948 0
M  V30 4241 H 407.951 -1.65512 -4.70539 0
M  V30 4242 H 407.105 0.271515 -6.06092 0
M  V30 4243 H 405.844 0.602075 -4.83969 0
M  V30 4244 H 404.849 -1.66795 -5.23889 0
M  V30 4245 H 406.074 -1.98891 -6.49322 0
M  V30 4246 H 404.02 0.254252 -6.55507 0
M  V30 4247 H 403.937 -1.2211 -7.46073 0
M  V30 4248 H 405.205 -0.0797596 -7.79459 0
M  V30 4249 N 409.434 1.37368 -0.772513 0
M  V30 4250 C 410.682 1.99279 -0.336516 0
M  V30 4251 C 411.003 1.6163 1.09091 0
M  V30 4252 O 410.273 0.882109 1.74916 0
M  V30 4253 H 408.853 0.737063 -0.121435 0
M  V30 4254 H 411.515 1.67836 -0.990809 0
M  V30 4255 H 410.611 3.09332 -0.414763 0
M  V30 4256 N 410.912 0.523116 1.48665 0
M  V30 4257 C 412.323 0.0808997 1.86525 0
M  V30 4258 C 412.674 -1.33975 1.43336 0
M  V30 4259 O 411.799 -2.00221 0.821009 0
M  V30 4260 C 412.394 0.140037 3.3851 0
M  V30 4261 C 410.953 -0.246948 3.75589 0
M  V30 4262 C 410.1 0.502845 2.72703 0
M  V30 4263 H 413.051 0.734736 1.40667 0
M  V30 4264 H 413.072 -0.649945 3.74908 0
M  V30 4265 H 412.584 1.17412 3.69914 0
M  V30 4266 H 410.685 -1.28343 3.49798 0
M  V30 4267 H 410.798 0.0878859 4.79019 0
M  V30 4268 H 409.162 -0.0500581 2.54651 0
M  V30 4269 H 409.945 1.53743 3.0695 0
M  V30 4270 N 412.39 -1.55475 0.257931 0
M  V30 4271 C 413.639 -1.98383 -0.364275 0
M  V30 4272 C 413.952 -1.14952 -1.58258 0
M  V30 4273 O 415.158 -1.47924 -2.27664 0
M  V30 4274 C 413.614 -3.53037 -0.699479 0
M  V30 4275 C 413.222 -4.45223 0.498046 0
M  V30 4276 C 414.966 -4.04575 -1.28526 0
M  V30 4277 C 412.873 -5.91238 0.138383 0
M  V30 4278 H 411.803 -0.740911 -0.13988 0
M  V30 4279 H 414.454 -1.79936 0.359883 0
M  V30 4280 H 412.836 -3.6722 -1.48207 0
M  V30 4281 H 414.01 -4.42803 1.27522 0
M  V30 4282 H 412.325 -4.04226 0.999503 0
M  V30 4283 H 414.922 -5.11196 -1.56788 0
M  V30 4284 H 415.265 -3.5258 -2.21344 0
M  V30 4285 H 415.798 -3.93762 -0.565337 0
M  V30 4286 H 412.537 -6.47294 1.03398 0
M  V30 4287 H 412.057 -5.96768 -0.602374 0
M  V30 4288 H 413.736 -6.46413 -0.27553 0
M  V30 4289 N 413.868 0.0150385 -1.57593 0
M  V30 4290 C 414.798 1.01047 -2.10503 0
M  V30 4291 C 415.779 1.36816 -1.01071 0
M  V30 4292 O 416.964 1.45455 -1.28672 0
M  V30 4293 C 414.094 2.30708 -2.59598 0
M  V30 4294 C 413.048 2.09142 -3.73421 0
M  V30 4295 C 412.374 3.44685 -4.08774 0
M  V30 4296 C 413.674 1.46619 -5.01298 0
M  V30 4297 H 415.368 0.569978 -2.93925 0
M  V30 4298 H 412.914 0.272724 -1.41394 0
M  V30 4299 H 414.867 3.00687 -2.95238 0
M  V30 4300 H 413.591 2.76843 -1.73279 0
M  V30 4301 H 412.25 1.41592 -3.38153 0
M  V30 4302 H 411.898 3.88495 -3.195 0
M  V30 4303 H 411.598 3.31077 -4.8545 0
M  V30 4304 H 413.122 4.16004 -4.4696 0
M  V30 4305 H 414.536 2.06535 -5.34805 0
M  V30 4306 H 412.933 1.43544 -5.82679 0
M  V30 4307 H 414.003 0.433611 -4.82957 0
M  V30 4308 N 415.346 1.54954 0.287554 0
M  V30 4309 C 416.279 1.81737 1.3801 0
M  V30 4310 C 417.257 0.669412 1.48181 0
M  V30 4311 O 418.441 0.910839 1.65033 0
M  V30 4312 C 415.568 1.96606 2.75796 0
M  V30 4313 C 414.614 3.19098 2.82982 0
M  V30 4314 S 415.447 4.7683 2.43707 0
M  V30 4315 C 416.603 4.94653 3.83496 0
M  V30 4316 H 416.836 2.74122 1.15085 0
M  V30 4317 H 414.369 1.46538 0.486403 0
M  V30 4318 H 416.327 2.05858 3.55152 0
M  V30 4319 H 414.988 1.05136 2.95982 0
M  V30 4320 H 414.181 3.26344 3.84077 0
M  V30 4321 H 413.783 3.08361 2.11635 0
M  V30 4322 H 416.075 4.79502 4.78628 0
M  V30 4323 H 417.018 5.96728 3.8121 0
M  V30 4324 H 417.426 4.2272 3.74123 0
M  V30 4325 N 416.824 -0.551391 1.4764 0
M  V30 4326 C 417.734 -1.68525 1.63207 0
M  V30 4327 C 418.75 -1.6621 0.514815 0
M  V30 4328 O 419.926 -1.85551 0.783113 0
M  V30 4329 C 416.991 -3.05025 1.64805 0
M  V30 4330 C 416.052 -3.18362 2.88 0
M  V30 4331 C 415.285 -4.4835 2.89513 0
M  V30 4332 O 415.508 -5.34163 2.00065 0
M  V30 4333 O 414.442 -4.65602 3.81443 0
M  V30 4334 H 418.268 -1.58333 2.59161 0
M  V30 4335 H 415.853 -0.722063 1.30792 0
M  V30 4336 H 417.735 -3.86245 1.68502 0
M  V30 4337 H 416.41 -3.15587 0.720197 0
M  V30 4338 H 415.317 -2.36518 2.89845 0
M  V30 4339 H 416.65 -3.12707 3.80099 0
M  V30 4340 N 418.302 -1.35869 -0.798587 0
M  V30 4341 C 419.232 -1.32118 -1.92528 0
M  V30 4342 C 420.213 -0.194209 -1.68988 0
M  V30 4343 O 421.398 -0.390426 -1.90235 0
M  V30 4344 C 418.528 -1.10047 -3.29404 0
M  V30 4345 C 417.482 -2.19471 -3.67446 0
M  V30 4346 C 416.808 -1.82555 -5.02571 0
M  V30 4347 C 418.108 -3.61495 -3.76987 0
M  V30 4348 H 419.802 -2.26394 -1.95924 0
M  V30 4349 H 417.348 -1.08981 -0.94123 0
M  V30 4350 H 419.301 -1.06061 -4.07835 0
M  V30 4351 H 418.025 -0.122195 -3.26371 0
M  V30 4352 H 416.684 -2.22568 -2.91306 0
M  V30 4353 H 416.332 -0.833249 -4.9605 0
M  V30 4354 H 416.032 -2.5581 -5.28995 0
M  V30 4355 H 417.556 -1.80108 -5.83432 0
M  V30 4356 H 418.97 -3.60676 -4.4563 0
M  V30 4357 H 417.367 -4.33577 -4.14887 0
M  V30 4358 H 418.437 -3.97065 -2.78329 0
M  V30 4359 N 419.78 1.02168 -1.19998 0
M  V30 4360 C 420.712 2.10705 -0.901994 0
M  V30 4361 C 421.725 1.6244 0.108216 0
M  V30 4362 O 422.914 1.78082 -0.12214 0
M  V30 4363 C 420.014 3.37291 -0.329834 0
M  V30 4364 C 419.187 4.14714 -1.39035 0
M  V30 4365 C 418.246 5.19606 -0.830432 0
M  V30 4366 O 417.272 5.48809 -1.50989 0
M  V30 4367 N 418.474 5.79366 0.362696 0
M  V30 4368 H 421.239 2.36856 -1.83628 0
M  V30 4369 H 418.8 1.18518 -1.10296 0
M  V30 4370 H 420.792 4.04657 0.0587633 0
M  V30 4371 H 419.362 3.0843 0.508891 0
M  V30 4372 H 418.582 3.42392 -1.9535 0
M  V30 4373 H 419.87 4.63226 -2.10474 0
M  V30 4374 H 419.268 5.57968 0.932081 0
M  V30 4375 H 417.825 6.48106 0.69299 0
M  V30 4376 N 421.258 1.00505 1.21394 0
M  V30 4377 C 422.486 0.706609 1.9446 0
M  V30 4378 C 422.901 -0.73081 1.74082 0
M  V30 4379 O 422.258 -1.49446 1.04747 0
M  V30 4380 C 422.309 1.01824 3.46863 0
M  V30 4381 O 422.03 2.39919 3.66566 0
M  V30 4382 C 423.531 0.739216 4.37093 0
M  V30 4383 H 420.751 0.260394 0.618414 0
M  V30 4384 H 423.295 1.34311 1.54211 0
M  V30 4385 H 421.45 0.427343 3.85036 0
M  V30 4386 H 421.864 2.50784 4.6066 0
M  V30 4387 H 423.338 1.00744 5.42729 0
M  V30 4388 H 423.815 -0.326746 4.37983 0
M  V30 4389 H 424.421 1.31173 4.04566 0
M  V30 4390 N 422.737 -1.36956 0.779787 0
M  V30 4391 C 423.967 -2.03459 0.358877 0
M  V30 4392 C 424.375 -1.58939 -1.02641 0
M  V30 4393 O 423.718 -0.769777 -1.66794 0
M  V30 4394 C 423.78 -3.5796 0.332393 0
M  V30 4395 C 423.444 -4.25644 1.66362 0
M  V30 4396 C 424.441 -4.49205 2.61746 0
M  V30 4397 C 422.126 -4.63313 1.94027 0
M  V30 4398 C 424.12 -5.09503 3.82996 0
M  V30 4399 C 421.807 -5.2333 3.15546 0
M  V30 4400 C 422.805 -5.46363 4.0985 0
M  V30 4401 O 422.493 -6.05122 5.29228 0
M  V30 4402 H 422.225 -0.659767 0.147254 0
M  V30 4403 H 424.779 -1.76111 1.05708 0
M  V30 4404 H 423.009 -3.84388 -0.422237 0
M  V30 4405 H 424.698 -4.05852 -0.0625389 0
M  V30 4406 H 425.464 -4.20508 2.41657 0
M  V30 4407 H 421.343 -4.44715 1.21448 0
M  V30 4408 H 424.887 -5.27397 4.56617 0
M  V30 4409 H 420.784 -5.51451 3.35517 0
M  V30 4410 H 421.552 -6.23595 5.30161 0
M  V30 4411 N 424.215 -0.530993 -1.48385 0
M  V30 4412 C 425.631 -0.188919 -1.58478 0
M  V30 4413 C 425.831 1.30786 -1.53288 0
M  V30 4414 O 424.887 2.08619 -1.42248 0
M  V30 4415 C 426.2 -0.792343 -2.90073 0
M  V30 4416 C 427.748 -0.76117 -3.03604 0
M  V30 4417 C 428.223 -1.34319 -4.37861 0
M  V30 4418 N 429.714 -1.3052 -4.44431 0
M  V30 4419 C 430.449 -1.72543 -5.46824 0
M  V30 4420 N 429.945 -2.22299 -6.56167 0
M  V30 4421 N 431.738 -1.63773 -5.37712 0
M  V30 4422 H 423.889 -1.50377 -1.50002 0
M  V30 4423 H 426.152 -0.625559 -0.712306 0
M  V30 4424 H 425.858 -1.84323 -2.99529 0
M  V30 4425 H 425.732 -0.270026 -3.76232 0
M  V30 4426 H 428.119 0.280957 -2.93759 0
M  V30 4427 H 428.2 -1.32097 -2.19053 0
M  V30 4428 H 427.844 -2.38425 -4.4846 0
M  V30 4429 H 427.774 -0.759064 -5.21101 0
M  V30 4430 H 430.265 -0.940973 -3.65997 0
M  V30 4431 H 430.578 -2.52356 -7.30436 0
M  V30 4432 H 428.923 -2.26293 -6.57127 0
M  V30 4433 H 432.114 -1.24698 -4.51185 0
M  V30 4434 H 432.287 -1.96844 -6.17379 0
M  V30 4435 N 425.693 1.55336 -0.266172 0
M  V30 4436 C 426.923 2.03506 0.356239 0
M  V30 4437 C 427.331 1.14426 1.50676 0
M  V30 4438 O 426.674 0.155043 1.83045 0
M  V30 4439 C 426.736 3.47848 0.90785 0
M  V30 4440 C 426.4 4.56861 -0.112888 0
M  V30 4441 C 427.397 5.11528 -0.929264 0
M  V30 4442 C 425.082 5.01704 -0.244546 0
M  V30 4443 C 427.076 6.09549 -1.86357 0
M  V30 4444 C 424.763 5.99553 -1.18234 0
M  V30 4445 C 425.761 6.53356 -1.99036 0
M  V30 4446 O 425.449 7.49293 -2.91231 0
M  V30 4447 H 425.181 0.670444 0.08649 0
M  V30 4448 H 427.735 2.01598 -0.39337 0
M  V30 4449 H 425.965 3.46967 1.70737 0
M  V30 4450 H 427.654 3.79407 1.44239 0
M  V30 4451 H 428.42 4.77701 -0.838237 0
M  V30 4452 H 424.299 4.59477 0.374359 0
M  V30 4453 H 427.843 6.51469 -2.49467 0
M  V30 4454 H 423.74 6.32799 -1.27421 0
M  V30 4455 H 424.508 7.66978 -2.8581 0
M  V30 4456 N 427.171 -0.0066808 1.57599 0
M  V30 4457 C 428.121 -1.0086 2.04478 0
M  V30 4458 C 429.105 -1.30714 0.938231 0
M  V30 4459 O 430.297 -1.29924 1.20203 0
M  V30 4460 C 427.426 -2.30273 2.54615 0
M  V30 4461 C 426.512 -2.03413 3.72134 0
M  V30 4462 N 426.903 -1.46688 4.84062 0
M  V30 4463 C 425.201 -2.33589 3.79937 0
M  V30 4464 C 425.902 -1.36146 5.65543 0
M  V30 4465 N 424.878 -1.84477 5.1134 0
M  V30 4466 H 428.68 -0.564402 2.8843 0
M  V30 4467 H 426.194 -0.212521 1.61003 0
M  V30 4468 H 428.191 -3.02885 2.86472 0
M  V30 4469 H 426.851 -2.75352 1.72079 0
M  V30 4470 H 427.862 -1.14658 5.05049 0
M  V30 4471 H 424.539 -2.81589 3.08243 0
M  V30 4472 H 425.929 -0.925873 6.6549 0
M  V30 4473 N 428.649 -1.55105 -0.279332 0
M  V30 4474 C 429.897 -1.75066 -1.00977 0
M  V30 4475 C 430.218 -0.551276 -1.87045 0
M  V30 4476 O 429.488 0.433984 -1.91032 0
M  V30 4477 H 428.068 -0.645578 -0.375816 0
M  V30 4478 H 430.73 -1.92497 -0.305089 0
M  V30 4479 H 429.826 -2.64894 -1.65038 0
M  V30 4480 N 430.127 0.543554 -1.4793 0
M  V30 4481 C 431.077 1.64527 -1.57844 0
M  V30 4482 C 432.061 1.54869 -0.436408 0
M  V30 4483 O 433.253 1.63119 -0.687101 0
M  V30 4484 C 430.382 3.03281 -1.6086 0
M  V30 4485 C 429.468 3.18093 -2.80495 0
M  V30 4486 N 429.859 3.02923 -4.05057 0
M  V30 4487 C 428.157 3.49121 -2.77543 0
M  V30 4488 C 428.858 3.20791 -4.85251 0
M  V30 4489 N 427.834 3.47749 -4.17818 0
M  V30 4490 H 431.636 1.51388 -2.5191 0
M  V30 4491 H 429.15 0.748671 -1.44113 0
M  V30 4492 H 431.147 3.82403 -1.66054 0
M  V30 4493 H 429.807 3.17521 -0.678996 0
M  V30 4494 H 430.818 2.79966 -4.35705 0
M  V30 4495 H 427.495 3.69804 -1.93781 0
M  V30 4496 H 428.885 3.13915 -5.9406 0
M  V30 4497 N 431.605 1.3629 0.791371 0
M  V30 4498 C 432.83 1.33726 1.58531 0
M  V30 4499 C 433.255 -0.0794933 1.87932 0
M  V30 4500 O 432.613 -1.05087 1.47738 0
M  V30 4501 C 432.661 2.16425 2.88431 0
M  V30 4502 O 431.765 1.5554 3.81944 0
M  V30 4503 H 431.106 0.457793 0.480959 0
M  V30 4504 H 433.636 1.79547 0.981031 0
M  V30 4505 H 433.646 2.28933 3.37718 0
M  V30 4506 H 432.321 3.19415 2.66359 0
M  V30 4507 H 430.898 1.51961 3.40532 0
M  V30 4508 N 433.083 -1.0153 1.20538 0
M  V30 4509 C 434.016 -2.09759 0.898695 0
M  V30 4510 C 434.994 -1.61909 -0.149733 0
M  V30 4511 O 436.178 -1.88486 -0.0230293 0
M  V30 4512 C 433.305 -3.36913 0.347512 0
M  V30 4513 C 432.351 -4.03655 1.37713 0
M  V30 4514 S 433.184 -4.47402 2.94265 0
M  V30 4515 C 434.34 -5.77756 2.40726 0
M  V30 4516 H 434.573 -2.3545 1.81523 0
M  V30 4517 H 432.106 -1.14665 1.03399 0
M  V30 4518 H 434.064 -4.10484 0.0360518 0
M  V30 4519 H 432.725 -3.09291 -0.547546 0
M  V30 4520 H 431.918 -4.9514 0.940872 0
M  V30 4521 H 431.52 -3.36313 1.63614 0
M  V30 4522 H 433.812 -6.52994 1.80569 0
M  V30 4523 H 434.755 -6.2618 3.30612 0
M  V30 4524 H 435.163 -5.34081 1.82806 0
M  V30 4525 N 434.561 -1.01147 -1.20859 0
M  V30 4526 C 435.786 -0.716698 -1.94623 0
M  V30 4527 C 436.211 0.715415 -1.73964 0
M  V30 4528 O 435.569 1.49157 -1.03062 0
M  V30 4529 C 435.617 -1.0513 -3.44935 0
M  V30 4530 O 434.721 -0.160131 -4.12089 0
M  V30 4531 H 434.062 -0.266404 -0.608214 0
M  V30 4532 H 436.592 -1.35346 -1.53436 0
M  V30 4533 H 436.602 -1.00086 -3.95533 0
M  V30 4534 H 435.277 -2.09475 -3.59295 0
M  V30 4535 H 433.854 -0.267657 -3.71938 0
M  V30 4536 N 436.039 1.36541 -0.78704 0
M  V30 4537 C 437.316 1.9355 -0.282424 0
M  V30 4538 C 437.696 1.71919 1.22503 0
M  V30 4539 O 437.044 1.07677 2.01539 0
M  V30 4540 C 437.254 3.4246 -0.672462 0
M  V30 4541 C 438.602 4.19582 -0.650863 0
M  V30 4542 O 439.626 3.50889 -0.612789 0
M  V30 4543 O 438.485 5.42106 -0.691623 0
M  V30 4544 H 435.579 0.824091 -0.0693 0
M  V30 4545 H 438.125 1.45736 -0.869423 0
M  V30 4546 H 436.897 3.51851 -1.71221 0
M  V30 4547 H 436.52 3.97556 -0.0592211 0
M  V30 4548 N 437.518 0.538854 1.48102 0
M  V30 4549 C 438.929 0.100679 1.86428 0
M  V30 4550 C 439.28 -1.32447 1.44749 0
M  V30 4551 O 438.405 -1.99339 0.842199 0
M  V30 4552 C 439 0.175933 3.38343 0
M  V30 4553 C 437.559 -0.207098 3.7583 0
M  V30 4554 C 436.706 0.531741 2.72154 0
M  V30 4555 H 439.657 0.749614 1.3988 0
M  V30 4556 H 439.678 -0.610144 3.75576 0
M  V30 4557 H 439.19 1.21328 3.68648 0
M  V30 4558 H 437.291 -1.24626 3.5114 0
M  V30 4559 H 437.404 0.138687 4.78899 0
M  V30 4560 H 435.768 -0.0230462 2.5469 0
M  V30 4561 H 436.551 1.56989 3.05302 0
M  V30 4562 N 438.996 -1.55193 0.274407 0
M  V30 4563 C 440.244 -1.99187 -0.341902 0
M  V30 4564 C 440.565 -1.16422 -1.56431 0
M  V30 4565 O 439.835 -0.253573 -1.94252 0
M  V30 4566 H 438.415 -0.735721 -0.129317 0
M  V30 4567 H 441.077 -1.91168 0.379578 0
M  V30 4568 H 440.173 -3.05629 -0.632253 0
M  V30 4569 N 440.474 -0.00167713 -1.576 0
M  V30 4570 C 441.72 0.683832 -1.90923 0
M  V30 4571 C 442.053 1.7333 -0.875799 0
M  V30 4572 O 441.328 1.94215 0.10525 0
M  V30 4573 C 441.611 1.32543 -3.3482 0
M  V30 4574 C 441.464 0.287387 -4.48881 0
M  V30 4575 C 442.783 2.25114 -3.78169 0
M  V30 4576 H 439.902 0.247125 -0.694333 0
M  V30 4577 H 442.544 -0.0533149 -1.89925 0
M  V30 4578 H 440.694 1.95372 -3.35801 0
M  V30 4579 H 442.366 -0.341346 -4.60035 0
M  V30 4580 H 440.609 -0.39017 -4.32042 0
M  V30 4581 H 441.28 0.775393 -5.46527 0
M  V30 4582 H 443.756 1.723 -3.7875 0
M  V30 4583 H 442.632 2.66971 -4.79602 0
M  V30 4584 H 442.893 3.13092 -3.12131 0
M  V30 4585 N 441.952 1.55251 0.271103 0
M  V30 4586 C 443.177 1.80306 1.02491 0
M  V30 4587 C 443.602 0.575457 1.79081 0
M  V30 4588 O 442.96 -0.474987 1.74967 0
M  V30 4589 C 443.008 3.02832 1.95768 0
M  V30 4590 O 442.112 2.78051 3.04568 0
M  V30 4591 H 441.453 0.595896 0.292923 0
M  V30 4592 H 443.983 2.02397 0.299436 0
M  V30 4593 H 443.993 3.31616 2.37686 0
M  V30 4594 H 442.668 3.9183 1.39434 0
M  V30 4595 H 441.245 2.60369 2.66951 0
M  V30 4596 N 443.43 -0.535701 1.48216 0
M  V30 4597 C 444.66 -1.3148 1.59363 0
M  V30 4598 C 445.068 -1.8753 0.250844 0
M  V30 4599 O 444.411 -1.66821 -0.769174 0
M  V30 4600 C 444.473 -2.50731 2.57632 0
M  V30 4601 C 444.137 -2.15811 4.02833 0
M  V30 4602 C 445.134 -1.71822 4.90686 0
M  V30 4603 C 442.819 -2.26509 4.48329 0
M  V30 4604 C 444.813 -1.3899 6.22062 0
M  V30 4605 C 442.5 -1.93289 5.79726 0
M  V30 4606 C 443.498 -1.49599 6.66415 0
M  V30 4607 O 443.186 -1.16812 7.95368 0
M  V30 4608 H 442.918 -0.406315 0.540263 0
M  V30 4609 H 445.472 -0.653569 1.94725 0
M  V30 4610 H 443.702 -3.19817 2.1738 0
M  V30 4611 H 445.391 -3.12797 2.58675 0
M  V30 4612 H 446.157 -1.63031 4.56778 0
M  V30 4613 H 442.036 -2.59471 3.81045 0
M  V30 4614 H 445.58 -1.04816 6.89681 0
M  V30 4615 H 441.477 -2.01718 6.13172 0
M  V30 4616 H 442.245 -1.30259 8.08069 0
M  V30 4617 N 444.908 -1.36708 -0.784132 0
M  V30 4618 C 446.324 -1.17237 -1.08294 0
M  V30 4619 C 446.524 -5.93947e-05 -2.015 0
M  V30 4620 O 445.58 0.663686 -2.43622 0
M  V30 4621 C 446.893 -2.48557 -1.69233 0
M  V30 4622 C 448.441 -2.54968 -1.8155 0
M  V30 4623 C 448.916 -3.86388 -2.45904 0
M  V30 4624 N 450.407 -3.87762 -2.53367 0
M  V30 4625 C 451.142 -4.86191 -3.03983 0
M  V30 4626 N 450.638 -5.95015 -3.54866 0
M  V30 4627 N 452.431 -4.73606 -3.02743 0
M  V30 4628 H 444.582 -2.11758 -0.16501 0
M  V30 4629 H 446.845 -0.93822 -0.135822 0
M  V30 4630 H 446.551 -3.34638 -1.08215 0
M  V30 4631 H 446.425 -2.64748 -2.68679 0
M  V30 4632 H 448.812 -1.69302 -2.41704 0
M  V30 4633 H 448.893 -2.42672 -0.80895 0
M  V30 4634 H 448.537 -4.72462 -1.86392 0
M  V30 4635 H 448.467 -3.95982 -3.4714 0
M  V30 4636 H 450.958 -3.09145 -2.17343 0
M  V30 4637 H 451.271 -6.66086 -3.91854 0
M  V30 4638 H 449.616 -5.98676 -3.53003 0
M  V30 4639 H 452.807 -3.87717 -2.62284 0
M  V30 4640 H 452.98 -5.50473 -3.41881 0
M  V30 4641 N 446.386 1.0089 -1.21074 0
M  V30 4642 C 447.614 1.78191 -1.05145 0
M  V30 4643 C 448.029 1.84537 0.398952 0
M  V30 4644 O 447.386 1.30393 1.27687 0
M  V30 4645 C 447.437 3.22288 -1.63746 0
M  V30 4646 O 447.158 3.16315 -3.03111 0
M  V30 4647 C 448.659 4.16106 -1.52875 0
M  V30 4648 H 445.879 0.560129 -0.369454 0
M  V30 4649 H 448.423 1.26945 -1.60328 0
M  V30 4650 H 446.578 3.70655 -1.12664 0
M  V30 4651 H 446.992 4.06817 -3.31059 0
M  V30 4652 H 448.466 5.15026 -1.98626 0
M  V30 4653 H 448.943 4.36541 -0.482521 0
M  V30 4654 H 449.549 3.73625 -2.03185 0
M  V30 4655 N 447.864 1.01787 1.20321 0
M  V30 4656 C 449.28 0.732951 1.41774 0
M  V30 4657 C 449.48 -0.686883 1.89431 0
M  V30 4658 O 448.536 -1.45446 2.06402 0
M  V30 4659 C 449.849 1.75973 2.43832 0
M  V30 4660 C 451.397 1.77802 2.57596 0
M  V30 4661 C 451.872 2.7941 3.62897 0
M  V30 4662 N 453.363 2.78157 3.70382 0
M  V30 4663 C 454.098 3.53434 4.51521 0
M  V30 4664 N 453.594 4.38392 5.36455 0
M  V30 4665 N 455.387 3.42026 4.46066 0
M  V30 4666 H 447.538 1.93447 0.877035 0
M  V30 4667 H 449.801 0.835712 0.447536 0
M  V30 4668 H 449.507 2.77699 2.15815 0
M  V30 4669 H 449.381 1.57292 3.4284 0
M  V30 4670 H 451.768 0.767602 2.84942 0
M  V30 4671 H 451.849 2.00557 1.58779 0
M  V30 4672 H 451.493 3.80616 3.36295 0
M  V30 4673 H 451.423 2.53916 4.61339 0
M  V30 4674 H 453.914 2.16531 3.09714 0
M  V30 4675 H 454.227 4.92596 5.95457 0
M  V30 4676 H 452.572 4.4247 5.35953 0
M  V30 4677 H 455.763 2.75075 3.78749 0
M  V30 4678 H 455.936 4.00946 5.09064 0
M  V30 4679 N 449.342 -1.36122 0.79427 0
M  V30 4680 C 450.252 -2.33769 0.197296 0
M  V30 4681 C 451.268 -1.61276 -0.653153 0
M  V30 4682 O 452.444 -1.9323 -0.5678 0
M  V30 4683 C 449.509 -3.40474 -0.654098 0
M  V30 4684 C 448.57 -4.28759 0.215411 0
M  V30 4685 C 447.803 -5.30368 -0.595443 0
M  V30 4686 O 448.026 -5.40211 -1.83107 0
M  V30 4687 O 446.96 -6.019 0.00721351 0
M  V30 4688 H 450.786 -2.86597 1.00478 0
M  V30 4689 H 448.371 -1.38676 0.555818 0
M  V30 4690 H 450.253 -4.05703 -1.13944 0
M  V30 4691 H 448.928 -2.89937 -1.43938 0
M  V30 4692 H 447.835 -3.66554 0.747615 0
M  V30 4693 H 449.168 -4.82661 0.964332 0
M  V30 4694 N 450.82 -0.546701 -1.47814 0
M  V30 4695 C 451.73 0.21026 -2.33656 0
M  V30 4696 C 452.746 0.922413 -1.47538 0
M  V30 4697 O 453.922 0.893652 -1.80488 0
M  V30 4698 C 450.987 1.23348 -3.24016 0
M  V30 4699 C 450.048 0.529883 -4.26017 0
M  V30 4700 C 449.281 1.50435 -5.12059 0
M  V30 4701 O 449.504 2.73837 -5.00369 0
M  V30 4702 O 448.438 1.03459 -5.92942 0
M  V30 4703 H 452.264 -0.493605 -2.99662 0
M  V30 4704 H 449.849 -0.307427 -1.46203 0
M  V30 4705 H 451.731 1.82438 -3.79861 0
M  V30 4706 H 450.406 1.91945 -2.60651 0
M  V30 4707 H 449.313 -0.101948 -3.73961 0
M  V30 4708 H 450.646 -0.11445 -4.92067 0
M  V30 4709 N 452.299 1.55045 -0.282633 0
M  V30 4710 C 453.548 1.98938 0.332667 0
M  V30 4711 C 453.861 1.17455 1.56409 0
M  V30 4712 O 455.067 1.51527 2.25282 0
M  V30 4713 C 453.523 3.54105 0.643226 0
M  V30 4714 C 453.131 4.44374 -0.568814 0
M  V30 4715 C 454.875 4.06569 1.22074 0
M  V30 4716 C 452.782 5.90943 -0.232426 0
M  V30 4717 H 451.712 0.743043 0.128075 0
M  V30 4718 H 454.363 1.79341 -0.388464 0
M  V30 4719 H 452.745 3.69532 1.42346 0
M  V30 4720 H 453.919 4.40718 -1.34551 0
M  V30 4721 H 452.234 4.02585 -1.06369 0
M  V30 4722 H 454.831 5.13626 1.48635 0
M  V30 4723 H 455.174 3.56057 2.15707 0
M  V30 4724 H 455.707 3.94612 0.502621 0
M  V30 4725 H 452.446 6.45567 -1.13683 0
M  V30 4726 H 451.966 5.9765 0.507357 0
M  V30 4727 H 453.645 6.4677 0.172657 0
M  V30 4728 N 453.777 0.010035 1.57597 0
M  V30 4729 C 454.709 -1.00649 2.05918 0
M  V30 4730 C 455.722 -1.30077 0.978964 0
M  V30 4731 O 456.911 -1.26878 1.25556 0
M  V30 4732 C 454.011 -2.33876 2.45265 0
M  V30 4733 C 453.184 -2.23242 3.7614 0
M  V30 4734 C 452.243 -3.39242 4.02245 0
M  V30 4735 O 451.269 -3.1698 4.72771 0
M  V30 4736 N 452.471 -4.6242 3.50924 0
M  V30 4737 H 455.236 -0.594333 2.93748 0
M  V30 4738 H 452.797 -0.17714 1.60928 0
M  V30 4739 H 454.789 -3.1027 2.59836 0
M  V30 4740 H 453.359 -2.66799 1.62902 0
M  V30 4741 H 452.579 -1.31696 3.71551 0
M  V30 4742 H 453.867 -2.13321 4.61922 0
M  V30 4743 H 453.265 -4.83404 2.93832 0
M  V30 4744 H 451.822 -5.36046 3.70807 0
M  V30 4745 N 455.255 -1.55392 -0.262866 0
M  V30 4746 C 456.165 -1.92077 -1.34698 0
M  V30 4747 C 457.181 -0.819227 -1.53508 0
M  V30 4748 O 458.357 -1.11921 -1.67439 0
M  V30 4749 C 455.422 -2.19407 -2.68443 0
M  V30 4750 C 454.483 -3.42905 -2.58292 0
M  V30 4751 C 453.716 -3.68921 -3.85659 0
M  V30 4752 O 453.939 -2.97275 -4.8681 0
M  V30 4753 O 452.873 -4.62455 -3.85252 0
M  V30 4754 H 456.699 -2.84384 -1.06581 0
M  V30 4755 H 454.284 -1.42069 -0.462264 0
M  V30 4756 H 456.166 -2.38365 -3.47506 0
M  V30 4757 H 454.841 -1.30282 -2.96325 0
M  V30 4758 H 453.748 -3.29272 -1.7757 0
M  V30 4759 H 455.081 -4.32282 -2.35358 0
M  V30 4760 N 456.733 0.527833 -1.48498 0
M  V30 4761 C 457.979 1.28545 -1.56857 0
M  V30 4762 C 458.312 1.92678 -0.242651 0
M  V30 4763 O 457.587 1.79394 0.751545 0
M  V30 4764 C 457.87 2.37314 -2.70839 0
M  V30 4765 C 457.723 1.77858 -4.13142 0
M  V30 4766 C 459.042 3.39068 -2.80573 0
M  V30 4767 H 456.161 0.466006 -0.570971 0
M  V30 4768 H 458.803 0.587784 -1.8068 0
M  V30 4769 H 456.953 2.96821 -2.50658 0
M  V30 4770 H 458.625 1.22385 -4.44769 0
M  V30 4771 H 456.868 1.08383 -4.20042 0
M  V30 4772 H 457.539 2.56624 -4.88721 0
M  V30 4773 H 460.015 2.89518 -2.98862 0
M  V30 4774 H 458.891 4.12566 -3.6205 0
M  V30 4775 H 459.152 3.9975 -1.88818 0
M  V30 4776 N 458.211 1.37122 0.776871 0
M  V30 4777 C 459.627 1.1781 1.07671 0
M  V30 4778 C 459.827 0.0107454 2.01497 0
M  V30 4779 O 458.883 -0.650756 2.4397 0
M  V30 4780 C 460.196 2.49451 1.67913 0
M  V30 4781 C 461.744 2.55927 1.80195 0
M  V30 4782 C 462.219 3.87686 2.43851 0
M  V30 4783 N 463.71 3.891 2.51307 0
M  V30 4784 C 464.445 4.87797 3.014 0
M  V30 4785 N 463.941 5.96888 3.51705 0
M  V30 4786 N 465.734 4.75205 3.00227 0
M  V30 4787 H 457.885 2.11843 0.153778 0
M  V30 4788 H 460.148 0.938927 0.130844 0
M  V30 4789 H 459.854 3.35207 1.06439 0
M  V30 4790 H 459.728 2.66169 2.67271 0
M  V30 4791 H 462.115 1.70582 2.40803 0
M  V30 4792 H 462.196 2.43097 0.796069 0
M  V30 4793 H 461.84 4.73444 1.83884 0
M  V30 4794 H 461.77 3.97817 3.45035 0
M  V30 4795 H 464.261 3.10293 2.157 0
M  V30 4796 H 464.574 6.68155 3.88316 0
M  V30 4797 H 462.919 6.0054 3.49824 0
M  V30 4798 H 466.11 3.89103 2.60224 0
M  V30 4799 H 466.283 5.52279 3.38957 0
M  V30 4800 N 459.689 -1.00246 1.21608 0
M  V30 4801 C 460.914 -1.78167 1.06167 0
M  V30 4802 C 461.339 -1.84138 -0.384035 0
M  V30 4803 O 460.697 -1.28683 -1.27712 0
M  V30 4804 C 460.745 -3.19786 1.66642 0
M  V30 4805 O 459.849 -4.02153 0.913613 0
M  V30 4806 H 459.19 -0.549 0.37349 0
M  V30 4807 H 461.72 -1.25994 1.61204 0
M  V30 4808 H 461.73 -3.70451 1.70969 0
M  V30 4809 H 460.405 -3.14754 2.7185 0
M  V30 4810 H 458.982 -3.60711 0.945635 0
M  V30 4811 N 461.167 -1.02423 -1.1978 0
M  V30 4812 C 462.114 -0.601023 -2.22837 0
M  V30 4813 C 463.084 0.382801 -1.61629 0
M  V30 4814 O 464.269 0.280514 -1.88727 0
M  V30 4815 C 461.409 0.0467755 -3.45068 0
M  V30 4816 C 460.522 -0.98253 -4.20678 0
M  V30 4817 C 459.657 -0.304982 -5.30324 0
M  V30 4818 C 458.696 -1.32052 -5.97686 0
M  V30 4819 N 457.833 -0.669105 -6.98904 0
M  V30 4820 H 462.673 -1.48444 -2.58396 0
M  V30 4821 H 460.21 -0.742936 -1.2696 0
M  V30 4822 H 462.168 0.439556 -4.14878 0
M  V30 4823 H 460.798 0.893796 -3.10179 0
M  V30 4824 H 459.85 -1.49341 -3.49859 0
M  V30 4825 H 461.162 -1.75455 -4.66923 0
M  V30 4826 H 460.316 0.142893 -6.06532 0
M  V30 4827 H 459.055 0.499283 -4.85138 0
M  V30 4828 H 458.06 -1.7787 -5.20233 0
M  V30 4829 H 459.285 -2.1262 -6.44957 0
M  V30 4830 H 457.231 0.115152 -6.55899 0
M  V30 4831 H 457.148 -1.37908 -7.43315 0
M  V30 4832 H 458.416 -0.245076 -7.79115 0
M  V30 4833 N 462.645 1.35699 -0.801477 0
M  V30 4834 C 463.87 2.03687 -0.390678 0
M  V30 4835 C 464.295 1.60015 0.988778 0
M  V30 4836 O 463.653 0.774357 1.63931 0
M  V30 4837 C 463.701 3.57439 -0.476404 0
M  V30 4838 O 462.805 4.09208 0.512106 0
M  V30 4839 H 462.146 0.64344 -0.163956 0
M  V30 4840 H 464.676 1.73403 -1.08594 0
M  V30 4841 H 464.686 4.06544 -0.344357 0
M  V30 4842 H 463.361 3.88576 -1.48262 0
M  V30 4843 H 461.938 3.7134 0.340721 0
M  V30 4844 N 464.123 0.554532 1.47522 0
M  V30 4845 C 465.4 -0.0360704 1.95567 0
M  V30 4846 C 465.78 -1.48828 1.49711 0
M  V30 4847 O 465.128 -2.16366 0.734717 0
M  V30 4848 C 465.338 0.106631 3.48837 0
M  V30 4849 C 466.686 -0.0400899 4.24581 0
M  V30 4850 O 467.71 0.0340453 3.56184 0
M  V30 4851 O 466.569 -0.199111 5.46137 0
M  V30 4852 H 463.663 -0.0656294 0.824392 0
M  V30 4853 H 466.209 0.620867 1.57935 0
M  V30 4854 H 464.981 1.11727 3.7501 0
M  V30 4855 H 464.604 -0.58804 3.93227 0
M  V30 4856 N 465.601 -1.54893 0.290851 0
M  V30 4857 C 467.012 -1.85584 -0.203816 0
M  V30 4858 C 467.363 -1.21285 -1.54222 0
M  V30 4859 O 466.488 -0.506841 -2.10381 0
M  V30 4860 C 467.083 -3.367 -0.376595 0
M  V30 4861 C 465.642 -3.6746 -0.815485 0
M  V30 4862 C 464.789 -2.77178 0.0821087 0
M  V30 4863 H 467.74 -1.50208 0.512175 0
M  V30 4864 H 467.761 -3.60656 -1.21275 0
M  V30 4865 H 467.273 -3.8347 0.59767 0
M  V30 4866 H 465.374 -3.26201 -1.80066 0
M  V30 4867 H 465.487 -4.7478 -0.641905 0
M  V30 4868 H 463.851 -2.50925 -0.436895 0
M  V30 4869 H 464.634 -3.26767 1.05254 0
M  V30 4870 N 467.08 -0.0183926 -1.57589 0
M  V30 4871 C 468.329 0.66185 -1.90532 0
M  V30 4872 C 468.642 1.73904 -0.895366 0
M  V30 4873 O 469.848 2.47518 -1.11566 0
M  V30 4874 C 468.304 1.22844 -3.38286 0
M  V30 4875 C 467.912 0.185103 -4.47617 0
M  V30 4876 C 469.656 1.88581 -3.80312 0
M  V30 4877 C 467.563 0.762723 -5.86461 0
M  V30 4878 H 466.493 0.250972 -0.711006 0
M  V30 4879 H 469.144 -0.0819435 -1.83317 0
M  V30 4880 H 467.526 2.0235 -3.40398 0
M  V30 4881 H 468.7 -0.58671 -4.5705 0
M  V30 4882 H 467.015 -0.372889 -4.14727 0
M  V30 4883 H 469.612 2.32735 -4.81392 0
M  V30 4884 H 469.955 2.72408 -3.14801 0
M  V30 4885 H 470.488 1.15782 -3.80578 0
M  V30 4886 H 467.227 -0.0371713 -6.55489 0
M  V30 4887 H 466.747 1.50327 -5.80656 0
M  V30 4888 H 468.426 1.25576 -6.34697 0
M  V30 4889 N 468.558 1.5553 0.254621 0
M  V30 4890 C 469.491 1.84624 1.34124 0
M  V30 4891 C 470.469 0.700693 1.46728 0
M  V30 4892 O 471.653 0.94564 1.63064 0
M  V30 4893 C 468.78 2.02412 2.71564 0
M  V30 4894 C 467.826 3.25028 2.7615 0
M  V30 4895 S 468.659 4.81893 2.33538 0
M  V30 4896 C 469.815 5.02677 3.72917 0
M  V30 4897 H 470.048 2.76501 1.09245 0
M  V30 4898 H 467.581 1.47537 0.455211 0
M  V30 4899 H 469.539 2.13345 3.50705 0
M  V30 4900 H 468.2 1.11391 2.93685 0
M  V30 4901 H 467.393 3.34418 3.77069 0
M  V30 4902 H 466.995 3.12781 2.05046 0
M  V30 4903 H 469.287 4.89546 4.68349 0
M  V30 4904 H 470.23 6.0468 3.68467 0
M  V30 4905 H 470.638 4.30561 3.65072 0
M  V30 4906 N 470.036 -0.519951 1.48776 0
M  V30 4907 C 470.966 -1.63253 1.66945 0
M  V30 4908 C 471.947 -1.62014 0.518224 0
M  V30 4909 O 473.132 -1.79053 0.751919 0
M  V30 4910 C 470.262 -3.0181 1.71836 0
M  V30 4911 C 469.216 -3.17911 2.8656 0
M  V30 4912 C 468.542 -4.5763 2.76548 0
M  V30 4913 C 469.842 -2.99729 4.27738 0
M  V30 4914 H 471.536 -1.48302 2.6009 0
M  V30 4915 H 469.082 -0.712026 1.25165 0
M  V30 4916 H 471.035 -3.79525 1.83135 0
M  V30 4917 H 469.759 -3.17806 0.752775 0
M  V30 4918 H 468.418 -2.42616 2.74833 0
M  V30 4919 H 468.066 -4.70476 1.77937 0
M  V30 4920 H 467.766 -4.69346 3.53536 0
M  V30 4921 H 469.29 -5.37431 2.89828 0
M  V30 4922 H 470.704 -3.67228 4.40246 0
M  V30 4923 H 469.101 -3.22932 5.05801 0
M  V30 4924 H 470.171 -1.96047 4.43502 0
M  V30 4925 N 471.514 -1.37532 -0.769588 0
M  V30 4926 C 472.444 -1.36172 -1.89682 0
M  V30 4927 C 473.425 -0.23001 -1.68538 0
M  V30 4928 O 474.61 -0.43069 -1.89364 0
M  V30 4929 C 471.74 -1.1701 -3.26995 0
M  V30 4930 C 470.694 -2.27216 -3.62708 0
M  V30 4931 C 470.02 -1.93174 -4.98586 0
M  V30 4932 C 471.32 -3.6941 -3.69234 0
M  V30 4933 H 473.014 -2.30499 -1.91078 0
M  V30 4934 H 470.56 -1.10953 -0.917902 0
M  V30 4935 H 472.513 -1.14688 -4.05493 0
M  V30 4936 H 471.237 -0.191395 -3.26039 0
M  V30 4937 H 469.896 -2.28697 -2.86519 0
M  V30 4938 H 469.544 -0.938281 -4.94171 0
M  V30 4939 H 469.244 -2.66973 -5.23449 0
M  V30 4940 H 470.768 -1.92443 -5.79481 0
M  V30 4941 H 472.182 -3.70047 -4.37879 0
M  V30 4942 H 470.579 -4.4228 -4.05597 0
M  V30 4943 H 471.649 -4.0288 -2.69844 0
M  V30 4944 N 472.992 0.995999 -1.22138 0
M  V30 4945 C 473.939 2.08551 -0.988687 0
M  V30 4946 C 474.909 1.65864 0.0885021 0
M  V30 4947 O 476.094 1.90704 -0.0604589 0
M  V30 4948 C 473.234 3.40374 -0.569191 0
M  V30 4949 C 472.347 3.96421 -1.71681 0
M  V30 4950 C 471.482 5.1639 -1.2456 0
M  V30 4951 C 470.521 5.64567 -2.36497 0
M  V30 4952 N 469.658 6.75777 -1.90445 0
M  V30 4953 H 474.498 2.2779 -1.92135 0
M  V30 4954 H 472.035 1.1168 -0.957388 0
M  V30 4955 H 473.993 4.16068 -0.307166 0
M  V30 4956 H 472.623 3.21145 0.326462 0
M  V30 4957 H 471.675 3.17628 -2.09324 0
M  V30 4958 H 472.987 4.2816 -2.55891 0
M  V30 4959 H 472.141 5.99362 -0.940774 0
M  V30 4960 H 470.88 4.86266 -0.373662 0
M  V30 4961 H 469.885 4.80185 -2.67772 0
M  V30 4962 H 471.11 5.96716 -3.24202 0
M  V30 4963 H 469.056 6.47443 -1.05609 0
M  V30 4964 H 468.973 7.06818 -2.68223 0
M  V30 4965 H 470.241 7.62262 -1.63022 0
M  V30 4966 N 474.47 1.03057 1.19235 0
M  V30 4967 C 475.747 0.642608 1.84743 0
M  V30 4968 C 476.127 -0.878577 1.91948 0
M  V30 4969 O 475.475 -1.77597 1.43776 0
M  V30 4970 C 475.685 1.30665 3.23616 0
M  V30 4971 C 477.033 1.43098 3.9976 0
M  V30 4972 O 478.057 1.26396 3.3302 0
M  V30 4973 O 476.916 1.70223 5.19313 0
M  V30 4974 H 474.01 0.223573 0.796206 0
M  V30 4975 H 476.556 1.12883 1.26711 0
M  V30 4976 H 475.328 2.34544 3.13217 0
M  V30 4977 H 474.951 0.808405 3.89295 0
M  V30 4978 N 475.948 -1.35272 0.808662 0
M  V30 4979 C 477.364 -1.51806 0.492653 0
M  V30 4980 C 477.564 -1.7574 -0.985778 0
M  V30 4981 O 476.62 -1.80003 -1.77074 0
M  V30 4982 C 477.933 -2.69202 1.33981 0
M  V30 4983 C 479.481 -2.8308 1.33547 0
M  V30 4984 C 479.956 -4.03502 2.16679 0
M  V30 4985 N 481.447 -4.10684 2.14227 0
M  V30 4986 C 482.182 -5.02984 2.75308 0
M  V30 4987 N 481.678 -6.00603 3.45323 0
M  V30 4988 N 483.471 -4.95746 2.64938 0
M  V30 4989 H 475.622 -1.17993 1.76611 0
M  V30 4990 H 477.885 -0.577476 0.751814 0
M  V30 4991 H 477.591 -2.581 2.38909 0
M  V30 4992 H 477.465 -3.63854 0.994491 0
M  V30 4993 H 479.852 -2.93631 0.294036 0
M  V30 4994 H 479.933 -1.89278 1.72068 0
M  V30 4995 H 479.577 -3.93711 3.20864 0
M  V30 4996 H 479.507 -4.96489 1.75517 0
M  V30 4997 H 481.998 -3.40802 1.63285 0
M  V30 4998 H 482.311 -6.67633 3.89212 0
M  V30 4999 H 480.656 -6.0077 3.49428 0
M  V30 5000 H 483.847 -4.18439 2.09825 0
M  V30 5001 H 484.02 -5.67487 3.12829 0
M  V30 5002 N 477.426 -0.562348 -1.47226 0
M  V30 5003 C 478.359 0.230405 -2.27034 0
M  V30 5004 C 479.337 0.915609 -1.3437 0
M  V30 5005 O 480.521 0.933573 -1.63758 0
M  V30 5006 C 477.648 1.32874 -3.11548 0
M  V30 5007 C 476.694 0.751552 -4.19826 0
M  V30 5008 S 477.527 -0.405848 -5.3396 0
M  V30 5009 C 478.683 0.694186 -6.22038 0
M  V30 5010 H 478.916 -0.446811 -2.93923 0
M  V30 5011 H 476.449 -0.348781 -1.50409 0
M  V30 5012 H 478.407 1.95773 -3.60809 0
M  V30 5013 H 477.068 1.97782 -2.44011 0
M  V30 5014 H 476.261 1.57651 -4.78709 0
M  V30 5015 H 475.863 0.198645 -3.73472 0
M  V30 5016 H 478.155 1.58501 -6.58698 0
M  V30 5017 H 479.098 0.142592 -7.07956 0
M  V30 5018 H 479.506 0.989169 -5.55766 0
M  V30 5019 N 478.904 1.54736 -0.299062 0
M  V30 5020 C 480.15 2.00397 0.311244 0
M  V30 5021 C 480.483 1.18716 1.53688 0
M  V30 5022 O 479.758 0.263154 1.92712 0
M  V30 5023 C 480.041 3.53817 0.669761 0
M  V30 5024 C 479.894 4.46239 -0.564882 0
M  V30 5025 C 481.213 4.13856 1.49702 0
M  V30 5026 H 478.332 0.728493 0.111653 0
M  V30 5027 H 480.974 1.85506 -0.410774 0
M  V30 5028 H 479.124 3.66637 1.28491 0
M  V30 5029 H 480.796 4.45328 -1.20337 0
M  V30 5030 H 479.039 4.16916 -1.19849 0
M  V30 5031 H 479.71 5.5134 -0.269918 0
M  V30 5032 H 482.186 4.04461 0.977284 0
M  V30 5033 H 481.062 5.21365 1.71666 0
M  V30 5034 H 481.323 3.65608 2.48563 0
M  V30 5035 N 480.382 0.0267497 1.57577 0
M  V30 5036 C 481.33 -0.973923 2.11229 0
M  V30 5037 C 482.324 -1.33849 1.03831 0
M  V30 5038 O 483.53 -1.321 1.22269 0
M  V30 5039 H 479.905 -0.331844 0.674821 0
M  V30 5040 H 481.876 -0.496092 2.94247 0
M  V30 5041 C 480.625 -2.24798 2.65257 0
M  V30 5042 H 479.948 -1.9762 3.47543 0
M  V30 5043 H 481.388 -2.93031 3.06445 0
M  V30 5044 C 479.847 -2.97611 1.57891 0
M  V30 5045 O 480.377 -3.89629 0.97735 0
M  V30 5046 N 478.583 -2.59905 1.29992 0
M  V30 5047 H 478.13 -1.85154 1.79097 0
M  V30 5048 H 478.088 -3.08932 0.583798 0
M  V30 5049 N 481.861 -1.55662 -0.24637 0
M  V30 5050 C 483.086 -1.81914 -0.996093 0
M  V30 5051 C 483.511 -0.603875 -1.78143 0
M  V30 5052 O 482.869 0.447091 -1.75701 0
M  V30 5053 C 482.917 -3.05908 -1.90925 0
M  V30 5054 O 482.021 -2.82861 -3.00105 0
M  V30 5055 H 481.362 -0.600481 -0.283406 0
M  V30 5056 H 483.892 -2.02848 -0.267199 0
M  V30 5057 H 483.902 -3.35356 -2.3238 0
M  V30 5058 H 482.577 -3.93999 -1.33183 0
M  V30 5059 H 481.154 -2.64583 -2.62775 0
M  V30 5060 N 483.339 0.512053 -1.4905 0
M  V30 5061 C 484.287 1.63568 -1.65373 0
M  V30 5062 C 485.281 1.61228 -0.519806 0
M  V30 5063 O 486.487 1.65869 -0.699101 0
M  V30 5064 H 482.862 0.542019 -0.521267 0
M  V30 5065 H 484.833 1.4695 -2.59708 0
M  V30 5066 C 483.582 3.01761 -1.7273 0
M  V30 5067 H 482.905 3.04263 -2.59353 0
M  V30 5068 H 484.345 3.79948 -1.8819 0
M  V30 5069 C 482.804 3.33609 -0.46973 0
M  V30 5070 O 483.334 3.99607 0.409492 0
M  V30 5071 N 481.54 2.88651 -0.336003 0
M  V30 5072 H 481.087 2.35119 -1.05247 0
M  V30 5073 H 481.045 3.10328 0.504363 0
M  V30 5074 N 484.817 1.37938 0.762283 0
M  V30 5075 C 485.747 1.37176 1.88958 0
M  V30 5076 C 486.728 0.238945 1.68413 0
M  V30 5077 O 487.913 0.440726 1.89133 0
M  V30 5078 C 485.043 1.18742 3.2637 0
M  V30 5079 C 483.997 2.29136 3.61498 0
M  V30 5080 C 483.323 1.95816 4.97554 0
M  V30 5081 C 484.623 3.71363 3.6727 0
M  V30 5082 H 486.317 2.31509 1.89853 0
M  V30 5083 H 483.863 1.11438 0.912005 0
M  V30 5084 H 485.816 1.16837 4.04879 0
M  V30 5085 H 484.54 0.208683 3.25933 0
M  V30 5086 H 483.199 2.30213 2.85303 0
M  V30 5087 H 482.847 0.964475 4.93667 0
M  V30 5088 H 482.547 2.69745 5.22026 0
M  V30 5089 H 484.071 1.95513 5.78452 0
M  V30 5090 H 485.485 3.72364 4.35911 0
M  V30 5091 H 483.882 4.44425 4.03245 0
M  V30 5092 H 484.952 4.04305 2.67704 0
M  V30 5093 N 486.295 -0.989507 1.22664 0
M  V30 5094 C 487.258 -2.06183 1.00106 0
M  V30 5095 C 488.258 -1.60765 -0.0337726 0
M  V30 5096 O 489.448 -1.72989 0.205072 0
M  V30 5097 C 486.58 -3.37021 0.51279 0
M  V30 5098 H 487.773 -2.27629 1.95256 0
M  V30 5099 H 485.326 -1.16158 1.0458 0
M  V30 5100 H 486.061 -3.21261 -0.442917 0
M  V30 5101 H 485.846 -3.71323 1.25942 0
M  V30 5102 H 487.336 -4.1591 0.375315 0
M  V30 5103 N 487.773 -1.03688 -1.18687 0
M  V30 5104 C 488.998 -0.757819 -1.93059 0
M  V30 5105 C 489.423 0.678353 -1.75442 0
M  V30 5106 O 488.781 1.46938 -1.06203 0
M  V30 5107 C 488.829 -1.12423 -3.42627 0
M  V30 5108 O 487.933 -0.247505 -4.11657 0
M  V30 5109 H 487.274 -0.279245 -0.602427 0
M  V30 5110 H 489.804 -1.3857 -1.5053 0
M  V30 5111 H 489.814 -1.08454 -3.93322 0
M  V30 5112 H 488.489 -2.17049 -3.54771 0
M  V30 5113 H 487.066 -0.34649 -3.71287 0
M  V30 5114 N 489.251 1.34841 -0.815825 0
M  V30 5115 C 490.497 1.98793 -0.401129 0
M  V30 5116 C 490.83 1.64548 1.03139 0
M  V30 5117 O 490.105 0.913487 1.71714 0
M  V30 5118 C 490.388 3.55143 -0.595409 0
M  V30 5119 C 490.241 3.99155 -2.07352 0
M  V30 5120 C 491.56 4.40092 -0.0268823 0
M  V30 5121 H 488.679 0.722146 -0.14722 0
M  V30 5122 H 491.321 1.59847 -1.02707 0
M  V30 5123 H 489.471 3.8845 -0.0625779 0
M  V30 5124 H 491.143 3.76216 -2.66945 0
M  V30 5125 H 489.386 3.49726 -2.56659 0
M  V30 5126 H 490.057 5.07971 -2.1603 0
M  V30 5127 H 492.533 4.13298 -0.482042 0
M  V30 5128 H 491.409 5.48562 -0.19267 0
M  V30 5129 H 491.67 4.29016 1.06759 0
M  V30 5130 N 490.729 0.570148 1.46925 0
M  V30 5131 C 491.639 -0.173061 2.33961 0
M  V30 5132 C 492.655 -0.898825 1.48987 0
M  V30 5133 O 493.831 -0.864825 1.81887 0
M  V30 5134 C 490.896 -1.18177 3.25937 0
M  V30 5135 C 489.957 -0.462041 4.26806 0
M  V30 5136 C 489.19 -1.4227 5.14388 0
M  V30 5137 O 489.413 -2.65842 5.04662 0
M  V30 5138 O 488.347 -0.940127 5.94513 0
M  V30 5139 H 492.173 0.541216 2.98839 0
M  V30 5140 H 489.758 0.330647 1.45695 0
M  V30 5141 H 491.64 -1.76372 3.82715 0
M  V30 5142 H 490.315 -1.87774 2.63671 0
M  V30 5143 H 489.222 0.161429 3.73752 0
M  V30 5144 H 490.555 0.192719 4.91823 0
M  V30 5145 N 492.207 -1.54576 0.307264 0
M  V30 5146 C 493.117 -2.27435 -0.57536 0
M  V30 5147 C 494.133 -1.31183 -1.14311 0
M  V30 5148 O 495.309 -1.64175 -1.16656 0
M  V30 5149 C 492.374 -3.00566 -1.72803 0
M  V30 5150 C 491.435 -4.12369 -1.19373 0
M  V30 5151 C 490.668 -4.82003 -2.29147 0
M  V30 5152 O 490.891 -4.51038 -3.49171 0
M  V30 5153 O 489.825 -5.69271 -1.95485 0
M  V30 5154 H 493.651 -3.03696 0.0158558 0
M  V30 5155 H 491.236 -1.49219 0.0735064 0
M  V30 5156 H 493.118 -3.46416 -2.39946 0
M  V30 5157 H 491.793 -2.27195 -2.30574 0
M  V30 5158 H 490.7 -3.70905 -0.487851 0
M  V30 5159 H 492.033 -4.87736 -0.661376 0
M  V30 5160 N 493.685 -0.035106 -1.57561 0
M  V30 5161 C 494.615 0.942993 -2.13612 0
M  V30 5162 C 495.596 1.33531 -1.05373 0
M  V30 5163 O 496.781 1.41287 -1.33235 0
M  V30 5164 C 493.911 2.22332 -2.66807 0
M  V30 5165 C 492.865 1.97156 -3.79886 0
M  V30 5166 C 492.191 3.31506 -4.19533 0
M  V30 5167 C 493.491 1.30596 -5.05709 0
M  V30 5168 H 495.185 0.476179 -2.95589 0
M  V30 5169 H 492.731 0.227602 -1.4219 0
M  V30 5170 H 494.684 2.91142 -3.04654 0
M  V30 5171 H 493.408 2.7119 -1.81999 0
M  V30 5172 H 492.067 1.30763 -3.42486 0
M  V30 5173 H 491.715 3.78134 -3.31698 0
M  V30 5174 H 491.415 3.15465 -4.95738 0
M  V30 5175 H 492.939 4.01574 -4.59968 0
M  V30 5176 H 494.353 1.89416 -5.41105 0
M  V30 5177 H 492.75 1.24934 -5.86951 0
M  V30 5178 H 493.82 0.279742 -4.84092 0
M  V30 5179 N 495.163 1.55791 0.238111 0
M  V30 5180 C 496.11 1.9105 1.29493 0
M  V30 5181 C 497.08 0.765733 1.47397 0
M  V30 5182 O 498.265 1.02017 1.61236 0
M  V30 5183 C 495.405 2.21826 2.64362 0
M  V30 5184 C 494.518 3.49153 2.54394 0
M  V30 5185 C 493.653 3.69455 3.81676 0
M  V30 5186 C 492.692 4.90353 3.66361 0
M  V30 5187 N 491.829 5.07131 4.85554 0
M  V30 5188 H 496.669 2.81172 0.987233 0
M  V30 5189 H 494.206 1.39179 0.476203 0
M  V30 5190 H 496.164 2.37675 3.4288 0
M  V30 5191 H 494.794 1.34897 2.93262 0
M  V30 5192 H 493.846 3.41587 1.67399 0
M  V30 5193 H 495.158 4.37818 2.38991 0
M  V30 5194 H 494.312 3.85311 4.68636 0
M  V30 5195 H 493.051 2.7904 3.99985 0
M  V30 5196 H 492.056 4.74464 2.77784 0
M  V30 5197 H 493.281 5.82237 3.49538 0
M  V30 5198 H 491.227 4.19654 5.04209 0
M  V30 5199 H 491.144 5.89899 4.72816 0
M  V30 5200 H 492.412 5.27407 5.73988 0
M  V30 5201 N 496.642 -0.504142 1.49319 0
M  V30 5202 C 497.552 -1.63248 1.68486 0
M  V30 5203 C 498.568 -1.64488 0.567432 0
M  V30 5204 O 499.744 -1.82966 0.841749 0
M  V30 5205 C 496.809 -2.99627 1.74426 0
M  V30 5206 C 495.87 -3.09039 2.97982 0
M  V30 5207 C 495.103 -4.38913 3.0363 0
M  V30 5208 O 495.326 -5.27528 2.16958 0
M  V30 5209 O 494.26 -4.53231 3.96062 0
M  V30 5210 H 498.086 -1.50008 2.64067 0
M  V30 5211 H 495.671 -0.680086 1.33023 0
M  V30 5212 H 497.553 -3.80689 1.80705 0
M  V30 5213 H 496.228 -3.13136 0.820233 0
M  V30 5214 H 495.135 -2.27177 2.97223 0
M  V30 5215 H 496.468 -3.00456 3.89855 0
M  V30 5216 N 498.12 -1.38341 -0.754957 0
M  V30 5217 C 499.369 -1.33791 -1.5094 0
M  V30 5218 C 499.682 0.0699267 -1.95475 0
M  V30 5219 O 500.888 0.237956 -2.70455 0
M  V30 5220 C 499.344 -2.34934 -2.72643 0
M  V30 5221 C 498.952 -3.81332 -2.35138 0
M  V30 5222 C 500.696 -2.39425 -3.50536 0
M  V30 5223 C 498.603 -4.74164 -3.53444 0
M  V30 5224 H 497.533 -0.497314 -0.566741 0
M  V30 5225 H 500.184 -1.63888 -0.825403 0
M  V30 5226 H 498.566 -1.97878 -3.43017 0
M  V30 5227 H 499.74 -4.27319 -1.7244 0
M  V30 5228 H 498.055 -3.79946 -1.70382 0
M  V30 5229 H 500.652 -3.0598 -4.38498 0
M  V30 5230 H 500.995 -1.41278 -3.91594 0
M  V30 5231 H 501.528 -2.75274 -2.87174 0
M  V30 5232 H 498.267 -5.73501 -3.17453 0
M  V30 5233 H 497.787 -4.3287 -4.15191 0
M  V30 5234 H 499.466 -4.92111 -4.20043 0
M  V30 5235 N 499.598 0.982988 -1.23187 0
M  V30 5236 C 500.875 1.69814 -0.970707 0
M  V30 5237 C 501.255 2.04811 0.511424 0
M  V30 5238 O 500.603 1.73924 1.48198 0
M  V30 5239 C 500.813 2.94143 -1.87831 0
M  V30 5240 C 502.161 3.66712 -2.14026 0
M  V30 5241 O 503.185 3.04171 -1.8536 0
M  V30 5242 O 502.044 4.79258 -2.62629 0
M  V30 5243 H 499.138 0.741659 -0.365884 0
M  V30 5244 H 501.684 1.03844 -1.34218 0
M  V30 5245 H 500.456 2.64858 -2.88038 0
M  V30 5246 H 500.079 3.6785 -1.50905 0
M  V30 5247 N 501.076 1.04316 1.18135 0
M  V30 5248 C 502.322 0.749128 1.88457 0
M  V30 5249 C 502.655 -0.72149 1.803 0
M  V30 5250 O 501.93 -1.52676 1.205 0
M  V30 5251 C 502.213 1.21905 3.38838 0
M  V30 5252 C 502.066 2.75195 3.55792 0
M  V30 5253 C 503.385 0.811085 4.32561 0
M  V30 5254 H 500.504 0.273611 0.684329 0
M  V30 5255 H 503.146 1.29561 1.38975 0
M  V30 5256 H 501.296 0.754137 3.8111 0
M  V30 5257 H 502.968 3.29743 3.22595 0
M  V30 5258 H 501.211 3.14899 2.98364 0
M  V30 5259 H 501.882 3.03135 4.61317 0
M  V30 5260 H 504.358 1.21118 3.98082 0
M  V30 5261 H 503.234 1.16761 5.36338 0
M  V30 5262 H 503.495 -0.285596 4.41177 0
M  V30 5263 N 502.554 -1.34406 0.822964 0
M  V30 5264 C 503.464 -2.33298 0.246838 0
M  V30 5265 C 504.48 -1.62625 -0.618797 0
M  V30 5266 O 505.656 -1.94391 -0.526685 0
M  V30 5267 C 502.721 -3.41785 -0.581731 0
M  V30 5268 C 501.782 -4.28206 0.306309 0
M  V30 5269 C 501.015 -5.31512 -0.48281 0
M  V30 5270 O 501.238 -5.43973 -1.71607 0
M  V30 5271 O 500.172 -6.01749 0.134884 0
M  V30 5272 H 503.998 -2.84401 1.06534 0
M  V30 5273 H 501.583 -1.37466 0.585108 0
M  V30 5274 H 503.465 -4.08028 -1.05313 0
M  V30 5275 H 502.14 -2.92925 -1.37756 0
M  V30 5276 H 501.047 -3.64885 0.825199 0
M  V30 5277 H 502.38 -4.80507 1.06649 0
M  V30 5278 N 504.032 -0.577932 -1.46621 0
M  V30 5279 C 505.278 -0.0617793 -2.02706 0
M  V30 5280 C 505.611 1.29294 -1.44903 0
M  V30 5281 O 504.886 1.8461 -0.61232 0
M  V30 5282 C 505.169 0.00911824 -3.60099 0
M  V30 5283 C 505.022 -1.37416 -4.28295 0
M  V30 5284 C 506.341 0.712159 -4.343 0
M  V30 5285 H 503.46 -0.0239246 -0.736612 0
M  V30 5286 H 506.102 -0.744211 -1.74818 0
M  V30 5287 H 504.252 0.590292 -3.83989 0
M  V30 5288 H 505.924 -2.00013 -4.15683 0
M  V30 5289 H 504.167 -1.94319 -3.87843 0
M  V30 5290 H 504.838 -1.27707 -5.37024 0
M  V30 5291 H 507.314 0.218486 -4.15526 0
M  V30 5292 H 506.19 0.730782 -5.44014 0
M  V30 5293 H 506.451 1.77251 -4.05012 0
M  V30 5294 N 505.51 1.54411 -0.315457 0
M  V30 5295 C 506.926 1.59556 0.037464 0
M  V30 5296 C 507.126 1.33217 1.5118 0
M  V30 5297 O 506.182 1.11264 2.26664 0
M  V30 5298 C 507.495 2.98372 -0.373477 0
M  V30 5299 C 509.043 3.11324 -0.323452 0
M  V30 5300 C 509.518 4.52472 -0.709433 0
M  V30 5301 N 511.009 4.58437 -0.662524 0
M  V30 5302 C 511.744 5.65751 -0.933474 0
M  V30 5303 N 511.24 6.81039 -1.27114 0
M  V30 5304 N 513.033 5.55489 -0.859573 0
M  V30 5305 H 505.184 1.6979 -1.27614 0
M  V30 5306 H 507.447 0.793732 -0.518356 0
M  V30 5307 H 507.153 3.22618 -1.40037 0
M  V30 5308 H 507.027 3.76264 0.265615 0
M  V30 5309 H 509.414 2.86818 0.694223 0
M  V30 5310 H 509.495 2.35555 -0.997367 0
M  V30 5311 H 509.139 4.7771 -1.72498 0
M  V30 5312 H 509.069 5.26598 -0.0132923 0
M  V30 5313 H 511.56 3.75636 -0.413065 0
M  V30 5314 H 511.873 7.58816 -1.46348 0
M  V30 5315 H 510.218 6.82555 -1.30932 0
M  V30 5316 H 513.409 4.64299 -0.595324 0
M  V30 5317 H 513.582 6.39036 -1.0741 0
M  V30 5318 N 506.988 0.0434614 1.5754 0
M  V30 5319 C 507.935 -0.93356 2.11077 0
M  V30 5320 C 508.905 -1.31383 1.01626 0
M  V30 5321 O 510.09 -1.40465 1.29129 0
M  V30 5322 C 507.23 -2.20578 2.65404 0
M  V30 5323 C 506.343 -1.88068 3.88914 0
M  V30 5324 C 505.478 -3.09691 4.31584 0
M  V30 5325 C 504.517 -2.73067 5.47815 0
M  V30 5326 N 503.654 -3.87359 5.85574 0
M  V30 5327 H 508.494 -0.470118 2.94268 0
M  V30 5328 H 506.031 -0.220434 1.45439 0
M  V30 5329 H 507.989 -2.95011 2.94999 0
M  V30 5330 H 506.619 -2.64513 1.85021 0
M  V30 5331 H 505.671 -1.03816 3.6596 0
M  V30 5332 H 506.983 -1.57104 4.73413 0
M  V30 5333 H 506.137 -3.92431 4.62691 0
M  V30 5334 H 504.876 -3.43827 3.45882 0
M  V30 5335 H 503.881 -1.88742 5.16388 0
M  V30 5336 H 505.106 -2.40131 6.35227 0
M  V30 5337 H 503.052 -4.21311 5.02825 0
M  V30 5338 H 502.969 -3.60068 6.64746 0
M  V30 5339 H 504.237 -4.70761 6.21292 0
M  V30 5340 N 508.466 -1.55915 -0.229846 0
M  V30 5341 C 509.376 -1.94891 -1.30593 0
M  V30 5342 C 510.392 -0.851604 -1.51736 0
M  V30 5343 O 511.568 -1.15447 -1.65027 0
M  V30 5344 C 508.633 -2.25052 -2.63728 0
M  V30 5345 C 507.694 -3.48306 -2.5096 0
M  V30 5346 C 506.927 -3.77019 -3.77747 0
M  V30 5347 O 507.15 -3.07534 -4.80395 0
M  V30 5348 O 506.084 -4.70523 -3.75356 0
M  V30 5349 H 509.91 -2.86581 -1.00525 0
M  V30 5350 H 507.495 -1.43017 -0.432025 0
M  V30 5351 H 509.377 -2.45682 -3.42372 0
M  V30 5352 H 508.052 -1.36538 -2.93495 0
M  V30 5353 H 506.959 -3.32964 -1.70546 0
M  V30 5354 H 508.292 -4.37177 -2.26136 0
M  V30 5355 N 509.944 0.496216 -1.49584 0
M  V30 5356 C 511.193 1.24668 -1.58558 0
M  V30 5357 C 511.506 1.9359 -0.279703 0
M  V30 5358 O 512.712 2.70365 -0.248048 0
M  V30 5359 C 511.168 2.26388 -2.79779 0
M  V30 5360 C 510.776 1.63384 -4.17145 0
M  V30 5361 C 512.52 3.02233 -2.98086 0
M  V30 5362 C 510.427 2.63243 -5.29582 0
M  V30 5363 H 509.357 0.468995 -0.590389 0
M  V30 5364 H 512.008 0.519985 -1.75978 0
M  V30 5365 H 510.39 3.02241 -2.55863 0
M  V30 5366 H 511.564 0.93491 -4.51216 0
M  V30 5367 H 509.879 0.999121 -4.04236 0
M  V30 5368 H 512.476 3.76919 -3.79257 0
M  V30 5369 H 512.819 3.60132 -2.08831 0
M  V30 5370 H 513.352 2.33495 -3.22063 0
M  V30 5371 H 510.091 2.10119 -6.20911 0
M  V30 5372 H 509.611 3.31363 -4.99959 0
M  V30 5373 H 511.29 3.25575 -5.59115 0
M  V30 5374 N 511.423 1.38739 0.74761 0
M  V30 5375 C 512.333 1.38696 1.89211 0
M  V30 5376 C 513.349 0.283303 1.71678 0
M  V30 5377 O 514.525 0.522713 1.94498 0
M  V30 5378 C 511.59 1.21662 3.24653 0
M  V30 5379 C 510.651 2.41886 3.54669 0
M  V30 5380 C 509.884 2.25655 4.83648 0
M  V30 5381 O 510.107 1.25339 5.56459 0
M  V30 5382 O 509.041 3.14372 5.13277 0
M  V30 5383 H 512.867 2.35143 1.92202 0
M  V30 5384 H 510.452 1.19721 0.893708 0
M  V30 5385 H 512.334 1.14246 4.05618 0
M  V30 5386 H 511.009 0.283024 3.2246 0
M  V30 5387 H 509.916 2.54877 2.73841 0
M  V30 5388 H 511.249 3.33895 3.61628 0
M  V30 5389 N 512.901 -0.976442 1.23707 0
M  V30 5390 C 514.178 -1.69296 0.979699 0
M  V30 5391 C 514.558 -2.0508 -0.500555 0
M  V30 5392 O 513.906 -1.74708 -1.47273 0
M  V30 5393 C 514.116 -2.93143 1.89389 0
M  V30 5394 C 515.464 -3.65572 2.15968 0
M  V30 5395 O 516.488 -3.03184 1.86971 0
M  V30 5396 O 515.347 -4.77859 2.65167 0
M  V30 5397 H 512.441 -0.739708 0.369812 0
M  V30 5398 H 514.987 -1.03131 1.34767 0
M  V30 5399 H 513.759 -2.63327 2.89439 0
M  V30 5400 H 513.382 -3.67044 1.52854 0
M  V30 5401 N 514.379 -1.04941 -1.1758 0
M  V30 5402 C 515.342 -0.652456 -2.19717 0
M  V30 5403 C 516.342 0.294745 -1.58076 0
M  V30 5404 O 517.532 0.0789579 -1.74021 0
M  V30 5405 C 514.664 0.0420712 -3.40874 0
M  V30 5406 H 515.857 -1.55642 -2.5635 0
M  V30 5407 H 513.41 -0.842995 -1.31618 0
M  V30 5408 H 514.145 0.95943 -3.09783 0
M  V30 5409 H 513.93 -0.638844 -3.86861 0
M  V30 5410 H 515.42 0.306 -4.16477 0
M  V30 5411 N 515.857 1.33968 -0.830081 0
M  V30 5412 C 516.82 2.27694 -0.26235 0
M  V30 5413 C 517.82 1.50589 0.563876 0
M  V30 5414 O 519.01 1.70028 0.378941 0
M  V30 5415 C 516.142 3.35002 0.63138 0
M  V30 5416 H 517.335 2.79419 -1.08928 0
M  V30 5417 H 514.888 1.44221 -0.602486 0
M  V30 5418 H 515.623 2.88504 1.48109 0
M  V30 5419 H 515.408 3.92079 0.0403276 0
M  V30 5420 H 516.898 4.04897 1.02217 0
M  V30 5421 N 517.335 0.585699 1.46312 0
M  V30 5422 C 518.267 -0.183687 2.28463 0
M  V30 5423 C 519.28 -0.85264 1.38686 0
M  V30 5424 O 520.469 -0.721701 1.6326 0
M  V30 5425 C 517.569 -1.27977 3.13808 0
M  V30 5426 C 516.742 -0.702164 4.31727 0
M  V30 5427 C 515.801 -1.68633 4.98447 0
M  V30 5428 O 514.827 -1.22121 5.55945 0
M  V30 5429 N 516.029 -3.02047 4.95729 0
M  V30 5430 H 518.794 0.521127 2.95134 0
M  V30 5431 H 516.355 0.423673 1.56258 0
M  V30 5432 H 518.347 -1.9375 3.55307 0
M  V30 5433 H 516.917 -1.8874 2.4919 0
M  V30 5434 H 516.137 0.1331 3.93975 0
M  V30 5435 H 517.425 -0.296101 5.07938 0
M  V30 5436 H 516.823 -3.42457 4.50266 0
M  V30 5437 H 515.38 -3.63301 5.41161 0
M  V30 5438 N 518.813 -1.54241 0.323641 0
M  V30 5439 C 520.06 -2.0057 -0.27891 0
M  V30 5440 C 520.388 -1.21181 -1.52136 0
M  V30 5441 O 519.643 -0.282043 -1.93657 0
M  V30 5442 C 519.942 -3.5129 -0.658031 0
M  V30 5443 C 519.608 -4.48281 0.485252 0
M  V30 5444 C 518.27 -4.74519 0.799055 0
M  V30 5445 C 520.622 -5.05909 1.25322 0
M  V30 5446 C 517.95 -5.55643 1.88354 0
M  V30 5447 C 520.302 -5.88215 2.32779 0
M  V30 5448 C 518.966 -6.12755 2.64741 0
M  V30 5449 H 518.236 -0.733938 -0.10206 0
M  V30 5450 H 520.883 -1.862 0.447435 0
M  V30 5451 H 519.188 -3.63388 -1.4648 0
M  V30 5452 H 520.885 -3.84578 -1.1358 0
M  V30 5453 H 517.475 -4.27979 0.230593 0
M  V30 5454 H 521.659 -4.8562 1.02404 0
M  V30 5455 H 516.915 -5.72888 2.13564 0
M  V30 5456 H 521.089 -6.31888 2.92729 0
M  V30 5457 H 518.716 -6.75404 3.48904 0
M  V30 5458 N 520.291 -0.0518155 -1.57515 0
M  V30 5459 C 521.254 0.907547 -2.10467 0
M  V30 5460 C 522.254 1.23947 -1.02439 0
M  V30 5461 O 523.444 1.17604 -1.2851 0
M  V30 5462 C 520.576 2.21723 -2.58944 0
M  V30 5463 H 521.769 0.44851 -2.96527 0
M  V30 5464 H 519.322 0.196598 -1.55059 0
M  V30 5465 H 520.057 2.72206 -1.76279 0
M  V30 5466 H 519.842 1.98935 -3.37886 0
M  V30 5467 H 521.332 2.90441 -3.00056 0
M  V30 5468 N 521.769 1.56035 0.221574 0
M  V30 5469 C 522.997 1.8313 0.962864 0
M  V30 5470 C 523.412 0.630934 1.77946 0
M  V30 5471 O 522.769 -0.400519 1.78051 0
M  V30 5472 C 522.82 3.08742 1.88045 0
M  V30 5473 O 522.541 4.24147 1.09686 0
M  V30 5474 C 524.042 3.48824 2.73563 0
M  V30 5475 H 521.262 0.608775 0.282194 0
M  V30 5476 H 523.806 2.03124 0.23681 0
M  V30 5477 H 521.961 2.90723 2.56045 0
M  V30 5478 H 522.375 4.95505 1.71974 0
M  V30 5479 H 523.849 4.39752 3.3365 0
M  V30 5480 H 524.326 2.70575 3.45956 0
M  V30 5481 H 524.932 3.69282 2.10976 0
M  V30 5482 N 523.247 -0.488276 1.49845 0
M  V30 5483 C 524.21 -1.57069 1.66919 0
M  V30 5484 C 525.21 -1.51445 0.540479 0
M  V30 5485 O 526.4 -1.5437 0.807188 0
M  V30 5486 C 523.532 -2.96718 1.67844 0
M  V30 5487 H 524.725 -1.43254 2.63474 0
M  V30 5488 H 522.278 -0.713435 1.39068 0
M  V30 5489 H 523.013 -3.15996 0.7292 0
M  V30 5490 H 522.798 -3.02208 2.49826 0
M  V30 5491 H 524.288 -3.75335 1.83066 0
M  V30 5492 N 524.725 -1.39134 -0.740242 0
M  V30 5493 C 526.002 -1.26584 -1.49117 0
M  V30 5494 C 526.382 0.126902 -2.10718 0
M  V30 5495 O 525.73 1.13765 -1.98166 0
M  V30 5496 C 525.94 -2.38619 -2.54681 0
M  V30 5497 C 527.288 -2.77685 -3.21211 0
M  V30 5498 O 528.312 -2.38029 -2.64991 0
M  V30 5499 O 527.171 -3.46115 -4.22926 0
M  V30 5500 H 524.265 -0.495769 -0.661923 0
M  V30 5501 H 526.811 -1.50995 -0.774514 0
M  V30 5502 H 525.583 -3.3175 -2.07504 0
M  V30 5503 H 525.206 -2.15845 -3.33911 0
M  V30 5504 N 526.204 0.969867 -1.24223 0
M  V30 5505 C 527.615 1.52717 -1.07399 0
M  V30 5506 C 527.966 1.92956 0.355298 0
M  V30 5507 O 527.091 1.77112 1.2434 0
M  V30 5508 C 527.686 2.77521 -1.94339 0
M  V30 5509 C 526.245 3.29615 -1.81744 0
M  V30 5510 C 525.392 2.02537 -1.89405 0
M  V30 5511 H 528.343 0.788399 -1.37732 0
M  V30 5512 H 528.364 3.50773 -1.47439 0
M  V30 5513 H 527.876 2.48203 -2.98357 0
M  V30 5514 H 525.977 3.63789 -0.805505 0
M  V30 5515 H 526.09 3.98661 -2.65718 0
M  V30 5516 H 524.454 2.17151 -1.33108 0
M  V30 5517 H 525.237 1.75587 -2.94999 0
M  V30 5518 N 527.682 1.05563 1.17022 0
M  V30 5519 C 528.592 0.670758 2.24807 0
M  V30 5520 C 529.608 -0.309865 1.71219 0
M  V30 5521 O 530.784 -0.161025 2.00755 0
M  V30 5522 C 527.849 0.055337 3.46656 0
M  V30 5523 C 526.91 1.08688 4.15314 0
M  V30 5524 C 526.143 0.500736 5.31346 0
M  V30 5525 O 526.366 -0.688718 5.66227 0
M  V30 5526 O 525.3 1.23683 5.89055 0
M  V30 5527 H 529.126 1.56914 2.60023 0
M  V30 5528 H 526.711 0.827428 1.24395 0
M  V30 5529 H 528.593 -0.286492 4.20425 0
M  V30 5530 H 527.268 -0.816638 3.13229 0
M  V30 5531 H 526.175 1.48077 3.43546 0
M  V30 5532 H 527.508 1.93014 4.52777 0
M  V30 5533 N 529.16 -1.33526 0.837174 0
M  V30 5534 C 530.571 -1.80182 0.489017 0
M  V30 5535 C 530.922 -1.69285 -0.991826 0
M  V30 5536 O 530.047 -1.24113 -1.77271 0
M  V30 5537 C 530.642 -3.27149 0.880866 0
M  V30 5538 C 529.201 -3.71828 0.584872 0
M  V30 5539 C 528.348 -2.54974 1.09011 0
M  V30 5540 H 531.299 -1.21071 1.02603 0
M  V30 5541 H 531.32 -3.80024 0.190239 0
M  V30 5542 H 530.832 -3.35048 1.95869 0
M  V30 5543 H 528.933 -3.69457 -0.48295 0
M  V30 5544 H 529.046 -4.65366 1.13892 0
M  V30 5545 H 527.41 -2.4952 0.511047 0
M  V30 5546 H 528.193 -2.65637 2.17467 0
M  V30 5547 N 530.638 -0.59345 -1.46 0
M  V30 5548 C 532.049 -0.169801 -1.85926 0
M  V30 5549 C 532.4 1.26984 -1.49565 0
M  V30 5550 O 531.525 1.96076 -0.915602 0
M  V30 5551 C 532.12 -0.301385 -3.37457 0
M  V30 5552 C 530.679 0.0674684 -3.7634 0
M  V30 5553 C 529.826 -0.632383 -2.69993 0
M  V30 5554 H 532.777 -0.801014 -1.37002 0
M  V30 5555 H 532.798 0.470331 -3.77582 0
M  V30 5556 H 532.31 -1.34927 -3.63891 0
M  V30 5557 H 530.411 1.11507 -3.55523 0
M  V30 5558 H 530.524 -0.316332 -4.78055 0
M  V30 5559 H 528.888 -0.0714961 -2.546 0
M  V30 5560 H 529.671 -1.68212 -2.99265 0
M  V30 5561 N 532.116 1.54067 -0.331816 0
M  V30 5562 C 533.046 2.27569 0.522932 0
M  V30 5563 C 534.027 1.28679 1.11247 0
M  V30 5564 O 535.212 1.57504 1.13605 0
M  V30 5565 C 532.342 3.0397 1.67987 0
M  V30 5566 C 531.296 4.10267 1.21924 0
M  V30 5567 C 530.622 4.74555 2.46377 0
M  V30 5568 C 531.922 5.21268 0.32815 0
M  V30 5569 H 533.616 2.99264 -0.0901977 0
M  V30 5570 H 531.162 1.4393 -0.044821 0
M  V30 5571 H 533.115 3.54123 2.28418 0
M  V30 5572 H 531.839 2.29906 2.31971 0
M  V30 5573 H 530.498 3.61009 0.637809 0
M  V30 5574 H 530.146 3.97098 3.08743 0
M  V30 5575 H 529.846 5.46363 2.16243 0
M  V30 5576 H 531.37 5.27487 3.07555 0
M  V30 5577 H 532.784 5.67128 0.838978 0
M  V30 5578 H 531.181 5.99982 0.119228 0
M  V30 5579 H 532.251 4.80673 -0.638839 0
M  V30 5580 N 533.594 0.0601682 1.57485 0
M  V30 5581 C 534.504 -0.926121 2.15546 0
M  V30 5582 C 535.52 -1.33532 1.11558 0
M  V30 5583 O 536.696 -1.4104 1.4377 0
M  V30 5584 C 533.761 -2.17952 2.69625 0
M  V30 5585 C 532.822 -1.82783 3.88444 0
M  V30 5586 C 532.055 -3.02148 4.39935 0
M  V30 5587 O 532.278 -4.15803 3.90466 0
M  V30 5588 O 531.212 -2.82639 5.31412 0
M  V30 5589 H 535.038 -0.462289 3.00161 0
M  V30 5590 H 532.623 -0.162246 1.48516 0
M  V30 5591 H 534.505 -2.91474 3.04337 0
M  V30 5592 H 533.18 -2.63456 1.88077 0
M  V30 5593 H 532.087 -1.06549 3.58606 0
M  V30 5594 H 533.42 -1.42072 4.7125 0
M  V30 5595 N 535.072 -1.5615 -0.213296 0
M  V30 5596 C 535.982 -1.96265 -1.28519 0
M  V30 5597 C 536.998 -0.86765 -1.50824 0
M  V30 5598 O 538.174 -1.17191 -1.63793 0
M  V30 5599 C 535.239 -2.27836 -2.61327 0
M  V30 5600 C 534.3 -3.50949 -2.47252 0
M  V30 5601 C 533.533 -3.81004 -3.73727 0
M  V30 5602 O 533.756 -3.12612 -4.77106 0
M  V30 5603 O 532.69 -4.74477 -3.70344 0
M  V30 5604 H 536.516 -2.87631 -0.974795 0
M  V30 5605 H 534.101 -1.43467 -0.416832 0
M  V30 5606 H 535.983 -2.49299 -3.39747 0
M  V30 5607 H 534.658 -1.39643 -2.9203 0
M  V30 5608 H 533.565 -3.34754 -1.67004 0
M  V30 5609 H 534.898 -4.39551 -2.21486 0
M  V30 5610 N 536.55 0.480323 -1.50102 0
M  V30 5611 C 537.48 1.58769 -1.71215 0
M  V30 5612 C 538.461 1.60583 -0.560997 0
M  V30 5613 O 539.646 1.76996 -0.799127 0
M  V30 5614 C 536.776 2.97148 -1.79778 0
M  V30 5615 C 535.73 3.10201 -2.94888 0
M  V30 5616 C 535.056 4.50137 -2.88584 0
M  V30 5617 C 536.356 2.88283 -4.35534 0
M  V30 5618 H 538.05 1.41354 -2.6393 0
M  V30 5619 H 535.596 0.678591 -1.27008 0
M  V30 5620 H 537.549 3.74536 -1.93133 0
M  V30 5621 H 536.273 3.15699 -0.836772 0
M  V30 5622 H 534.932 2.35244 -2.81169 0
M  V30 5623 H 534.58 4.65593 -1.90349 0
M  V30 5624 H 534.28 4.59808 -3.65856 0
M  V30 5625 H 535.804 5.29558 -3.03976 0
M  V30 5626 H 537.218 3.55427 -4.49827 0
M  V30 5627 H 535.615 3.09408 -5.14186 0
M  V30 5628 H 536.685 1.84219 -4.48544 0
M  V30 5629 N 538.028 1.39524 0.732853 0
M  V30 5630 C 539.276 1.36594 1.48951 0
M  V30 5631 C 539.597 -0.0367507 1.94965 0
M  V30 5632 O 538.867 -0.988391 1.69138 0
M  V30 5633 H 537.447 0.502673 0.552566 0
M  V30 5634 H 540.109 1.74411 0.869869 0
M  V30 5635 H 539.205 2.03 2.3706 0
M  V30 5636 N 539.506 -0.963266 1.24736 0
M  V30 5637 C 540.736 -1.73913 1.11524 0
M  V30 5638 C 541.144 -1.86218 -0.334612 0
M  V30 5639 O 540.487 -1.3531 -1.24245 0
M  V30 5640 C 540.549 -3.17501 1.68622 0
M  V30 5641 C 540.213 -3.28655 3.17546 0
M  V30 5642 C 541.21 -3.13637 4.14642 0
M  V30 5643 C 538.895 -3.52753 3.5759 0
M  V30 5644 C 540.889 -3.2255 5.49764 0
M  V30 5645 C 538.576 -3.61303 4.92852 0
M  V30 5646 C 539.574 -3.46214 5.88748 0
M  V30 5647 O 539.262 -3.5443 7.2155 0
M  V30 5648 H 538.994 -0.552057 0.390139 0
M  V30 5649 H 541.548 -1.2177 1.65412 0
M  V30 5650 H 539.778 -3.70969 1.09172 0
M  V30 5651 H 541.467 -3.76914 1.50635 0
M  V30 5652 H 542.233 -2.94899 3.85045 0
M  V30 5653 H 538.112 -3.63561 2.83451 0
M  V30 5654 H 541.656 -3.1069 6.24594 0
M  V30 5655 H 537.553 -3.79556 5.22118 0
M  V30 5656 H 538.321 -3.71116 7.29531 0
M  V30 5657 N 540.985 -1.06182 -1.16461 0
M  V30 5658 C 541.935 -0.641619 -2.18786 0
M  V30 5659 C 542.919 0.327122 -1.5754 0
M  V30 5660 O 544.111 0.142746 -1.76423 0
M  V30 5661 C 541.24 -0.0283734 -3.43288 0
M  V30 5662 C 540.326 -1.02154 -4.11613 0
M  V30 5663 N 540.717 -2.19671 -4.55608 0
M  V30 5664 C 539.015 -0.852229 -4.37782 0
M  V30 5665 C 539.716 -2.82583 -5.0845 0
M  V30 5666 N 538.692 -2.10318 -5.01266 0
M  V30 5667 H 542.494 -1.53684 -2.50516 0
M  V30 5668 H 540.008 -0.933349 -1.329 0
M  V30 5669 H 542.005 0.29049 -4.15887 0
M  V30 5670 H 540.665 0.862118 -3.13046 0
M  V30 5671 H 541.676 -2.57453 -4.49375 0
M  V30 5672 H 538.353 -0.0136314 -4.17498 0
M  V30 5673 H 539.743 -3.82298 -5.52538 0
M  V30 5674 N 542.463 1.3308 -0.844243 0
M  V30 5675 C 543.712 1.96868 -0.438833 0
M  V30 5676 C 544.025 1.67599 1.00846 0
M  V30 5677 O 545.231 2.25043 1.51881 0
M  V30 5678 C 543.687 3.5234 -0.73377 0
M  V30 5679 C 543.295 3.90481 -2.1961 0
M  V30 5680 C 545.039 4.22653 -0.395574 0
M  V30 5681 C 542.946 5.38954 -2.43481 0
M  V30 5682 H 541.876 0.736749 -0.160364 0
M  V30 5683 H 544.527 1.51623 -1.03358 0
M  V30 5684 H 542.909 3.95941 -0.068589 0
M  V30 5685 H 544.083 3.57922 -2.90221 0
M  V30 5686 H 542.398 3.33165 -2.4978 0
M  V30 5687 H 544.995 5.31848 -0.551477 0
M  V30 5688 H 545.338 4.11004 0.661921 0
M  V30 5689 H 545.871 3.84601 -1.01621 0
M  V30 5690 H 542.61 5.55612 -3.47816 0
M  V30 5691 H 542.13 5.72954 -1.77437 0
M  V30 5692 H 543.809 6.05907 -2.26905 0
M  V30 5693 N 543.941 0.601185 1.45683 0
M  V30 5694 C 545.171 0.0999093 2.06358 0
M  V30 5695 C 545.579 -1.21831 1.44754 0
M  V30 5696 O 544.922 -1.75157 0.553695 0
M  V30 5697 C 544.984 -0.12085 3.59297 0
M  V30 5698 C 544.648 1.11459 4.432 0
M  V30 5699 C 545.645 2.03118 4.7858 0
M  V30 5700 C 543.33 1.34162 4.84051 0
M  V30 5701 C 545.324 3.15814 5.53661 0
M  V30 5702 C 543.011 2.4716 5.58888 0
M  V30 5703 C 544.009 3.37814 5.93608 0
M  V30 5704 O 543.697 4.48846 6.66928 0
M  V30 5705 H 543.429 0.0630316 0.673055 0
M  V30 5706 H 545.983 0.826982 1.88016 0
M  V30 5707 H 544.213 -0.902744 3.76015 0
M  V30 5708 H 545.902 -0.572925 4.01836 0
M  V30 5709 H 546.668 1.86801 4.47583 0
M  V30 5710 H 542.547 0.645018 4.56465 0
M  V30 5711 H 546.091 3.86596 5.8068 0
M  V30 5712 H 541.988 2.63432 5.89299 0
M  V30 5713 H 542.756 4.47446 6.85371 0
M  V30 5714 N 545.419 -1.53889 0.339982 0
M  V30 5715 C 546.644 -2.05741 -0.261798 0
M  V30 5716 C 547.069 -1.21354 -1.43718 0
M  V30 5717 O 546.427 -0.22645 -1.7988 0
M  V30 5718 C 546.475 -3.54542 -0.658228 0
M  V30 5719 O 545.579 -3.7302 -1.75869 0
M  V30 5720 H 544.92 -0.662529 -0.0441672 0
M  V30 5721 H 547.45 -1.98568 0.493161 0
M  V30 5722 H 547.46 -3.9711 -0.936368 0
M  V30 5723 H 546.135 -4.15412 0.201358 0
M  V30 5724 H 544.712 -3.42355 -1.47809 0
M  V30 5725 N 546.897 -0.0685191 -1.57451 0
M  V30 5726 C 548.122 0.613919 -1.98106 0
M  V30 5727 C 548.547 1.62551 -0.946501 0
M  V30 5728 O 547.905 1.81085 0.0882824 0
M  V30 5729 C 547.953 1.26189 -3.378 0
M  V30 5730 O 547.057 2.37773 -3.36954 0
M  V30 5731 H 546.398 0.158163 -0.644888 0
M  V30 5732 H 548.928 -0.142063 -2.04106 0
M  V30 5733 H 548.938 1.60951 -3.74912 0
M  V30 5734 H 547.613 0.520625 -4.12629 0
M  V30 5735 H 546.19 2.04829 -3.11608 0
M  V30 5736 N 548.375 1.56261 0.205012 0
M  V30 5737 C 549.652 1.70856 0.952233 0
M  V30 5738 C 550.032 0.620501 2.01775 0
M  V30 5739 O 549.38 -0.370035 2.25484 0
M  V30 5740 C 549.59 3.12807 1.54767 0
M  V30 5741 C 550.938 3.72733 2.0336 0
M  V30 5742 O 551.962 3.15873 1.64629 0
M  V30 5743 O 550.821 4.72501 2.746 0
M  V30 5744 H 547.915 0.696496 0.445895 0
M  V30 5745 H 550.461 1.6857 0.195489 0
M  V30 5746 H 549.233 3.83465 0.779132 0
M  V30 5747 H 548.856 3.1928 2.36951 0
M  V30 5748 N 549.853 -0.472356 1.50355 0
M  V30 5749 C 551.264 -1.05326 1.54154 0
M  V30 5750 C 551.615 -1.93155 0.344303 0
M  V30 5751 O 550.74 -2.09479 -0.542928 0
M  V30 5752 C 551.335 -1.91691 2.79356 0
M  V30 5753 C 549.894 -2.44892 2.8584 0
M  V30 5754 C 549.041 -1.23205 2.48426 0
M  V30 5755 H 551.992 -0.255027 1.56637 0
M  V30 5756 H 552.013 -2.76742 2.6114 0
M  V30 5757 H 551.525 -1.27741 3.66475 0
M  V30 5758 H 549.626 -3.12399 2.0307 0
M  V30 5759 H 549.739 -2.80086 3.88701 0
M  V30 5760 H 548.103 -1.56643 2.00836 0
M  V30 5761 H 548.886 -0.609194 3.37852 0
M  V30 5762 N 551.331 -1.39911 -0.725443 0
M  V30 5763 C 552.742 -1.33599 -1.30415 0
M  V30 5764 C 553.093 -0.00481792 -1.96199 0
M  V30 5765 O 552.218 0.897275 -1.96921 0
M  V30 5766 C 552.813 -2.41965 -2.37146 0
M  V30 5767 C 551.372 -2.39144 -2.90667 0
M  V30 5768 C 550.519 -2.23355 -1.64341 0
M  V30 5769 H 553.47 -1.4986 -0.522267 0
M  V30 5770 H 553.491 -2.09304 -3.17761 0
M  V30 5771 H 553.003 -3.38837 -1.89238 0
M  V30 5772 H 551.104 -1.4594 -3.4283 0
M  V30 5773 H 551.217 -3.34362 -3.43131 0
M  V30 5774 H 549.581 -1.70696 -1.89037 0
M  V30 5775 H 550.364 -3.2221 -1.18471 0
M  V30 5776 N 552.809 0.956637 -1.25245 0
M  V30 5777 C 554.056 1.701 -1.09874 0
M  V30 5778 C 554.384 1.91128 0.36062 0
M  V30 5779 O 553.639 1.47837 1.28229 0
M  V30 5780 C 553.938 3.08996 -1.79601 0
M  V30 5781 C 553.604 3.07774 -3.29523 0
M  V30 5782 C 552.266 3.07149 -3.70423 0
M  V30 5783 C 554.618 3.01257 -4.25316 0
M  V30 5784 C 551.946 2.97752 -5.0553 0
M  V30 5785 C 554.298 2.93403 -5.60444 0
M  V30 5786 C 552.962 2.91111 -6.00675 0
M  V30 5787 H 552.232 0.62244 -0.402056 0
M  V30 5788 H 554.879 1.1178 -1.55491 0
M  V30 5789 H 553.184 3.70848 -1.26408 0
M  V30 5790 H 554.881 3.65407 -1.65162 0
M  V30 5791 H 551.471 3.09032 -2.9698 0
M  V30 5792 H 555.655 3.00861 -3.9471 0
M  V30 5793 H 550.911 2.94346 -5.35883 0
M  V30 5794 H 555.085 2.87321 -6.34366 0
M  V30 5795 H 552.712 2.83586 -7.05325 0
M  V30 5796 N 554.287 1.06798 1.15896 0
M  V30 5797 C 555.197 0.694564 2.24083 0
M  V30 5798 C 556.213 -0.291687 1.71538 0
M  V30 5799 O 557.389 -0.139723 2.00915 0
M  V30 5800 C 554.454 0.0921014 3.46578 0
M  V30 5801 C 553.515 1.13087 4.14137 0
M  V30 5802 C 552.748 0.557064 5.30785 0
M  V30 5803 O 552.971 -0.628623 5.66925 0
M  V30 5804 O 551.905 1.29924 5.8771 0
M  V30 5805 H 555.731 1.59663 2.58344 0
M  V30 5806 H 553.316 0.840575 1.2351 0
M  V30 5807 H 555.198 -0.241884 4.20705 0
M  V30 5808 H 553.873 -0.78337 3.14078 0
M  V30 5809 H 552.78 1.51712 3.41957 0
M  V30 5810 H 554.113 1.97805 4.50704 0
M  V30 5811 N 555.766 -1.3263 0.851289 0
M  V30 5812 C 557.012 -1.9766 0.453694 0
M  V30 5813 C 557.345 -1.67225 -0.987396 0
M  V30 5814 O 556.62 -0.958693 -1.69232 0
M  V30 5815 C 556.903 -3.5344 0.68936 0
M  V30 5816 C 556.756 -3.93517 2.17862 0
M  V30 5817 C 558.075 -4.39866 0.143555 0
M  V30 5818 H 555.194 -0.717989 0.166314 0
M  V30 5819 H 557.836 -1.57068 1.06909 0
M  V30 5820 H 555.986 -3.88147 0.165546 0
M  V30 5821 H 557.658 -3.69006 2.76826 0
M  V30 5822 H 555.901 -3.42798 2.65841 0
M  V30 5823 H 556.572 -5.02065 2.29422 0
M  V30 5824 H 559.048 -4.11875 0.591451 0
M  V30 5825 H 557.924 -5.47858 0.338043 0
M  V30 5826 H 558.185 -4.31696 -0.953466 0
M  V30 5827 N 557.244 -0.608902 -1.45362 0
M  V30 5828 C 558.66 -0.272659 -1.57254 0
M  V30 5829 C 558.86 1.22477 -1.60005 0
M  V30 5830 O 557.916 2.00785 -1.53106 0
M  V30 5831 C 559.229 -0.944991 -2.85465 0
M  V30 5832 C 560.777 -0.921033 -2.99142 0
M  V30 5833 C 561.252 -1.5734 -4.30126 0
M  V30 5834 N 562.743 -1.53895 -4.36887 0
M  V30 5835 C 563.478 -2.01286 -5.36909 0
M  V30 5836 N 562.974 -2.56768 -6.43461 0
M  V30 5837 N 564.767 -1.92046 -5.28275 0
M  V30 5838 H 556.918 -1.58117 -1.4182 0
M  V30 5839 H 559.181 -0.662437 -0.678146 0
M  V30 5840 H 558.887 -1.99941 -2.89338 0
M  V30 5841 H 558.761 -0.469079 -3.74272 0
M  V30 5842 H 561.148 0.124846 -2.94836 0
M  V30 5843 H 561.229 -1.43522 -2.11743 0
M  V30 5844 H 560.873 -2.61862 -4.35191 0
M  V30 5845 H 560.803 -1.03422 -5.16344 0
M  V30 5846 H 563.294 -1.13366 -3.60495 0
M  V30 5847 H 563.607 -2.9072 -7.16032 0
M  V30 5848 H 561.952 -2.60808 -6.44208 0
M  V30 5849 H 565.143 -1.48439 -4.43941 0
M  V30 5850 H 565.316 -2.29293 -6.06077 0
M  V30 5851 N 558.722 1.53707 -0.348139 0
M  V30 5852 C 559.97 2.00591 0.246478 0
M  V30 5853 C 560.291 1.23753 1.50699 0
M  V30 5854 O 559.561 0.345964 1.92821 0
M  V30 5855 H 558.141 0.741053 0.0940679 0
M  V30 5856 H 560.803 1.89139 -0.470354 0
M  V30 5857 H 559.899 3.08297 0.485714 0
M  V30 5858 N 560.2 0.0768682 1.57412 0
M  V30 5859 C 561.163 -0.873949 2.11884 0
M  V30 5860 C 562.163 -1.22301 1.04398 0
M  V30 5861 O 563.353 -1.15545 1.30365 0
M  V30 5862 C 560.485 -2.17575 2.62438 0
M  V30 5863 H 561.678 -0.401278 2.97203 0
M  V30 5864 H 559.231 -0.171904 1.55352 0
M  V30 5865 H 559.966 -2.69368 1.80587 0
M  V30 5866 H 559.751 -1.93534 3.41009 0
M  V30 5867 H 561.241 -2.85631 3.04639 0
M  V30 5868 N 561.678 -1.56367 -0.196722 0
M  V30 5869 C 562.626 -1.95304 -1.2633 0
M  V30 5870 C 563.62 -0.838252 -1.47206 0
M  V30 5871 O 564.826 -1.02325 -1.48087 0
M  V30 5872 H 561.201 -0.621013 -0.424083 0
M  V30 5873 H 563.172 -2.84254 -0.907879 0
M  V30 5874 C 561.921 -2.3074 -2.60104 0
M  V30 5875 H 561.244 -3.16047 -2.44856 0
M  V30 5876 H 562.684 -2.61849 -3.33484 0
M  V30 5877 C 561.143 -1.14143 -3.16975 0
M  V30 5878 O 561.673 -0.415602 -3.99544 0
M  V30 5879 N 559.879 -0.91867 -2.75697 0
M  V30 5880 H 559.426 -1.51065 -2.08656 0
M  V30 5881 H 559.384 -0.140321 -3.14087 0
M  V30 5882 N 563.156 0.464375 -1.50603 0
M  V30 5883 C 564.088 1.57916 -1.66118 0
M  V30 5884 C 565.101 1.53497 -0.54246 0
M  V30 5885 O 566.29 1.58763 -0.815877 0
M  V30 5886 C 563.39 2.96809 -1.63577 0
M  V30 5887 C 562.563 3.26026 -2.91592 0
M  V30 5888 C 561.622 4.44506 -2.81604 0
M  V30 5889 O 560.648 4.44484 -3.55559 0
M  V30 5890 N 561.85 5.46549 -1.95614 0
M  V30 5891 H 564.615 1.45022 -2.62276 0
M  V30 5892 H 562.176 0.652903 -1.48151 0
M  V30 5893 H 564.168 3.74048 -1.54499 0
M  V30 5894 H 562.738 3.03438 -0.751262 0
M  V30 5895 H 561.958 2.37337 -3.14746 0
M  V30 5896 H 563.246 3.42361 -3.76386 0
M  V30 5897 H 562.644 5.49391 -1.34854 0
M  V30 5898 H 561.201 6.22746 -1.92435 0
M  V30 5899 N 564.634 1.40294 0.718013 0
M  V30 5900 C 565.88 1.39648 1.47885 0
M  V30 5901 C 566.235 -0.0023879 1.924 0
M  V30 5902 O 565.528 -0.972304 1.65096 0
M  V30 5903 C 565.722 2.31814 2.72024 0
M  V30 5904 C 565.551 3.80523 2.3965 0
M  V30 5905 C 564.321 4.49351 2.3111 0
M  V30 5906 C 566.519 4.72077 2.04079 0
M  V30 5907 N 564.501 5.83305 1.91385 0
M  V30 5908 C 565.872 5.94809 1.74935 0
M  V30 5909 C 567.927 4.59935 1.90694 0
M  V30 5910 C 566.63 7.06755 1.33753 0
M  V30 5911 C 568.656 5.7182 1.50915 0
M  V30 5912 C 568.018 6.93637 1.22668 0
M  V30 5913 H 564.117 0.566263 0.539324 0
M  V30 5914 H 566.701 1.75986 0.832891 0
M  V30 5915 H 564.872 1.97607 3.34374 0
M  V30 5916 H 566.604 2.22042 3.38348 0
M  V30 5917 H 563.359 4.03002 2.4877 0
M  V30 5918 H 563.783 6.54239 1.74068 0
M  V30 5919 H 568.425 3.66274 2.11194 0
M  V30 5920 H 566.143 8.00302 1.11995 0
M  V30 5921 H 569.729 5.64421 1.4114 0
M  V30 5922 H 568.609 7.78743 0.923502 0
M  V30 5923 N 566.112 -0.949982 1.2575 0
M  V30 5924 C 567.361 -1.68956 1.10168 0
M  V30 5925 C 567.674 -1.92327 -0.356309 0
M  V30 5926 O 568.88 -2.64026 -0.632657 0
M  V30 5927 C 567.336 -3.04196 1.92336 0
M  V30 5928 C 566.944 -2.88603 3.42655 0
M  V30 5929 C 568.688 -3.81904 1.85336 0
M  V30 5930 C 566.595 -4.19262 4.17101 0
M  V30 5931 H 565.525 -0.633645 0.408668 0
M  V30 5932 H 568.176 -1.05719 1.49986 0
M  V30 5933 H 566.558 -3.68363 1.45344 0
M  V30 5934 H 567.732 -2.3334 3.97353 0
M  V30 5935 H 566.047 -2.24345 3.50796 0
M  V30 5936 H 568.644 -4.78688 2.38248 0
M  V30 5937 H 568.987 -4.08099 0.822226 0
M  V30 5938 H 569.52 -3.24495 2.30104 0
M  V30 5939 H 566.259 -3.98254 5.20648 0
M  V30 5940 H 565.779 -4.74273 3.67186 0
M  V30 5941 H 567.458 -4.87775 4.25071 0
M  V30 5942 N 567.59 -1.07411 -1.15328 0
M  V30 5943 C 568.537 -0.694995 -2.20087 0
M  V30 5944 C 569.507 0.313904 -1.63107 0
M  V30 5945 O 570.692 0.200216 -1.89747 0
M  V30 5946 C 567.832 -0.0996218 -3.44956 0
M  V30 5947 C 566.945 -1.16007 -4.16133 0
M  V30 5948 C 566.08 -0.529636 -5.28553 0
M  V30 5949 C 565.119 -1.57283 -5.91548 0
M  V30 5950 N 564.256 -0.964932 -6.95438 0
M  V30 5951 H 569.096 -1.5927 -2.51867 0
M  V30 5952 H 566.633 -0.796115 -1.23695 0
M  V30 5953 H 568.591 0.263197 -4.16369 0
M  V30 5954 H 567.221 0.761435 -3.13691 0
M  V30 5955 H 566.273 -1.64045 -3.4321 0
M  V30 5956 H 567.585 -1.95101 -4.59061 0
M  V30 5957 H 566.739 -0.114487 -6.06592 0
M  V30 5958 H 565.478 0.29307 -4.86819 0
M  V30 5959 H 564.483 -1.99775 -5.12221 0
M  V30 5960 H 565.708 -2.39783 -6.35359 0
M  V30 5961 H 563.654 -0.16314 -6.55797 0
M  V30 5962 H 563.571 -1.69311 -7.36797 0
M  V30 5963 H 564.839 -0.575305 -7.77374 0
M  V30 5964 N 569.068 1.32177 -0.85831 0
M  V30 5965 C 570.315 1.97125 -0.463484 0
M  V30 5966 C 570.643 1.67907 0.981705 0
M  V30 5967 O 569.898 0.961717 1.70439 0
M  V30 5968 C 570.197 3.51372 -0.653658 0
M  V30 5969 C 569.863 4.00584 -2.06987 0
M  V30 5970 C 568.525 4.13733 -2.4572 0
M  V30 5971 C 570.877 4.26624 -2.99402 0
M  V30 5972 C 568.205 4.50268 -3.76132 0
M  V30 5973 C 570.557 4.64618 -4.29316 0
M  V30 5974 C 569.221 4.75975 -4.67979 0
M  V30 5975 H 568.491 0.72133 -0.169601 0
M  V30 5976 H 571.138 1.57517 -1.08907 0
M  V30 5977 H 569.443 3.91761 0.0551328 0
M  V30 5978 H 571.14 3.99655 -0.328163 0
M  V30 5979 H 567.73 3.90837 -1.75911 0
M  V30 5980 H 571.914 4.1597 -2.70708 0
M  V30 5981 H 567.17 4.57256 -4.05865 0
M  V30 5982 H 571.344 4.83722 -5.00985 0
M  V30 5983 H 568.971 5.04041 -5.69076 0
M  V30 5984 N 570.547 0.616602 1.45037 0
M  V30 5985 C 571.494 -0.0969439 2.30596 0
M  V30 5986 C 572.464 -0.851151 1.42635 0
M  V30 5987 O 573.649 -0.835092 1.71554 0
M  V30 5988 C 570.789 -1.08234 3.27688 0
M  V30 5989 C 569.902 -0.328072 4.30752 0
M  V30 5990 C 569.037 -1.30399 5.14946 0
M  V30 5991 C 568.076 -0.538049 6.09731 0
M  V30 5992 N 567.213 -1.46371 6.86673 0
M  V30 5993 H 572.053 0.63864 2.91076 0
M  V30 5994 H 569.59 0.326733 1.43425 0
M  V30 5995 H 571.548 -1.66688 3.82454 0
M  V30 5996 H 570.178 -1.78523 2.68941 0
M  V30 5997 H 569.23 0.372136 3.78575 0
M  V30 5998 H 570.542 0.269142 4.98073 0
M  V30 5999 H 569.696 -1.96032 5.74157 0
M  V30 6000 H 568.435 -1.93514 4.47665 0
M  V30 6001 H 567.44 0.131852 5.49642 0
M  V30 6002 H 568.665 0.0881732 6.79043 0
M  V30 6003 H 566.611 -2.08233 6.22073 0
M  V30 6004 H 566.528 -0.920152 7.50379 0
M  V30 6005 H 567.796 -2.10932 7.50418 0
M  V30 6006 N 572.025 -1.5352 0.356285 0
M  V30 6007 C 573.25 -2.06007 -0.239961 0
M  V30 6008 C 573.675 -1.22872 -1.42422 0
M  V30 6009 O 573.033 -0.245516 -1.7963 0
M  V30 6010 C 573.081 -3.5522 -0.620587 0
M  V30 6011 O 572.185 -3.74864 -1.71902 0
M  V30 6012 H 571.526 -0.662961 -0.0371377 0
M  V30 6013 H 574.056 -1.98033 0.514194 0
M  V30 6014 H 574.066 -3.98081 -0.894197 0
M  V30 6015 H 572.741 -4.15175 0.245407 0
M  V30 6016 H 571.318 -3.43904 -1.44169 0
M  V30 6017 N 573.503 -0.0852151 -1.57369 0
M  V30 6018 C 574.749 0.581666 -1.94279 0
M  V30 6019 C 575.082 1.68444 -0.966446 0
M  V30 6020 O 574.357 1.945 0.00215277 0
M  V30 6021 C 574.64 1.14609 -3.41375 0
M  V30 6022 C 574.493 0.0490414 -4.49773 0
M  V30 6023 C 575.812 2.04751 -3.8957 0
M  V30 6024 H 572.931 0.209972 -0.706456 0
M  V30 6025 H 575.573 -0.153915 -1.89376 0
M  V30 6026 H 573.723 1.77297 -3.45685 0
M  V30 6027 H 575.395 -0.584721 -4.57579 0
M  V30 6028 H 573.638 -0.618638 -4.29366 0
M  V30 6029 H 574.309 0.484601 -5.49869 0
M  V30 6030 H 576.785 1.51981 -3.87351 0
M  V30 6031 H 575.661 2.41173 -4.93079 0
M  V30 6032 H 575.922 2.96107 -3.28288 0
M  V30 6033 N 574.981 1.5647 0.188427 0
M  V30 6034 C 576.206 1.85486 0.927891 0
M  V30 6035 C 576.631 0.669575 1.75779 0
M  V30 6036 O 575.989 -0.381573 1.77239 0
M  V30 6037 C 576.037 3.12784 1.7944 0
M  V30 6038 O 575.141 2.93805 2.894 0
M  V30 6039 H 574.482 0.610585 0.260925 0
M  V30 6040 H 577.012 2.037 0.191729 0
M  V30 6041 H 577.022 3.43749 2.19774 0
M  V30 6042 H 575.697 3.98671 1.18468 0
M  V30 6043 H 574.274 2.74153 2.52774 0
M  V30 6044 O 576.498 -0.333583 1.58017 0
M  V30 6045 H 577.189 -0.982643 1.66925 0
M  V30 END ATOM
M  V30 BEGIN BOND
M  V30 END BOND
M  V30 END CTAB
M  END
$$$$
