drugbank_target|Q8I3X4 Purine nucleotide phosphorylase, putative (DB03881; DB11638)
 OpenBabel12092120283D

  0  0  0     0  0            999 V3000
M  V30 BEGIN CTAB
M  V30 COUNTS 3776 3808 0 0 0
M  V30 BEGIN ATOM
M  V30 1 H -0.908 1.98254 -0.117106 0
M  V30 2 N 0 1.576 0 0
M  V30 3 C 0.933 2.03868 1.02534 0
M  V30 4 C 1.911 0.928543 1.3348 0
M  V30 5 O 3.095 1.19667 1.45644 0
M  V30 6 C 0.222 2.43627 2.35294 0
M  V30 7 C -0.732 3.65373 2.2001 0
M  V30 8 S 0.101 5.13292 1.52614 0
M  V30 9 C 1.257 5.56322 2.86805 0
M  V30 10 H 1.49 2.90518 0.631377 0
M  V30 11 H -0.977 1.52953 0.210867 0
M  V30 12 H 0.981 2.67203 3.11629 0
M  V30 13 H -0.358 1.57376 2.7183 0
M  V30 14 H -1.165 3.90944 3.18086 0
M  V30 15 H -1.563 3.418 1.51819 0
M  V30 16 H 0.729 5.58782 3.83104 0
M  V30 17 H 1.672 6.56266 2.65933 0
M  V30 18 H 2.08 4.83886 2.90714 0
M  V30 19 N 1.4781 -0.272755 1.55222 0
M  V30 20 C 2.7551 -1.02562 1.66555 0
M  V30 21 C 3.1351 -2.04282 0.532189 0
M  V30 22 O 2.4831 -2.23662 -0.467717 0
M  V30 23 C 2.6931 -1.6822 3.05782 0
M  V30 24 C 4.0411 -2.19373 3.63539 0
M  V30 25 O 5.0651 -1.78206 3.08417 0
M  V30 26 O 3.9241 -2.94883 4.60115 0
M  V30 27 H 1.0181 -0.475755 0.676451 0
M  V30 28 H 3.5641 -0.268593 1.67561 0
M  V30 29 H 2.3361 -0.945112 3.79715 0
M  V30 30 H 1.9591 -2.50609 3.08676 0
M  V30 31 N 2.9562 -1.48159 -0.537278 0
M  V30 32 C 3.9042 -1.62573 -1.66352 0
M  V30 33 C 4.8982 -0.492366 -1.62087 0
M  V30 34 O 6.1042 -0.670847 -1.67032 0
M  V30 35 H 2.4792 -0.511992 -0.550789 0
M  V30 36 H 4.4502 -2.57176 -1.51337 0
M  V30 37 C 3.1992 -1.67583 -3.04649 0
M  V30 38 H 2.5222 -2.54151 -3.08622 0
M  V30 39 H 3.9622 -1.81713 -3.83088 0
M  V30 40 C 2.4212 -0.413039 -3.34358 0
M  V30 41 O 2.9512 0.477259 -3.98855 0
M  V30 42 N 1.1572 -0.286961 -2.8918 0
M  V30 43 H 0.7042 -1.01241 -2.36871 0
M  V30 44 H 0.6622 0.556963 -3.09427 0
M  V30 45 N 4.4343 0.785586 -1.36625 0
M  V30 46 C 5.3643 1.91259 -1.33949 0
M  V30 47 C 6.3453 1.68795 -0.210325 0
M  V30 48 O 7.5303 1.89854 -0.408561 0
M  V30 49 C 4.6603 3.28339 -1.13186 0
M  V30 50 C 3.6143 3.65335 -2.22967 0
M  V30 51 C 2.9403 5.00806 -1.87342 0
M  V30 52 C 4.2403 3.7352 -3.65075 0
M  V30 53 H 5.9343 1.93755 -2.28253 0
M  V30 54 H 3.4803 0.930788 -1.09874 0
M  V30 55 H 5.4333 4.06804 -1.09948 0
M  V30 56 H 4.1573 3.2624 -0.153332 0
M  V30 57 H 2.8163 2.89169 -2.25337 0
M  V30 58 H 2.4643 4.95233 -0.880545 0
M  V30 59 H 2.1643 5.26529 -2.60846 0
M  V30 60 H 3.6883 5.81687 -1.85667 0
M  V30 61 H 5.1023 4.42168 -3.64911 0
M  V30 62 H 3.4993 4.10731 -4.37516 0
M  V30 63 H 4.5693 2.74527 -3.99703 0
M  V30 64 N 5.9124 1.20967 1.01018 0
M  V30 65 C 6.8424 0.988272 2.11555 0
M  V30 66 C 7.8234 -0.0849778 1.69888 0
M  V30 67 O 9.0084 0.0738202 1.9406 0
M  V30 68 C 6.1384 0.546528 3.42973 0
M  V30 69 C 5.0924 1.56375 3.9841 0
M  V30 70 C 4.4184 0.97842 5.25672 0
M  V30 71 C 5.7184 2.94922 4.31066 0
M  V30 72 H 7.4124 1.91276 2.30334 0
M  V30 73 H 4.9584 0.921073 1.1069 0
M  V30 74 H 6.9114 0.378839 4.19694 0
M  V30 75 H 5.6354 -0.413598 3.23971 0
M  V30 76 H 4.2944 1.71891 3.23804 0
M  V30 77 H 3.9424 0.0101688 5.02999 0
M  V30 78 H 3.6424 1.65784 5.63728 0
M  V30 79 H 5.1664 0.821939 6.05043 0
M  V30 80 H 6.5804 2.8288 4.9865 0
M  V30 81 H 4.9774 3.5983 4.80253 0
M  V30 82 H 6.0474 3.4616 3.39561 0
M  V30 83 N 7.3905 -1.2043 1.01659 0
M  V30 84 C 8.8065 -1.41852 0.731442 0
M  V30 85 C 9.0065 -1.89358 -0.688898 0
M  V30 86 O 8.0625 -2.06247 -1.45666 0
M  V30 87 C 9.3755 -2.44019 1.75714 0
M  V30 88 C 10.9235 -2.57785 1.77527 0
M  V30 89 C 11.3985 -3.63194 2.79023 0
M  V30 90 N 12.8895 -3.70678 2.77763 0
M  V30 91 C 13.6245 -4.51897 3.52954 0
M  V30 92 N 13.1205 -5.36921 4.37821 0
M  V30 93 N 14.9135 -4.4643 3.41551 0
M  V30 94 H 7.0645 -0.879093 1.93354 0
M  V30 95 H 9.3275 -0.448425 0.835236 0
M  V30 96 H 9.0335 -2.1611 2.77469 0
M  V30 97 H 8.9075 -3.43007 1.56927 0
M  V30 98 H 11.2945 -2.85023 0.764569 0
M  V30 99 H 11.3755 -1.58992 2.00387 0
M  V30 100 H 11.0195 -3.36699 3.80258 0
M  V30 101 H 10.9495 -4.61609 2.53425 0
M  V30 102 H 13.4405 -3.09944 2.16201 0
M  V30 103 H 13.7535 -5.95981 4.91962 0
M  V30 104 H 12.0985 -5.36424 4.41899 0
M  V30 105 H 15.2895 -3.79042 2.74672 0
M  V30 106 H 15.4625 -5.09491 4.00404 0
M  V30 107 N 8.8686 -0.792821 -1.36206 0
M  V30 108 C 9.8186 -0.166598 -2.27391 0
M  V30 109 C 10.8026 0.651479 -1.47121 0
M  V30 110 O 11.9946 0.510994 -1.69463 0
M  V30 111 C 9.1236 0.695033 -3.36191 0
M  V30 112 C 8.2096 -0.132019 -4.23894 0
M  V30 113 N 8.6006 -1.18822 -4.91645 0
M  V30 114 C 6.8986 0.0885952 -4.45912 0
M  V30 115 C 7.5996 -1.69198 -5.56549 0
M  V30 116 N 6.5756 -1.00065 -5.34311 0
M  V30 117 H 10.3776 -0.974947 -2.77258 0
M  V30 118 H 7.8916 -0.632616 -1.49572 0
M  V30 119 H 9.8886 1.1596 -4.00448 0
M  V30 120 H 8.5486 1.50189 -2.87877 0
M  V30 121 H 9.5596 -1.57069 -4.93507 0
M  V30 122 H 6.2366 0.865688 -4.08426 0
M  V30 123 H 7.6266 -2.57395 -6.20643 0
M  V30 124 N 10.3467 1.47872 -0.545128 0
M  V30 125 C 11.2767 2.32661 0.197793 0
M  V30 126 C 12.2577 1.43041 0.920504 0
M  V30 127 O 13.4427 1.71912 0.90333 0
M  V30 128 C 10.5727 3.24569 1.23582 0
M  V30 129 C 9.5267 4.23333 0.630323 0
M  V30 130 C 8.8527 5.0448 1.77211 0
M  V30 131 C 10.1527 5.20704 -0.407974 0
M  V30 132 H 11.8467 2.95024 -0.510045 0
M  V30 133 H 9.3927 1.4187 -0.246731 0
M  V30 134 H 11.3457 3.8272 1.76362 0
M  V30 135 H 10.0697 2.60236 1.97344 0
M  V30 136 H 8.7287 3.6639 0.123922 0
M  V30 137 H 8.3767 4.36561 2.49847 0
M  V30 138 H 8.0767 5.71339 1.37281 0
M  V30 139 H 9.6007 5.65487 2.3034 0
M  V30 140 H 11.0147 5.7329 0.033305 0
M  V30 141 H 9.4117 5.95699 -0.725486 0
M  V30 142 H 10.4817 4.66917 -1.30828 0
M  V30 143 N 11.8248 0.280983 1.55075 0
M  V30 144 C 12.7718 -0.603937 2.22758 0
M  V30 145 C 13.7418 -1.1452 1.20309 0
M  V30 146 O 14.9268 -1.19343 1.48869 0
M  V30 147 C 12.0668 -1.77947 2.95684 0
M  V30 148 C 11.1798 -1.2715 4.12864 0
M  V30 149 C 10.3148 -2.4093 4.7342 0
M  V30 150 C 9.3538 -1.87165 5.82783 0
M  V30 151 N 8.4908 -2.94441 6.37377 0
M  V30 152 H 13.3308 -0.020124 2.97993 0
M  V30 153 H 10.8678 0.00183425 1.471 0
M  V30 154 H 12.8258 -2.47055 3.36184 0
M  V30 155 H 11.4558 -2.33522 2.22861 0
M  V30 156 H 10.5078 -0.473331 3.77444 0
M  V30 157 H 11.8198 -0.837751 4.91715 0
M  V30 158 H 10.9738 -3.18021 5.1667 0
M  V30 159 H 9.7128 -2.87623 3.93859 0
M  V30 160 H 8.7178 -1.08556 5.38976 0
M  V30 161 H 9.9428 -1.41401 6.64216 0
M  V30 162 H 7.8888 -3.40505 5.60707 0
M  V30 163 H 7.8058 -2.55501 7.11516 0
M  V30 164 H 9.0738 -3.71489 6.85285 0
M  V30 165 N 13.3029 -1.57598 0.00835791 0
M  V30 166 C 14.5519 -1.90107 -0.673968 0
M  V30 167 C 14.8649 -0.884275 -1.7447 0
M  V30 168 O 16.0709 -1.09987 -2.48224 0
M  V30 169 C 14.5269 -3.37497 -1.24995 0
M  V30 170 C 14.1349 -4.47491 -0.2136 0
M  V30 171 C 15.8789 -3.79104 -1.90999 0
M  V30 172 C 13.7859 -5.85963 -0.80005 0
M  V30 173 H 12.7159 -0.709393 -0.255495 0
M  V30 174 H 15.3669 -1.83365 0.0702693 0
M  V30 175 H 13.7489 -3.39102 -2.04513 0
M  V30 176 H 14.9229 -4.57414 0.557596 0
M  V30 177 H 13.2379 -4.14956 0.346474 0
M  V30 178 H 15.8349 -4.79901 -2.35795 0
M  V30 179 H 16.1779 -3.1306 -2.74407 0
M  V30 180 H 16.7109 -3.79833 -1.18203 0
M  V30 181 H 13.4499 -6.555 -0.00456708 0
M  V30 182 H 12.9699 -5.79687 -1.54021 0
M  V30 183 H 14.6489 -6.33884 -1.29615 0
M  V30 184 N 14.781 0.264519 -1.55364 0
M  V30 185 C 16.006 1.01726 -1.80739 0
M  V30 186 C 16.431 1.78836 -0.583044 0
M  V30 187 O 15.789 1.75167 0.467566 0
M  V30 188 C 15.837 1.94482 -3.03659 0
M  V30 189 O 14.941 3.03386 -2.7934 0
M  V30 190 H 14.282 0.290395 -0.597132 0
M  V30 191 H 16.812 0.290854 -2.02522 0
M  V30 192 H 16.822 2.36278 -3.32621 0
M  V30 193 H 15.497 1.37772 -3.92418 0
M  V30 194 H 14.074 2.65844 -2.61498 0
M  V30 195 N 16.2591 1.48442 0.529413 0
M  V30 196 C 17.2061 1.63007 1.63394 0
M  V30 197 C 18.1761 0.47212 1.59249 0
M  V30 198 O 19.3611 0.695673 1.77666 0
M  V30 199 C 16.5011 1.6763 3.01653 0
M  V30 200 C 15.6141 2.94535 3.16027 0
M  V30 201 C 14.7491 2.90316 4.44849 0
M  V30 202 C 13.7881 4.11923 4.52754 0
M  V30 203 N 12.9251 4.05777 5.72965 0
M  V30 204 H 17.7651 2.5733 1.50285 0
M  V30 205 H 15.3021 1.27613 0.731656 0
M  V30 206 H 17.2601 1.68292 3.81751 0
M  V30 207 H 15.8901 0.76797 3.13532 0
M  V30 208 H 14.9421 3.03615 2.29177 0
M  V30 209 H 16.2541 3.84512 3.17729 0
M  V30 210 H 15.4081 2.89382 5.33238 0
M  V30 211 H 14.1471 1.98068 4.45668 0
M  V30 212 H 13.1521 4.13131 3.62771 0
M  V30 213 H 14.3771 5.0533 4.53672 0
M  V30 214 H 12.3231 3.16351 5.74681 0
M  V30 215 H 12.2401 4.8946 5.76164 0
M  V30 216 H 13.5081 4.08904 6.6364 0
M  V30 217 N 17.7372 -0.778329 1.37039 0
M  V30 218 C 18.6472 -1.92253 1.34446 0
M  V30 219 C 19.6632 -1.72267 0.244991 0
M  V30 220 O 20.8392 -1.95615 0.479258 0
M  V30 221 C 17.9042 -3.27282 1.144 0
M  V30 222 C 16.9652 -3.59969 2.33925 0
M  V30 223 C 16.1982 -4.88555 2.14825 0
M  V30 224 O 16.4212 -5.59113 1.12912 0
M  V30 225 O 15.3552 -5.20153 3.02861 0
M  V30 226 H 19.1812 -1.97392 2.30803 0
M  V30 227 H 16.7662 -0.920154 1.17701 0
M  V30 228 H 18.6482 -4.08062 1.05182 0
M  V30 229 H 17.3232 -3.23011 0.211124 0
M  V30 230 H 16.2302 -2.7945 2.48714 0
M  V30 231 H 17.5632 -3.68976 3.25757 0
M  V30 232 N 19.2153 -1.21501 -1.00376 0
M  V30 233 C 20.1473 -0.933174 -2.09343 0
M  V30 234 C 21.1603 0.0840896 -1.62583 0
M  V30 235 O 22.3493 -0.148563 -1.77881 0
M  V30 236 C 19.4493 -0.379869 -3.36764 0
M  V30 237 C 18.6223 -1.45176 -4.12605 0
M  V30 238 C 17.6813 -0.907476 -5.18316 0
M  V30 239 O 16.7073 -1.5912 -5.46507 0
M  V30 240 N 17.9093 0.276649 -5.7984 0
M  V30 241 H 20.6743 -1.87124 -2.34104 0
M  V30 242 H 18.2353 -1.12043 -1.16867 0
M  V30 243 H 20.2273 -0.00131488 -4.047 0
M  V30 244 H 18.7973 0.463048 -3.09151 0
M  V30 245 H 18.0173 -2.00411 -3.39454 0
M  V30 246 H 19.3053 -2.17328 -4.6005 0
M  V30 247 H 18.7033 0.849147 -5.59291 0
M  V30 248 H 17.2603 0.596702 -6.49063 0
M  V30 249 N 20.6934 1.19889 -1.02296 0
M  V30 250 C 21.9424 1.88743 -0.711257 0
M  V30 251 C 22.2554 1.80112 0.762817 0
M  V30 252 O 23.4614 2.44161 1.18733 0
M  V30 253 C 21.9174 3.38525 -1.22185 0
M  V30 254 C 21.5254 3.55727 -2.72328 0
M  V30 255 C 23.2694 4.12893 -0.985864 0
M  V30 256 C 21.1764 4.99369 -3.16835 0
M  V30 257 H 20.1064 0.706885 -0.262353 0
M  V30 258 H 22.7574 1.35586 -1.23648 0
M  V30 259 H 21.1394 3.91044 -0.624571 0
M  V30 260 H 22.3134 3.13564 -3.3766 0
M  V30 261 H 20.6284 2.94739 -2.9414 0
M  V30 262 H 23.2254 5.18813 -1.29374 0
M  V30 263 H 23.5684 4.16228 0.0775055 0
M  V30 264 H 24.1014 3.66494 -1.54684 0
M  V30 265 H 20.8404 5.01193 -4.22476 0
M  V30 266 H 20.3604 5.42317 -2.56228 0
M  V30 267 H 22.0394 5.67988 -3.09837 0
M  V30 268 N 22.1715 0.800033 1.35784 0
M  V30 269 C 23.3995 0.389606 2.03199 0
M  V30 270 C 23.8145 -0.997375 1.60306 0
M  V30 271 O 23.1715 -1.64154 0.797481 0
M  V30 272 C 23.2225 0.455855 3.58614 0
M  V30 273 O 22.9435 1.78815 3.99946 0
M  V30 274 C 24.4445 0.0374032 4.43284 0
M  V30 275 H 21.6645 0.159132 0.651857 0
M  V30 276 H 24.2085 1.08183 1.73541 0
M  V30 277 H 22.3635 -0.188057 3.86943 0
M  V30 278 H 22.7775 1.74636 4.94573 0
M  V30 279 H 24.2515 0.134882 5.51835 0
M  V30 280 H 24.7285 -1.01651 4.27275 0
M  V30 281 H 25.3345 0.654215 4.20238 0
M  V30 282 N 23.6496 -1.47581 0.552962 0
M  V30 283 C 25.0606 -1.86324 0.118463 0
M  V30 284 C 25.4116 -1.46006 -1.3106 0
M  V30 285 O 24.5366 -0.861182 -1.98526 0
M  V30 286 C 25.1316 -3.3816 0.20821 0
M  V30 287 C 23.6906 -3.7601 -0.171226 0
M  V30 288 C 22.8376 -2.71634 0.557686 0
M  V30 289 H 25.7886 -1.39159 0.762928 0
M  V30 290 H 25.8096 -3.76141 -0.574278 0
M  V30 291 H 25.3216 -3.67473 1.24841 0
M  V30 292 H 23.4226 -3.52313 -1.21269 0
M  V30 293 H 23.5356 -4.78745 0.184379 0
M  V30 294 H 21.8996 -2.547 0.00125792 0
M  V30 295 H 22.6826 -3.0379 1.59896 0
M  V30 296 N 25.1277 -0.289203 -1.54924 0
M  V30 297 C 26.3737 0.323998 -2.00195 0
M  V30 298 C 26.7067 1.54441 -1.17735 0
M  V30 299 O 25.9817 1.92875 -0.250878 0
M  V30 300 C 26.2647 0.692276 -3.53383 0
M  V30 301 C 26.1177 -0.536457 -4.46589 0
M  V30 302 C 27.4367 1.52335 -4.12895 0
M  V30 303 H 24.5557 0.116289 -0.727768 0
M  V30 304 H 27.1977 -0.398954 -1.85764 0
M  V30 305 H 25.3477 1.30822 -3.65811 0
M  V30 306 H 27.0197 -1.17499 -4.46085 0
M  V30 307 H 25.2627 -1.17192 -4.1767 0
M  V30 308 H 25.9337 -0.234806 -5.515 0
M  V30 309 H 28.4097 1.00302 -4.0383 0
M  V30 310 H 27.2857 1.74982 -5.20262 0
M  V30 311 H 27.5467 2.50886 -3.64018 0
M  V30 312 N 26.6058 1.57591 -0.0167156 0
M  V30 313 C 27.8518 1.91567 0.665582 0
M  V30 314 C 28.1848 0.892298 1.72487 0
M  V30 315 O 27.4598 -0.0867127 1.94307 0
M  V30 316 C 27.7428 3.36069 1.29342 0
M  V30 317 C 27.5958 4.49135 0.244541 0
M  V30 318 C 28.9148 3.803 2.21495 0
M  V30 319 H 26.0338 0.69666 0.240488 0
M  V30 320 H 28.6758 1.89866 -0.0714356 0
M  V30 321 H 26.8258 3.3765 1.92158 0
M  V30 322 H 28.4978 4.59689 -0.385228 0
M  V30 323 H 26.7408 4.3165 -0.431379 0
M  V30 324 H 27.4118 5.47242 0.723207 0
M  V30 325 H 29.8878 3.80377 1.68678 0
M  V30 326 H 28.7638 4.82127 2.62382 0
M  V30 327 H 29.0248 3.15104 3.101 0
M  V30 328 N 28.0839 -0.256276 1.55502 0
M  V30 329 C 29.0139 -1.32102 1.92539 0
M  V30 330 C 29.9949 -1.50684 0.789194 0
M  V30 331 O 31.1799 -1.63449 1.04872 0
M  V30 332 C 28.3099 -2.67752 2.21192 0
M  V30 333 C 27.2639 -2.63878 3.36975 0
M  V30 334 C 26.5899 -4.03236 3.51147 0
M  V30 335 C 27.8899 -2.21682 4.72921 0
M  V30 336 H 29.5839 -1.01351 2.81724 0
M  V30 337 H 27.1299 -0.486105 1.35547 0
M  V30 338 H 29.0829 -3.42365 2.45691 0
M  V30 339 H 27.8069 -3.0012 1.28824 0
M  V30 340 H 26.4659 -1.91722 3.12471 0
M  V30 341 H 26.1139 -4.32854 2.56216 0
M  V30 342 H 25.8139 -4.01535 4.29003 0
M  V30 343 H 27.3379 -4.79563 3.77957 0
M  V30 344 H 28.7519 -2.86023 4.96854 0
M  V30 345 H 27.1489 -2.3111 5.53812 0
M  V30 346 H 28.2189 -1.16833 4.70615 0
M  V30 347 N 29.562 -1.4872 -0.521534 0
M  V30 348 C 30.808 -1.574 -1.27879 0
M  V30 349 C 31.141 -0.250817 -1.92573 0
M  V30 350 O 30.416 0.743934 -1.79711 0
M  V30 351 C 30.699 -2.71843 -2.36164 0
M  V30 352 C 30.552 -4.13893 -1.76105 0
M  V30 353 C 31.871 -2.82008 -3.37875 0
M  V30 354 H 28.99 -0.572941 -0.463581 0
M  V30 355 H 31.632 -1.80927 -0.580119 0
M  V30 356 H 29.782 -2.51914 -2.95756 0
M  V30 357 H 31.454 -4.45284 -1.20499 0
M  V30 358 H 29.697 -4.20498 -1.06601 0
M  V30 359 H 30.368 -4.89804 -2.5455 0
M  V30 360 H 32.844 -3.00086 -2.88249 0
M  V30 361 H 31.72 -3.63796 -4.11028 0
M  V30 362 H 31.981 -1.90511 -3.98946 0
M  V30 363 N 31.0401 0.771051 -1.3745 0
M  V30 364 C 32.2861 1.5319 -1.32894 0
M  V30 365 C 32.6191 1.94008 0.0862511 0
M  V30 366 O 31.8941 1.64124 1.04373 0
M  V30 367 C 32.1771 2.79648 -2.26868 0
M  V30 368 C 32.0301 2.45079 -3.77169 0
M  V30 369 C 33.3491 3.81583 -2.19277 0
M  V30 370 H 30.4681 0.555744 -0.484064 0
M  V30 371 H 33.1101 0.884492 -1.68157 0
M  V30 372 H 31.2601 3.34891 -1.96926 0
M  V30 373 H 32.9321 1.95745 -4.1771 0
M  V30 374 H 31.1751 1.77767 -3.95704 0
M  V30 375 H 31.8461 3.35478 -4.38359 0
M  V30 376 H 34.3221 3.35835 -2.45671 0
M  V30 377 H 33.1981 4.67787 -2.87171 0
M  V30 378 H 33.4591 4.25897 -1.18592 0
M  V30 379 N 32.5182 1.22032 0.997298 0
M  V30 380 C 33.7662 1.04016 1.73278 0
M  V30 381 C 34.0872 -0.426255 1.90284 0
M  V30 382 O 33.3572 -1.30694 1.45931 0
M  V30 383 H 31.9372 0.381897 0.642 0
M  V30 384 H 34.5992 1.5347 1.20137 0
M  V30 385 H 33.6952 1.51441 2.72896 0
M  V30 386 N 33.9963 -1.19345 1.0293 0
M  V30 387 C 35.2733 -1.84811 0.640642 0
M  V30 388 C 35.6533 -1.91855 -0.88062 0
M  V30 389 O 35.0013 -1.43587 -1.7775 0
M  V30 390 C 35.2113 -3.23755 1.30321 0
M  V30 391 C 36.5593 -3.99912 1.42673 0
M  V30 392 O 37.5833 -3.33155 1.26041 0
M  V30 393 O 36.4423 -5.19494 1.6967 0
M  V30 394 H 33.5363 -0.796443 0.222726 0
M  V30 395 H 36.0823 -1.26831 1.12748 0
M  V30 396 H 34.8543 -3.13466 2.34211 0
M  V30 397 H 34.4773 -3.89381 0.804261 0
M  V30 398 N 35.4744 -0.807222 -1.35358 0
M  V30 399 C 36.8854 -0.44876 -1.81226 0
M  V30 400 C 37.2364 1.02929 -1.67033 0
M  V30 401 O 36.3614 1.79991 -1.20133 0
M  V30 402 C 36.9564 -0.807774 -3.2903 0
M  V30 403 C 35.5154 -0.501901 -3.73039 0
M  V30 404 C 34.6624 -1.03304 -2.57339 0
M  V30 405 H 37.6134 -0.998808 -1.23327 0
M  V30 406 H 37.6344 -0.10554 -3.80354 0
M  V30 407 H 37.1464 -1.88357 -3.39328 0
M  V30 408 H 35.2474 0.565128 -3.68289 0
M  V30 409 H 35.3604 -1.03497 -4.67787 0
M  V30 410 H 33.7244 -0.455339 -2.50597 0
M  V30 411 H 34.5074 -2.11496 -2.70415 0
M  V30 412 N 36.9525 1.47285 -0.560781 0
M  V30 413 C 38.2005 2.02064 -0.0379868 0
M  V30 414 C 38.5215 1.43711 1.31803 0
M  V30 415 O 37.7915 0.61362 1.86042 0
M  V30 416 H 36.3715 0.746918 -0.0110531 0
M  V30 417 H 39.0335 1.80648 -0.731598 0
M  V30 418 H 38.1295 3.12064 0.0474463 0
M  V30 419 N 38.4306 0.297415 1.54768 0
M  V30 420 C 39.8466 -0.0560823 1.59501 0
M  V30 421 C 40.0466 -1.52725 1.31444 0
M  V30 422 O 39.1026 -2.27947 1.08611 0
M  V30 423 C 40.4156 0.338631 2.98787 0
M  V30 424 C 41.9636 0.287097 3.11681 0
M  V30 425 C 42.4386 0.656579 4.53269 0
M  V30 426 N 43.9296 0.608977 4.59179 0
M  V30 427 C 44.6646 0.867385 5.66802 0
M  V30 428 N 44.1606 1.19157 6.82476 0
M  V30 429 N 45.9536 0.794687 5.56454 0
M  V30 430 H 38.1046 1.25624 1.71267 0
M  V30 431 H 40.3676 0.509057 0.799728 0
M  V30 432 H 40.0736 1.36263 3.2423 0
M  V30 433 H 39.9476 -0.309508 3.75928 0
M  V30 434 H 42.3346 -0.727649 2.85988 0
M  V30 435 H 42.4156 0.969809 2.36703 0
M  V30 436 H 42.0596 1.66912 4.7969 0
M  V30 437 H 41.9896 -0.0481649 5.26578 0
M  V30 438 H 44.4806 0.369198 3.76092 0
M  V30 439 H 44.7936 1.37482 7.60473 0
M  V30 440 H 43.1386 1.22958 6.84037 0
M  V30 441 H 46.3296 0.541098 4.64962 0
M  V30 442 H 46.5026 0.999445 6.40246 0
M  V30 443 N 39.9087 -1.5758 0.0250728 0
M  V30 444 C 41.1547 -1.91917 -0.655413 0
M  V30 445 C 41.4877 -0.901433 -1.72011 0
M  V30 446 O 40.7627 0.0764069 -1.9435 0
M  V30 447 C 41.0457 -3.36751 -1.27558 0
M  V30 448 C 40.8987 -4.49258 -0.220719 0
M  V30 449 C 42.2177 -3.81469 -2.19475 0
M  V30 450 H 39.3367 -0.697925 -0.23679 0
M  V30 451 H 41.9787 -1.89825 0.0815036 0
M  V30 452 H 40.1287 -3.38664 -1.90365 0
M  V30 453 H 41.8007 -4.59478 0.409601 0
M  V30 454 H 40.0437 -4.31415 0.454264 0
M  V30 455 H 40.7147 -5.47618 -0.694175 0
M  V30 456 H 43.1907 -3.81266 -1.66659 0
M  V30 457 H 42.0667 -4.83512 -2.59822 0
M  V30 458 H 42.3277 -3.16744 -3.08424 0
M  V30 459 N 41.3868 0.248026 -1.55636 0
M  V30 460 C 42.6638 0.998988 -1.68165 0
M  V30 461 C 43.0438 2.03409 -0.564621 0
M  V30 462 O 42.3918 2.24378 0.432076 0
M  V30 463 C 42.6018 1.63334 -3.0842 0
M  V30 464 C 43.9498 2.13562 -3.66983 0
M  V30 465 O 44.9738 1.73277 -3.11213 0
M  V30 466 O 43.8328 2.87526 -4.64749 0
M  V30 467 H 40.9268 0.464933 -0.683935 0
M  V30 468 H 43.4728 0.241902 -1.67967 0
M  V30 469 H 42.2448 0.884583 -3.8117 0
M  V30 470 H 41.8678 2.45666 -3.12624 0
M  V30 471 N 42.8649 1.48995 0.513639 0
M  V30 472 C 43.8119 1.6473 1.61656 0
M  V30 473 C 44.7819 0.488984 1.58739 0
M  V30 474 O 45.9669 0.714478 1.76918 0
M  V30 475 C 43.1069 1.7082 2.99858 0
M  V30 476 C 42.2199 2.9787 3.12885 0
M  V30 477 C 41.3549 2.95017 4.41744 0
M  V30 478 C 40.3939 4.16702 4.48359 0
M  V30 479 N 39.5309 4.11832 5.68629 0
M  V30 480 H 44.3709 2.58909 1.47547 0
M  V30 481 H 41.9079 1.28382 0.71808 0
M  V30 482 H 43.8659 1.72331 3.79944 0
M  V30 483 H 42.4959 0.801181 3.12699 0
M  V30 484 H 41.5479 3.06029 2.25944 0
M  V30 485 H 42.8599 3.8786 3.13633 0
M  V30 486 H 42.0139 2.95021 5.30139 0
M  V30 487 H 40.7529 2.02784 4.43542 0
M  V30 488 H 39.7579 4.16955 3.58369 0
M  V30 489 H 40.9829 5.10113 4.48287 0
M  V30 490 H 38.9289 3.22428 5.71293 0
M  V30 491 H 38.8459 4.95543 5.7094 0
M  V30 492 H 40.1139 4.1592 6.59266 0
M  V30 493 N 44.343 -0.763751 1.37857 0
M  V30 494 C 45.592 -1.51789 1.32827 0
M  V30 495 C 45.905 -1.95426 -0.0823719 0
M  V30 496 O 47.111 -2.70298 -0.255172 0
M  V30 497 C 45.567 -2.74133 2.33193 0
M  V30 498 C 45.175 -2.37562 3.79827 0
M  V30 499 C 46.919 -3.52054 2.37188 0
M  V30 500 C 44.826 -3.56456 4.71904 0
M  V30 501 H 43.756 -0.569896 0.493695 0
M  V30 502 H 46.407 -0.835822 1.63359 0
M  V30 503 H 44.789 -3.4427 1.9569 0
M  V30 504 H 45.963 -1.75157 4.26212 0
M  V30 505 H 44.278 -1.72798 3.78853 0
M  V30 506 H 46.875 -4.40437 3.03182 0
M  V30 507 H 47.218 -3.92486 1.38782 0
M  V30 508 H 47.751 -2.88921 2.7344 0
M  V30 509 H 44.49 -3.21099 5.71468 0
M  V30 510 H 44.01 -4.17938 4.30218 0
M  V30 511 H 45.689 -4.23168 4.89426 0
M  V30 512 N 45.8211 -1.22559 -0.990812 0
M  V30 513 C 46.7681 -0.997519 -2.0813 0
M  V30 514 C 47.7381 0.0814702 -1.659 0
M  V30 515 O 48.9231 -0.0685424 -1.90677 0
M  V30 516 C 46.0631 -0.583615 -3.40129 0
M  V30 517 C 45.1761 -1.7336 -3.9569 0
M  V30 518 C 44.3111 -1.26748 -5.15857 0
M  V30 519 C 43.3501 -2.38888 -5.63559 0
M  V30 520 N 42.4871 -1.93308 -6.74964 0
M  V30 521 H 47.3271 -1.93099 -2.26973 0
M  V30 522 H 44.8641 -0.962114 -1.11273 0
M  V30 523 H 46.8221 -0.324801 -4.15934 0
M  V30 524 H 45.4521 0.312845 -3.2128 0
M  V30 525 H 44.5041 -2.10669 -3.16738 0
M  V30 526 H 45.8161 -2.57704 -4.27071 0
M  V30 527 H 44.9701 -0.966173 -5.98957 0
M  V30 528 H 43.7091 -0.394272 -4.86104 0
M  V30 529 H 42.7141 -2.69805 -4.79046 0
M  V30 530 H 43.9391 -3.26728 -5.95336 0
M  V30 531 H 41.8851 -1.08352 -6.4699 0
M  V30 532 H 41.8021 -2.71217 -7.05675 0
M  V30 533 H 43.0701 -1.66252 -7.61564 0
M  V30 534 N 47.2992 1.18797 -1.03562 0
M  V30 535 C 48.5452 1.8893 -0.737113 0
M  V30 536 C 48.8782 1.79837 0.732956 0
M  V30 537 O 48.1532 1.19525 1.5344 0
M  V30 538 C 48.4362 3.39607 -1.19745 0
M  V30 539 C 48.2892 3.57537 -2.72924 0
M  V30 540 C 49.6082 4.33069 -0.783526 0
M  V30 541 H 46.7272 0.686057 -0.269249 0
M  V30 542 H 49.3692 1.39797 -1.28673 0
M  V30 543 H 47.5192 3.81583 -0.729855 0
M  V30 544 H 49.1912 3.24688 -3.27682 0
M  V30 545 H 47.4342 3.00363 -3.12993 0
M  V30 546 H 48.1052 4.63238 -3.00191 0
M  V30 547 H 50.5812 3.98846 -1.18581 0
M  V30 548 H 49.4572 5.3707 -1.13343 0
M  V30 549 H 49.7182 4.40986 0.313681 0
M  V30 550 N 48.7773 0.814389 1.34928 0
M  V30 551 C 50.0233 0.399013 1.98836 0
M  V30 552 C 50.3563 -1.03314 1.64438 0
M  V30 553 O 49.6313 -1.71811 0.911659 0
M  V30 554 C 49.9143 0.591629 3.55207 0
M  V30 555 C 49.7673 2.06928 3.99376 0
M  V30 556 C 51.0863 0.022199 4.40094 0
M  V30 557 H 48.2053 0.146451 0.722303 0
M  V30 558 H 50.8473 1.02537 1.59957 0
M  V30 559 H 48.9973 0.0584441 3.88456 0
M  V30 560 H 50.6693 2.66544 3.76499 0
M  V30 561 H 48.9123 2.56287 3.49999 0
M  V30 562 H 49.5833 2.1549 5.08201 0
M  V30 563 H 52.0593 0.477643 4.13349 0
M  V30 564 H 50.9353 0.186832 5.48582 0
M  V30 565 H 51.1963 -1.07215 4.28902 0
M  V30 566 N 50.2554 -1.46986 0.568584 0
M  V30 567 C 51.4954 -2.04336 0.0512999 0
M  V30 568 C 51.8594 -1.43214 -1.27881 0
M  V30 569 O 53.0604 -1.91679 -1.88448 0
M  V30 570 C 51.3314 -3.57389 -0.0282328 0
M  V30 571 S 52.8904 -4.36056 -0.489991 0
M  V30 572 H 49.7084 -0.71034 0.0306349 0
M  V30 573 H 52.3104 -1.80212 0.757891 0
M  V30 574 H 51.0144 -3.99395 0.944011 0
M  V30 575 H 50.5454 -3.86028 -0.75803 0
M  V30 576 H 52.5604 -4.6441 -1.74752 0
M  V30 577 N 51.7335 -0.305618 -1.54608 0
M  V30 578 C 53.0105 0.355652 -1.92339 0
M  V30 579 C 53.3905 1.71324 -1.23335 0
M  V30 580 O 52.7385 2.25473 -0.370702 0
M  V30 581 C 52.9485 0.46572 -3.45879 0
M  V30 582 C 54.2965 0.734426 -4.182 0
M  V30 583 O 55.3205 0.54935 -3.51938 0
M  V30 584 O 54.1795 1.09024 -5.35515 0
M  V30 585 H 51.2735 0.199666 -0.802535 0
M  V30 586 H 53.8195 -0.354017 -1.65966 0
M  V30 587 H 52.5915 -0.488461 -3.88239 0
M  V30 588 H 52.2145 1.22367 -3.78301 0
M  V30 589 N 53.2116 1.57565 -0.0334293 0
M  V30 590 C 54.4366 1.96689 0.657895 0
M  V30 591 C 54.8616 0.910057 1.64619 0
M  V30 592 O 54.2196 -0.128598 1.80843 0
M  V30 593 C 54.2676 3.34905 1.33683 0
M  V30 594 O 53.3716 3.31574 2.45219 0
M  V30 595 H 52.7126 0.641205 0.172489 0
M  V30 596 H 55.2426 2.04372 -0.0965621 0
M  V30 597 H 55.2526 3.71234 1.69262 0
M  V30 598 H 53.9276 4.11366 0.612411 0
M  V30 599 H 52.5046 3.06968 2.11719 0
M  V30 600 N 54.6897 -0.239769 1.55765 0
M  V30 601 C 55.9197 -0.982743 1.8173 0
M  V30 602 C 56.3277 -1.7917 0.607835 0
M  V30 603 O 55.6707 -1.78525 -0.432973 0
M  V30 604 C 55.7327 -1.96332 3.01155 0
M  V30 605 C 55.3967 -1.34062 4.36894 0
M  V30 606 C 56.3937 -0.739539 5.14613 0
M  V30 607 C 54.0787 -1.35784 4.83599 0
M  V30 608 C 56.0727 -0.163989 6.37189 0
M  V30 609 C 53.7597 -0.778441 6.06122 0
M  V30 610 C 54.7577 -0.182548 6.82756 0
M  V30 611 O 54.4457 0.387887 8.02964 0
M  V30 612 H 54.1777 -0.294481 0.608487 0
M  V30 613 H 56.7317 -0.26572 2.03674 0
M  V30 614 H 54.9617 -2.71884 2.74984 0
M  V30 615 H 56.6507 -2.57032 3.14149 0
M  V30 616 H 57.4167 -0.718687 4.79646 0
M  V30 617 H 53.2957 -1.81105 4.23936 0
M  V30 618 H 56.8397 0.301753 6.96947 0
M  V30 619 H 52.7367 -0.796645 6.40565 0
M  V30 620 H 53.5047 0.28044 8.18019 0
M  V30 621 N 56.1678 -1.49265 -0.50573 0
M  V30 622 C 57.4138 -1.58748 -1.26202 0
M  V30 623 C 57.7468 -0.271227 -1.92297 0
M  V30 624 O 57.0218 0.724831 -1.80489 0
M  V30 625 C 57.3048 -2.74332 -2.33268 0
M  V30 626 C 57.1578 -4.15737 -1.71705 0
M  V30 627 C 58.4768 -2.85576 -3.34865 0
M  V30 628 H 55.5958 -0.577826 -0.457478 0
M  V30 629 H 58.2378 -1.81532 -0.560897 0
M  V30 630 H 56.3878 -2.55036 -2.93068 0
M  V30 631 H 58.0598 -4.46537 -1.15769 0
M  V30 632 H 56.3028 -4.21605 -1.02135 0
M  V30 633 H 56.9738 -4.92477 -2.49341 0
M  V30 634 H 59.4498 -3.03127 -2.8505 0
M  V30 635 H 58.3258 -3.68135 -4.07146 0
M  V30 636 H 58.5868 -1.94732 -3.96903 0
M  V30 637 N 57.6459 0.756429 -1.3826 0
M  V30 638 C 58.9229 1.50584 -1.24835 0
M  V30 639 C 59.3029 2.10556 0.151485 0
M  V30 640 O 58.6509 1.96825 1.1607 0
M  V30 641 C 58.8609 2.57448 -2.3563 0
M  V30 642 C 60.2089 3.24429 -2.73917 0
M  V30 643 O 61.2329 2.67751 -2.34921 0
M  V30 644 O 60.0919 4.26937 -3.41156 0
M  V30 645 H 57.1859 0.667664 -0.48801 0
M  V30 646 H 59.7319 0.792083 -1.5008 0
M  V30 647 H 58.5039 2.11362 -3.29305 0
M  V30 648 H 58.1269 3.36408 -2.11933 0
M  V30 649 N 59.124 1.23083 0.984299 0
M  V30 650 C 60.054 1.03292 2.09411 0
M  V30 651 C 61.035 -0.048923 1.7003 0
M  V30 652 O 62.22 0.114967 1.93859 0
M  V30 653 C 59.35 0.619155 3.41736 0
M  V30 654 C 58.304 1.64791 3.95004 0
M  V30 655 C 57.63 1.0897 5.23478 0
M  V30 656 C 58.93 3.03999 4.24714 0
M  V30 657 H 60.624 1.96119 2.26225 0
M  V30 658 H 58.17 0.944344 1.08711 0
M  V30 659 H 60.123 0.467777 4.18796 0
M  V30 660 H 58.847 -0.344786 3.24775 0
M  V30 661 H 57.506 1.78721 3.20085 0
M  V30 662 H 57.154 0.11686 5.02864 0
M  V30 663 H 56.854 1.77704 5.60085 0
M  V30 664 H 58.378 0.950093 6.03163 0
M  V30 665 H 59.792 2.93393 4.92538 0
M  V30 666 H 58.189 3.69936 4.72512 0
M  V30 667 H 59.259 3.53285 3.32142 0
M  V30 668 N 60.6021 -1.18246 1.0419 0
M  V30 669 C 61.5651 -2.20128 0.638452 0
M  V30 670 C 62.5651 -1.57885 -0.304805 0
M  V30 671 O 63.7551 -1.73967 -0.0900369 0
M  V30 672 C 60.8871 -3.4084 -0.0637751 0
M  V30 673 H 62.0801 -2.57336 1.54007 0
M  V30 674 H 59.6331 -1.32152 0.834598 0
M  V30 675 H 60.3681 -3.09166 -0.979136 0
M  V30 676 H 60.1531 -3.8726 0.614198 0
M  V30 677 H 61.6431 -4.16274 -0.332512 0
M  V30 678 N 62.0802 -0.821533 -1.34494 0
M  V30 679 C 63.3102 -0.421272 -2.02259 0
M  V30 680 C 63.7182 0.977047 -1.6202 0
M  V30 681 O 63.0612 1.64348 -0.820703 0
M  V30 682 C 63.1232 -0.44231 -3.56769 0
M  V30 683 C 62.7872 -1.79372 -4.20327 0
M  V30 684 C 63.7842 -2.75435 -4.40944 0
M  V30 685 C 61.4692 -2.08182 -4.57127 0
M  V30 686 C 63.4632 -3.98482 -4.97484 0
M  V30 687 C 61.1502 -3.31489 -5.13379 0
M  V30 688 C 62.1482 -4.26457 -5.33501 0
M  V30 689 O 61.8362 -5.47585 -5.88562 0
M  V30 690 H 61.5682 -0.167473 -0.654927 0
M  V30 691 H 64.1222 -1.11073 -1.72777 0
M  V30 692 H 62.3522 0.303836 -3.85505 0
M  V30 693 H 64.0412 -0.0622925 -4.05852 0
M  V30 694 H 64.8072 -2.54473 -4.12878 0
M  V30 695 H 60.6862 -1.35066 -4.4077 0
M  V30 696 H 64.2302 -4.72618 -5.13106 0
M  V30 697 H 60.1272 -3.52316 -5.40873 0
M  V30 698 H 60.8952 -5.49086 -6.06998 0
M  V30 699 N 63.5583 1.46682 -0.576371 0
M  V30 700 C 64.5063 2.31953 0.17335 0
M  V30 701 C 65.5003 1.44098 0.89062 0
M  V30 702 O 66.7063 1.60759 0.809728 0
M  V30 703 H 63.0813 0.748273 0.0747727 0
M  V30 704 H 65.0523 2.93007 -0.564738 0
M  V30 705 C 63.8013 3.27142 1.17786 0
M  V30 706 H 63.1243 3.94719 0.635361 0
M  V30 707 H 64.5643 3.896 1.67296 0
M  V30 708 C 63.0233 2.52036 2.23561 0
M  V30 709 O 63.5533 2.27877 3.3081 0
M  V30 710 N 61.7593 2.12709 1.97998 0
M  V30 711 H 61.3063 2.32557 1.10792 0
M  V30 712 H 61.2643 1.62776 2.68982 0
M  V30 713 N 65.0364 0.313813 1.54444 0
M  V30 714 C 66.4524 -0.0391619 1.59552 0
M  V30 715 C 66.6524 -1.51322 1.33056 0
M  V30 716 O 65.7084 -2.26782 1.11022 0
M  V30 717 C 67.0214 0.370302 2.98411 0
M  V30 718 C 68.5694 0.320139 3.11358 0
M  V30 719 C 69.0444 0.704617 4.52547 0
M  V30 720 N 70.5354 0.657645 4.58508 0
M  V30 721 C 71.2704 0.927453 5.6585 0
M  V30 722 N 70.7664 1.26389 6.81174 0
M  V30 723 N 72.5594 0.853662 5.5558 0
M  V30 724 H 64.7104 1.27433 1.69925 0
M  V30 725 H 66.9734 0.517511 0.794284 0
M  V30 726 H 66.6794 1.39694 3.22767 0
M  V30 727 H 66.5534 -0.269619 3.76235 0
M  V30 728 H 68.9404 -0.697275 2.86744 0
M  V30 729 H 69.0214 0.99486 2.35661 0
M  V30 730 H 68.6654 1.7199 4.77893 0
M  V30 731 H 68.5954 0.00768843 5.26599 0
M  V30 732 H 71.0864 0.409067 3.75679 0
M  V30 733 H 71.3994 1.4554 7.58972 0
M  V30 734 H 69.7444 1.30206 6.82694 0
M  V30 735 H 72.9354 0.590383 4.64362 0
M  V30 736 H 73.1084 1.0673 6.3915 0
M  V30 737 N 66.5145 -1.57545 0.0417849 0
M  V30 738 C 67.4245 -2.14451 -0.951213 0
M  V30 739 C 68.4405 -1.09992 -1.34825 0
M  V30 740 O 69.6165 -1.42114 -1.42708 0
M  V30 741 C 66.6815 -2.67063 -2.21084 0
M  V30 742 C 65.7425 -3.86284 -1.87304 0
M  V30 743 C 64.9755 -4.36378 -3.07261 0
M  V30 744 O 65.1985 -3.85587 -4.20332 0
M  V30 745 O 64.1325 -5.28077 -2.88822 0
M  V30 746 H 67.9585 -2.99601 -0.497287 0
M  V30 747 H 65.5435 -1.48317 -0.179567 0
M  V30 748 H 67.4255 -3.00914 -2.95006 0
M  V30 749 H 66.1005 -1.84989 -2.65633 0
M  V30 750 H 65.0075 -3.57338 -1.10727 0
M  V30 751 H 66.3405 -4.6956 -1.47562 0
M  V30 752 N 67.9926 0.231505 -1.5589 0
M  V30 753 C 69.2226 0.973092 -1.82248 0
M  V30 754 C 69.6306 1.78845 -0.617328 0
M  V30 755 O 68.9736 1.78752 0.423499 0
M  V30 756 C 69.0356 1.94732 -3.02192 0
M  V30 757 C 68.6996 1.31743 -4.37599 0
M  V30 758 C 69.6966 0.712238 -5.14998 0
M  V30 759 C 67.3816 1.33218 -4.84312 0
M  V30 760 C 69.3756 0.130195 -6.37267 0
M  V30 761 C 67.0626 0.746286 -6.06526 0
M  V30 762 C 68.0606 0.146337 -6.82843 0
M  V30 763 O 67.7486 -0.430465 -8.02747 0
M  V30 764 H 67.4806 0.29125 -0.61004 0
M  V30 765 H 70.0346 0.254915 -2.03812 0
M  V30 766 H 68.2646 2.70422 -2.76422 0
M  V30 767 H 69.9536 2.55362 -3.15508 0
M  V30 768 H 70.7196 0.69324 -4.8002 0
M  V30 769 H 66.5986 1.78854 -4.24891 0
M  V30 770 H 70.1426 -0.33871 -6.96777 0
M  V30 771 H 66.0396 0.762663 -6.40979 0
M  V30 772 H 66.8076 -0.323818 -8.17859 0
M  V30 773 N 69.4707 1.49531 0.497807 0
M  V30 774 C 70.4177 1.66436 1.59899 0
M  V30 775 C 71.3877 0.505793 1.58212 0
M  V30 776 O 72.5727 0.733202 1.7615 0
M  V30 777 C 69.7127 1.7399 2.98029 0
M  V30 778 C 68.8257 3.01172 3.09708 0
M  V30 779 C 67.9607 2.99686 4.38591 0
M  V30 780 C 66.9997 4.21434 4.43914 0
M  V30 781 N 66.1367 4.1784 5.64229 0
M  V30 782 H 70.9767 2.60459 1.44793 0
M  V30 783 H 68.5137 1.29137 0.704423 0
M  V30 784 H 70.4717 1.76352 3.78095 0
M  V30 785 H 69.1017 0.834301 3.11832 0
M  V30 786 H 68.1537 3.08408 2.22685 0
M  V30 787 H 69.4657 3.91165 3.09502 0
M  V30 788 H 68.6197 3.00628 5.2698 0
M  V30 789 H 67.3587 2.07477 4.41367 0
M  V30 790 H 66.3637 4.20733 3.53926 0
M  V30 791 H 67.5887 5.14839 4.42851 0
M  V30 792 H 65.5347 3.28469 5.67841 0
M  V30 793 H 65.4517 5.01571 5.65652 0
M  V30 794 H 66.7197 4.22889 6.54817 0
M  V30 795 N 70.9488 -0.749086 1.3866 0
M  V30 796 C 72.1738 -1.54344 1.38538 0
M  V30 797 C 72.5988 -1.88088 -0.0216655 0
M  V30 798 O 71.9568 -1.50899 -1.00494 0
M  V30 799 C 72.0048 -2.8164 2.25192 0
M  V30 800 O 71.1088 -3.7698 1.67212 0
M  V30 801 H 70.4498 -0.466654 0.472367 0
M  V30 802 H 72.9798 -0.925355 1.82478 0
M  V30 803 H 72.9898 -3.30519 2.3921 0
M  V30 804 H 71.6648 -2.56411 3.27454 0
M  V30 805 H 70.2418 -3.35699 1.6236 0
M  V30 806 N 72.4269 -1.23603 -0.977757 0
M  V30 807 C 73.6729 -1.07129 -1.72195 0
M  V30 808 C 74.0059 0.390501 -1.90233 0
M  V30 809 O 73.2809 1.28902 -1.45653 0
M  V30 810 C 73.5639 -1.80031 -3.11867 0
M  V30 811 C 73.4169 -3.33899 -3.01383 0
M  V30 812 C 74.7359 -1.56492 -4.11337 0
M  V30 813 H 71.8549 -0.390571 -0.624999 0
M  V30 814 H 74.4969 -1.52142 -1.13811 0
M  V30 815 H 72.6469 -1.41768 -3.6171 0
M  V30 816 H 74.3189 -3.81699 -2.59043 0
M  V30 817 H 72.5619 -3.62796 -2.37827 0
M  V30 818 H 73.2329 -3.801 -4.00285 0
M  V30 819 H 75.7089 -1.89757 -3.70313 0
M  V30 820 H 74.5849 -2.09973 -5.07151 0
M  V30 821 H 74.8459 -0.500874 -4.39254 0
M  V30 822 N 73.905 1.17692 -1.04816 0
M  V30 823 C 74.815 2.25229 -0.65643 0
M  V30 824 C 75.831 1.71018 0.320761 0
M  V30 825 O 77.007 2.00649 0.173805 0
M  V30 826 C 74.072 3.46684 -0.0332629 0
M  V30 827 C 73.133 4.15997 -1.06042 0
M  V30 828 C 72.366 5.31654 -0.466893 0
M  V30 829 O 72.589 5.65777 0.724758 0
M  V30 830 O 71.523 5.89831 -1.1993 0
M  V30 831 H 75.349 2.61016 -1.55255 0
M  V30 832 H 72.934 1.24919 -0.81949 0
M  V30 833 H 74.816 4.20234 0.313256 0
M  V30 834 H 73.491 3.12703 0.836566 0
M  V30 835 H 72.398 3.44482 -1.45886 0
M  V30 836 H 73.731 4.53996 -1.90127 0
M  V30 837 N 75.3831 0.828654 1.34056 0
M  V30 838 C 76.6231 0.425394 1.99924 0
M  V30 839 C 76.9871 -0.994294 1.64249 0
M  V30 840 O 78.1881 -1.50074 2.23005 0
M  V30 841 C 76.4591 0.628071 3.51838 0
M  V30 842 S 78.0181 0.318511 4.37642 0
M  V30 843 H 74.8361 0.160465 0.692656 0
M  V30 844 H 77.4381 1.07572 1.63244 0
M  V30 845 H 76.1421 1.66089 3.7529 0
M  V30 846 H 75.6731 -0.0367799 3.93383 0
M  V30 847 H 77.6881 -0.865632 4.88591 0
M  V30 848 N 76.8612 -1.46375 0.584142 0
M  V30 849 C 77.8112 -2.27371 -0.169232 0
M  V30 850 C 78.7952 -1.35955 -0.860523 0
M  V30 851 O 79.9872 -1.60119 -0.754382 0
M  V30 852 C 77.1162 -3.22334 -1.18134 0
M  V30 853 C 76.2022 -4.21235 -0.492088 0
M  V30 854 N 76.5932 -5.03766 0.453129 0
M  V30 855 C 74.8912 -4.39773 -0.742652 0
M  V30 856 C 75.5922 -5.75366 0.85609 0
M  V30 857 N 74.5682 -5.43214 0.204926 0
M  V30 858 H 78.3702 -2.88572 0.557097 0
M  V30 859 H 75.8842 -1.57242 0.406042 0
M  V30 860 H 77.8812 -3.79071 -1.73525 0
M  V30 861 H 76.5412 -2.62693 -1.90847 0
M  V30 862 H 77.5522 -5.11227 0.828723 0
M  V30 863 H 74.2292 -3.91279 -1.45625 0
M  V30 864 H 75.6192 -6.5172 1.63434 0
M  V30 865 N 78.3393 -0.321999 -1.54275 0
M  V30 866 C 79.5693 0.282642 -2.04658 0
M  V30 867 C 79.9773 1.46453 -1.19784 0
M  V30 868 O 79.3203 1.82367 -0.220932 0
M  V30 869 C 79.3823 0.781857 -3.50895 0
M  V30 870 C 79.0463 -0.277517 -4.56157 0
M  V30 871 C 80.0433 -1.11307 -5.07845 0
M  V30 872 C 77.7283 -0.425256 -5.00497 0
M  V30 873 C 79.7223 -2.08211 -6.02434 0
M  V30 874 C 77.4093 -1.39771 -5.94901 0
M  V30 875 C 78.4073 -2.2246 -6.45756 0
M  V30 876 O 78.0953 -3.18054 -7.38307 0
M  V30 877 H 77.8273 0.0622636 -0.673126 0
M  V30 878 H 80.3813 -0.465792 -2.00049 0
M  V30 879 H 78.6113 1.58118 -3.52896 0
M  V30 880 H 80.3003 1.30467 -3.84361 0
M  V30 881 H 81.0663 -1.00991 -4.74369 0
M  V30 882 H 76.9453 0.20847 -4.60528 0
M  V30 883 H 80.4893 -2.72791 -6.42052 0
M  V30 884 H 76.3863 -1.50152 -6.27794 0
M  V30 885 H 77.1543 -3.13275 -7.56175 0
M  V30 886 N 79.8174 1.5752 -0.0501392 0
M  V30 887 C 80.7644 2.1147 0.924603 0
M  V30 888 C 81.7344 1.02182 1.30951 0
M  V30 889 O 82.9194 1.29723 1.39916 0
M  V30 890 C 80.0594 2.66337 2.19451 0
M  V30 891 C 79.1724 3.89708 1.86418 0
M  V30 892 C 78.3074 4.32893 3.07859 0
M  V30 893 C 77.3464 5.48967 2.70742 0
M  V30 894 N 76.4834 5.87211 3.84874 0
M  V30 895 H 81.3234 2.94465 0.457639 0
M  V30 896 H 78.8604 1.45531 0.214266 0
M  V30 897 H 80.8184 2.96247 2.93758 0
M  V30 898 H 79.4484 1.86141 2.63726 0
M  V30 899 H 78.5004 3.66396 1.02264 0
M  V30 900 H 79.8124 4.74074 1.55096 0
M  V30 901 H 78.9664 4.6435 3.90466 0
M  V30 902 H 77.7054 3.47336 3.42358 0
M  V30 903 H 76.7104 5.17183 1.86551 0
M  V30 904 H 77.9354 6.3624 2.37436 0
M  V30 905 H 75.8814 5.04607 4.19175 0
M  V30 906 H 75.7984 6.66266 3.57247 0
M  V30 907 H 77.0664 6.23282 4.68123 0
M  V30 908 N 81.2955 -0.223234 1.56011 0
M  V30 909 C 82.5435 -0.946003 1.78592 0
M  V30 910 C 82.8645 -1.84936 0.618349 0
M  V30 911 O 82.1345 -1.92473 -0.364833 0
M  V30 912 H 80.7145 -0.352298 0.658707 0
M  V30 913 H 83.3765 -0.235494 1.93472 0
M  V30 914 H 82.4725 -1.55381 2.70672 0
M  V30 915 N 82.7736 -1.49793 -0.48987 0
M  V30 916 C 83.7056 -1.63413 -1.60713 0
M  V30 917 C 84.7186 -0.516329 -1.54395 0
M  V30 918 O 85.9076 -0.788812 -1.60125 0
M  V30 919 C 83.0076 -1.58516 -2.99543 0
M  V30 920 C 82.1806 -2.86016 -3.30928 0
M  V30 921 C 81.2396 -2.74018 -4.49222 0
M  V30 922 O 80.2656 -3.47964 -4.50455 0
M  V30 923 N 81.4676 -1.86309 -5.4979 0
M  V30 924 H 84.2326 -2.59777 -1.49452 0
M  V30 925 H 81.7936 -1.47022 -0.677955 0
M  V30 926 H 83.7856 -1.48128 -3.76617 0
M  V30 927 H 82.3556 -0.69965 -3.0467 0
M  V30 928 H 81.5756 -3.10672 -2.42645 0
M  V30 929 H 82.8636 -3.70521 -3.487 0
M  V30 930 H 82.2616 -1.2551 -5.51601 0
M  V30 931 H 80.8186 -1.81837 -6.25922 0
M  V30 932 N 84.2517 0.741722 -1.39055 0
M  V30 933 C 85.1987 1.85566 -1.37237 0
M  V30 934 C 86.1687 1.64457 -0.233072 0
M  V30 935 O 87.3537 1.85957 -0.427147 0
M  V30 936 C 84.4937 3.23004 -1.215 0
M  V30 937 C 83.6067 3.55864 -2.44918 0
M  V30 938 C 82.7417 4.82669 -2.21821 0
M  V30 939 C 81.7807 5.08351 -3.40948 0
M  V30 940 N 80.9177 6.26356 -3.17211 0
M  V30 941 H 85.7577 1.86455 -2.32462 0
M  V30 942 H 83.2947 0.911176 -1.15482 0
M  V30 943 H 85.2527 4.02331 -1.10389 0
M  V30 944 H 83.8827 3.21411 -0.29908 0
M  V30 945 H 82.9347 2.7129 -2.66657 0
M  V30 946 H 84.2467 3.70765 -3.33668 0
M  V30 947 H 83.4007 5.69962 -2.07914 0
M  V30 948 H 82.1397 4.69929 -1.30454 0
M  V30 949 H 81.1447 4.19522 -3.55361 0
M  V30 950 H 82.3697 5.22981 -4.33207 0
M  V30 951 H 80.3157 6.14917 -2.28502 0
M  V30 952 H 80.2327 6.41813 -3.99515 0
M  V30 953 H 81.5007 7.16506 -3.06984 0
M  V30 954 N 85.7298 1.2412 0.971189 0
M  V30 955 C 86.9768 1.07881 1.71371 0
M  V30 956 C 87.3048 -0.382901 1.90694 0
M  V30 957 O 86.5598 -1.29945 1.46331 0
M  V30 958 C 86.8588 1.75983 3.11071 0
M  V30 959 C 86.5248 3.25909 3.11599 0
M  V30 960 C 85.1868 3.66813 3.11451 0
M  V30 961 C 87.5388 4.21771 3.062 0
M  V30 962 C 84.8668 5.02021 3.03631 0
M  V30 963 C 87.2188 5.56982 2.99923 0
M  V30 964 C 85.8828 5.97237 2.98102 0
M  V30 965 H 85.1528 0.394764 0.62709 0
M  V30 966 H 87.7998 1.54176 1.13587 0
M  V30 967 H 86.1048 1.22072 3.72298 0
M  V30 968 H 87.8018 1.60887 3.6731 0
M  V30 969 H 84.3918 2.93353 3.12477 0
M  V30 970 H 88.5758 3.91172 3.05447 0
M  V30 971 H 83.8318 5.32411 3.0058 0
M  V30 972 H 88.0058 6.30969 2.94704 0
M  V30 973 H 85.6328 7.01967 2.91798 0
M  V30 974 N 87.2079 -1.17134 1.05439 0
M  V30 975 C 88.1379 -2.2342 0.678649 0
M  V30 976 C 89.1189 -1.66971 -0.32476 0
M  V30 977 O 90.3039 -1.93149 -0.201802 0
M  V30 978 C 87.4339 -3.47256 0.0552099 0
M  V30 979 C 86.3879 -4.16543 0.98365 0
M  V30 980 C 85.7139 -5.34231 0.223961 0
M  V30 981 C 87.0139 -4.68495 2.3089 0
M  V30 982 H 88.7079 -2.55105 1.56722 0
M  V30 983 H 86.2539 -1.2262 0.754998 0
M  V30 984 H 88.2069 -4.20828 -0.21946 0
M  V30 985 H 86.9309 -3.14846 -0.868319 0
M  V30 986 H 85.5899 -3.44887 1.24293 0
M  V30 987 H 85.2379 -4.98071 -0.702412 0
M  V30 988 H 84.9379 -5.81527 0.842627 0
M  V30 989 H 86.4619 -6.10585 -0.0433671 0
M  V30 990 H 87.8759 -5.33691 2.09396 0
M  V30 991 H 86.2729 -5.26379 2.88176 0
M  V30 992 H 87.3429 -3.85169 2.94572 0
M  V30 993 N 88.686 -0.835752 -1.33615 0
M  V30 994 C 89.926 -0.43599 -1.99696 0
M  V30 995 C 90.29 0.98557 -1.64774 0
M  V30 996 O 91.491 1.48889 -2.23798 0
M  V30 997 C 89.762 -0.646721 -3.515 0
M  V30 998 S 91.321 -0.341715 -4.37467 0
M  V30 999 H 88.139 -0.164136 -0.691795 0
M  V30 1000 H 90.741 -1.08436 -1.62671 0
M  V30 1001 H 89.445 -1.68077 -3.74404 0
M  V30 1002 H 88.976 0.0159173 -3.93397 0
M  V30 1003 H 90.991 0.839708 -4.89043 0
M  V30 1004 N 90.1641 1.46063 -0.591896 0
M  V30 1005 C 91.4101 2.02638 -0.0811191 0
M  V30 1006 C 91.7431 1.4613 1.27905 0
M  V30 1007 O 91.0181 0.629908 1.84017 0
M  V30 1008 C 91.3011 3.60091 -0.0252436 0
M  V30 1009 C 91.1541 4.26965 -1.41496 0
M  V30 1010 C 92.4731 4.3496 0.670685 0
M  V30 1011 H 89.5921 0.73635 -0.0309524 0
M  V30 1012 H 92.2341 1.741 -0.760859 0
M  V30 1013 H 90.3841 3.84535 0.553624 0
M  V30 1014 H 92.0561 4.13756 -2.0397 0
M  V30 1015 H 90.2991 3.85971 -1.98011 0
M  V30 1016 H 90.9701 5.35781 -1.32825 0
M  V30 1017 H 93.4461 4.15716 0.178825 0
M  V30 1018 H 92.3221 5.44686 0.678837 0
M  V30 1019 H 92.5831 4.06685 1.73379 0
M  V30 1020 N 91.6422 0.330177 1.54103 0
M  V30 1021 C 92.8672 -0.274893 2.0557 0
M  V30 1022 C 93.2922 -1.44487 1.20437 0
M  V30 1023 O 92.6502 -1.80021 0.214991 0
M  V30 1024 C 92.6982 -0.68079 3.54115 0
M  V30 1025 O 91.8022 -1.7824 3.71893 0
M  V30 1026 H 91.1432 -0.0483849 0.662235 0
M  V30 1027 H 93.6732 0.480508 1.98878 0
M  V30 1028 H 93.6832 -0.961635 3.96505 0
M  V30 1029 H 92.3582 0.174903 4.15532 0
M  V30 1030 H 90.9352 -1.49985 3.41407 0
M  V30 1031 N 93.1203 -1.57491 0.0584922 0
M  V30 1032 C 94.0703 -2.08474 -0.923188 0
M  V30 1033 C 95.0543 -0.991479 -1.26722 0
M  V30 1034 O 96.2463 -1.25473 -1.24842 0
M  V30 1035 C 93.3753 -2.6392 -2.19548 0
M  V30 1036 C 92.4613 -3.80227 -1.87852 0
M  V30 1037 N 92.8523 -4.89714 -1.26546 0
M  V30 1038 C 91.1503 -3.89271 -2.17679 0
M  V30 1039 C 91.8513 -5.70689 -1.12644 0
M  V30 1040 N 90.8273 -5.18531 -1.63176 0
M  V30 1041 H 94.6293 -2.90517 -0.444653 0
M  V30 1042 H 92.1433 -1.61745 -0.145764 0
M  V30 1043 H 94.1403 -2.98752 -2.9078 0
M  V30 1044 H 92.8003 -1.83318 -2.68001 0
M  V30 1045 H 93.8113 -5.09358 -0.936757 0
M  V30 1046 H 90.4883 -3.19623 -2.68602 0
M  V30 1047 H 91.8783 -6.6875 -0.6499 0
M  V30 1048 N 94.5984 0.214957 -1.56127 0
M  V30 1049 C 95.8464 0.936518 -1.79091 0
M  V30 1050 C 96.1674 1.84606 -0.628148 0
M  V30 1051 O 95.4374 1.92664 0.35462 0
M  V30 1052 H 94.0174 0.3488 -0.660566 0
M  V30 1053 H 96.6794 0.22523 -1.93594 0
M  V30 1054 H 95.7754 1.53943 -2.71492 0
M  V30 1055 N 96.0765 1.50051 0.48192 0
M  V30 1056 C 97.3225 1.60736 1.2366 0
M  V30 1057 C 97.6555 0.301786 1.91841 0
M  V30 1058 O 96.9305 -0.696025 1.8162 0
M  V30 1059 C 97.2135 2.78009 2.28874 0
M  V30 1060 C 97.0665 4.18416 1.65069 0
M  V30 1061 C 98.3855 2.90867 3.30279 0
M  V30 1062 H 95.5045 0.585031 0.448228 0
M  V30 1063 H 98.1465 1.82402 0.531946 0
M  V30 1064 H 96.2965 2.59667 2.88973 0
M  V30 1065 H 97.9685 4.48322 1.0865 0
M  V30 1066 H 96.2115 4.23177 0.954148 0
M  V30 1067 H 96.8825 4.96381 2.41474 0
M  V30 1068 H 99.3585 3.07623 2.80191 0
M  V30 1069 H 98.2345 3.74566 4.01238 0
M  V30 1070 H 98.4955 2.01021 3.93755 0
M  V30 1071 N 97.5546 -0.734337 1.39446 0
M  V30 1072 C 98.8026 -1.49096 1.36436 0
M  V30 1073 C 99.1236 -1.94961 -0.0388255 0
M  V30 1074 O 98.3936 -1.69033 -0.990191 0
M  V30 1075 H 96.9736 -0.5531 0.502085 0
M  V30 1076 H 99.6356 -0.871725 1.74319 0
M  V30 1077 H 98.7316 -2.37276 2.02747 0
M  V30 1078 N 99.0327 -1.24633 -0.964593 0
M  V30 1079 C 100.258 -1.11596 -1.74818 0
M  V30 1080 C 100.683 0.32723 -1.85232 0
M  V30 1081 O 100.041 1.23695 -1.32549 0
M  V30 1082 C 100.089 -1.76397 -3.1451 0
M  V30 1083 O 99.1927 -1.03685 -3.99153 0
M  V30 1084 H 98.5337 -0.390196 -0.537255 0
M  V30 1085 H 101.064 -1.65002 -1.20977 0
M  V30 1086 H 101.074 -1.8228 -3.65018 0
M  V30 1087 H 99.7487 -2.81401 -3.06246 0
M  V30 1088 H 98.3257 -1.05611 -3.57632 0
M  V30 1089 N 100.511 1.16574 -1.06058 0
M  V30 1090 C 101.474 2.19085 -0.673392 0
M  V30 1091 C 102.474 1.5835 0.279648 0
M  V30 1092 O 103.664 1.74088 0.0623488 0
M  V30 1093 C 100.796 3.40899 0.00954234 0
M  V30 1094 H 101.989 2.54853 -1.58081 0
M  V30 1095 H 99.5418 1.30808 -0.855516 0
M  V30 1096 H 100.277 3.10684 0.929826 0
M  V30 1097 H 100.062 3.86233 -0.67573 0
M  V30 1098 H 101.552 4.1675 0.266245 0
M  V30 1099 N 101.989 0.842826 1.3317 0
M  V30 1100 C 103.237 0.439577 1.97262 0
M  V30 1101 C 103.558 -1.00548 1.67078 0
M  V30 1102 O 102.828 -1.70098 0.971779 0
M  V30 1103 H 101.408 0.159558 0.72976 0
M  V30 1104 H 104.07 1.07665 1.62463 0
M  V30 1105 H 103.166 0.574886 3.0676 0
M  V30 1106 N 103.467 -1.45747 0.599634 0
M  V30 1107 C 104.707 -2.04181 0.0946309 0
M  V30 1108 C 105.071 -1.45895 -1.24815 0
M  V30 1109 O 106.272 -1.95633 -1.8434 0
M  V30 1110 C 104.543 -3.57368 0.047581 0
M  V30 1111 S 106.102 -4.36997 -0.397387 0
M  V30 1112 H 102.92 -0.70953 0.0456954 0
M  V30 1113 H 105.522 -1.78564 0.795946 0
M  V30 1114 H 104.226 -3.97303 1.02852 0
M  V30 1115 H 103.757 -3.87549 -0.675977 0
M  V30 1116 H 105.772 -4.68012 -1.64862 0
M  V30 1117 N 104.945 -0.338344 -1.53925 0
M  V30 1118 C 105.908 0.508299 -2.23493 0
M  V30 1119 C 106.908 1.03175 -1.23335 0
M  V30 1120 O 108.098 0.921826 -1.47811 0
M  V30 1121 C 105.23 1.70754 -2.95052 0
M  V30 1122 H 106.423 -0.100058 -2.99733 0
M  V30 1123 H 103.976 -0.0896198 -1.56043 0
M  V30 1124 H 104.711 2.35474 -2.22986 0
M  V30 1125 H 104.496 1.33946 -3.68512 0
M  V30 1126 H 105.986 2.30818 -3.48013 0
M  V30 1127 N 106.423 1.57458 -0.0668435 0
M  V30 1128 C 107.669 1.93587 0.6043 0
M  V30 1129 C 108.002 0.946722 1.69561 0
M  V30 1130 O 107.277 -0.0248516 1.94484 0
M  V30 1131 C 107.56 3.40014 1.18585 0
M  V30 1132 C 107.413 4.49685 0.101529 0
M  V30 1133 C 108.732 3.87154 2.09284 0
M  V30 1134 H 105.851 0.703958 0.218202 0
M  V30 1135 H 108.493 1.89542 -0.131804 0
M  V30 1136 H 106.643 3.43592 1.81319 0
M  V30 1137 H 108.315 4.5823 -0.531279 0
M  V30 1138 H 106.558 4.30059 -0.568487 0
M  V30 1139 H 107.229 5.49266 0.54874 0
M  V30 1140 H 109.705 3.85551 1.56491 0
M  V30 1141 H 108.581 4.90231 2.46911 0
M  V30 1142 H 108.842 3.2481 2.99918 0
M  V30 1143 N 107.901 -0.206675 1.56239 0
M  V30 1144 C 109.141 -0.93574 1.81723 0
M  V30 1145 C 109.505 -1.80927 0.642609 0
M  V30 1146 O 110.706 -2.57323 0.777081 0
M  V30 1147 C 108.977 -1.74012 3.12177 0
M  V30 1148 S 110.536 -2.52279 3.59028 0
M  V30 1149 H 107.354 -0.314065 0.637875 0
M  V30 1150 H 109.956 -0.200071 1.94474 0
M  V30 1151 H 108.66 -1.0888 3.95693 0
M  V30 1152 H 108.191 -2.51782 3.02274 0
M  V30 1153 H 110.206 -3.76209 3.23545 0
M  V30 1154 N 109.379 -1.50304 -0.473955 0
M  V30 1155 C 110.626 -1.6115 -1.22625 0
M  V30 1156 C 110.954 -0.310517 -1.92005 0
M  V30 1157 O 110.209 0.703419 -1.82621 0
M  V30 1158 C 110.508 -2.73938 -2.29549 0
M  V30 1159 C 110.174 -4.14519 -1.7744 0
M  V30 1160 C 108.836 -4.5277 -1.62949 0
M  V30 1161 C 111.188 -5.02392 -1.3875 0
M  V30 1162 C 108.516 -5.76639 -1.08187 0
M  V30 1163 C 110.868 -6.26805 -0.854309 0
M  V30 1164 C 109.532 -6.63861 -0.696011 0
M  V30 1165 H 108.802 -0.589691 -0.448715 0
M  V30 1166 H 111.449 -1.84228 -0.522705 0
M  V30 1167 H 109.754 -2.44937 -3.05799 0
M  V30 1168 H 111.451 -2.79534 -2.87509 0
M  V30 1169 H 108.041 -3.8434 -1.89685 0
M  V30 1170 H 112.225 -4.73474 -1.4878 0
M  V30 1171 H 107.481 -6.04027 -0.946666 0
M  V30 1172 H 111.655 -6.94258 -0.545843 0
M  V30 1173 H 109.282 -7.59722 -0.26952 0
M  V30 1174 N 110.857 0.726932 -1.39834 0
M  V30 1175 C 111.767 1.87131 -1.41489 0
M  V30 1176 C 112.783 1.71239 -0.308757 0
M  V30 1177 O 113.959 1.93701 -0.551529 0
M  V30 1178 C 111.024 3.22811 -1.26468 0
M  V30 1179 C 110.085 3.51039 -2.47124 0
M  V30 1180 C 109.318 4.80245 -2.3281 0
M  V30 1181 O 109.541 5.54537 -1.33585 0
M  V30 1182 O 108.475 5.08554 -3.21957 0
M  V30 1183 H 112.301 1.8869 -2.3797 0
M  V30 1184 H 109.886 0.875837 -1.21035 0
M  V30 1185 H 111.768 4.03877 -1.20255 0
M  V30 1186 H 110.443 3.22005 -0.330862 0
M  V30 1187 H 109.35 2.70027 -2.58914 0
M  V30 1188 H 110.683 3.56632 -3.39227 0
M  V30 1189 N 112.336 1.25143 0.95797 0
M  V30 1190 C 113.246 1.06968 2.08794 0
M  V30 1191 C 114.262 0.00773911 1.73998 0
M  V30 1192 O 115.438 0.207972 2.00323 0
M  V30 1193 C 112.503 0.68691 3.39827 0
M  V30 1194 C 111.564 1.82641 3.88511 0
M  V30 1195 C 110.797 1.46181 5.1329 0
M  V30 1196 O 111.02 0.355971 5.69288 0
M  V30 1197 O 109.954 2.29085 5.566 0
M  V30 1198 H 113.78 2.01723 2.27027 0
M  V30 1199 H 111.365 1.04051 1.07209 0
M  V30 1200 H 113.247 0.485417 4.18595 0
M  V30 1201 H 111.922 -0.231417 3.22872 0
M  V30 1202 H 110.829 2.08274 3.10762 0
M  V30 1203 H 112.162 2.72386 4.09959 0
M  V30 1204 N 113.814 -1.1601 1.06675 0
M  V30 1205 C 114.744 -2.22688 0.702307 0
M  V30 1206 C 115.725 -1.67306 -0.307032 0
M  V30 1207 O 116.91 -1.93352 -0.181305 0
M  V30 1208 C 114.04 -3.47178 0.092038 0
M  V30 1209 C 112.994 -4.15477 1.02777 0
M  V30 1210 C 112.32 -5.33963 0.28061 0
M  V30 1211 C 113.62 -4.66019 2.35846 0
M  V30 1212 H 115.314 -2.53429 1.59419 0
M  V30 1213 H 112.86 -1.21813 0.767961 0
M  V30 1214 H 114.813 -4.21037 -0.174814 0
M  V30 1215 H 113.537 -3.15749 -0.834877 0
M  V30 1216 H 112.196 -3.43549 1.27944 0
M  V30 1217 H 111.844 -4.98788 -0.649545 0
M  V30 1218 H 111.544 -5.806 0.904258 0
M  V30 1219 H 113.068 -6.10596 0.021396 0
M  V30 1220 H 114.482 -5.3144 2.15045 0
M  V30 1221 H 112.879 -5.23293 2.93743 0
M  V30 1222 H 113.949 -3.82023 2.98641 0
M  V30 1223 N 115.292 -0.849877 -1.32721 0
M  V30 1224 C 116.532 -0.457146 -1.99222 0
M  V30 1225 C 116.896 0.968038 -1.6581 0
M  V30 1226 O 118.097 1.46507 -2.25364 0
M  V30 1227 C 116.368 -0.683966 -3.50794 0
M  V30 1228 S 117.927 -0.388095 -4.3708 0
M  V30 1229 H 114.745 -0.171464 -0.690015 0
M  V30 1230 H 117.347 -1.10155 -1.61512 0
M  V30 1231 H 116.051 -1.72038 -3.726 0
M  V30 1232 H 115.582 -0.0258086 -3.93392 0
M  V30 1233 H 117.597 0.787791 -4.89906 0
M  V30 1234 N 116.77 1.45427 -0.607355 0
M  V30 1235 C 117.702 2.2871 0.149752 0
M  V30 1236 C 118.715 1.39937 0.831958 0
M  V30 1237 O 119.904 1.64313 0.697385 0
M  V30 1238 C 117.004 3.15673 1.23304 0
M  V30 1239 C 116.177 4.32722 0.637996 0
M  V30 1240 C 115.236 5.00895 1.61215 0
M  V30 1241 O 114.262 5.57697 1.13854 0
M  V30 1242 N 115.464 5.00159 2.94655 0
M  V30 1243 H 118.229 2.94328 -0.564882 0
M  V30 1244 H 115.79 1.55612 -0.446823 0
M  V30 1245 H 117.782 3.58144 1.88454 0
M  V30 1246 H 116.352 2.51965 1.8502 0
M  V30 1247 H 115.572 3.93734 -0.191572 0
M  V30 1248 H 116.86 5.08321 0.220665 0
M  V30 1249 H 116.258 4.553 3.35735 0
M  V30 1250 H 114.815 5.46495 3.55228 0
M  V30 1251 N 118.248 0.346503 1.53744 0
M  V30 1252 C 119.196 -0.52422 2.26616 0
M  V30 1253 C 120.19 -1.09948 1.28871 0
M  V30 1254 O 121.396 -1.04488 1.46568 0
M  V30 1255 H 117.771 -0.187743 0.728187 0
M  V30 1256 H 119.742 0.11239 2.98188 0
M  V30 1257 C 118.491 -1.66186 3.05414 0
M  V30 1258 H 117.814 -1.22848 3.80458 0
M  V30 1259 H 119.254 -2.24622 3.59612 0
M  V30 1260 C 117.713 -2.59302 2.1509 0
M  V30 1261 O 118.243 -3.61628 1.74895 0
M  V30 1262 N 116.449 -2.28055 1.8011 0
M  V30 1263 H 115.996 -1.44883 2.12994 0
M  V30 1264 H 115.954 -2.90615 1.19958 0
M  V30 1265 N 119.726 -1.57421 0.075193 0
M  V30 1266 C 120.974 -1.93236 -0.591974 0
M  V30 1267 C 121.295 -0.956241 -1.69944 0
M  V30 1268 O 120.565 -0.00494792 -1.95899 0
M  V30 1269 H 119.145 -0.713355 -0.22166 0
M  V30 1270 H 121.807 -1.9444 0.133848 0
M  V30 1271 H 120.903 -2.95131 -1.01509 0
M  V30 1272 N 121.204 0.198386 -1.56346 0
M  V30 1273 C 122.167 1.22952 -1.93431 0
M  V30 1274 C 123.167 1.38611 -0.815092 0
M  V30 1275 O 124.357 1.36479 -1.08255 0
M  V30 1276 C 121.489 2.59946 -2.20546 0
M  V30 1277 H 122.682 0.912626 -2.85677 0
M  V30 1278 H 120.235 0.43977 -1.49986 0
M  V30 1279 H 120.97 2.96696 -1.30927 0
M  V30 1280 H 120.755 2.49953 -3.02102 0
M  V30 1281 H 122.245 3.3431 -2.50253 0
M  V30 1282 N 122.682 1.50554 0.465978 0
M  V30 1283 C 123.629 1.6979 1.56333 0
M  V30 1284 C 124.599 0.539239 1.57103 0
M  V30 1285 O 125.784 0.770401 1.74555 0
M  V30 1286 C 122.924 1.80273 2.94271 0
M  V30 1287 C 122.037 3.07674 3.0325 0
M  V30 1288 C 121.172 3.08922 4.32135 0
M  V30 1289 C 120.211 4.30755 4.34875 0
M  V30 1290 N 119.348 4.29714 5.55239 0
M  V30 1291 H 124.188 2.63472 1.39235 0
M  V30 1292 H 121.725 1.30602 0.676873 0
M  V30 1293 H 123.683 1.84332 3.74269 0
M  V30 1294 H 122.313 0.900258 3.09992 0
M  V30 1295 H 121.365 3.13062 2.16094 0
M  V30 1296 H 122.677 3.97642 3.01135 0
M  V30 1297 H 121.831 3.11738 5.20485 0
M  V30 1298 H 120.57 2.16792 4.36866 0
M  V30 1299 H 119.575 4.28146 3.44922 0
M  V30 1300 H 120.8 5.24117 4.31831 0
M  V30 1301 H 118.746 3.4044 5.60746 0
M  V30 1302 H 118.663 5.13456 5.54886 0
M  V30 1303 H 119.931 4.36683 6.457 0
M  V30 1304 N 124.16 -0.719506 1.40217 0
M  V30 1305 C 125.406 -1.48152 1.38488 0
M  V30 1306 C 125.739 -1.94195 -0.0141867 0
M  V30 1307 O 125.014 -1.67884 -0.982096 0
M  V30 1308 C 125.297 -2.71035 2.37091 0
M  V30 1309 C 125.15 -2.30912 3.86005 0
M  V30 1310 C 126.469 -3.73182 2.33288 0
M  V30 1311 H 123.588 -0.537395 0.504357 0
M  V30 1312 H 126.23 -0.821472 1.71324 0
M  V30 1313 H 124.38 -3.27352 2.0922 0
M  V30 1314 H 126.052 -1.80107 4.24687 0
M  V30 1315 H 124.295 -1.62958 4.02029 0
M  V30 1316 H 124.966 -3.18978 4.50508 0
M  V30 1317 H 127.442 -3.26485 2.57966 0
M  V30 1318 H 126.318 -4.56806 3.04334 0
M  V30 1319 H 126.579 -4.21202 1.34317 0
M  V30 1320 N 125.638 -1.25649 -0.95132 0
M  V30 1321 C 126.887 -1.09988 -1.69073 0
M  V30 1322 C 127.2 0.358355 -1.92289 0
M  V30 1323 O 128.406 0.635466 -2.63958 0
M  V30 1324 C 126.862 -1.92012 -3.044 0
M  V30 1325 C 126.47 -3.42347 -2.88968 0
M  V30 1326 C 128.214 -1.8493 -3.82101 0
M  V30 1327 C 126.121 -4.16655 -4.19705 0
M  V30 1328 H 125.051 -0.407993 -0.63408 0
M  V30 1329 H 127.702 -1.49873 -1.05879 0
M  V30 1330 H 126.084 -1.44952 -3.68517 0
M  V30 1331 H 127.258 -3.97104 -2.33762 0
M  V30 1332 H 125.573 -3.50557 -2.24719 0
M  V30 1333 H 128.17 -2.37739 -4.78941 0
M  V30 1334 H 128.513 -0.817883 -4.08187 0
M  V30 1335 H 129.046 -2.29758 -3.2474 0
M  V30 1336 H 125.785 -5.20224 -3.98807 0
M  V30 1337 H 125.305 -3.66681 -4.74663 0
M  V30 1338 H 126.984 -4.24551 -4.88227 0
M  V30 1339 N 127.117 1.15442 -1.07289 0
M  V30 1340 C 128.366 1.85557 -0.790669 0
M  V30 1341 C 128.679 1.83186 0.685739 0
M  V30 1342 O 129.885 2.48977 1.0827 0
M  V30 1343 C 128.341 3.33038 -1.36433 0
M  V30 1344 C 127.949 3.43856 -2.8717 0
M  V30 1345 C 129.693 4.0834 -1.1601 0
M  V30 1346 C 127.6 4.85482 -3.3773 0
M  V30 1347 H 126.53 0.695122 -0.292098 0
M  V30 1348 H 129.181 1.30219 -1.29287 0
M  V30 1349 H 127.563 3.88043 -0.789864 0
M  V30 1350 H 128.737 2.98961 -3.50655 0
M  V30 1351 H 127.052 2.81998 -3.06376 0
M  V30 1352 H 129.649 5.12859 -1.51262 0
M  V30 1353 H 129.992 4.16182 -0.0991007 0
M  V30 1354 H 130.525 3.59603 -1.70089 0
M  V30 1355 H 127.264 4.82823 -4.43353 0
M  V30 1356 H 126.784 5.30961 -2.78999 0
M  V30 1357 H 128.463 5.54335 -3.33648 0
M  V30 1358 N 128.595 0.856903 1.32268 0
M  V30 1359 C 130.011 0.547061 1.49931 0
M  V30 1360 C 130.211 -0.921781 1.7918 0
M  V30 1361 O 129.267 -1.70469 1.8627 0
M  V30 1362 C 130.58 1.43599 2.64196 0
M  V30 1363 C 132.128 1.43665 2.78081 0
M  V30 1364 C 132.603 2.31085 3.95428 0
M  V30 1365 N 134.094 2.28893 4.02694 0
M  V30 1366 C 134.829 2.93262 4.92732 0
M  V30 1367 N 134.325 3.66751 5.87763 0
M  V30 1368 N 136.118 2.82638 4.85873 0
M  V30 1369 H 128.269 1.8075 1.11549 0
M  V30 1370 H 130.532 0.772144 0.549997 0
M  V30 1371 H 130.238 2.48058 2.49319 0
M  V30 1372 H 130.112 1.12502 3.60032 0
M  V30 1373 H 132.499 0.399701 2.92381 0
M  V30 1374 H 132.58 1.7878 1.82952 0
M  V30 1375 H 132.224 3.34849 3.81888 0
M  V30 1376 H 132.154 1.93302 4.89839 0
M  V30 1377 H 134.645 1.75466 3.34694 0
M  V30 1378 H 134.958 4.13027 6.53168 0
M  V30 1379 H 133.303 3.70859 5.87783 0
M  V30 1380 H 136.494 2.24774 4.10602 0
M  V30 1381 H 136.667 3.33084 5.55841 0
M  V30 1382 N 130.073 -1.45103 0.615059 0
M  V30 1383 C 131.036 -2.29025 -0.0895485 0
M  V30 1384 C 132.036 -1.40174 -0.787906 0
M  V30 1385 O 133.226 -1.62217 -0.634933 0
M  V30 1386 C 130.358 -3.21376 -1.13711 0
M  V30 1387 H 131.551 -2.92807 0.648382 0
M  V30 1388 H 129.104 -1.51749 0.374444 0
M  V30 1389 H 129.839 -2.6241 -1.90556 0
M  V30 1390 H 129.624 -3.86834 -0.640475 0
M  V30 1391 H 131.114 -3.84459 -1.63036 0
M  V30 1392 N 131.551 -0.354651 -1.53558 0
M  V30 1393 C 132.799 0.237972 -2.00694 0
M  V30 1394 C 133.12 1.50173 -1.24391 0
M  V30 1395 O 132.39 1.92673 -0.354135 0
M  V30 1396 H 130.97 0.0909256 -0.741446 0
M  V30 1397 H 133.632 -0.478368 -1.88938 0
M  V30 1398 H 132.728 0.47264 -3.085 0
M  V30 1399 N 133.029 1.57378 -0.0835403 0
M  V30 1400 C 134.254 1.98682 0.594987 0
M  V30 1401 C 134.679 0.961969 1.61641 0
M  V30 1402 O 134.037 -0.0709989 1.81161 0
M  V30 1403 C 134.085 3.38988 1.2296 0
M  V30 1404 O 133.189 3.39208 2.34546 0
M  V30 1405 H 132.53 0.646368 0.152002 0
M  V30 1406 H 135.06 2.03961 -0.161533 0
M  V30 1407 H 135.07 3.76431 1.57366 0
M  V30 1408 H 133.745 4.13107 0.481228 0
M  V30 1409 H 132.322 3.13548 2.01846 0
M  V30 1410 N 134.507 -0.190092 1.56449 0
M  V30 1411 C 135.747 -0.916414 1.82705 0
M  V30 1412 C 136.111 -1.80235 0.661763 0
M  V30 1413 O 137.312 -2.56484 0.80433 0
M  V30 1414 C 135.583 -1.70691 3.14005 0
M  V30 1415 S 137.142 -2.48457 3.61683 0
M  V30 1416 H 133.96 -0.307281 0.64117 0
M  V30 1417 H 136.562 -0.179433 1.94675 0
M  V30 1418 H 135.266 -1.04677 3.96826 0
M  V30 1419 H 134.797 -2.48562 3.04927 0
M  V30 1420 H 136.812 -3.72756 3.27517 0
M  V30 1421 N 135.985 -1.50799 -0.457987 0
M  V30 1422 C 137.233 -1.62121 -1.2067 0
M  V30 1423 C 137.554 -0.329793 -1.92191 0
M  V30 1424 O 136.824 0.653409 -1.84682 0
M  V30 1425 H 135.404 -0.597441 -0.448411 0
M  V30 1426 H 138.066 -1.87637 -0.527096 0
M  V30 1427 H 137.162 -2.43882 -1.94751 0
M  V30 1428 N 137.463 0.71206 -1.40597 0
M  V30 1429 C 138.688 1.50617 -1.42581 0
M  V30 1430 C 139.113 1.88079 -0.0282102 0
M  V30 1431 O 138.471 1.53511 0.964579 0
M  V30 1432 C 138.519 2.7557 -2.3258 0
M  V30 1433 O 137.623 3.72414 -1.77148 0
M  V30 1434 H 136.964 0.453966 -0.484573 0
M  V30 1435 H 139.494 0.876649 -1.84868 0
M  V30 1436 H 139.504 3.2406 -2.47889 0
M  V30 1437 H 138.179 2.47639 -3.34138 0
M  V30 1438 H 136.756 3.31276 -1.71204 0
M  V30 1439 N 138.941 1.26152 0.944643 0
M  V30 1440 C 139.871 1.09902 2.06019 0
M  V30 1441 C 140.852 0.00519538 1.70099 0
M  V30 1442 O 142.037 0.176583 1.93396 0
M  V30 1443 C 139.167 0.727562 3.39594 0
M  V30 1444 C 138.121 1.77274 3.89561 0
M  V30 1445 C 137.447 1.25569 5.19747 0
M  V30 1446 C 138.747 3.17357 4.14827 0
M  V30 1447 H 140.441 2.03217 2.19871 0
M  V30 1448 H 137.987 0.978452 1.05652 0
M  V30 1449 H 139.94 0.600777 4.17095 0
M  V30 1450 H 138.664 -0.241287 3.25707 0
M  V30 1451 H 137.323 1.88814 3.14237 0
M  V30 1452 H 136.971 0.276783 5.02238 0
M  V30 1453 H 136.671 1.95433 5.54148 0
M  V30 1454 H 138.195 1.1415 5.99835 0
M  V30 1455 H 139.609 3.08914 4.82954 0
M  V30 1456 H 138.006 3.84781 4.60504 0
M  V30 1457 H 139.076 3.63673 3.20734 0
M  V30 1458 N 140.419 -1.14872 1.07899 0
M  V30 1459 C 141.351 -2.19425 0.662231 0
M  V30 1460 C 142.364 -1.60231 -0.288079 0
M  V30 1461 O 143.553 -1.78336 -0.076534 0
M  V30 1462 C 140.653 -3.38867 -0.0470695 0
M  V30 1463 C 139.826 -4.27597 0.920831 0
M  V30 1464 C 138.885 -5.25616 0.247805 0
M  V30 1465 O 137.911 -5.62189 0.890599 0
M  V30 1466 N 139.113 -5.71746 -1.00435 0
M  V30 1467 H 141.878 -2.55797 1.56166 0
M  V30 1468 H 139.439 -1.30042 0.964404 0
M  V30 1469 H 141.431 -4.01497 -0.50813 0
M  V30 1470 H 140.001 -3.00864 -0.848523 0
M  V30 1471 H 139.221 -3.61982 1.56087 0
M  V30 1472 H 140.509 -4.83748 1.57688 0
M  V30 1473 H 139.907 -5.44153 -1.54642 0
M  V30 1474 H 138.464 -6.36389 -1.40899 0
M  V30 1475 N 141.898 -0.863906 -1.31812 0
M  V30 1476 C 143.309 -0.52522 -1.7916 0
M  V30 1477 C 143.66 0.957518 -1.71248 0
M  V30 1478 O 142.785 1.74734 -1.27659 0
M  V30 1479 C 143.38 -0.9466 -3.25307 0
M  V30 1480 C 141.939 -0.659668 -3.70574 0
M  V30 1481 C 141.086 -1.14126 -2.52726 0
M  V30 1482 H 144.037 -1.05022 -1.1898 0
M  V30 1483 H 144.058 -0.266766 -3.79564 0
M  V30 1484 H 143.57 -2.02579 -3.31034 0
M  V30 1485 H 141.671 0.408416 -3.70355 0
M  V30 1486 H 141.784 -1.23245 -4.62977 0
M  V30 1487 H 140.148 -0.561216 -2.4844 0
M  V30 1488 H 140.931 -2.22775 -2.61201 0
M  V30 1489 N 143.376 1.44774 -0.622745 0
M  V30 1490 C 144.653 1.95522 -0.0551974 0
M  V30 1491 C 145.033 1.5649 1.41683 0
M  V30 1492 O 144.381 0.834848 2.12703 0
M  V30 1493 C 144.591 3.4796 -0.269242 0
M  V30 1494 C 145.939 4.24306 -0.158014 0
M  V30 1495 O 146.963 3.55637 -0.200162 0
M  V30 1496 O 145.822 5.46471 -0.0558693 0
M  V30 1497 H 142.916 0.826556 0.0271015 0
M  V30 1498 H 145.462 1.54866 -0.693864 0
M  V30 1499 H 144.234 3.6939 -1.29099 0
M  V30 1500 H 143.857 3.95543 0.403966 0
M  V30 1501 N 144.854 0.36279 1.53368 0
M  V30 1502 C 145.784 -0.476976 2.28576 0
M  V30 1503 C 146.765 -1.08631 1.30894 0
M  V30 1504 O 147.95 -1.10409 1.59761 0
M  V30 1505 C 145.08 -1.61828 3.07293 0
M  V30 1506 C 144.034 -1.13633 4.1264 0
M  V30 1507 C 143.36 -2.36766 4.79423 0
M  V30 1508 C 144.66 -0.223061 5.21823 0
M  V30 1509 H 146.354 0.150474 2.99022 0
M  V30 1510 H 143.9 0.0738103 1.43811 0
M  V30 1511 H 145.853 -2.21237 3.58653 0
M  V30 1512 H 144.577 -2.27292 2.34533 0
M  V30 1513 H 143.236 -0.564945 3.62221 0
M  V30 1514 H 142.884 -3.0068 4.03238 0
M  V30 1515 H 142.584 -2.05192 5.50609 0
M  V30 1516 H 144.108 -2.96865 5.33576 0
M  V30 1517 H 145.522 -0.724545 5.68703 0
M  V30 1518 H 143.919 0.001678 6.001 0
M  V30 1519 H 144.989 0.735553 4.79289 0
M  V30 1520 N 146.332 -1.57332 0.0918853 0
M  V30 1521 C 147.581 -1.93412 -0.572249 0
M  V30 1522 C 147.894 -0.975515 -1.69538 0
M  V30 1523 O 149.1 -1.22991 -2.42045 0
M  V30 1524 C 147.556 -3.43648 -1.0693 0
M  V30 1525 C 147.164 -4.47994 0.0239049 0
M  V30 1526 C 148.908 -3.88695 -1.70635 0
M  V30 1527 C 146.815 -5.89381 -0.488319 0
M  V30 1528 H 145.745 -0.721939 -0.217532 0
M  V30 1529 H 148.396 -1.82735 0.167369 0
M  V30 1530 H 146.778 -3.49466 -1.8625 0
M  V30 1531 H 147.952 -4.53815 0.799277 0
M  V30 1532 H 146.267 -4.12536 0.565946 0
M  V30 1533 H 148.864 -4.91725 -2.10025 0
M  V30 1534 H 149.207 -3.27166 -2.57426 0
M  V30 1535 H 149.74 -3.85564 -0.979023 0
M  V30 1536 H 146.479 -6.54602 0.342906 0
M  V30 1537 H 145.999 -5.87037 -1.23077 0
M  V30 1538 H 147.678 -6.39863 -0.958317 0
M  V30 1539 N 147.81 0.181792 -1.56548 0
M  V30 1540 C 148.757 1.22521 -1.95595 0
M  V30 1541 C 149.727 1.4454 -0.818373 0
M  V30 1542 O 150.912 1.57454 -1.07763 0
M  V30 1543 C 148.052 2.56193 -2.31212 0
M  V30 1544 C 147.165 2.41641 -3.58097 0
M  V30 1545 C 146.3 3.68108 -3.82975 0
M  V30 1546 C 145.339 3.48445 -5.03242 0
M  V30 1547 N 144.476 4.66956 -5.24306 0
M  V30 1548 H 149.316 0.885226 -2.84548 0
M  V30 1549 H 146.853 0.425718 -1.40805 0
M  V30 1550 H 148.811 3.34088 -2.49882 0
M  V30 1551 H 147.441 2.88208 -1.45382 0
M  V30 1552 H 146.493 1.54976 -3.474 0
M  V30 1553 H 147.805 2.23052 -4.46149 0
M  V30 1554 H 146.959 4.54441 -4.01956 0
M  V30 1555 H 145.698 3.89666 -2.93278 0
M  V30 1556 H 144.703 2.60499 -4.8417 0
M  V30 1557 H 145.928 3.2832 -5.9446 0
M  V30 1558 H 143.874 4.88752 -4.37559 0
M  V30 1559 H 143.791 4.51242 -6.06561 0
M  V30 1560 H 145.059 5.54602 -5.47756 0
M  V30 1561 N 149.288 1.51039 0.449983 0
M  V30 1562 C 150.704 1.38934 0.785462 0
M  V30 1563 C 150.904 0.461817 1.96136 0
M  V30 1564 O 149.96 -0.0877389 2.52348 0
M  V30 1565 C 151.273 2.80724 1.0777 0
M  V30 1566 C 152.821 2.89787 1.1829 0
M  V30 1567 C 153.296 4.32457 1.50815 0
M  V30 1568 N 154.787 4.35505 1.57764 0
M  V30 1569 C 155.522 5.42914 1.84477 0
M  V30 1570 N 155.018 6.60502 2.09068 0
M  V30 1571 N 156.811 5.3038 1.86155 0
M  V30 1572 H 148.962 2.09904 -0.324647 0
M  V30 1573 H 151.225 0.944378 -0.0827957 0
M  V30 1574 H 150.931 3.50531 0.286498 0
M  V30 1575 H 150.805 3.19273 2.00859 0
M  V30 1576 H 153.192 2.20186 1.96474 0
M  V30 1577 H 153.273 2.54752 0.231314 0
M  V30 1578 H 152.917 5.02603 0.731622 0
M  V30 1579 H 152.847 4.64995 2.47158 0
M  V30 1580 H 155.338 3.50724 1.40715 0
M  V30 1581 H 155.651 7.38158 2.28785 0
M  V30 1582 H 153.996 6.63639 2.06416 0
M  V30 1583 H 157.187 4.37505 1.66454 0
M  V30 1584 H 157.36 6.1417 2.06637 0
M  V30 1585 N 150.766 -0.704594 1.40972 0
M  V30 1586 C 152.014 -1.46169 1.39568 0
M  V30 1587 C 152.335 -1.95 0.00253745 0
M  V30 1588 O 151.605 -1.71095 -0.954114 0
M  V30 1589 H 150.185 -0.542326 0.513704 0
M  V30 1590 H 152.847 -0.834553 1.76128 0
M  V30 1591 H 151.943 -2.32922 2.07735 0
M  V30 1592 N 152.244 -1.26651 -0.937939 0
M  V30 1593 C 153.521 -1.0313 -1.66204 0
M  V30 1594 C 153.901 0.437256 -2.06522 0
M  V30 1595 O 153.249 1.41831 -1.79154 0
M  V30 1596 C 153.459 -1.98314 -2.87181 0
M  V30 1597 C 154.807 -2.27107 -3.58758 0
M  V30 1598 O 155.831 -1.96205 -2.97291 0
M  V30 1599 O 154.69 -2.79736 -4.69479 0
M  V30 1600 H 151.784 -0.392384 -0.727986 0
M  V30 1601 H 154.33 -1.37874 -0.989382 0
M  V30 1602 H 153.102 -2.97399 -2.54302 0
M  V30 1603 H 152.725 -1.64068 -3.6217 0
M  V30 1604 N 153.722 1.14298 -1.08507 0
M  V30 1605 C 154.971 1.84708 -0.810305 0
M  V30 1606 C 155.284 1.83903 0.666271 0
M  V30 1607 O 156.49 2.50112 1.05624 0
M  V30 1608 C 154.946 3.31572 -1.39957 0
M  V30 1609 C 154.554 3.40791 -2.90801 0
M  V30 1610 C 156.298 4.07087 -1.20334 0
M  V30 1611 C 154.205 4.81872 -3.4286 0
M  V30 1612 H 153.135 0.691985 -0.299454 0
M  V30 1613 H 155.786 1.28841 -1.30661 0
M  V30 1614 H 154.168 3.87183 -0.830976 0
M  V30 1615 H 155.342 2.95225 -3.53806 0
M  V30 1616 H 153.657 2.78732 -3.0935 0
M  V30 1617 H 156.254 5.11225 -1.56693 0
M  V30 1618 H 156.597 4.16054 -0.143237 0
M  V30 1619 H 157.13 3.57779 -1.73893 0
M  V30 1620 H 153.869 4.78094 -4.48449 0
M  V30 1621 H 153.389 5.27972 -2.84615 0
M  V30 1622 H 155.068 5.50765 -3.39509 0
M  V30 1623 N 155.201 0.870884 1.31352 0
M  V30 1624 C 156.441 0.488783 1.9847 0
M  V30 1625 C 156.805 -0.941536 1.67329 0
M  V30 1626 O 158.006 -1.42903 2.27667 0
M  V30 1627 C 156.277 0.739688 3.49662 0
M  V30 1628 S 157.836 0.457582 4.36408 0
M  V30 1629 H 154.654 0.18242 0.6872 0
M  V30 1630 H 157.256 1.12711 1.59739 0
M  V30 1631 H 155.96 1.77944 3.69816 0
M  V30 1632 H 155.491 0.0883905 3.93301 0
M  V30 1633 H 157.506 -0.709752 4.91098 0
M  V30 1634 N 156.679 -1.44442 0.630414 0
M  V30 1635 C 157.928 -2.01267 0.132073 0
M  V30 1636 C 158.241 -1.50172 -1.25331 0
M  V30 1637 O 159.447 -1.9912 -1.84562 0
M  V30 1638 C 157.903 -3.59422 0.185362 0
M  V30 1639 C 157.511 -4.19514 1.57201 0
M  V30 1640 C 159.255 -4.23724 -0.256553 0
M  V30 1641 C 157.162 -5.69891 1.58045 0
M  V30 1642 H 156.092 -0.752619 0.0456092 0
M  V30 1643 H 158.743 -1.65666 0.789106 0
M  V30 1644 H 157.125 -3.92318 -0.538759 0
M  V30 1645 H 158.299 -3.98156 2.31966 0
M  V30 1646 H 156.614 -3.67496 1.95795 0
M  V30 1647 H 159.211 -5.34019 -0.269767 0
M  V30 1648 H 159.554 -3.96013 -1.28372 0
M  V30 1649 H 160.087 -3.95629 0.41505 0
M  V30 1650 H 156.826 -6.02336 2.58597 0
M  V30 1651 H 156.346 -5.93373 0.875725 0
M  V30 1652 H 158.025 -6.33515 1.31408 0
M  V30 1653 N 158.157 -0.370918 -1.53173 0
M  V30 1654 C 159.397 0.217106 -2.03244 0
M  V30 1655 C 159.761 1.45558 -1.25207 0
M  V30 1656 O 160.962 2.11957 -1.65311 0
M  V30 1657 C 159.233 0.496664 -3.53932 0
M  V30 1658 S 160.792 1.0576 -4.25864 0
M  V30 1659 H 157.61 0.0627827 -0.708223 0
M  V30 1660 H 160.212 -0.515019 -1.88594 0
M  V30 1661 H 158.916 -0.412096 -4.08326 0
M  V30 1662 H 158.447 1.25772 -3.72753 0
M  V30 1663 H 160.462 2.34145 -4.37482 0
M  V30 1664 N 159.635 1.57281 -0.100228 0
M  V30 1665 C 160.583 2.15542 0.874328 0
M  V30 1666 C 161.577 1.09962 1.28859 0
M  V30 1667 O 162.783 1.28298 1.26252 0
M  V30 1668 H 159.158 0.689567 0.300003 0
M  V30 1669 H 161.129 2.96241 0.35829 0
M  V30 1670 C 159.878 2.75454 2.1218 0
M  V30 1671 H 159.201 3.56384 1.81193 0
M  V30 1672 H 160.641 3.19781 2.78417 0
M  V30 1673 C 159.1 1.71602 2.89921 0
M  V30 1674 O 159.63 1.15804 3.84646 0
M  V30 1675 N 157.836 1.41975 2.53558 0
M  V30 1676 H 157.383 1.87539 1.76598 0
M  V30 1677 H 157.341 0.727274 3.05873 0
M  V30 1678 N 161.113 -0.173488 1.56642 0
M  V30 1679 C 162.076 -1.19859 1.95362 0
M  V30 1680 C 163.076 -1.37296 0.83704 0
M  V30 1681 O 164.266 -1.34739 1.10413 0
M  V30 1682 C 161.398 -2.56405 2.24654 0
M  V30 1683 H 162.591 -0.867062 2.87092 0
M  V30 1684 H 160.144 -0.415853 1.50666 0
M  V30 1685 H 160.879 -2.94576 1.35631 0
M  V30 1686 H 160.664 -2.45115 3.06041 0
M  V30 1687 H 162.154 -3.30287 2.5554 0
M  V30 1688 N 162.591 -1.51276 -0.441967 0
M  V30 1689 C 163.554 -1.7167 -1.51862 0
M  V30 1690 C 164.554 -0.586793 -1.49711 0
M  V30 1691 O 165.744 -0.854276 -1.51815 0
M  V30 1692 C 162.876 -1.76889 -2.91416 0
M  V30 1693 H 164.069 -2.67754 -1.35084 0
M  V30 1694 H 161.622 -1.41196 -0.670333 0
M  V30 1695 H 162.357 -0.826026 -3.13604 0
M  V30 1696 H 162.142 -2.59001 -2.94382 0
M  V30 1697 H 163.632 -1.94522 -3.69528 0
M  V30 1698 N 164.069 0.697108 -1.41344 0
M  V30 1699 C 165.315 1.4593 -1.40827 0
M  V30 1700 C 165.648 1.94193 -0.0167098 0
M  V30 1701 O 164.923 1.69425 0.955263 0
M  V30 1702 C 165.206 2.67229 -2.41373 0
M  V30 1703 C 165.059 2.24741 -3.8963 0
M  V30 1704 C 166.378 3.69423 -2.39196 0
M  V30 1705 H 163.497 0.529303 -0.512842 0
M  V30 1706 H 166.139 0.794112 -1.72609 0
M  V30 1707 H 164.289 3.23982 -2.14401 0
M  V30 1708 H 165.961 1.73327 -4.27499 0
M  V30 1709 H 164.204 1.56542 -4.0457 0
M  V30 1710 H 164.875 3.1177 -4.55525 0
M  V30 1711 H 167.351 3.2234 -2.63128 0
M  V30 1712 H 166.227 4.51907 -3.11563 0
M  V30 1713 H 166.488 4.19012 -1.41001 0
M  V30 1714 N 165.547 1.27147 0.931209 0
M  V30 1715 C 166.963 1.04475 1.20653 0
M  V30 1716 C 167.163 -0.223885 2.00252 0
M  V30 1717 O 166.219 -0.930332 2.34736 0
M  V30 1718 C 167.532 2.28209 1.95809 0
M  V30 1719 C 169.08 2.33211 2.08762 0
M  V30 1720 C 169.555 3.56665 2.87323 0
M  V30 1721 N 171.046 3.57201 2.94892 0
M  V30 1722 C 171.781 4.49395 3.56134 0
M  V30 1723 N 171.277 5.51889 4.18796 0
M  V30 1724 N 173.07 4.37026 3.53504 0
M  V30 1725 H 165.221 2.08612 0.399333 0
M  V30 1726 H 167.484 0.917312 0.239253 0
M  V30 1727 H 167.19 3.20538 1.44736 0
M  V30 1728 H 167.064 2.33247 2.96438 0
M  V30 1729 H 169.451 1.41391 2.59023 0
M  V30 1730 H 169.532 2.32178 1.07364 0
M  V30 1731 H 169.176 4.4882 2.37746 0
M  V30 1732 H 169.106 3.54948 3.88998 0
M  V30 1733 H 171.597 2.83074 2.50354 0
M  V30 1734 H 171.91 6.18409 4.63454 0
M  V30 1735 H 170.255 5.55735 4.17353 0
M  V30 1736 H 173.446 3.56166 3.03749 0
M  V30 1737 H 173.619 5.09067 4.00942 0
M  V30 1738 N 167.025 -1.13721 1.09112 0
M  V30 1739 C 167.935 -2.22638 0.73957 0
M  V30 1740 C 168.951 -1.72091 -0.257068 0
M  V30 1741 O 170.127 -2.01155 -0.0992154 0
M  V30 1742 C 167.192 -3.46322 0.16191 0
M  V30 1743 C 166.253 -4.11775 1.21408 0
M  V30 1744 C 165.486 -5.29555 0.663891 0
M  V30 1745 O 165.709 -5.68077 -0.514274 0
M  V30 1746 O 164.643 -5.84973 1.41738 0
M  V30 1747 H 168.469 -2.55074 1.64836 0
M  V30 1748 H 166.054 -1.21791 0.865289 0
M  V30 1749 H 167.936 -4.21107 -0.157073 0
M  V30 1750 H 166.611 -3.15593 -0.719932 0
M  V30 1751 H 165.518 -3.3883 1.58571 0
M  V30 1752 H 166.851 -4.46627 2.06845 0
M  V30 1753 N 168.503 -0.877838 -1.30888 0
M  V30 1754 C 169.78 -0.413052 -1.91189 0
M  V30 1755 C 170.16 1.1056 -1.79832 0
M  V30 1756 O 169.508 1.93771 -1.21099 0
M  V30 1757 C 169.718 -0.903191 -3.3711 0
M  V30 1758 C 171.066 -0.93395 -4.14201 0
M  V30 1759 O 172.09 -0.849373 -3.45925 0
M  V30 1760 O 170.949 -1.05772 -5.36167 0
M  V30 1761 H 168.043 -0.125035 -0.817493 0
M  V30 1762 H 170.589 -0.966269 -1.39504 0
M  V30 1763 H 169.361 -1.94692 -3.39427 0
M  V30 1764 H 168.984 -0.328732 -3.96239 0
M  V30 1765 N 169.982 1.44106 -0.638065 0
M  V30 1766 C 171.398 1.56672 -0.304286 0
M  V30 1767 C 171.598 1.6244 1.19228 0
M  V30 1768 O 170.654 1.57121 1.9766 0
M  V30 1769 C 171.967 2.83503 -1.00231 0
M  V30 1770 C 173.515 2.97226 -0.981116 0
M  V30 1771 C 173.99 4.26868 -1.65974 0
M  V30 1772 N 175.481 4.33698 -1.62666 0
M  V30 1773 C 176.216 5.32745 -2.12063 0
M  V30 1774 N 175.712 6.38157 -2.6968 0
M  V30 1775 N 177.505 5.24299 -2.02651 0
M  V30 1776 H 169.656 1.38605 -1.60942 0
M  V30 1777 H 171.919 0.664661 -0.675965 0
M  V30 1778 H 171.625 2.85251 -2.0573 0
M  V30 1779 H 171.499 3.73251 -0.54439 0
M  V30 1780 H 173.886 2.95027 0.0654188 0
M  V30 1781 H 173.967 2.08808 -1.47759 0
M  V30 1782 H 173.611 4.29826 -2.70576 0
M  V30 1783 H 173.541 5.14156 -1.13804 0
M  V30 1784 H 176.032 3.58138 -1.20606 0
M  V30 1785 H 176.345 7.10029 -3.05087 0
M  V30 1786 H 174.69 6.38823 -2.73734 0
M  V30 1787 H 177.881 4.4086 -1.57353 0
M  V30 1788 H 178.054 6.01334 -2.41457 0
M  V30 1789 N 171.46 0.379036 1.52974 0
M  V30 1790 C 172.706 -0.206727 2.01744 0
M  V30 1791 C 173.039 -1.47314 1.26539 0
M  V30 1792 O 172.314 -1.91084 0.362903 0
M  V30 1793 C 172.597 -0.485066 3.56818 0
M  V30 1794 C 172.45 0.795919 4.42702 0
M  V30 1795 C 173.769 -1.28003 4.21074 0
M  V30 1796 H 170.888 -0.0736607 0.73331 0
M  V30 1797 H 173.53 0.506581 1.83122 0
M  V30 1798 H 171.68 -1.09272 3.72816 0
M  V30 1799 H 173.352 1.43307 4.38476 0
M  V30 1800 H 171.595 1.41344 4.10127 0
M  V30 1801 H 172.266 0.555947 5.49193 0
M  V30 1802 H 174.742 -0.765867 4.08991 0
M  V30 1803 H 173.618 -1.44352 5.29579 0
M  V30 1804 H 173.879 -2.29236 3.78026 0
M  V30 1805 N 172.938 -1.57226 0.108567 0
M  V30 1806 C 174.163 -1.99604 -0.563303 0
M  V30 1807 C 174.588 -0.987563 -1.6009 0
M  V30 1808 O 173.946 0.0421687 -1.81251 0
M  V30 1809 C 173.994 -3.40902 -1.17552 0
M  V30 1810 O 173.098 -3.42896 -2.2912 0
M  V30 1811 H 172.439 -0.648704 -0.1417 0
M  V30 1812 H 174.969 -2.03679 0.193961 0
M  V30 1813 H 174.979 -3.78886 -1.51357 0
M  V30 1814 H 173.654 -4.1382 -0.415445 0
M  V30 1815 H 172.231 -3.1672 -1.96832 0
M  V30 1816 N 174.416 0.165178 -1.56732 0
M  V30 1817 C 175.366 1.20917 -1.93295 0
M  V30 1818 C 176.35 1.39488 -0.801985 0
M  V30 1819 O 177.542 1.41356 -1.06525 0
M  V30 1820 C 174.671 2.54718 -2.3016 0
M  V30 1821 C 173.757 2.39815 -3.49785 0
M  V30 1822 N 174.148 1.94637 -4.66851 0
M  V30 1823 C 172.446 2.70623 -3.54513 0
M  V30 1824 C 173.147 1.92344 -5.4898 0
M  V30 1825 N 172.123 2.34978 -4.9019 0
M  V30 1826 H 175.925 0.851675 -2.81289 0
M  V30 1827 H 173.439 0.373399 -1.58049 0
M  V30 1828 H 175.436 3.30165 -2.54552 0
M  V30 1829 H 174.096 2.91265 -1.43508 0
M  V30 1830 H 175.107 1.6488 -4.90953 0
M  V30 1831 H 171.784 3.11167 -2.78354 0
M  V30 1832 H 173.174 1.5906 -6.52801 0
M  V30 1833 N 175.894 1.51508 0.433938 0
M  V30 1834 C 176.824 1.76016 1.53429 0
M  V30 1835 C 177.805 0.610112 1.58782 0
M  V30 1836 O 178.99 0.853177 1.74455 0
M  V30 1837 C 176.12 1.88831 2.9148 0
M  V30 1838 C 175.074 3.04288 3.00987 0
M  V30 1839 C 174.4 3.0229 4.4105 0
M  V30 1840 C 175.7 4.44193 2.74754 0
M  V30 1841 H 177.394 2.68152 1.33171 0
M  V30 1842 H 174.94 1.29035 0.639214 0
M  V30 1843 H 176.893 2.04559 3.6842 0
M  V30 1844 H 175.617 0.933455 3.12976 0
M  V30 1845 H 174.276 2.8827 2.26486 0
M  V30 1846 H 173.924 2.04576 4.59519 0
M  V30 1847 H 173.624 3.79822 4.4834 0
M  V30 1848 H 175.148 3.20116 5.1996 0
M  V30 1849 H 176.562 4.60544 3.41426 0
M  V30 1850 H 174.959 5.23457 2.9345 0
M  V30 1851 H 176.029 4.53996 1.70339 0
M  V30 1852 N 177.372 -0.689602 1.41712 0
M  V30 1853 C 178.302 -1.81577 1.46806 0
M  V30 1854 C 179.283 -1.66945 0.326105 0
M  V30 1855 O 180.468 -1.86588 0.538377 0
M  V30 1856 C 177.598 -3.19762 1.35535 0
M  V30 1857 C 176.552 -3.49107 2.47605 0
M  V30 1858 C 175.878 -4.86711 2.21397 0
M  V30 1859 C 177.178 -3.47483 3.89939 0
M  V30 1860 H 178.872 -1.7757 2.41058 0
M  V30 1861 H 176.418 -0.852887 1.16025 0
M  V30 1862 H 178.371 -3.98263 1.3771 0
M  V30 1863 H 177.095 -3.24409 0.377708 0
M  V30 1864 H 175.754 -2.72959 2.44722 0
M  V30 1865 H 175.402 -4.8799 1.21961 0
M  V30 1866 H 175.102 -5.0731 2.96497 0
M  V30 1867 H 176.626 -5.67515 2.25297 0
M  V30 1868 H 178.04 -4.1598 3.94505 0
M  V30 1869 H 176.437 -3.79615 4.64771 0
M  V30 1870 H 177.507 -2.46341 4.17665 0
M  V30 1871 N 178.85 -1.27639 -0.924453 0
M  V30 1872 C 180.099 -1.13549 -1.66702 0
M  V30 1873 C 180.412 0.317487 -1.93006 0
M  V30 1874 O 181.618 0.579333 -2.65247 0
M  V30 1875 C 180.074 -1.98426 -3.00259 0
M  V30 1876 C 179.682 -3.484 -2.81641 0
M  V30 1877 C 181.426 -1.92993 -3.78092 0
M  V30 1878 C 179.333 -4.25464 -4.10773 0
M  V30 1879 H 178.263 -0.421351 -0.625283 0
M  V30 1880 H 180.914 -1.52085 -1.02676 0
M  V30 1881 H 179.296 -1.52736 -3.6536 0
M  V30 1882 H 180.47 -4.01973 -2.25287 0
M  V30 1883 H 178.785 -3.55245 -2.17232 0
M  V30 1884 H 181.382 -2.47844 -4.7379 0
M  V30 1885 H 181.725 -0.904281 -4.0636 0
M  V30 1886 H 182.258 -2.36595 -3.19793 0
M  V30 1887 H 178.997 -5.28566 -3.87683 0
M  V30 1888 H 178.517 -3.76667 -4.66779 0
M  V30 1889 H 180.196 -4.34812 -4.79111 0
M  V30 1890 N 180.328 1.1314 -1.09713 0
M  V30 1891 C 181.278 2.16709 -0.708593 0
M  V30 1892 C 182.262 1.58471 0.278523 0
M  V30 1893 O 183.454 1.76779 0.088427 0
M  V30 1894 C 180.583 3.43039 -0.133923 0
M  V30 1895 C 179.669 4.08277 -1.14763 0
M  V30 1896 N 180.06 4.48637 -2.33577 0
M  V30 1897 C 178.358 4.34954 -0.986446 0
M  V30 1898 C 179.059 4.9952 -2.98085 0
M  V30 1899 N 178.035 4.94561 -2.25632 0
M  V30 1900 H 181.837 2.45672 -1.61315 0
M  V30 1901 H 179.351 1.29967 -0.973775 0
M  V30 1902 H 181.348 4.16583 0.162465 0
M  V30 1903 H 180.008 3.15549 0.765447 0
M  V30 1904 H 181.019 4.41246 -2.7115 0
M  V30 1905 H 177.696 4.17258 -0.142008 0
M  V30 1906 H 179.086 5.40521 -3.99108 0
M  V30 1907 N 181.806 0.884767 1.30421 0
M  V30 1908 C 183.054 0.502112 1.95763 0
M  V30 1909 C 183.375 -0.951815 1.70192 0
M  V30 1910 O 182.645 -1.6692 1.0254 0
M  V30 1911 H 181.225 0.182694 0.724315 0
M  V30 1912 H 183.887 1.1278 1.58955 0
M  V30 1913 H 182.983 0.672188 3.04775 0
M  V30 1914 N 183.284 -1.43765 0.645699 0
M  V30 1915 C 184.561 -1.9541 0.0862963 0
M  V30 1916 C 184.941 -1.58725 -1.39175 0
M  V30 1917 O 184.289 -0.868581 -2.11348 0
M  V30 1918 C 184.499 -3.47488 0.324565 0
M  V30 1919 C 185.847 -4.24001 0.225497 0
M  V30 1920 O 186.871 -3.55274 0.256715 0
M  V30 1921 O 185.73 -5.46313 0.142801 0
M  V30 1922 H 182.824 -0.826882 -0.0139483 0
M  V30 1923 H 185.37 -1.53743 0.718415 0
M  V30 1924 H 184.142 -3.67289 1.3496 0
M  V30 1925 H 183.765 -3.96135 -0.340987 0
M  V30 1926 N 184.763 -0.387143 -1.52771 0
M  V30 1927 C 186.01 0.195735 -2.01552 0
M  V30 1928 C 186.338 1.46995 -1.27369 0
M  V30 1929 O 185.593 1.92325 -0.361879 0
M  V30 1930 C 185.892 0.512209 -3.53711 0
M  V30 1931 C 185.558 -0.670202 -4.45891 0
M  V30 1932 C 184.22 -0.994586 -4.70809 0
M  V30 1933 C 186.572 -1.46134 -5.00294 0
M  V30 1934 C 183.9 -2.11169 -5.4738 0
M  V30 1935 C 186.252 -2.56903 -5.78086 0
M  V30 1936 C 184.916 -2.89852 -6.01284 0
M  V30 1937 H 184.186 0.0716246 -0.73753 0
M  V30 1938 H 186.833 -0.524046 -1.8419 0
M  V30 1939 H 185.138 1.31329 -3.69134 0
M  V30 1940 H 186.835 0.975804 -3.88946 0
M  V30 1941 H 183.425 -0.407366 -4.2666 0
M  V30 1942 H 187.609 -1.22397 -4.80971 0
M  V30 1943 H 182.865 -2.3707 -5.63567 0
M  V30 1944 H 187.039 -3.18608 -6.19243 0
M  V30 1945 H 184.666 -3.76533 -6.60399 0
M  V30 1946 N 186.241 1.57166 -0.116904 0
M  V30 1947 C 187.652 1.82169 0.408809 0
M  V30 1948 C 188.003 1.03393 1.66746 0
M  V30 1949 O 187.128 0.269886 2.1471 0
M  V30 1950 C 187.723 3.30429 0.748466 0
M  V30 1951 C 186.282 3.5612 1.21882 0
M  V30 1952 C 185.429 2.76374 0.226452 0
M  V30 1953 H 188.38 1.5497 -0.342063 0
M  V30 1954 H 188.401 3.44943 1.60607 0
M  V30 1955 H 187.913 3.87737 -0.167784 0
M  V30 1956 H 186.014 3.04168 2.15204 0
M  V30 1957 H 186.127 4.64705 1.16559 0
M  V30 1958 H 184.491 2.44515 0.713063 0
M  V30 1959 H 185.274 3.3644 -0.682859 0
M  V30 1960 N 187.719 -0.156864 1.56817 0
M  V30 1961 C 188.682 -1.17781 1.96622 0
M  V30 1962 C 189.682 -1.36401 0.851555 0
M  V30 1963 O 190.872 -1.33561 1.11836 0
M  V30 1964 C 188.004 -2.54008 2.27361 0
M  V30 1965 H 189.197 -0.836564 2.87996 0
M  V30 1966 H 186.75 -0.39985 1.51099 0
M  V30 1967 H 187.485 -2.9312 1.38748 0
M  V30 1968 H 187.27 -2.41856 3.08623 0
M  V30 1969 H 188.76 -3.27558 2.59029 0
M  V30 1970 N 189.197 -1.51736 -0.425897 0
M  V30 1971 C 190.443 -1.65214 -1.1761 0
M  V30 1972 C 190.776 -0.372778 -1.90589 0
M  V30 1973 O 190.051 0.628139 -1.84078 0
M  V30 1974 C 190.334 -2.86312 -2.18398 0
M  V30 1975 C 190.187 -4.24254 -1.49426 0
M  V30 1976 C 191.506 -3.02925 -3.19256 0
M  V30 1977 H 188.625 -0.601263 -0.426206 0
M  V30 1978 H 191.267 -1.8425 -0.463882 0
M  V30 1979 H 189.417 -2.70213 -2.79137 0
M  V30 1980 H 191.089 -4.52046 -0.919362 0
M  V30 1981 H 189.332 -4.26426 -0.796432 0
M  V30 1982 H 190.003 -5.05001 -2.22885 0
M  V30 1983 H 192.479 -3.1781 -2.68581 0
M  V30 1984 H 191.355 -3.89199 -3.8706 0
M  V30 1985 H 191.616 -2.15497 -3.86023 0
M  V30 1986 N 190.675 0.682077 -1.42076 0
M  V30 1987 C 191.923 1.4393 -1.41876 0
M  V30 1988 C 192.244 1.94971 -0.0335599 0
M  V30 1989 O 191.514 1.72591 0.926773 0
M  V30 1990 H 190.094 0.534085 -0.522267 0
M  V30 1991 H 192.756 0.806427 -1.77434 0
M  V30 1992 H 191.852 2.29588 -2.11414 0
M  V30 1993 N 192.153 1.28127 0.917671 0
M  V30 1994 C 193.43 1.05761 1.64542 0
M  V30 1995 C 193.81 -0.404344 2.07191 0
M  V30 1996 O 193.158 -1.38963 1.81388 0
M  V30 1997 C 193.368 2.02857 2.83989 0
M  V30 1998 C 194.716 2.32786 3.551 0
M  V30 1999 O 195.74 2.0091 2.94132 0
M  V30 2000 O 194.599 2.87169 4.64969 0
M  V30 2001 H 191.693 0.403916 0.721652 0
M  V30 2002 H 194.239 1.39431 0.967322 0
M  V30 2003 H 193.011 3.01407 2.49538 0
M  V30 2004 H 192.634 1.69809 3.59514 0
M  V30 2005 N 193.631 -1.12557 1.10312 0
M  V30 2006 C 194.878 -1.84038 0.844759 0
M  V30 2007 C 195.206 -1.84026 -0.629668 0
M  V30 2008 O 194.461 -1.28026 -1.48013 0
M  V30 2009 C 194.76 -3.31462 1.33669 0
M  V30 2010 C 194.426 -3.51647 2.82232 0
M  V30 2011 C 193.088 -3.56864 3.22802 0
M  V30 2012 C 195.44 -3.58867 3.77974 0
M  V30 2013 C 192.768 -3.66844 4.57867 0
M  V30 2014 C 195.12 -3.70375 5.1284 0
M  V30 2015 C 193.784 -3.73848 5.52986 0
M  V30 2016 H 193.054 -0.673444 0.309119 0
M  V30 2017 H 195.701 -1.32824 1.37949 0
M  V30 2018 H 194.006 -3.85091 0.721949 0
M  V30 2019 H 195.703 -3.85236 1.11329 0
M  V30 2020 H 192.293 -3.48249 2.49842 0
M  V30 2021 H 196.477 -3.54107 3.47738 0
M  V30 2022 H 191.733 -3.67804 4.88396 0
M  V30 2023 H 195.907 -3.74904 5.86873 0
M  V30 2024 H 193.534 -3.81333 6.57639 0
M  V30 2025 N 195.109 -0.891671 -1.2995 0
M  V30 2026 C 196.386 -0.433307 -1.9074 0
M  V30 2027 C 196.766 1.08646 -1.80995 0
M  V30 2028 O 196.114 1.92476 -1.23147 0
M  V30 2029 C 196.324 -0.938895 -3.36134 0
M  V30 2030 C 197.672 -0.977829 -4.13187 0
M  V30 2031 O 198.696 -0.886015 -3.45005 0
M  V30 2032 O 197.555 -1.11453 -5.35015 0
M  V30 2033 H 194.649 -0.133699 -0.816121 0
M  V30 2034 H 197.195 -0.981011 -1.38471 0
M  V30 2035 H 195.967 -1.98281 -3.37343 0
M  V30 2036 H 195.59 -0.37074 -3.95868 0
M  V30 2037 N 196.587 1.43421 -0.653314 0
M  V30 2038 C 197.833 2.02111 -0.166992 0
M  V30 2039 C 198.166 1.51423 1.21592 0
M  V30 2040 O 197.441 0.707389 1.8118 0
M  V30 2041 C 197.724 3.5966 -0.177948 0
M  V30 2042 C 197.577 4.20579 -1.59478 0
M  V30 2043 C 198.896 4.37413 0.4856 0
M  V30 2044 H 196.015 0.734374 -0.0621557 0
M  V30 2045 H 198.657 1.70717 -0.834016 0
M  V30 2046 H 196.807 3.86537 0.390032 0
M  V30 2047 H 198.479 4.04732 -2.21336 0
M  V30 2048 H 196.722 3.77226 -2.14204 0
M  V30 2049 H 197.393 5.29665 -1.5543 0
M  V30 2050 H 199.869 4.161 0.00234528 0
M  V30 2051 H 198.745 5.47075 0.447207 0
M  V30 2052 H 199.006 4.13672 1.55974 0
M  V30 2053 N 198.065 0.39524 1.52563 0
M  V30 2054 C 199.295 -0.184675 2.05773 0
M  V30 2055 C 199.703 -1.40571 1.26635 0
M  V30 2056 O 199.046 -1.81105 0.30769 0
M  V30 2057 C 199.108 -0.613551 3.54226 0
M  V30 2058 C 198.772 0.49484 4.54313 0
M  V30 2059 C 199.769 1.3541 5.01956 0
M  V30 2060 C 197.454 0.663565 4.97898 0
M  V30 2061 C 199.448 2.36716 5.91814 0
M  V30 2062 C 197.135 1.67996 5.87555 0
M  V30 2063 C 198.133 2.53017 6.34406 0
M  V30 2064 O 197.821 3.52917 7.22291 0
M  V30 2065 H 197.553 -0.030077 0.675331 0
M  V30 2066 H 200.107 0.560708 1.97599 0
M  V30 2067 H 198.337 -1.411 3.60038 0
M  V30 2068 H 200.026 -1.11981 3.90148 0
M  V30 2069 H 200.792 1.23509 4.6901 0
M  V30 2070 H 196.671 0.0114913 4.60999 0
M  V30 2071 H 200.215 3.03113 6.28306 0
M  V30 2072 H 196.112 1.79933 6.19915 0
M  V30 2073 H 196.88 3.48996 7.40367 0
M  V30 2074 N 199.544 -1.57102 0.125237 0
M  V30 2075 C 200.821 -1.86953 -0.575142 0
M  V30 2076 C 201.201 -1.02749 -1.84407 0
M  V30 2077 O 200.549 -0.108144 -2.28244 0
M  V30 2078 C 200.759 -3.38198 -0.861583 0
M  V30 2079 C 202.107 -4.06937 -1.21192 0
M  V30 2080 O 203.131 -3.43252 -0.951645 0
M  V30 2081 O 201.99 -5.19364 -1.70068 0
M  V30 2082 H 199.084 -0.774147 -0.290906 0
M  V30 2083 H 201.63 -1.68942 0.160211 0
M  V30 2084 H 200.402 -3.91282 0.0373647 0
M  V30 2085 H 200.025 -3.61661 -1.65188 0
M  V30 2086 N 201.022 0.148545 -1.56898 0
M  V30 2087 C 202.25 0.876389 -1.87422 0
M  V30 2088 C 202.665 1.74809 -0.713256 0
M  V30 2089 O 202.022 1.79725 0.317025 0
M  V30 2090 C 202.073 1.73438 -3.17178 0
M  V30 2091 O 201.794 0.897809 -4.28802 0
M  V30 2092 C 203.295 2.56993 -3.61205 0
M  V30 2093 H 200.515 0.253489 -0.621277 0
M  V30 2094 H 203.059 0.141798 -2.04008 0
M  V30 2095 H 201.214 2.42205 -3.0235 0
M  V30 2096 H 201.628 1.48672 -5.02988 0
M  V30 2097 H 203.102 3.12773 -4.54838 0
M  V30 2098 H 203.579 3.32958 -2.86419 0
M  V30 2099 H 204.185 1.9352 -3.78722 0
M  V30 2100 N 202.5 1.5196 0.417844 0
M  V30 2101 C 203.43 1.77634 1.51554 0
M  V30 2102 C 204.411 0.626918 1.58126 0
M  V30 2103 O 205.596 0.871632 1.7354 0
M  V30 2104 C 202.726 1.91911 2.8946 0
M  V30 2105 C 201.68 3.07463 2.97743 0
M  V30 2106 C 201.006 3.06951 4.37819 0
M  V30 2107 C 202.306 4.47082 2.70027 0
M  V30 2108 H 204 2.6955 1.3032 0
M  V30 2109 H 201.546 1.29706 0.625492 0
M  V30 2110 H 203.499 2.08455 3.6623 0
M  V30 2111 H 202.223 0.966598 3.11969 0
M  V30 2112 H 200.882 2.90656 2.23416 0
M  V30 2113 H 200.53 2.09438 4.57323 0
M  V30 2114 H 200.23 3.84556 4.44286 0
M  V30 2115 H 201.754 3.25613 5.16535 0
M  V30 2116 H 203.168 4.6414 3.36522 0
M  V30 2117 H 201.565 5.2654 2.87881 0
M  V30 2118 H 202.635 4.55777 1.65514 0
M  V30 2119 N 203.978 -0.674533 1.42435 0
M  V30 2120 C 204.926 -1.80934 1.46169 0
M  V30 2121 C 205.92 -1.66006 0.3374 0
M  V30 2122 O 207.126 -1.72611 0.510425 0
M  V30 2123 H 203.501 -0.596594 0.457798 0
M  V30 2124 H 205.472 -1.74903 2.41767 0
M  V30 2125 C 204.221 -3.19088 1.38123 0
M  V30 2126 H 203.544 -3.31203 2.23931 0
M  V30 2127 H 204.984 -3.9851 1.44797 0
M  V30 2128 C 203.443 -3.36763 0.0960517 0
M  V30 2129 O 203.973 -3.92581 -0.851073 0
M  V30 2130 N 202.179 -2.90597 0.0131186 0
M  V30 2131 H 201.726 -2.45359 0.784639 0
M  V30 2132 H 201.684 -3.028 -0.846133 0
M  V30 2133 N 205.456 -1.28612 -0.910864 0
M  V30 2134 C 206.403 -1.12786 -2.01365 0
M  V30 2135 C 207.373 -0.024201 -1.66082 0
M  V30 2136 O 208.558 -0.189667 -1.89855 0
M  V30 2137 C 205.698 -0.798743 -3.35729 0
M  V30 2138 C 204.811 -1.98173 -3.83864 0
M  V30 2139 C 203.946 -1.59298 -5.06752 0
M  V30 2140 C 202.985 -2.74245 -5.47226 0
M  V30 2141 N 202.122 -2.35842 -6.61304 0
M  V30 2142 H 206.962 -2.07142 -2.14234 0
M  V30 2143 H 204.499 -1.03093 -1.0493 0
M  V30 2144 H 206.457 -0.588662 -4.13026 0
M  V30 2145 H 205.087 0.10789 -3.2262 0
M  V30 2146 H 204.139 -2.30386 -3.02699 0
M  V30 2147 H 205.451 -2.84343 -4.09818 0
M  V30 2148 H 204.605 -1.34513 -5.916 0
M  V30 2149 H 203.344 -0.702618 -4.82612 0
M  V30 2150 H 202.349 -2.99725 -4.60918 0
M  V30 2151 H 203.574 -3.63928 -5.73353 0
M  V30 2152 H 201.52 -1.49279 -6.38789 0
M  V30 2153 H 201.437 -3.15546 -6.86998 0
M  V30 2154 H 202.705 -2.14348 -7.4945 0
M  V30 2155 N 206.934 1.1197 -1.10907 0
M  V30 2156 C 208.174 1.85224 -0.864378 0
M  V30 2157 C 208.538 1.82411 0.599178 0
M  V30 2158 O 209.739 2.51057 0.960416 0
M  V30 2159 C 208.01 3.2868 -1.40371 0
M  V30 2160 S 209.569 4.1925 -1.29518 0
M  V30 2161 H 206.387 0.63878 -0.312219 0
M  V30 2162 H 208.989 1.3485 -1.41548 0
M  V30 2163 H 207.693 3.28289 -2.46281 0
M  V30 2164 H 207.224 3.84121 -0.849402 0
M  V30 2165 H 209.239 4.95539 -0.256059 0
M  V30 2166 N 208.412 0.89855 1.29475 0
M  V30 2167 C 209.375 0.380272 2.26023 0
M  V30 2168 C 210.375 -0.484891 1.53315 0
M  V30 2169 O 211.565 -0.290108 1.71767 0
M  V30 2170 C 208.697 -0.45651 3.3783 0
M  V30 2171 H 209.89 1.23295 2.73383 0
M  V30 2172 H 207.443 0.676589 1.40897 0
M  V30 2173 H 208.178 -1.32922 2.95808 0
M  V30 2174 H 207.963 0.163393 3.91759 0
M  V30 2175 H 209.453 -0.810466 4.0966 0
M  V30 2176 N 209.89 -1.43072 0.660911 0
M  V30 2177 C 210.822 -2.29108 -0.0647641 0
M  V30 2178 C 211.835 -1.42928 -0.779448 0
M  V30 2179 O 213.024 -1.66788 -0.635921 0
M  V30 2180 C 210.124 -3.20032 -1.11503 0
M  V30 2181 C 209.297 -4.34792 -0.476955 0
M  V30 2182 C 208.356 -5.06534 -1.42513 0
M  V30 2183 O 207.382 -5.61538 -0.930771 0
M  V30 2184 N 208.584 -5.1075 -2.75889 0
M  V30 2185 H 211.349 -2.92029 0.673731 0
M  V30 2186 H 208.91 -1.53846 0.50427 0
M  V30 2187 H 210.902 -3.64892 -1.75032 0
M  V30 2188 H 209.472 -2.58658 -1.75541 0
M  V30 2189 H 208.692 -3.92752 0.337572 0
M  V30 2190 H 209.98 -5.0879 -0.0318525 0
M  V30 2191 H 209.378 -4.67447 -3.18606 0
M  V30 2192 H 207.935 -5.59302 -3.347 0
M  V30 2193 N 211.368 -0.403325 -1.52352 0
M  V30 2194 C 212.278 0.432009 -2.30588 0
M  V30 2195 C 213.294 1.05884 -1.38075 0
M  V30 2196 O 214.47 1.06161 -1.71148 0
M  V30 2197 C 211.535 1.53669 -3.10784 0
M  V30 2198 C 210.596 0.933525 -4.19027 0
M  V30 2199 C 209.829 1.98557 -4.9539 0
M  V30 2200 O 210.052 3.20283 -4.71991 0
M  V30 2201 O 208.986 1.59504 -5.80381 0
M  V30 2202 H 212.812 -0.205739 -3.03002 0
M  V30 2203 H 210.397 -0.166675 -1.48467 0
M  V30 2204 H 212.279 2.17814 -3.60742 0
M  V30 2205 H 210.954 2.15915 -2.41169 0
M  V30 2206 H 209.861 0.254954 -3.7323 0
M  V30 2207 H 211.194 0.35508 -4.90918 0
M  V30 2208 N 212.846 1.57033 -0.133567 0
M  V30 2209 C 213.776 2.1909 0.807567 0
M  V30 2210 C 214.757 1.13517 1.26681 0
M  V30 2211 O 215.942 1.41809 1.32679 0
M  V30 2212 C 213.072 2.80188 2.05212 0
M  V30 2213 C 212.026 3.91471 1.73015 0
M  V30 2214 C 211.352 4.39443 3.04622 0
M  V30 2215 C 212.652 5.12886 0.987168 0
M  V30 2216 H 214.346 2.97988 0.290403 0
M  V30 2217 H 211.892 1.43335 0.138239 0
M  V30 2218 H 213.845 3.22264 2.71521 0
M  V30 2219 H 212.569 1.98601 2.59278 0
M  V30 2220 H 211.228 3.49993 1.0909 0
M  V30 2221 H 210.876 3.54695 3.56651 0
M  V30 2222 H 210.576 5.14495 2.83847 0
M  V30 2223 H 212.1 4.8418 3.72024 0
M  V30 2224 H 213.514 5.51891 1.55208 0
M  V30 2225 H 211.911 5.93615 0.87985 0
M  V30 2226 H 212.981 4.84894 -0.0235286 0
M  V30 2227 N 214.325 -0.140222 1.56975 0
M  V30 2228 C 215.273 -1.19207 1.99731 0
M  V30 2229 C 216.267 -1.44089 0.890777 0
M  V30 2230 O 217.473 -1.44301 1.07597 0
M  V30 2231 H 213.848 -0.40142 0.635898 0
M  V30 2232 H 215.819 -0.804813 2.87342 0
M  V30 2233 C 214.568 -2.51617 2.39967 0
M  V30 2234 H 213.891 -2.33303 3.24669 0
M  V30 2235 H 215.331 -3.23827 2.73701 0
M  V30 2236 C 213.79 -3.12654 1.25496 0
M  V30 2237 O 214.32 -3.97786 0.559371 0
M  V30 2238 N 212.526 -2.72206 1.01746 0
M  V30 2239 H 212.073 -2.03074 1.58489 0
M  V30 2240 H 212.031 -3.13377 0.253461 0
M  V30 2241 N 215.803 -1.52179 -0.40978 0
M  V30 2242 C 217.049 -1.66453 -1.15851 0
M  V30 2243 C 217.382 -0.392972 -1.90182 0
M  V30 2244 O 216.657 0.608579 -1.84734 0
M  V30 2245 C 216.94 -2.88612 -2.15349 0
M  V30 2246 C 216.793 -4.25815 -1.44918 0
M  V30 2247 C 218.112 -3.06294 -3.16026 0
M  V30 2248 H 215.231 -0.60575 -0.419805 0
M  V30 2249 H 217.873 -1.84732 -0.444314 0
M  V30 2250 H 216.023 -2.73158 -2.76255 0
M  V30 2251 H 217.695 -4.52995 -0.871365 0
M  V30 2252 H 215.938 -4.27247 -0.751159 0
M  V30 2253 H 216.609 -5.07337 -2.17516 0
M  V30 2254 H 219.085 -3.20641 -2.65195 0
M  V30 2255 H 217.961 -3.93283 -3.8291 0
M  V30 2256 H 218.222 -2.19579 -3.83715 0
M  V30 2257 N 217.281 0.66697 -1.42791 0
M  V30 2258 C 218.692 1.2478 -1.38877 0
M  V30 2259 C 219.043 1.96012 -0.0859426 0
M  V30 2260 O 218.168 2.00463 0.815081 0
M  V30 2261 C 218.763 2.26938 -2.51564 0
M  V30 2262 C 217.322 2.80529 -2.50959 0
M  V30 2263 C 216.469 1.54965 -2.29959 0
M  V30 2264 H 219.42 0.459853 -1.51892 0
M  V30 2265 H 219.441 3.08834 -2.22265 0
M  V30 2266 H 218.953 1.75065 -3.46372 0
M  V30 2267 H 217.054 3.36502 -1.59991 0
M  V30 2268 H 217.167 3.29012 -3.48265 0
M  V30 2269 H 215.531 1.81817 -1.78366 0
M  V30 2270 H 216.314 1.05047 -3.26833 0
M  V30 2271 N 218.759 1.29093 0.90403 0
M  V30 2272 C 220.005 1.16986 1.65656 0
M  V30 2273 C 220.338 -0.278925 1.92186 0
M  V30 2274 O 219.613 -1.2019 1.5292 0
M  V30 2275 C 219.896 1.97908 3.0084 0
M  V30 2276 C 219.749 3.50903 2.81403 0
M  V30 2277 C 221.068 1.80208 4.01513 0
M  V30 2278 H 218.187 0.426346 0.601164 0
M  V30 2279 H 220.829 1.58518 1.04747 0
M  V30 2280 H 218.979 1.62616 3.52829 0
M  V30 2281 H 220.651 3.96153 2.36348 0
M  V30 2282 H 218.894 3.76045 2.1627 0
M  V30 2283 H 219.565 4.02791 3.77443 0
M  V30 2284 H 222.041 2.11025 3.58619 0
M  V30 2285 H 220.917 2.39184 4.94047 0
M  V30 2286 H 221.178 0.756119 4.35586 0
M  V30 2287 N 220.237 -1.11381 1.11499 0
M  V30 2288 C 221.484 -1.83132 0.864231 0
M  V30 2289 C 221.812 -1.84683 -0.610114 0
M  V30 2290 O 221.067 -1.29589 -1.46646 0
M  V30 2291 C 221.366 -3.30026 1.37177 0
M  V30 2292 C 221.032 -3.48634 2.85946 0
M  V30 2293 C 219.694 -3.53421 3.26569 0
M  V30 2294 C 222.046 -3.54837 3.81759 0
M  V30 2295 C 219.374 -3.61967 4.61733 0
M  V30 2296 C 221.726 -3.64915 5.1674 0
M  V30 2297 C 220.39 -3.67962 5.5692 0
M  V30 2298 H 219.66 -0.670127 0.316245 0
M  V30 2299 H 222.307 -1.31354 1.3935 0
M  V30 2300 H 220.612 -3.84304 0.762753 0
M  V30 2301 H 222.309 -3.84034 1.15408 0
M  V30 2302 H 218.899 -3.45579 2.53521 0
M  V30 2303 H 223.083 -3.50399 3.51474 0
M  V30 2304 H 218.339 -3.62603 4.92269 0
M  V30 2305 H 222.513 -3.68658 5.90816 0
M  V30 2306 H 220.14 -3.74336 6.61647 0
M  V30 2307 N 221.715 -0.905404 -1.28997 0
M  V30 2308 C 222.663 -0.377431 -2.29517 0
M  V30 2309 C 223.657 0.526461 -1.61012 0
M  V30 2310 O 224.863 0.40863 -1.753 0
M  V30 2311 H 221.238 -0.103437 -0.744852 0
M  V30 2312 H 223.209 -1.23848 -2.71485 0
M  V30 2313 C 221.958 0.374833 -3.45674 0
M  V30 2314 H 221.281 -0.311474 -3.98585 0
M  V30 2315 H 222.721 0.70903 -4.1803 0
M  V30 2316 C 221.18 1.57963 -2.97572 0
M  V30 2317 O 221.71 2.67886 -2.99333 0
M  V30 2318 N 219.916 1.42375 -2.53333 0
M  V30 2319 H 219.463 0.529466 -2.521 0
M  V30 2320 H 219.421 2.23117 -2.21509 0
M  V30 2321 N 223.193 1.4272 -0.668489 0
M  V30 2322 C 224.441 2.01226 -0.187769 0
M  V30 2323 C 224.762 1.53092 1.2078 0
M  V30 2324 O 224.032 0.74993 1.80977 0
M  V30 2325 H 222.612 0.744041 -0.0664272 0
M  V30 2326 H 225.274 1.74723 -0.863583 0
M  V30 2327 H 224.37 3.11556 -0.184166 0
M  V30 2328 N 224.671 0.411399 1.52136 0
M  V30 2329 C 225.92 -0.165009 2.01024 0
M  V30 2330 C 226.233 -1.4603 1.30133 0
M  V30 2331 O 227.439 -2.1181 1.69849 0
M  V30 2332 C 225.895 -0.344618 3.58246 0
M  V30 2333 C 225.503 0.938716 4.38055 0
M  V30 2334 C 227.247 -0.876195 4.15359 0
M  V30 2335 C 225.154 0.726172 5.86925 0
M  V30 2336 H 224.084 -0.0654407 0.751155 0
M  V30 2337 H 226.735 0.537192 1.75461 0
M  V30 2338 H 225.117 -1.10921 3.80148 0
M  V30 2339 H 226.291 1.70963 4.27912 0
M  V30 2340 H 224.606 1.39688 3.92271 0
M  V30 2341 H 227.203 -1.05128 5.24263 0
M  V30 2342 H 227.546 -1.85152 3.7286 0
M  V30 2343 H 228.079 -0.170607 3.97434 0
M  V30 2344 H 224.818 1.67312 6.33788 0
M  V30 2345 H 224.338 -0.00540283 5.998 0
M  V30 2346 H 226.017 0.369231 6.45946 0
M  V30 2347 N 226.149 -1.5696 0.141893 0
M  V30 2348 C 227.374 -2.00754 -0.520838 0
M  V30 2349 C 227.799 -1.0213 -1.57959 0
M  V30 2350 O 227.157 0.00371324 -1.813 0
M  V30 2351 C 227.205 -3.43318 -1.10294 0
M  V30 2352 O 226.309 -3.47679 -2.21795 0
M  V30 2353 H 225.65 -0.651564 -0.127908 0
M  V30 2354 H 228.18 -2.03221 0.23712 0
M  V30 2355 H 228.19 -3.82012 -1.43287 0
M  V30 2356 H 226.865 -4.14608 -0.327574 0
M  V30 2357 H 225.442 -3.20824 -1.9007 0
M  V30 2358 N 227.627 0.131896 -1.57047 0
M  V30 2359 C 228.873 0.843179 -1.84441 0
M  V30 2360 C 229.206 1.80129 -0.725749 0
M  V30 2361 O 228.481 1.92624 0.269469 0
M  V30 2362 C 228.764 1.60442 -3.22382 0
M  V30 2363 C 228.617 0.666782 -4.4483 0
M  V30 2364 C 229.936 2.56354 -3.5773 0
M  V30 2365 H 227.055 0.305081 -0.670891 0
M  V30 2366 H 229.697 0.107839 -1.89694 0
M  V30 2367 H 227.847 2.23128 -3.18035 0
M  V30 2368 H 229.519 0.0497646 -4.61273 0
M  V30 2369 H 227.762 -0.022609 -4.33794 0
M  V30 2370 H 228.433 1.23579 -5.37989 0
M  V30 2371 H 230.909 2.0378 -3.62785 0
M  V30 2372 H 229.785 3.06657 -4.5525 0
M  V30 2373 H 230.046 3.38419 -2.84473 0
M  V30 2374 N 229.106 1.52395 0.401703 0
M  V30 2375 C 230.331 1.70972 1.17403 0
M  V30 2376 C 230.756 0.421615 1.83314 0
M  V30 2377 O 230.114 -0.621564 1.70312 0
M  V30 2378 C 230.162 2.85151 2.20728 0
M  V30 2379 O 229.266 2.51238 3.27037 0
M  V30 2380 H 228.607 0.568927 0.342372 0
M  V30 2381 H 231.137 1.99131 0.469891 0
M  V30 2382 H 231.147 3.10279 2.64936 0
M  V30 2383 H 229.822 3.78603 1.7214 0
M  V30 2384 H 228.399 2.36808 2.88057 0
M  V30 2385 N 230.584 -0.659388 1.43143 0
M  V30 2386 C 231.809 -1.45221 1.48073 0
M  V30 2387 C 232.234 -1.87845 0.097995 0
M  V30 2388 O 231.592 -1.56985 -0.90694 0
M  V30 2389 C 231.64 -2.66748 2.42647 0
M  V30 2390 O 230.744 -3.65583 1.90848 0
M  V30 2391 H 230.085 -0.435669 0.501088 0
M  V30 2392 H 232.615 -0.807432 1.87994 0
M  V30 2393 H 232.625 -3.14637 2.59745 0
M  V30 2394 H 231.3 -2.35067 3.43098 0
M  V30 2395 H 229.877 -3.24693 1.83381 0
M  V30 2396 N 232.062 -1.29571 -0.897171 0
M  V30 2397 C 233.339 -1.08365 -1.62839 0
M  V30 2398 C 233.719 0.371331 -2.07808 0
M  V30 2399 O 233.067 1.3606 -1.83576 0
M  V30 2400 C 233.277 -2.0735 -2.80726 0
M  V30 2401 C 234.625 -2.38406 -3.51351 0
M  V30 2402 O 235.649 -2.05564 -2.90898 0
M  V30 2403 O 234.508 -2.9453 -4.60341 0
M  V30 2404 H 231.602 -0.415345 -0.715134 0
M  V30 2405 H 234.148 -1.40952 -0.945018 0
M  V30 2406 H 232.92 -3.05339 -2.44711 0
M  V30 2407 H 232.543 -1.75507 -3.56767 0
M  V30 2408 N 233.54 1.10788 -1.12088 0
M  V30 2409 C 234.473 2.16237 -0.729168 0
M  V30 2410 C 235.451 1.60207 0.277921 0
M  V30 2411 O 236.635 1.87707 0.172737 0
M  V30 2412 C 233.762 3.38609 -0.0786848 0
M  V30 2413 C 232.808 4.13322 -1.05201 0
M  V30 2414 S 233.641 4.69371 -2.57781 0
M  V30 2415 C 234.797 5.95058 -1.94053 0
M  V30 2416 H 235.03 2.4913 -1.62239 0
M  V30 2417 H 232.563 1.22519 -0.939603 0
M  V30 2418 H 234.521 4.09473 0.290254 0
M  V30 2419 H 233.182 3.03962 0.791593 0
M  V30 2420 H 232.375 5.01051 -0.544433 0
M  V30 2421 H 231.977 3.48251 -1.36371 0
M  V30 2422 H 234.269 6.65278 -1.28107 0
M  V30 2423 H 235.212 6.50472 -2.79807 0
M  V30 2424 H 235.62 5.46918 -1.39787 0
M  V30 2425 N 235.018 0.912232 1.28515 0
M  V30 2426 C 236.248 0.559604 1.98877 0
M  V30 2427 C 236.656 -0.863113 1.68366 0
M  V30 2428 O 235.999 -1.58304 0.931969 0
M  V30 2429 C 236.061 0.68703 3.52874 0
M  V30 2430 C 235.725 2.07901 4.06972 0
M  V30 2431 C 236.722 3.05157 4.20922 0
M  V30 2432 C 234.407 2.39178 4.417 0
M  V30 2433 C 236.401 4.31806 4.68852 0
M  V30 2434 C 234.088 3.66068 4.89324 0
M  V30 2435 C 235.086 4.62195 5.02856 0
M  V30 2436 O 234.774 5.86829 5.49442 0
M  V30 2437 H 234.506 0.212191 0.641834 0
M  V30 2438 H 237.06 1.22712 1.64715 0
M  V30 2439 H 235.29 -0.0375486 3.86682 0
M  V30 2440 H 236.979 0.341727 4.04459 0
M  V30 2441 H 237.745 2.82311 3.94367 0
M  V30 2442 H 233.624 1.65109 4.30418 0
M  V30 2443 H 237.168 5.06842 4.79329 0
M  V30 2444 H 233.065 3.88739 5.15318 0
M  V30 2445 H 233.833 5.89597 5.6773 0
M  V30 2446 N 236.496 -1.42363 0.676048 0
M  V30 2447 C 237.726 -2.05561 0.206967 0
M  V30 2448 C 238.134 -1.50887 -1.14148 0
M  V30 2449 O 237.477 -0.643933 -1.72044 0
M  V30 2450 C 237.539 -3.5944 0.0659508 0
M  V30 2451 C 237.203 -4.36812 1.34331 0
M  V30 2452 C 238.2 -4.67383 2.27704 0
M  V30 2453 C 235.885 -4.76429 1.59125 0
M  V30 2454 C 237.879 -5.36509 3.44147 0
M  V30 2455 C 235.566 -5.45294 2.75857 0
M  V30 2456 C 236.564 -5.75259 3.68193 0
M  V30 2457 O 236.252 -6.42712 4.82883 0
M  V30 2458 H 235.984 -0.668872 0.0979084 0
M  V30 2459 H 238.538 -1.83467 0.923531 0
M  V30 2460 H 236.768 -3.80197 -0.706204 0
M  V30 2461 H 238.457 -4.0427 -0.363418 0
M  V30 2462 H 239.223 -4.37275 2.09799 0
M  V30 2463 H 235.102 -4.52498 0.881258 0
M  V30 2464 H 238.646 -5.59814 4.16238 0
M  V30 2465 H 234.543 -5.7482 2.93688 0
M  V30 2466 H 235.311 -6.61204 4.82444 0
M  V30 2467 N 237.974 -0.419461 -1.51915 0
M  V30 2468 C 239.385 0.0477853 -1.86639 0
M  V30 2469 C 239.736 1.43531 -1.33766 0
M  V30 2470 O 238.861 2.05401 -0.68113 0
M  V30 2471 C 239.456 0.0934885 -3.38671 0
M  V30 2472 C 238.015 0.505097 -3.72996 0
M  V30 2473 C 237.162 -0.313792 -2.75519 0
M  V30 2474 H 240.113 -0.636088 -1.45395 0
M  V30 2475 H 240.134 0.906667 -3.6954 0
M  V30 2476 H 239.646 -0.916501 -3.77123 0
M  V30 2477 H 237.747 1.52135 -3.40126 0
M  V30 2478 H 237.86 0.242309 -4.78487 0
M  V30 2479 H 236.224 0.225363 -2.53701 0
M  V30 2480 H 237.007 -1.32232 -3.16812 0
M  V30 2481 N 239.452 1.56882 -0.150215 0
M  V30 2482 C 240.4 2.18214 0.805313 0
M  V30 2483 C 241.394 1.14006 1.25296 0
M  V30 2484 O 242.6 1.3225 1.22107 0
M  V30 2485 H 238.975 0.698762 0.277913 0
M  V30 2486 H 240.946 2.97231 0.263862 0
M  V30 2487 C 239.695 2.82065 2.03309 0
M  V30 2488 H 239.018 3.61968 1.69763 0
M  V30 2489 H 240.458 3.28477 2.68103 0
M  V30 2490 C 238.917 1.80739 2.84315 0
M  V30 2491 O 239.447 1.27983 3.80767 0
M  V30 2492 N 237.653 1.4997 2.48913 0
M  V30 2493 H 237.2 1.93062 1.70542 0
M  V30 2494 H 237.158 0.824217 3.03404 0
M  V30 2495 N 240.93 -0.123565 1.57115 0
M  V30 2496 C 241.877 -1.15177 2.00007 0
M  V30 2497 C 242.847 -1.41403 0.871454 0
M  V30 2498 O 244.032 -1.53346 1.13533 0
M  V30 2499 C 241.172 -2.47436 2.40561 0
M  V30 2500 C 240.285 -2.28184 3.66819 0
M  V30 2501 C 239.42 -3.53641 3.96373 0
M  V30 2502 C 238.459 -3.29528 5.15827 0
M  V30 2503 N 237.596 -4.47175 5.41275 0
M  V30 2504 H 242.436 -0.779008 2.87638 0
M  V30 2505 H 239.973 -0.373166 1.42288 0
M  V30 2506 H 241.931 -3.24584 2.62109 0
M  V30 2507 H 240.561 -2.82614 1.55978 0
M  V30 2508 H 239.613 -1.41976 3.52912 0
M  V30 2509 H 240.925 -2.0634 4.5412 0
M  V30 2510 H 240.079 -4.39209 4.18545 0
M  V30 2511 H 238.818 -3.78512 3.07538 0
M  V30 2512 H 237.823 -2.42349 4.93505 0
M  V30 2513 H 239.048 -3.06031 6.06236 0
M  V30 2514 H 236.994 -4.72175 4.55397 0
M  V30 2515 H 236.911 -4.28419 6.22891 0
M  V30 2516 H 238.179 -5.3389 5.67963 0
M  V30 2517 N 242.408 -1.52605 -0.393616 0
M  V30 2518 C 243.657 -1.66649 -1.13627 0
M  V30 2519 C 243.97 -0.410364 -1.91247 0
M  V30 2520 O 245.176 -0.430854 -2.68059 0
M  V30 2521 C 243.632 -2.9449 -2.06891 0
M  V30 2522 C 243.24 -4.27266 -1.34714 0
M  V30 2523 C 244.984 -3.17899 -2.81319 0
M  V30 2524 C 242.891 -5.46217 -2.26717 0
M  V30 2525 H 241.821 -0.62084 -0.427871 0
M  V30 2526 H 244.472 -1.791 -0.399428 0
M  V30 2527 H 242.854 -2.75774 -2.84191 0
M  V30 2528 H 244.028 -4.56518 -0.626714 0
M  V30 2529 H 242.343 -4.10081 -0.722643 0
M  V30 2530 H 244.94 -4.03949 -3.50328 0
M  V30 2531 H 245.283 -2.32777 -3.45139 0
M  V30 2532 H 245.816 -3.37159 -2.11113 0
M  V30 2533 H 242.555 -6.33733 -1.67521 0
M  V30 2534 H 242.075 -5.21283 -2.96689 0
M  V30 2535 H 243.754 -5.7991 -2.86903 0
M  V30 2536 N 243.887 0.651787 -1.4349 0
M  V30 2537 C 245.136 1.40754 -1.44469 0
M  V30 2538 C 245.449 1.95463 -0.0731845 0
M  V30 2539 O 246.655 2.71471 0.0395721 0
M  V30 2540 C 245.111 2.54735 -2.5424 0
M  V30 2541 C 244.719 2.06628 -3.97504 0
M  V30 2542 C 246.463 3.32092 -2.64414 0
M  V30 2543 C 244.37 3.17829 -4.98737 0
M  V30 2544 H 243.3 0.528862 -0.53742 0
M  V30 2545 H 245.951 0.703365 -1.69485 0
M  V30 2546 H 244.333 3.2763 -2.22428 0
M  V30 2547 H 245.507 1.40734 -4.38783 0
M  V30 2548 H 243.822 1.42146 -3.91387 0
M  V30 2549 H 246.419 4.14952 -3.37223 0
M  V30 2550 H 246.762 3.80217 -1.69532 0
M  V30 2551 H 247.295 2.66279 -2.95534 0
M  V30 2552 H 244.034 2.74671 -5.95177 0
M  V30 2553 H 243.554 3.82429 -4.62069 0
M  V30 2554 H 245.233 3.82937 -5.21505 0
M  V30 2555 N 245.365 1.30045 0.890287 0
M  V30 2556 C 246.776 1.16738 1.45702 0
M  V30 2557 C 247.127 -0.233939 1.948 0
M  V30 2558 O 246.252 -1.13021 1.84541 0
M  V30 2559 C 246.847 2.11313 2.64825 0
M  V30 2560 C 245.406 2.02001 3.17604 0
M  V30 2561 C 244.553 2.01699 1.90296 0
M  V30 2562 H 247.504 1.42392 0.700726 0
M  V30 2563 H 247.525 1.69086 3.40867 0
M  V30 2564 H 247.037 3.13294 2.2906 0
M  V30 2565 H 245.138 1.03142 3.5804 0
M  V30 2566 H 245.251 2.90128 3.81264 0
M  V30 2567 H 243.615 1.46427 2.08402 0
M  V30 2568 H 244.398 3.05402 1.56795 0
M  V30 2569 N 246.843 -1.10192 1.12674 0
M  V30 2570 C 248.068 -1.86523 0.906853 0
M  V30 2571 C 248.493 -1.80221 -0.538711 0
M  V30 2572 O 247.851 -1.17396 -1.38158 0
M  V30 2573 C 247.899 -3.32758 1.3894 0
M  V30 2574 O 247.003 -4.08449 0.5695 0
M  V30 2575 H 246.344 -0.578678 0.325619 0
M  V30 2576 H 248.874 -1.39203 1.49946 0
M  V30 2577 H 248.884 -3.83608 1.38958 0
M  V30 2578 H 247.559 -3.36661 2.44197 0
M  V30 2579 H 246.136 -3.67427 0.636528 0
M  V30 2580 N 248.321 -0.919034 -1.28029 0
M  V30 2581 C 249.737 -0.617972 -1.4715 0
M  V30 2582 C 249.937 0.835242 -1.83374 0
M  V30 2583 O 248.993 1.61388 -1.94191 0
M  V30 2584 C 250.306 -1.56041 -2.57044 0
M  V30 2585 C 251.854 -1.56769 -2.7091 0
M  V30 2586 C 252.329 -2.49688 -3.83953 0
M  V30 2587 N 253.82 -2.47845 -3.91314 0
M  V30 2588 C 254.555 -3.16437 -4.78179 0
M  V30 2589 N 254.051 -3.94376 -5.69596 0
M  V30 2590 N 255.844 -3.05498 -4.71834 0
M  V30 2591 H 247.995 -1.85866 -1.02798 0
M  V30 2592 H 250.258 -0.797506 -0.512531 0
M  V30 2593 H 249.964 -2.59671 -2.372 0
M  V30 2594 H 249.838 -1.29551 -3.54255 0
M  V30 2595 H 252.225 -0.538745 -2.90141 0
M  V30 2596 H 252.306 -1.87305 -1.74214 0
M  V30 2597 H 251.95 -3.52688 -3.65477 0
M  V30 2598 H 251.88 -2.16453 -4.80058 0
M  V30 2599 H 254.371 -1.91234 -3.25941 0
M  V30 2600 H 254.684 -4.43721 -6.32718 0
M  V30 2601 H 253.029 -3.98481 -5.69419 0
M  V30 2602 H 256.22 -2.44108 -3.99411 0
M  V30 2603 H 256.393 -3.59225 -5.39316 0
M  V30 2604 N 249.799 1.42003 -0.683588 0
M  V30 2605 C 250.729 2.33487 -0.024866 0
M  V30 2606 C 251.71 1.51163 0.779975 0
M  V30 2607 O 252.895 1.79739 0.735362 0
M  V30 2608 C 250.025 3.3487 0.920836 0
M  V30 2609 C 248.979 4.27414 0.223958 0
M  V30 2610 C 248.305 5.19074 1.2832 0
M  V30 2611 C 249.605 5.14445 -0.90242 0
M  V30 2612 H 251.299 2.88819 -0.788921 0
M  V30 2613 H 248.845 1.38873 -0.38083 0
M  V30 2614 H 250.798 3.97787 1.39081 0
M  V30 2615 H 249.522 2.77861 1.71642 0
M  V30 2616 H 248.181 3.65904 -0.225864 0
M  V30 2617 H 247.829 4.58387 2.071 0
M  V30 2618 H 247.529 5.81822 0.821995 0
M  V30 2619 H 249.053 5.84867 1.75392 0
M  V30 2620 H 250.467 5.70998 -0.513272 0
M  V30 2621 H 248.864 5.86072 -1.28997 0
M  V30 2622 H 249.934 4.52322 -1.74737 0
M  V30 2623 N 251.277 0.427512 1.51691 0
M  V30 2624 C 252.187 -0.39527 2.31246 0
M  V30 2625 C 253.203 -1.03674 1.39742 0
M  V30 2626 O 254.379 -1.03425 1.72816 0
M  V30 2627 C 251.444 -1.48706 3.13189 0
M  V30 2628 C 250.505 -0.866743 4.20459 0
M  V30 2629 C 249.738 -1.90651 4.98486 0
M  V30 2630 O 249.961 -3.12733 4.77026 0
M  V30 2631 O 248.895 -1.5025 5.82845 0
M  V30 2632 H 252.721 0.253918 3.02637 0
M  V30 2633 H 250.306 0.190274 1.48183 0
M  V30 2634 H 252.188 -2.12047 3.64162 0
M  V30 2635 H 250.863 -2.12051 2.44573 0
M  V30 2636 H 249.77 -0.195544 3.73589 0
M  V30 2637 H 251.103 -0.276934 4.9142 0
M  V30 2638 N 252.755 -1.56801 0.158532 0
M  V30 2639 C 254.032 -1.88131 -0.535357 0
M  V30 2640 C 254.412 -1.06638 -1.82186 0
M  V30 2641 O 253.76 -0.156533 -2.27963 0
M  V30 2642 C 253.97 -3.39949 -0.789653 0
M  V30 2643 C 255.318 -4.09416 -1.12533 0
M  V30 2644 O 256.342 -3.45194 -0.878622 0
M  V30 2645 O 255.201 -5.22855 -1.59014 0
M  V30 2646 H 252.295 -0.780143 -0.27442 0
M  V30 2647 H 254.841 -1.68564 0.19601 0
M  V30 2648 H 253.613 -3.91115 0.120353 0
M  V30 2649 H 253.236 -3.65084 -1.57479 0
M  V30 2650 N 254.233 0.115231 -1.57178 0
M  V30 2651 C 255.463 0.835224 -1.88964 0
M  V30 2652 C 255.871 1.73774 -0.74829 0
M  V30 2653 O 255.214 1.81401 0.289739 0
M  V30 2654 C 255.276 1.7178 -3.15804 0
M  V30 2655 C 254.94 0.989198 -4.46166 0
M  V30 2656 C 255.937 0.328263 -5.18863 0
M  V30 2657 C 253.622 0.969256 -4.9286 0
M  V30 2658 C 255.616 -0.342873 -6.36477 0
M  V30 2659 C 253.303 0.294324 -6.10391 0
M  V30 2660 C 254.301 -0.360582 -6.82048 0
M  V30 2661 O 253.989 -1.02474 -7.97342 0
M  V30 2662 H 253.721 0.245197 -0.629964 0
M  V30 2663 H 256.275 0.10303 -2.05141 0
M  V30 2664 H 254.505 2.49173 -2.95719 0
M  V30 2665 H 256.194 2.31255 -3.33581 0
M  V30 2666 H 256.96 0.335263 -4.8384 0
M  V30 2667 H 252.839 1.46844 -4.36987 0
M  V30 2668 H 256.383 -0.854629 -6.92345 0
M  V30 2669 H 252.28 0.285099 -6.4487 0
M  V30 2670 H 253.048 -0.929594 -8.13204 0
M  V30 2671 N 255.711 1.52812 0.385517 0
M  V30 2672 C 256.936 1.72207 1.15583 0
M  V30 2673 C 257.361 0.441034 1.82857 0
M  V30 2674 O 256.719 -0.603465 1.70962 0
M  V30 2675 C 256.767 2.87476 2.17692 0
M  V30 2676 O 255.871 2.54693 3.24354 0
M  V30 2677 H 255.212 0.572526 0.336319 0
M  V30 2678 H 257.742 1.99618 0.448744 0
M  V30 2679 H 257.752 3.13072 2.6163 0
M  V30 2680 H 256.427 3.80408 1.68115 0
M  V30 2681 H 255.004 2.3985 2.85529 0
M  V30 2682 N 257.189 -0.644168 1.43834 0
M  V30 2683 C 258.136 -1.75671 1.49694 0
M  V30 2684 C 259.106 -1.6246 0.345809 0
M  V30 2685 O 260.291 -1.82573 0.554234 0
M  V30 2686 C 257.431 -3.13867 1.43463 0
M  V30 2687 C 256.544 -3.38147 2.6885 0
M  V30 2688 C 255.679 -4.66241 2.54544 0
M  V30 2689 C 254.718 -4.83657 3.75157 0
M  V30 2690 N 253.855 -6.03016 3.59605 0
M  V30 2691 H 258.695 -1.69998 2.44754 0
M  V30 2692 H 256.232 -0.829458 1.21484 0
M  V30 2693 H 258.19 -3.9377 1.37843 0
M  V30 2694 H 256.82 -3.18588 0.519783 0
M  V30 2695 H 255.872 -2.52276 2.84712 0
M  V30 2696 H 257.184 -3.46899 3.58417 0
M  V30 2697 H 256.338 -5.54285 2.46683 0
M  V30 2698 H 255.077 -4.59826 1.62516 0
M  V30 2699 H 254.082 -3.94046 3.83416 0
M  V30 2700 H 255.307 -4.91896 4.68204 0
M  V30 2701 H 253.253 -5.97715 2.7032 0
M  V30 2702 H 253.17 -6.12766 4.42779 0
M  V30 2703 H 254.438 -6.93657 3.55613 0
M  V30 2704 N 258.668 -1.30515 -0.883378 0
M  V30 2705 C 259.631 -1.1701 -1.97082 0
M  V30 2706 C 260.631 -0.10089 -1.60483 0
M  V30 2707 O 261.821 -0.349127 -1.70666 0
M  V30 2708 C 258.953 -0.793045 -3.31547 0
M  V30 2709 H 260.146 -2.13622 -2.10489 0
M  V30 2710 H 257.699 -1.13935 -1.06998 0
M  V30 2711 H 258.434 0.172499 -3.23841 0
M  V30 2712 H 258.219 -1.56576 -3.5948 0
M  V30 2713 H 259.709 -0.722073 -4.1131 0
M  V30 2714 N 260.146 1.09593 -1.13257 0
M  V30 2715 C 261.094 2.18271 -0.803783 0
M  V30 2716 C 262.088 1.68054 0.213148 0
M  V30 2717 O 263.294 1.79862 0.0704699 0
M  V30 2718 H 259.669 0.711949 -0.242143 0
M  V30 2719 H 261.64 2.43235 -1.72856 0
M  V30 2720 C 260.389 3.46536 -0.28424 0
M  V30 2721 H 259.712 3.85545 -1.05807 0
M  V30 2722 H 261.152 4.23899 -0.0925945 0
M  V30 2723 C 259.611 3.22036 0.989684 0
M  V30 2724 O 260.141 3.44509 2.06584 0
M  V30 2725 N 258.347 2.7565 0.920086 0
M  V30 2726 H 257.894 2.57562 0.0442019 0
M  V30 2727 H 257.852 2.59635 1.77306 0
M  V30 2728 N 261.624 0.925811 1.2754 0
M  V30 2729 C 262.587 0.428129 2.25166 0
M  V30 2730 C 263.587 -0.452261 1.54309 0
M  V30 2731 O 264.777 -0.253608 1.72344 0
M  V30 2732 C 261.909 -0.384749 3.38722 0
M  V30 2733 H 263.102 1.29066 2.70706 0
M  V30 2734 H 260.655 0.706323 1.3943 0
M  V30 2735 H 261.39 -1.26618 2.98561 0
M  V30 2736 H 261.175 0.246454 3.91325 0
M  V30 2737 H 262.665 -0.723389 4.11287 0
M  V30 2738 N 263.102 -1.41638 0.69111 0
M  V30 2739 C 264.065 -2.29178 0.0319786 0
M  V30 2740 C 265.065 -1.44153 -0.712496 0
M  V30 2741 O 266.255 -1.65354 -0.548053 0
M  V30 2742 C 263.387 -3.26952 -0.965161 0
M  V30 2743 H 264.58 -2.88959 0.802681 0
M  V30 2744 H 262.133 -1.4955 0.454356 0
M  V30 2745 H 262.868 -2.72142 -1.76378 0
M  V30 2746 H 262.653 -3.89685 -0.434522 0
M  V30 2747 H 264.143 -3.92561 -1.42428 0
M  V30 2748 N 264.58 -0.43555 -1.51462 0
M  V30 2749 C 265.826 0.131709 -2.02372 0
M  V30 2750 C 266.159 1.42516 -1.3192 0
M  V30 2751 O 265.434 1.89606 -0.433573 0
M  V30 2752 C 265.717 0.352301 -3.58373 0
M  V30 2753 C 265.57 -0.959676 -4.39443 0
M  V30 2754 C 266.889 1.12286 -4.25535 0
M  V30 2755 H 264.008 0.0463936 -0.735538 0
M  V30 2756 H 266.65 -0.574197 -1.81116 0
M  V30 2757 H 264.8 0.9536 -3.76615 0
M  V30 2758 H 266.472 -1.59482 -4.32855 0
M  V30 2759 H 264.715 -1.56468 -4.04599 0
M  V30 2760 H 265.386 -0.759394 -5.46752 0
M  V30 2761 H 267.862 0.613545 -4.11552 0
M  V30 2762 H 266.738 1.24598 -5.34571 0
M  V30 2763 H 266.999 2.15048 -3.86273 0
M  V30 2764 N 266.058 1.56714 -0.166846 0
M  V30 2765 C 267.304 1.97039 0.479962 0
M  V30 2766 C 267.637 1.05264 1.63197 0
M  V30 2767 O 266.912 0.0988833 1.94248 0
M  V30 2768 C 267.195 3.46867 0.967212 0
M  V30 2769 C 267.048 4.49421 -0.18466 0
M  V30 2770 C 268.367 3.9968 1.84238 0
M  V30 2771 H 265.486 0.71641 0.172992 0
M  V30 2772 H 268.128 1.8832 -0.252079 0
M  V30 2773 H 266.278 3.54428 1.59101 0
M  V30 2774 H 267.95 4.53924 -0.821621 0
M  V30 2775 H 266.193 4.25573 -0.840837 0
M  V30 2776 H 266.864 5.51644 0.198317 0
M  V30 2777 H 269.34 3.94723 1.31655 0
M  V30 2778 H 268.216 5.04941 2.15234 0
M  V30 2779 H 268.477 3.43226 2.78654 0
M  V30 2780 N 267.536 -0.106894 1.57237 0
M  V30 2781 C 268.446 -1.14911 2.0453 0
M  V30 2782 C 269.462 -1.44592 0.96795 0
M  V30 2783 O 270.638 -1.55468 1.2803 0
M  V30 2784 C 267.703 -2.45272 2.45036 0
M  V30 2785 C 266.764 -2.22879 3.66911 0
M  V30 2786 C 265.997 -3.47024 4.05475 0
M  V30 2787 O 266.22 -4.54804 3.44252 0
M  V30 2788 O 265.154 -3.3731 4.98504 0
M  V30 2789 H 268.98 -0.777461 2.9358 0
M  V30 2790 H 266.565 -0.318563 1.45964 0
M  V30 2791 H 268.447 -3.22055 2.71769 0
M  V30 2792 H 267.122 -2.81886 1.59129 0
M  V30 2793 H 266.029 -1.43915 3.45311 0
M  V30 2794 H 267.362 -1.91163 4.53561 0
M  V30 2795 N 269.014 -1.53014 -0.377408 0
M  V30 2796 C 269.947 -1.73382 -1.48371 0
M  V30 2797 C 270.925 -0.581879 -1.51832 0
M  V30 2798 O 272.109 -0.81307 -1.70063 0
M  V30 2799 C 269.236 -1.80192 -2.8679 0
M  V30 2800 C 268.282 -3.02056 -3.01105 0
M  V30 2801 S 269.115 -4.61811 -2.71093 0
M  V30 2802 C 270.271 -4.71453 -4.11683 0
M  V30 2803 H 270.504 -2.66946 -1.30872 0
M  V30 2804 H 268.037 -1.43453 -0.571012 0
M  V30 2805 H 269.995 -1.84802 -3.6655 0
M  V30 2806 H 268.656 -0.877008 -3.01608 0
M  V30 2807 H 267.849 -3.03396 -4.02451 0
M  V30 2808 H 267.451 -2.95498 -2.29253 0
M  V30 2809 H 269.743 -4.50781 -5.0577 0
M  V30 2810 H 270.686 -5.73487 -4.15353 0
M  V30 2811 H 271.094 -4.00189 -3.98132 0
M  V30 2812 N 270.492 0.636531 -1.44174 0
M  V30 2813 C 271.402 1.77754 -1.53103 0
M  V30 2814 C 272.418 1.68928 -0.417034 0
M  V30 2815 O 273.594 1.89801 -0.6736 0
M  V30 2816 C 270.659 3.14115 -1.46741 0
M  V30 2817 C 269.72 3.34612 -2.68948 0
M  V30 2818 C 268.953 4.64467 -2.6288 0
M  V30 2819 O 269.176 5.44919 -1.68581 0
M  V30 2820 O 268.11 4.87049 -3.53648 0
M  V30 2821 H 271.936 1.73174 -2.49489 0
M  V30 2822 H 269.521 0.79709 -1.2636 0
M  V30 2823 H 271.403 3.95412 -1.45696 0
M  V30 2824 H 270.078 3.19249 -0.534975 0
M  V30 2825 H 268.985 2.53014 -2.75562 0
M  V30 2826 H 270.318 3.34336 -3.61221 0
M  V30 2827 N 271.97 1.30982 0.876444 0
M  V30 2828 C 272.9 1.20668 1.99903 0
M  V30 2829 C 273.881 0.095354 1.69833 0
M  V30 2830 O 275.066 0.27885 1.92188 0
M  V30 2831 C 272.196 0.90655 3.3526 0
M  V30 2832 C 271.15 1.97675 3.79617 0
M  V30 2833 C 270.476 1.52943 5.1236 0
M  V30 2834 C 271.776 3.389 3.97422 0
M  V30 2835 H 273.47 2.14586 2.0879 0
M  V30 2836 H 271.016 1.03308 1.00317 0
M  V30 2837 H 272.969 0.821025 4.13324 0
M  V30 2838 H 271.693 -0.0682969 3.26529 0
M  V30 2839 H 270.352 2.05205 3.03787 0
M  V30 2840 H 270 0.54262 5.00065 0
M  V30 2841 H 269.7 2.24532 5.43009 0
M  V30 2842 H 271.224 1.45786 5.92941 0
M  V30 2843 H 272.638 3.34081 4.659 0
M  V30 2844 H 271.035 4.0865 4.3946 0
M  V30 2845 H 272.105 3.80163 3.01006 0
M  V30 2846 N 273.449 -1.08991 1.13837 0
M  V30 2847 C 274.412 -2.13925 0.822715 0
M  V30 2848 C 275.412 -1.599 -0.1699 0
M  V30 2849 O 276.602 -1.74104 0.0577251 0
M  V30 2850 C 273.734 -3.40155 0.225318 0
M  V30 2851 H 274.927 -2.43358 1.75262 0
M  V30 2852 H 272.48 -1.24603 0.943594 0
M  V30 2853 H 273.215 -3.16352 -0.713594 0
M  V30 2854 H 273 -3.80661 0.940193 0
M  V30 2855 H 274.49 -4.17594 0.0214784 0
M  V30 2856 N 274.927 -0.932562 -1.27047 0
M  V30 2857 C 276.155 -0.592031 -1.98249 0
M  V30 2858 C 276.57 0.831062 -1.69525 0
M  V30 2859 O 275.927 1.55299 -0.958561 0
M  V30 2860 C 275.978 -0.814279 -3.5221 0
M  V30 2861 O 275.699 -2.18139 -3.7993 0
M  V30 2862 C 277.2 -0.483121 -4.4066 0
M  V30 2863 H 274.42 -0.223896 -0.632544 0
M  V30 2864 H 276.964 -1.25091 -1.61779 0
M  V30 2865 H 275.119 -0.20213 -3.86872 0
M  V30 2866 H 275.533 -2.235 -4.74498 0
M  V30 2867 H 277.007 -0.689298 -5.47679 0
M  V30 2868 H 277.484 0.581546 -4.35333 0
M  V30 2869 H 278.09 -1.07362 -4.11526 0
M  V30 2870 N 276.405 1.4127 -0.698611 0
M  V30 2871 C 277.335 2.33447 -0.049629 0
M  V30 2872 C 278.316 1.51982 0.763898 0
M  V30 2873 O 279.501 1.80509 0.716257 0
M  V30 2874 C 276.631 3.35828 0.885267 0
M  V30 2875 C 275.585 4.27627 0.178613 0
M  V30 2876 C 274.911 5.20406 1.22807 0
M  V30 2877 C 276.211 5.13459 -0.956933 0
M  V30 2878 H 277.905 2.87966 -0.81951 0
M  V30 2879 H 275.451 1.38461 -0.395538 0
M  V30 2880 H 277.404 3.9924 1.34854 0
M  V30 2881 H 276.128 2.79666 1.68685 0
M  V30 2882 H 274.787 3.65643 -0.26466 0
M  V30 2883 H 274.435 4.60558 2.02226 0
M  V30 2884 H 274.135 5.82661 0.760239 0
M  V30 2885 H 275.659 5.86695 1.69179 0
M  V30 2886 H 277.073 5.70421 -0.573805 0
M  V30 2887 H 275.47 5.8467 -1.35205 0
M  V30 2888 H 276.54 4.50443 -1.79524 0
M  V30 2889 N 277.883 0.443576 1.51229 0
M  V30 2890 C 278.816 -0.410089 2.24485 0
M  V30 2891 C 279.794 -1.01949 1.26669 0
M  V30 2892 O 280.978 -1.06075 1.55821 0
M  V30 2893 C 278.105 -1.57211 3.00004 0
M  V30 2894 C 277.151 -1.08279 4.12526 0
M  V30 2895 S 277.984 -0.0197476 5.35496 0
M  V30 2896 C 279.14 -1.18629 6.14555 0
M  V30 2897 H 279.373 0.211832 2.96544 0
M  V30 2898 H 276.906 0.228156 1.52705 0
M  V30 2899 H 278.864 -2.23825 3.44111 0
M  V30 2900 H 277.525 -2.16547 2.27522 0
M  V30 2901 H 276.718 -1.95193 4.64667 0
M  V30 2902 H 276.32 -0.494797 3.70713 0
M  V30 2903 H 278.612 -2.10344 6.4402 0
M  V30 2904 H 279.555 -0.70472 7.04584 0
M  V30 2905 H 279.963 -1.42768 5.46148 0
M  V30 2906 N 279.361 -1.56624 0.175154 0
M  V30 2907 C 280.607 -1.9729 -0.469506 0
M  V30 2908 C 280.94 -1.06128 -1.62636 0
M  V30 2909 O 280.215 -0.109183 -1.94193 0
M  V30 2910 C 280.498 -3.47375 -0.948804 0
M  V30 2911 C 280.351 -4.49317 0.208491 0
M  V30 2912 C 281.67 -4.00652 -1.82116 0
M  V30 2913 H 278.789 -0.717317 -0.16919 0
M  V30 2914 H 281.431 -1.88184 0.262062 0
M  V30 2915 H 279.581 -3.55267 -1.57219 0
M  V30 2916 H 281.253 -4.53482 0.845682 0
M  V30 2917 H 279.496 -4.25121 0.863395 0
M  V30 2918 H 280.167 -5.51741 -0.169059 0
M  V30 2919 H 282.643 -3.95416 -1.2956 0
M  V30 2920 H 281.519 -5.06075 -2.12554 0
M  V30 2921 H 281.78 -3.44699 -2.7683 0
M  V30 2922 N 280.839 0.0985539 -1.57292 0
M  V30 2923 C 282.088 0.801358 -1.85098 0
M  V30 2924 C 282.401 1.80066 -0.763902 0
M  V30 2925 O 283.607 2.55112 -0.928981 0
M  V30 2926 C 282.063 1.47599 -3.28242 0
M  V30 2927 C 281.671 0.516624 -4.45011 0
M  V30 2928 C 283.415 2.16272 -3.65276 0
M  V30 2929 C 281.322 1.19564 -5.79188 0
M  V30 2930 H 280.252 0.303022 -0.69043 0
M  V30 2931 H 282.903 0.0542623 -1.8342 0
M  V30 2932 H 281.285 2.27042 -3.2445 0
M  V30 2933 H 282.459 -0.246065 -4.60143 0
M  V30 2934 H 280.774 -0.064227 -4.1635 0
M  V30 2935 H 283.371 2.67802 -4.62803 0
M  V30 2936 H 283.714 2.95009 -2.93727 0
M  V30 2937 H 284.247 1.43693 -3.70941 0
M  V30 2938 H 280.986 0.449157 -6.53959 0
M  V30 2939 H 280.506 1.92984 -5.67906 0
M  V30 2940 H 282.185 1.7231 -6.23633 0
M  V30 2941 N 282.317 1.53212 0.369288 0
M  V30 2942 C 283.565 1.68881 1.11012 0
M  V30 2943 C 283.886 0.441285 1.89941 0
M  V30 2944 O 283.156 -0.544623 1.88177 0
M  V30 2945 H 281.736 0.622569 0.412816 0
M  V30 2946 H 284.398 1.90391 0.416802 0
M  V30 2947 H 283.494 2.54822 1.80201 0
M  V30 2948 N 283.795 -0.628877 1.44509 0
M  V30 2949 C 285.023 -1.41554 1.50897 0
M  V30 2950 C 285.438 -1.8832 0.134564 0
M  V30 2951 O 284.795 -1.60969 -0.859965 0
M  V30 2952 C 284.846 -2.63435 2.47556 0
M  V30 2953 O 284.567 -2.18619 3.79654 0
M  V30 2954 C 286.068 -3.56537 2.63431 0
M  V30 2955 H 283.288 -0.434044 0.511709 0
M  V30 2956 H 285.832 -0.768895 1.89495 0
M  V30 2957 H 283.987 -3.24187 2.12089 0
M  V30 2958 H 284.401 -2.97652 4.31861 0
M  V30 2959 H 285.875 -4.38657 3.35088 0
M  V30 2960 H 286.352 -4.05493 1.68738 0
M  V30 2961 H 286.958 -3.01653 2.9981 0
M  V30 2962 N 285.273 -1.31445 -0.869486 0
M  V30 2963 C 286.203 -1.21727 -1.99261 0
M  V30 2964 C 287.184 -0.104359 -1.6978 0
M  V30 2965 O 288.369 -0.289038 -1.92037 0
M  V30 2966 C 285.499 -0.924317 -3.34774 0
M  V30 2967 C 284.453 -1.99685 -3.78563 0
M  V30 2968 C 283.779 -1.55658 -5.11541 0
M  V30 2969 C 285.079 -3.41003 -3.95619 0
M  V30 2970 H 286.773 -2.1569 -2.07649 0
M  V30 2971 H 284.319 -1.03839 -0.997675 0
M  V30 2972 H 286.272 -0.842934 -4.12883 0
M  V30 2973 H 284.996 0.0509793 -3.2656 0
M  V30 2974 H 283.655 -2.06813 -3.02694 0
M  V30 2975 H 283.303 -0.569132 -4.9977 0
M  V30 2976 H 283.003 -2.27409 -5.41811 0
M  V30 2977 H 284.527 -1.48928 -5.92159 0
M  V30 2978 H 285.941 -3.36547 -4.64122 0
M  V30 2979 H 284.338 -4.10975 -4.37286 0
M  V30 2980 H 285.408 -3.81754 -2.98985 0
M  V30 2981 N 286.751 1.08385 -1.14413 0
M  V30 2982 C 288.167 1.32844 -0.884563 0
M  V30 2983 C 288.367 1.95841 0.474181 0
M  V30 2984 O 287.423 2.21158 1.21842 0
M  V30 2985 C 288.736 2.22978 -2.01745 0
M  V30 2986 C 290.284 2.36458 -2.05077 0
M  V30 2987 C 290.759 3.29934 -3.1766 0
M  V30 2988 N 292.25 3.37511 -3.17239 0
M  V30 2989 C 292.985 4.09871 -4.0099 0
M  V30 2990 N 292.481 4.84936 -4.94781 0
M  V30 2991 N 294.274 4.05704 -3.89051 0
M  V30 2992 H 286.425 0.658756 -2.01926 0
M  V30 2993 H 288.688 0.352821 -0.879899 0
M  V30 2994 H 288.394 1.83934 -2.99769 0
M  V30 2995 H 288.268 3.23441 -1.94077 0
M  V30 2996 H 290.655 2.7476 -1.0766 0
M  V30 2997 H 290.736 1.35736 -2.16816 0
M  V30 2998 H 290.38 2.92352 -4.15322 0
M  V30 2999 H 290.31 4.30584 -3.03158 0
M  V30 3000 H 292.801 2.83996 -2.49308 0
M  V30 3001 H 293.114 5.37612 -5.55151 0
M  V30 3002 H 291.459 4.83988 -4.98779 0
M  V30 3003 H 294.65 3.46167 -3.15097 0
M  V30 3004 H 294.823 4.61834 -4.54547 0
M  V30 3005 N 288.23 0.939286 1.26551 0
M  V30 3006 C 289.177 0.446088 2.26448 0
M  V30 3007 C 290.147 -0.493234 1.58608 0
M  V30 3008 O 291.332 -0.409857 1.86346 0
M  V30 3009 C 288.472 -0.284375 3.43926 0
M  V30 3010 C 287.585 0.690399 4.26448 0
M  V30 3011 C 286.72 -0.0610712 5.31165 0
M  V30 3012 C 285.759 0.905649 6.05363 0
M  V30 3013 N 284.896 0.186055 7.01853 0
M  V30 3014 H 289.736 1.30291 2.68008 0
M  V30 3015 H 287.273 0.65371 1.31776 0
M  V30 3016 H 289.231 -0.724313 4.10864 0
M  V30 3017 H 287.861 -1.10535 3.03285 0
M  V30 3018 H 286.913 1.24885 3.59316 0
M  V30 3019 H 288.225 1.42873 4.779 0
M  V30 3020 H 287.379 -0.56038 6.04106 0
M  V30 3021 H 286.118 -0.832297 4.80546 0
M  V30 3022 H 285.123 1.4161 5.3125 0
M  V30 3023 H 286.348 1.67685 6.58072 0
M  V30 3024 H 284.294 -0.566714 6.53548 0
M  V30 3025 H 284.211 0.863752 7.51049 0
M  V30 3026 H 285.479 -0.292221 7.78952 0
M  V30 3027 N 289.708 -1.40897 0.706093 0
M  V30 3028 C 290.954 -2.01352 0.241889 0
M  V30 3029 C 291.287 -1.55832 -1.15888 0
M  V30 3030 O 290.562 -0.774145 -1.7843 0
M  V30 3031 C 290.845 -3.58752 0.311311 0
M  V30 3032 C 290.698 -4.1437 1.74978 0
M  V30 3033 C 292.017 -4.38914 -0.322922 0
M  V30 3034 H 289.136 -0.731562 0.0893687 0
M  V30 3035 H 291.778 -1.67504 0.896802 0
M  V30 3036 H 289.928 -3.87718 -0.246302 0
M  V30 3037 H 291.6 -3.96239 2.36205 0
M  V30 3038 H 289.843 -3.69016 2.28057 0
M  V30 3039 H 290.514 -5.23532 1.74981 0
M  V30 3040 H 292.99 -4.15822 0.152089 0
M  V30 3041 H 291.866 -5.48358 -0.243855 0
M  V30 3042 H 292.127 -4.19176 -1.40513 0
M  V30 3043 N 291.186 -0.45159 -1.50991 0
M  V30 3044 C 292.133 0.352625 -2.2809 0
M  V30 3045 C 293.103 1.0044 -1.32291 0
M  V30 3046 O 294.288 1.02058 -1.6121 0
M  V30 3047 C 291.428 1.43983 -3.13629 0
M  V30 3048 C 290.541 0.804772 -4.24438 0
M  V30 3049 C 289.676 1.86822 -4.97263 0
M  V30 3050 C 288.715 1.21236 -5.99973 0
M  V30 3051 N 287.852 2.2178 -6.66152 0
M  V30 3052 H 292.692 -0.311186 -2.96371 0
M  V30 3053 H 290.229 -0.165308 -1.46168 0
M  V30 3054 H 292.187 2.08161 -3.61559 0
M  V30 3055 H 290.817 2.07307 -2.47434 0
M  V30 3056 H 289.869 0.0509129 -3.80366 0
M  V30 3057 H 291.181 0.286076 -4.97979 0
M  V30 3058 H 290.335 2.58628 -5.48813 0
M  V30 3059 H 289.074 2.42068 -4.23385 0
M  V30 3060 H 288.079 0.479828 -5.47702 0
M  V30 3061 H 289.304 0.667051 -6.75816 0
M  V30 3062 H 287.25 2.76079 -5.95077 0
M  V30 3063 H 287.167 1.74841 -7.35504 0
M  V30 3064 H 288.435 2.93026 -7.22327 0
M  V30 3065 N 292.664 1.56529 -0.183458 0
M  V30 3066 C 293.892 2.01623 0.464285 0
M  V30 3067 C 294.307 1.06366 1.55986 0
M  V30 3068 O 293.664 0.0665398 1.82379 0
M  V30 3069 C 293.715 3.46475 1.03139 0
M  V30 3070 O 293.436 4.38095 -0.0204675 0
M  V30 3071 C 294.937 4.0703 1.75617 0
M  V30 3072 H 292.157 0.660596 0.117704 0
M  V30 3073 H 294.701 2.02451 -0.288751 0
M  V30 3074 H 292.856 3.46383 1.73486 0
M  V30 3075 H 293.27 5.22973 0.399952 0
M  V30 3076 H 294.744 5.10271 2.10542 0
M  V30 3077 H 295.221 3.49819 2.65563 0
M  V30 3078 H 295.827 4.1086 1.09882 0
M  V30 3079 N 294.142 -0.090211 1.57342 0
M  V30 3080 C 295.39 -0.791241 1.85967 0
M  V30 3081 C 295.711 -1.7903 0.772859 0
M  V30 3082 O 294.981 -1.94872 -0.200398 0
M  V30 3083 H 293.561 -0.295205 0.686195 0
M  V30 3084 H 296.223 -0.0706782 1.94772 0
M  V30 3085 H 295.319 -1.31882 2.82867 0
M  V30 3086 N 295.62 -1.53406 -0.361157 0
M  V30 3087 C 296.868 -1.69467 -1.10115 0
M  V30 3088 C 297.189 -0.451352 -1.89705 0
M  V30 3089 O 296.459 0.534636 -1.88463 0
M  V30 3090 H 295.039 -0.624749 -0.409508 0
M  V30 3091 H 297.701 -1.90609 -0.406699 0
M  V30 3092 H 296.797 -2.55774 -1.78847 0
M  V30 3093 N 297.098 0.621204 -1.44841 0
M  V30 3094 C 298.347 1.37658 -1.47422 0
M  V30 3095 C 298.66 1.95264 -0.114629 0
M  V30 3096 O 299.866 2.71494 -0.0180199 0
M  V30 3097 C 298.322 2.49285 -2.59586 0
M  V30 3098 C 297.93 1.98149 -4.01797 0
M  V30 3099 C 299.674 3.26409 -2.71399 0
M  V30 3100 C 297.581 3.07178 -5.05367 0
M  V30 3101 H 296.511 0.517344 -0.548517 0
M  V30 3102 H 299.162 0.667257 -1.70938 0
M  V30 3103 H 297.544 3.22839 -2.29328 0
M  V30 3104 H 298.718 1.31395 -4.41669 0
M  V30 3105 H 297.033 1.33812 -3.94314 0
M  V30 3106 H 299.63 4.07706 -3.45948 0
M  V30 3107 H 299.973 3.76535 -1.77559 0
M  V30 3108 H 300.506 2.5995 -3.01116 0
M  V30 3109 H 297.245 2.61985 -6.00869 0
M  V30 3110 H 296.765 3.72542 -4.70077 0
M  V30 3111 H 298.444 3.71789 -5.29511 0
M  V30 3112 N 298.576 1.31904 0.862503 0
M  V30 3113 C 299.506 1.22782 1.98612 0
M  V30 3114 C 300.487 0.113362 1.69722 0
M  V30 3115 O 301.672 0.299218 1.91881 0
M  V30 3116 C 298.802 0.942058 3.34279 0
M  V30 3117 C 297.756 2.0169 3.77499 0
M  V30 3118 C 297.082 1.58369 5.10709 0
M  V30 3119 C 298.382 3.43096 3.93805 0
M  V30 3120 H 300.076 2.16788 2.06502 0
M  V30 3121 H 297.622 1.04366 0.992154 0
M  V30 3122 H 299.575 0.864818 4.1243 0
M  V30 3123 H 298.299 -0.0336603 3.26583 0
M  V30 3124 H 296.958 2.08416 3.01593 0
M  V30 3125 H 296.606 0.595628 4.99461 0
M  V30 3126 H 296.306 2.30279 5.40597 0
M  V30 3127 H 297.83 1.52067 5.91361 0
M  V30 3128 H 299.244 3.39003 4.62331 0
M  V30 3129 H 297.641 4.13288 4.35101 0
M  V30 3130 H 298.711 3.83334 2.96957 0
M  V30 3131 N 300.054 -1.07777 1.14986 0
M  V30 3132 C 301.303 -1.79669 0.916617 0
M  V30 3133 C 301.616 -1.87474 -0.557917 0
M  V30 3134 O 302.822 -2.55845 -0.908617 0
M  V30 3135 C 301.278 -3.22848 1.59051 0
M  V30 3136 C 300.886 -3.23257 3.10176 0
M  V30 3137 C 302.63 -3.99379 1.43864 0
M  V30 3138 C 300.537 -4.61063 3.70372 0
M  V30 3139 H 299.467 -0.673349 0.33929 0
M  V30 3140 H 302.118 -1.21003 1.37951 0
M  V30 3141 H 300.5 -3.8168 1.0553 0
M  V30 3142 H 301.674 -2.74095 3.70417 0
M  V30 3143 H 299.989 -2.60222 3.25074 0
M  V30 3144 H 302.586 -5.0122 1.86232 0
M  V30 3145 H 302.929 -4.14511 0.385564 0
M  V30 3146 H 303.462 -3.47032 1.94457 0
M  V30 3147 H 300.201 -4.51135 4.7556 0
M  V30 3148 H 299.721 -5.1048 3.14913 0
M  V30 3149 H 301.4 -5.30034 3.71043 0
M  V30 3150 N 301.532 -0.945985 -1.26051 0
M  V30 3151 C 302.778 -0.597002 -1.93814 0
M  V30 3152 C 303.111 0.862484 -1.73997 0
M  V30 3153 O 302.386 1.61769 -1.07986 0
M  V30 3154 C 302.669 -0.945937 -3.47454 0
M  V30 3155 C 302.522 -2.46052 -3.76535 0
M  V30 3156 C 303.841 -0.464785 -4.37639 0
M  V30 3157 H 300.96 -0.218366 -0.703907 0
M  V30 3158 H 303.602 -1.18107 -1.48831 0
M  V30 3159 H 301.752 -0.448902 -3.85898 0
M  V30 3160 H 303.424 -3.03065 -3.47778 0
M  V30 3161 H 301.667 -2.90194 -3.22444 0
M  V30 3162 H 302.338 -2.65517 -4.83947 0
M  V30 3163 H 304.814 -0.891016 -4.06448 0
M  V30 3164 H 303.69 -0.737712 -5.4392 0
M  V30 3165 H 303.951 0.635274 -4.37512 0
M  V30 3166 N 303.011 1.40521 -0.713556 0
M  V30 3167 C 304.288 1.94775 -0.17943 0
M  V30 3168 C 304.668 1.65184 1.31444 0
M  V30 3169 O 304.016 0.968429 2.06963 0
M  V30 3170 C 304.226 3.45543 -0.489986 0
M  V30 3171 C 305.574 4.22442 -0.427536 0
M  V30 3172 O 306.598 3.53644 -0.425929 0
M  V30 3173 O 305.457 5.4501 -0.403292 0
M  V30 3174 H 302.551 0.826606 -0.0255192 0
M  V30 3175 H 305.097 1.5014 -0.790949 0
M  V30 3176 H 303.869 3.60432 -1.5233 0
M  V30 3177 H 303.492 3.97311 0.151598 0
M  V30 3178 N 304.489 0.459591 1.5075 0
M  V30 3179 C 305.737 -0.0991532 2.01857 0
M  V30 3180 C 306.058 -1.41247 1.34441 0
M  V30 3181 O 305.328 -1.89775 0.486022 0
M  V30 3182 H 303.908 -0.039633 0.745948 0
M  V30 3183 H 306.57 0.607387 1.85194 0
M  V30 3184 H 305.666 -0.258998 3.11023 0
M  V30 3185 N 305.967 -1.56429 0.191757 0
M  V30 3186 C 307.207 -1.99383 -0.450099 0
M  V30 3187 C 307.571 -1.07581 -1.59029 0
M  V30 3188 O 308.772 -1.39758 -2.29611 0
M  V30 3189 C 307.043 -3.45841 -0.901611 0
M  V30 3190 S 308.602 -4.10822 -1.54177 0
M  V30 3191 H 305.42 -0.696253 -0.144057 0
M  V30 3192 H 308.022 -1.93276 0.294036 0
M  V30 3193 H 306.726 -4.10354 -0.0616596 0
M  V30 3194 H 306.257 -3.55757 -1.67929 0
M  V30 3195 H 308.272 -4.07553 -2.83046 0
M  V30 3196 N 307.445 0.0818655 -1.57387 0
M  V30 3197 C 308.856 0.634871 -1.75574 0
M  V30 3198 C 309.207 1.78435 -0.815809 0
M  V30 3199 O 308.332 2.164 0.0025366 0
M  V30 3200 C 308.927 1.15845 -3.18379 0
M  V30 3201 C 307.486 1.65741 -3.37945 0
M  V30 3202 C 306.633 0.572549 -2.71325 0
M  V30 3203 H 309.584 -0.144268 -1.58043 0
M  V30 3204 H 309.605 2.02751 -3.21982 0
M  V30 3205 H 309.117 0.321631 -3.86765 0
M  V30 3206 H 307.218 2.51781 -2.74658 0
M  V30 3207 H 307.331 1.74129 -4.46336 0
M  V30 3208 H 305.695 1.01518 -2.33594 0
M  V30 3209 H 306.478 -0.253918 -3.4236 0
M  V30 3210 N 308.923 1.53595 0.353017 0
M  V30 3211 C 310.17 1.70385 1.09431 0
M  V30 3212 C 310.498 0.462113 1.88931 0
M  V30 3213 O 309.753 -0.556074 1.87633 0
M  V30 3214 C 310.052 2.91313 2.07054 0
M  V30 3215 C 309.718 4.27308 1.43939 0
M  V30 3216 C 308.38 4.64287 1.26454 0
M  V30 3217 C 310.732 5.11829 0.983883 0
M  V30 3218 C 308.06 5.83412 0.620226 0
M  V30 3219 C 310.412 6.31611 0.353516 0
M  V30 3220 C 309.076 6.67293 0.166272 0
M  V30 3221 H 308.346 0.623484 0.400436 0
M  V30 3222 H 310.993 1.87799 0.374655 0
M  V30 3223 H 309.298 2.68463 2.85368 0
M  V30 3224 H 310.995 3.01497 2.64387 0
M  V30 3225 H 307.585 3.98198 1.58543 0
M  V30 3226 H 311.769 4.838 1.10685 0
M  V30 3227 H 307.025 6.09639 0.463681 0
M  V30 3228 H 311.199 6.964 -0.00757555 0
M  V30 3229 H 308.826 7.59461 -0.335047 0
M  V30 3230 N 310.401 -0.613514 1.45168 0
M  V30 3231 C 311.348 -1.72456 1.53387 0
M  V30 3232 C 312.318 -1.6169 0.380191 0
M  V30 3233 O 313.503 -1.81356 0.592836 0
M  V30 3234 C 310.643 -3.10753 1.50088 0
M  V30 3235 C 309.756 -3.32368 2.75963 0
M  V30 3236 C 308.891 -4.60737 2.64376 0
M  V30 3237 C 307.93 -4.7559 3.85332 0
M  V30 3238 N 307.067 -5.95253 3.72315 0
M  V30 3239 H 311.907 -1.64768 2.48305 0
M  V30 3240 H 309.444 -0.803503 1.23216 0
M  V30 3241 H 311.402 -3.90758 1.46164 0
M  V30 3242 H 310.032 -3.17413 0.587243 0
M  V30 3243 H 309.084 -2.4618 2.89999 0
M  V30 3244 H 310.396 -3.39218 3.65695 0
M  V30 3245 H 309.55 -5.48928 2.58385 0
M  V30 3246 H 308.289 -4.56275 1.72233 0
M  V30 3247 H 307.294 -3.85824 3.91688 0
M  V30 3248 H 308.519 -4.81854 4.78533 0
M  V30 3249 H 306.465 -5.91847 2.82937 0
M  V30 3250 H 306.382 -6.03236 4.55677 0
M  V30 3251 H 307.65 -6.85958 3.70246 0
M  V30 3252 N 311.879 -1.3236 -0.855495 0
M  V30 3253 C 313.125 -1.24064 -1.61182 0
M  V30 3254 C 313.48 0.195914 -1.914 0
M  V30 3255 O 312.773 1.13345 -1.54478 0
M  V30 3256 C 312.967 -2.03275 -2.93963 0
M  V30 3257 C 312.796 -3.54486 -2.76712 0
M  V30 3258 C 311.566 -4.23824 -2.75139 0
M  V30 3259 C 313.764 -4.49154 -2.50531 0
M  V30 3260 N 311.746 -5.61095 -2.4909 0
M  V30 3261 C 313.117 -5.74195 -2.3388 0
M  V30 3262 C 315.172 -4.3842 -2.35992 0
M  V30 3263 C 313.875 -6.89716 -2.04168 0
M  V30 3264 C 315.901 -5.53739 -2.0767 0
M  V30 3265 C 315.263 -6.77779 -1.9182 0
M  V30 3266 H 311.362 -0.509139 -0.59355 0
M  V30 3267 H 313.946 -1.66715 -1.00569 0
M  V30 3268 H 312.117 -1.6297 -3.52555 0
M  V30 3269 H 313.849 -1.86881 -3.58967 0
M  V30 3270 H 310.604 -3.75934 -2.88047 0
M  V30 3271 H 311.028 -6.33411 -2.38996 0
M  V30 3272 H 315.67 -3.43172 -2.46967 0
M  V30 3273 H 313.388 -7.84977 -1.9193 0
M  V30 3274 H 316.974 -5.4736 -1.97201 0
M  V30 3275 H 315.854 -7.65504 -1.70217 0
M  V30 3276 N 313.357 1.07166 -1.15556 0
M  V30 3277 C 314.634 1.76546 -0.842069 0
M  V30 3278 C 315.014 2.00453 0.661939 0
M  V30 3279 O 314.362 1.62452 1.60691 0
M  V30 3280 C 314.572 3.07266 -1.65495 0
M  V30 3281 C 315.92 3.81578 -1.86234 0
M  V30 3282 O 316.944 3.17083 -1.62287 0
M  V30 3283 O 315.803 4.97419 -2.26355 0
M  V30 3284 H 312.897 0.766756 -0.309862 0
M  V30 3285 H 315.443 1.13514 -1.26145 0
M  V30 3286 H 314.215 2.85494 -2.67598 0
M  V30 3287 H 313.838 3.7803 -1.23203 0
M  V30 3288 N 314.835 0.952656 1.25548 0
M  V30 3289 C 315.745 0.47782 2.29682 0
M  V30 3290 C 316.761 -0.453859 1.67977 0
M  V30 3291 O 317.937 -0.330587 1.98668 0
M  V30 3292 C 315.002 -0.238655 3.45878 0
M  V30 3293 C 314.063 0.730994 4.23031 0
M  V30 3294 C 313.296 0.0486165 5.33678 0
M  V30 3295 O 313.519 -1.16612 5.58353 0
M  V30 3296 O 312.453 0.733152 5.97418 0
M  V30 3297 H 316.279 1.34312 2.72386 0
M  V30 3298 H 313.864 0.719026 1.30959 0
M  V30 3299 H 315.746 -0.641774 4.16484 0
M  V30 3300 H 314.421 -1.07916 3.05181 0
M  V30 3301 H 313.328 1.18428 3.5486 0
M  V30 3302 H 314.661 1.53946 4.67506 0
M  V30 3303 N 316.313 -1.40141 0.720998 0
M  V30 3304 C 317.561 -2.0039 0.262323 0
M  V30 3305 C 317.882 -1.57469 -1.15015 0
M  V30 3306 O 317.152 -0.816582 -1.78069 0
M  V30 3307 H 315.732 -0.741063 0.093996 0
M  V30 3308 H 318.394 -1.71398 0.927835 0
M  V30 3309 H 317.49 -3.10658 0.299671 0
M  V30 3310 N 317.792 -0.46758 -1.50504 0
M  V30 3311 C 319.069 0.15003 -1.95024 0
M  V30 3312 C 319.449 1.57304 -1.40779 0
M  V30 3313 O 318.797 2.20281 -0.607319 0
M  V30 3314 C 319.007 0.0969324 -3.48865 0
M  V30 3315 C 320.355 0.287565 -4.23625 0
M  V30 3316 O 321.379 0.173678 -3.55776 0
M  V30 3317 O 320.238 0.517186 -5.44047 0
M  V30 3318 H 317.332 0.113582 -0.819163 0
M  V30 3319 H 319.878 -0.52773 -1.61286 0
M  V30 3320 H 318.65 -0.896732 -3.80886 0
M  V30 3321 H 318.273 0.816303 -3.8913 0
M  V30 3322 N 319.27 1.56325 -0.20005 0
M  V30 3323 C 320.517 1.97719 0.437411 0
M  V30 3324 C 320.845 1.08709 1.61284 0
M  V30 3325 O 320.1 0.127261 1.95286 0
M  V30 3326 C 320.399 3.4495 0.935103 0
M  V30 3327 C 320.065 4.5072 -0.12749 0
M  V30 3328 C 318.727 4.79368 -0.419451 0
M  V30 3329 C 321.079 5.14268 -0.847231 0
M  V30 3330 C 318.407 5.68854 -1.43604 0
M  V30 3331 C 320.759 6.04852 -1.85301 0
M  V30 3332 C 319.423 6.31855 -2.15211 0
M  V30 3333 H 318.693 0.723507 0.16006 0
M  V30 3334 H 321.34 1.89166 -0.298056 0
M  V30 3335 H 319.645 3.50599 1.74894 0
M  V30 3336 H 321.342 3.74337 1.43781 0
M  V30 3337 H 317.932 4.28458 0.11023 0
M  V30 3338 H 322.116 4.92222 -0.634901 0
M  V30 3339 H 317.372 5.88047 -1.67364 0
M  V30 3340 H 321.546 6.53152 -2.41591 0
M  V30 3341 H 319.173 7.00994 -2.94129 0
M  V30 3342 N 320.748 -0.0735177 1.57428 0
M  V30 3343 C 322.025 -0.805903 1.78226 0
M  V30 3344 C 322.405 -1.95874 0.787189 0
M  V30 3345 O 321.753 -2.2779 -0.180029 0
M  V30 3346 C 321.963 -1.28045 3.24662 0
M  V30 3347 C 323.311 -1.71453 3.88444 0
M  V30 3348 O 324.335 -1.37616 3.28543 0
M  V30 3349 O 323.194 -2.34093 4.93825 0
M  V30 3350 H 320.288 -0.386041 0.73137 0
M  V30 3351 H 322.834 -0.0537269 1.69615 0
M  V30 3352 H 321.606 -0.455476 3.8864 0
M  V30 3353 H 321.229 -2.094 3.37991 0
M  V30 3354 N 322.226 -1.5378 -0.344866 0
M  V30 3355 C 323.174 -1.82373 -1.4437 0
M  V30 3356 C 324.168 -0.694128 -1.54526 0
M  V30 3357 O 325.374 -0.877442 -1.57165 0
M  V30 3358 H 321.749 -0.577765 -0.481344 0
M  V30 3359 H 323.72 -2.74306 -1.17468 0
M  V30 3360 C 322.469 -2.04898 -2.80913 0
M  V30 3361 H 321.792 -2.9127 -2.73865 0
M  V30 3362 H 323.232 -2.28871 -3.56923 0
M  V30 3363 C 321.691 -0.834116 -3.26411 0
M  V30 3364 O 322.221 -0.0328885 -4.01687 0
M  V30 3365 N 320.427 -0.65171 -2.83198 0
M  V30 3366 H 319.974 -1.30489 -2.22104 0
M  V30 3367 H 319.932 0.159686 -3.13994 0
M  V30 3368 N 323.704 0.605807 -1.45491 0
M  V30 3369 C 324.652 1.73754 -1.54636 0
M  V30 3370 C 325.646 1.64207 -0.416219 0
M  V30 3371 O 326.852 1.69979 -0.592199 0
M  V30 3372 H 323.227 0.574073 -0.485741 0
M  V30 3373 H 325.198 1.63169 -2.49837 0
M  V30 3374 C 323.947 3.12135 -1.53189 0
M  V30 3375 H 323.27 3.20141 -2.39478 0
M  V30 3376 H 324.71 3.91147 -1.63645 0
M  V30 3377 C 323.169 3.35921 -0.256616 0
M  V30 3378 O 323.699 3.96194 0.662798 0
M  V30 3379 N 321.905 2.90204 -0.151751 0
M  V30 3380 H 321.452 2.41336 -0.90081 0
M  V30 3381 H 321.41 3.06492 0.700699 0
M  V30 3382 N 325.182 1.32811 0.848464 0
M  V30 3383 C 326.112 1.24882 1.97299 0
M  V30 3384 C 327.093 0.131357 1.69592 0
M  V30 3385 O 328.278 0.319553 1.91553 0
M  V30 3386 C 325.408 0.97746 3.33261 0
M  V30 3387 C 324.362 2.05682 3.75338 0
M  V30 3388 C 323.688 1.63777 5.09 0
M  V30 3389 C 324.988 3.47254 3.90144 0
M  V30 3390 H 326.682 2.18966 2.04191 0
M  V30 3391 H 324.228 1.05413 0.981029 0
M  V30 3392 H 326.181 0.908513 4.1149 0
M  V30 3393 H 324.905 0.000980011 3.266 0
M  V30 3394 H 323.564 2.11603 2.99366 0
M  V30 3395 H 323.212 0.648569 4.98801 0
M  V30 3396 H 322.912 2.36 5.38124 0
M  V30 3397 H 324.436 1.5833 5.89715 0
M  V30 3398 H 325.85 3.43888 4.58709 0
M  V30 3399 H 324.247 4.1788 4.30693 0
M  V30 3400 H 325.317 3.86462 2.92874 0
M  V30 3401 N 326.66 -1.06551 1.16123 0
M  V30 3402 C 327.906 -1.79567 0.94252 0
M  V30 3403 C 328.239 -1.86869 -0.528547 0
M  V30 3404 O 327.514 -1.35838 -1.39206 0
M  V30 3405 C 327.797 -3.24195 1.56747 0
M  V30 3406 C 327.65 -3.24989 3.10969 0
M  V30 3407 C 328.969 -4.21678 1.25998 0
M  V30 3408 H 326.088 -0.651883 0.343828 0
M  V30 3409 H 328.73 -1.2463 1.43413 0
M  V30 3410 H 326.88 -3.71107 1.14942 0
M  V30 3411 H 328.552 -2.86258 3.61737 0
M  V30 3412 H 326.795 -2.63716 3.44436 0
M  V30 3413 H 327.466 -4.27005 3.49815 0
M  V30 3414 H 329.942 -3.83196 1.62174 0
M  V30 3415 H 328.818 -5.21146 1.7233 0
M  V30 3416 H 329.079 -4.4174 0.178367 0
M  V30 3417 N 328.138 -0.959301 -1.25041 0
M  V30 3418 C 329.549 -0.65667 -1.74771 0
M  V30 3419 C 329.9 0.827852 -1.77879 0
M  V30 3420 O 329.025 1.64783 -1.40269 0
M  V30 3421 C 329.62 -1.1853 -3.1739 0
M  V30 3422 C 328.179 -0.932734 -3.6466 0
M  V30 3423 C 327.326 -1.32558 -2.43564 0
M  V30 3424 H 330.277 -1.13558 -1.10862 0
M  V30 3425 H 330.298 -0.547582 -3.76539 0
M  V30 3426 H 329.81 -2.26576 -3.15095 0
M  V30 3427 H 327.911 0.13257 -3.72364 0
M  V30 3428 H 328.024 -1.57248 -4.52559 0
M  V30 3429 H 326.388 -0.743956 -2.43593 0
M  V30 3430 H 327.171 -2.41537 -2.43957 0
M  V30 3431 N 329.616 1.39756 -0.72842 0
M  V30 3432 C 330.566 2.2792 -0.0603424 0
M  V30 3433 C 331.55 1.43922 0.719399 0
M  V30 3434 O 332.742 1.66895 0.589489 0
M  V30 3435 C 329.871 3.32582 0.851104 0
M  V30 3436 C 328.957 4.24049 0.0658641 0
M  V30 3437 N 329.348 4.96653 -0.957578 0
M  V30 3438 C 327.646 4.45013 0.296509 0
M  V30 3439 C 328.347 5.63836 -1.43052 0
M  V30 3440 N 327.323 5.38397 -0.750315 0
M  V30 3441 H 331.125 2.81504 -0.84455 0
M  V30 3442 H 328.639 1.5236 -0.562155 0
M  V30 3443 H 330.636 3.94603 1.34514 0
M  V30 3444 H 329.296 2.80558 1.63454 0
M  V30 3445 H 330.307 5.00297 -1.33877 0
M  V30 3446 H 326.984 4.03943 1.05527 0
M  V30 3447 H 328.374 6.31974 -2.28163 0
M  V30 3448 N 331.094 0.475555 1.50254 0
M  V30 3449 C 332.026 -0.352649 2.26471 0
M  V30 3450 C 333.039 -0.953165 1.3198 0
M  V30 3451 O 334.228 -0.840815 1.57457 0
M  V30 3452 C 331.328 -1.50902 3.0345 0
M  V30 3453 C 330.501 -1.02047 4.25329 0
M  V30 3454 C 329.56 -2.05142 4.84565 0
M  V30 3455 O 328.586 -1.63023 5.45355 0
M  V30 3456 N 329.788 -3.37987 4.71959 0
M  V30 3457 H 332.553 0.300767 2.98187 0
M  V30 3458 H 330.114 0.306598 1.5897 0
M  V30 3459 H 332.106 -2.19572 3.39956 0
M  V30 3460 H 330.676 -2.06705 2.34504 0
M  V30 3461 H 329.896 -0.159507 3.93877 0
M  V30 3462 H 331.184 -0.672061 5.04342 0
M  V30 3463 H 330.582 -3.74913 4.23623 0
M  V30 3464 H 329.139 -4.02443 5.12721 0
M  V30 3465 N 332.573 -1.56217 0.208337 0
M  V30 3466 C 333.503 -2.22694 -0.702116 0
M  V30 3467 C 334.484 -1.19432 -1.2112 0
M  V30 3468 O 335.669 -1.47978 -1.25762 0
M  V30 3469 C 332.799 -2.8966 -1.9161 0
M  V30 3470 C 331.753 -3.9928 -1.5414 0
M  V30 3471 C 331.079 -4.53476 -2.83308 0
M  V30 3472 C 332.379 -5.17012 -0.741339 0
M  V30 3473 H 334.073 -2.99034 -0.147898 0
M  V30 3474 H 331.619 -1.43831 -0.0696951 0
M  V30 3475 H 333.572 -3.34852 -2.55836 0
M  V30 3476 H 332.296 -2.10746 -2.49507 0
M  V30 3477 H 330.955 -3.54799 -0.922668 0
M  V30 3478 H 330.603 -3.71308 -3.39322 0
M  V30 3479 H 330.303 -5.27451 -2.58976 0
M  V30 3480 H 331.827 -5.01378 -3.485 0
M  V30 3481 H 333.241 -5.58667 -1.28699 0
M  V30 3482 H 331.638 -5.97137 -0.595627 0
M  V30 3483 H 332.708 -4.8423 0.254851 0
M  V30 3484 N 334.051 0.0651679 -1.57465 0
M  V30 3485 C 334.961 1.09448 -2.07505 0
M  V30 3486 C 335.977 1.41974 -1.00595 0
M  V30 3487 O 337.153 1.52018 -1.32107 0
M  V30 3488 C 334.218 2.38689 -2.51453 0
M  V30 3489 C 333.279 2.13073 -3.72691 0
M  V30 3490 C 332.512 3.36152 -4.14533 0
M  V30 3491 O 332.735 4.45517 -3.56189 0
M  V30 3492 O 331.669 3.23974 -5.07272 0
M  V30 3493 H 335.495 0.69935 -2.95538 0
M  V30 3494 H 333.08 0.279752 -1.46757 0
M  V30 3495 H 334.962 3.14736 -2.80212 0
M  V30 3496 H 333.637 2.77568 -1.66546 0
M  V30 3497 H 332.544 1.34709 -3.49005 0
M  V30 3498 H 333.877 1.79071 -4.5847 0
M  V30 3499 N 335.529 1.53961 0.336706 0
M  V30 3500 C 336.477 1.83136 1.43401 0
M  V30 3501 C 337.471 0.702313 1.54156 0
M  V30 3502 O 338.677 0.885765 1.56698 0
M  V30 3503 H 335.052 0.580309 0.478273 0
M  V30 3504 H 337.023 2.74925 1.16012 0
M  V30 3505 C 335.772 2.06385 2.79822 0
M  V30 3506 H 335.095 2.92718 2.72316 0
M  V30 3507 H 336.535 2.30761 3.55704 0
M  V30 3508 C 334.994 0.851414 3.25964 0
M  V30 3509 O 335.524 0.0541904 4.01663 0
M  V30 3510 N 333.73 0.66672 2.82848 0
M  V30 3511 H 333.277 1.31665 2.21409 0
M  V30 3512 H 333.235 -0.143032 3.14074 0
M  V30 3513 N 337.007 -0.598083 1.45811 0
M  V30 3514 C 337.94 -1.7223 1.49706 0
M  V30 3515 C 338.918 -1.58732 0.352535 0
M  V30 3516 O 340.102 -1.80162 0.554438 0
M  V30 3517 C 337.229 -3.10148 1.3611 0
M  V30 3518 C 336.275 -3.42209 2.54549 0
M  V30 3519 S 337.108 -3.35989 4.16979 0
M  V30 3520 C 338.264 -4.76471 4.05865 0
M  V30 3521 H 338.497 -1.68665 2.44826 0
M  V30 3522 H 336.03 -0.775541 1.33509 0
M  V30 3523 H 337.988 -3.8972 1.28953 0
M  V30 3524 H 336.649 -3.11219 0.424451 0
M  V30 3525 H 335.842 -4.42652 2.40988 0
M  V30 3526 H 335.444 -2.70173 2.58617 0
M  V30 3527 H 337.736 -5.665 3.71596 0
M  V30 3528 H 338.679 -4.95089 5.06253 0
M  V30 3529 H 339.087 -4.52599 3.37364 0
M  V30 3530 N 338.485 -1.33259 -0.841409 0
M  V30 3531 C 339.734 -1.23921 -1.59143 0
M  V30 3532 C 340.047 0.1941 -1.94635 0
M  V30 3533 O 341.253 0.409474 -2.68394 0
M  V30 3534 C 339.709 -2.17119 -2.87032 0
M  V30 3535 C 339.317 -3.65606 -2.58914 0
M  V30 3536 C 341.061 -2.16648 -3.65053 0
M  V30 3537 C 338.968 -4.50726 -3.82884 0
M  V30 3538 H 337.898 -0.460264 -0.597221 0
M  V30 3539 H 340.549 -1.58307 -0.927959 0
M  V30 3540 H 338.931 -1.75663 -3.54906 0
M  V30 3541 H 340.105 -4.15487 -1.99267 0
M  V30 3542 H 338.42 -3.68341 -1.942 0
M  V30 3543 H 341.017 -2.77474 -4.57069 0
M  V30 3544 H 341.36 -1.16088 -3.99787 0
M  V30 3545 H 341.893 -2.56453 -3.041 0
M  V30 3546 H 338.632 -5.52151 -3.53283 0
M  V30 3547 H 338.152 -4.0559 -4.41879 0
M  V30 3548 H 339.831 -4.64401 -4.50489 0
M  V30 3549 N 339.963 1.05934 -1.16686 0
M  V30 3550 C 340.91 2.13499 -0.876748 0
M  V30 3551 C 341.88 1.65162 0.176299 0
M  V30 3552 O 343.065 1.90757 0.0407143 0
M  V30 3553 C 340.205 3.42912 -0.387967 0
M  V30 3554 C 339.318 4.04964 -1.50426 0
M  V30 3555 C 338.453 5.22266 -0.970125 0
M  V30 3556 C 337.492 5.76309 -2.06238 0
M  V30 3557 N 336.629 6.84922 -1.54356 0
M  V30 3558 H 341.469 2.37654 -1.7979 0
M  V30 3559 H 339.006 1.16598 -0.896843 0
M  V30 3560 H 340.964 4.17111 -0.086186 0
M  V30 3561 H 339.594 3.18963 0.496235 0
M  V30 3562 H 338.646 3.28277 -1.92193 0
M  V30 3563 H 339.958 4.41122 -2.32836 0
M  V30 3564 H 339.112 6.03506 -0.621743 0
M  V30 3565 H 337.851 4.87564 -0.115377 0
M  V30 3566 H 336.856 4.93704 -2.41942 0
M  V30 3567 H 338.081 6.13062 -2.92115 0
M  V30 3568 H 336.027 6.52131 -0.711406 0
M  V30 3569 H 335.944 7.20043 -2.30379 0
M  V30 3570 H 337.212 7.69832 -1.22387 0
M  V30 3571 N 341.441 0.965919 1.2453 0
M  V30 3572 C 342.69 0.622437 1.91856 0
M  V30 3573 C 343.003 -0.846006 1.76358 0
M  V30 3574 O 344.209 -1.29993 2.38357 0
M  V30 3575 C 342.665 1.0626 3.43856 0
M  V30 3576 C 342.273 2.55437 3.68043 0
M  V30 3577 C 344.017 0.792183 4.17043 0
M  V30 3578 C 341.924 2.93196 5.13605 0
M  V30 3579 H 340.854 0.229092 0.718354 0
M  V30 3580 H 343.505 1.17189 1.41206 0
M  V30 3581 H 341.887 0.441476 3.93531 0
M  V30 3582 H 343.061 3.22665 3.28974 0
M  V30 3583 H 341.376 2.8007 3.08139 0
M  V30 3584 H 343.973 1.05031 5.24283 0
M  V30 3585 H 344.316 -0.271584 4.15413 0
M  V30 3586 H 344.849 1.37419 3.73311 0
M  V30 3587 H 341.588 3.98636 5.20355 0
M  V30 3588 H 341.108 2.30651 5.53679 0
M  V30 3589 H 342.787 2.83004 5.81823 0
M  V30 3590 N 342.919 -1.39368 0.735821 0
M  V30 3591 C 343.882 -2.2896 0.104874 0
M  V30 3592 C 344.882 -1.46347 -0.666274 0
M  V30 3593 O 346.072 -1.67014 -0.49517 0
M  V30 3594 C 343.204 -3.29857 -0.860656 0
M  V30 3595 H 344.397 -2.86259 0.894205 0
M  V30 3596 H 341.95 -1.48029 0.501704 0
M  V30 3597 H 342.685 -2.77615 -1.67631 0
M  V30 3598 H 342.47 -3.9087 -0.310327 0
M  V30 3599 H 343.96 -3.96893 -1.29867 0
M  V30 3600 N 344.397 -0.483516 -1.5 0
M  V30 3601 C 345.327 0.293829 -2.31644 0
M  V30 3602 C 346.308 0.978864 -1.39112 0
M  V30 3603 O 347.493 0.973644 -1.68029 0
M  V30 3604 C 344.623 1.36897 -3.19181 0
M  V30 3605 C 343.577 0.804833 -4.20365 0
M  V30 3606 C 342.903 1.9792 -4.96721 0
M  V30 3607 C 344.203 -0.192313 -5.21946 0
M  V30 3608 H 345.897 -0.387616 -2.9688 0
M  V30 3609 H 343.443 -0.187856 -1.42769 0
M  V30 3610 H 345.396 1.92037 -3.751 0
M  V30 3611 H 344.12 2.07936 -2.51853 0
M  V30 3612 H 342.779 0.275319 -3.65565 0
M  V30 3613 H 342.427 2.67686 -4.25856 0
M  V30 3614 H 342.127 1.60789 -5.65173 0
M  V30 3615 H 343.651 2.53526 -5.55479 0
M  V30 3616 H 345.065 0.270333 -5.72662 0
M  V30 3617 H 343.462 -0.478543 -5.98189 0
M  V30 3618 H 344.532 -1.11409 -4.71928 0
M  V30 3619 N 345.875 1.56104 -0.216619 0
M  V30 3620 C 347.123 1.97781 0.415593 0
M  V30 3621 C 347.444 1.10536 1.60645 0
M  V30 3622 O 346.714 0.181303 1.95059 0
M  V30 3623 H 345.294 0.730415 0.156534 0
M  V30 3624 H 347.956 1.92445 -0.308366 0
M  V30 3625 H 347.052 3.03072 0.74525 0
M  V30 3626 N 347.353 -0.0568162 1.57498 0
M  V30 3627 C 348.316 -1.05038 2.03715 0
M  V30 3628 C 349.316 -1.30709 0.936577 0
M  V30 3629 O 350.506 -1.26178 1.20103 0
M  V30 3630 C 347.638 -2.39034 2.43055 0
M  V30 3631 H 348.831 -0.651715 2.92733 0
M  V30 3632 H 346.384 -0.302947 1.53336 0
M  V30 3633 H 347.119 -2.83703 1.57108 0
M  V30 3634 H 346.904 -2.21739 3.2338 0
M  V30 3635 H 348.394 -3.10421 2.79336 0
M  V30 3636 N 348.832 -1.54138 -0.328536 0
M  V30 3637 C 350.072 -1.73827 -1.07534 0
M  V30 3638 C 350.436 -0.498777 -1.85408 0
M  V30 3639 O 351.637 -0.572937 -2.62623 0
M  V30 3640 C 349.908 -2.97573 -1.97952 0
M  V30 3641 S 351.467 -3.38143 -2.79652 0
M  V30 3642 H 348.285 -0.611287 -0.36311 0
M  V30 3643 H 350.887 -1.92306 -0.351931 0
M  V30 3644 H 349.591 -3.85939 -1.39569 0
M  V30 3645 H 349.122 -2.81603 -2.74706 0
M  V30 3646 H 351.137 -2.93052 -4.00418 0
M  V30 3647 N 350.31 0.590341 -1.46126 0
M  V30 3648 C 351.273 1.68194 -1.55703 0
M  V30 3649 C 352.273 1.54808 -0.434868 0
M  V30 3650 O 353.463 1.59564 -0.698928 0
M  V30 3651 C 350.595 3.07575 -1.47005 0
M  V30 3652 H 351.788 1.61064 -2.52979 0
M  V30 3653 H 349.341 0.807541 -1.33823 0
M  V30 3654 H 350.076 3.20268 -0.509785 0
M  V30 3655 H 349.861 3.187 -2.28414 0
M  V30 3656 H 351.351 3.87055 -1.56776 0
M  V30 3657 N 351.788 1.33704 0.83433 0
M  V30 3658 C 352.735 1.24335 1.94447 0
M  V30 3659 C 353.705 0.120991 1.65659 0
M  V30 3660 O 354.89 0.300035 1.88426 0
M  V30 3661 C 352.03 0.993124 3.30501 0
M  V30 3662 C 351.143 2.20217 3.71657 0
M  V30 3663 C 350.278 1.88572 4.96602 0
M  V30 3664 C 349.317 3.05683 5.30306 0
M  V30 3665 N 348.454 2.73997 6.46429 0
M  V30 3666 H 353.294 2.1928 2.01792 0
M  V30 3667 H 350.831 1.09035 0.987404 0
M  V30 3668 H 352.789 0.828467 4.08892 0
M  V30 3669 H 351.419 0.0803902 3.227 0
M  V30 3670 H 350.471 2.47642 2.88752 0
M  V30 3671 H 351.783 3.07752 3.92543 0
M  V30 3672 H 350.937 1.68776 5.82752 0
M  V30 3673 H 349.676 0.982799 4.77695 0
M  V30 3674 H 348.681 3.26088 4.42659 0
M  V30 3675 H 349.906 3.96737 5.51159 0
M  V30 3676 H 347.852 1.86268 6.28999 0
M  V30 3677 H 347.769 3.55064 6.67432 0
M  V30 3678 H 349.037 2.57679 7.35678 0
M  V30 3679 N 353.266 -1.05314 1.17247 0
M  V30 3680 C 354.196 -2.1498 0.911362 0
M  V30 3681 C 355.177 -1.69471 -0.146169 0
M  V30 3682 O 356.362 -1.942 0.003812 0
M  V30 3683 C 353.492 -3.4472 0.422528 0
M  V30 3684 C 352.446 -4.03789 1.4191 0
M  V30 3685 C 351.772 -5.28858 0.788274 0
M  V30 3686 C 353.072 -4.41418 2.7919 0
M  V30 3687 H 354.766 -2.3708 1.82848 0
M  V30 3688 H 352.312 -1.13938 0.880569 0
M  V30 3689 H 354.265 -4.20787 0.227289 0
M  V30 3690 H 352.989 -3.22269 -0.530123 0
M  V30 3691 H 351.648 -3.2979 1.60106 0
M  V30 3692 H 351.296 -5.02709 -0.171173 0
M  V30 3693 H 350.996 -5.69338 1.45353 0
M  V30 3694 H 352.52 -6.07612 0.603282 0
M  V30 3695 H 353.934 -5.08524 2.64719 0
M  V30 3696 H 352.331 -4.92913 3.42282 0
M  V30 3697 H 353.401 -3.51819 3.33693 0
M  V30 3698 N 354.744 -0.972509 -1.24016 0
M  V30 3699 C 355.707 -0.511403 -2.23422 0
M  V30 3700 C 356.707 0.394679 -1.55881 0
M  V30 3701 O 357.897 0.189469 -1.73167 0
M  V30 3702 C 355.029 0.258769 -3.39916 0
M  V30 3703 H 356.222 -1.39024 -2.6573 0
M  V30 3704 H 353.775 -0.757585 -1.36713 0
M  V30 3705 H 354.51 1.1545 -3.03054 0
M  V30 3706 H 354.295 -0.391522 -3.9014 0
M  V30 3707 H 355.785 0.570244 -4.13688 0
M  V30 3708 N 356.222 1.38976 -0.743202 0
M  V30 3709 C 357.45 2.04636 -0.30525 0
M  V30 3710 C 357.865 1.56044 1.06281 0
M  V30 3711 O 357.222 0.728921 1.67311 0
M  V30 3712 C 357.273 3.60193 -0.307177 0
M  V30 3713 O 356.994 4.06998 -1.62124 0
M  V30 3714 C 358.495 4.4306 0.145928 0
M  V30 3715 H 355.715 0.65788 -0.132041 0
M  V30 3716 H 358.259 1.77866 -1.00915 0
M  V30 3717 H 356.414 3.85835 0.347898 0
M  V30 3718 H 356.828 5.01371 -1.54036 0
M  V30 3719 H 358.302 5.51921 0.0934183 0
M  V30 3720 H 358.779 4.22706 1.19231 0
M  V30 3721 H 359.385 4.22584 -0.479886 0
M  V30 3722 N 357.7 0.491464 1.49741 0
M  V30 3723 C 358.647 -0.292027 2.28945 0
M  V30 3724 C 359.617 -0.968973 1.34908 0
M  V30 3725 O 360.802 -0.97748 1.6386 0
M  V30 3726 C 357.942 -1.35617 3.17336 0
M  V30 3727 C 357.055 -0.691957 4.26422 0
M  V30 3728 C 356.19 -1.73572 5.02042 0
M  V30 3729 C 355.229 -1.05286 6.02977 0
M  V30 3730 N 354.366 -2.0404 6.71798 0
M  V30 3731 H 359.206 0.389654 2.95442 0
M  V30 3732 H 356.743 0.204003 1.45679 0
M  V30 3733 H 358.701 -1.98502 3.66951 0
M  V30 3734 H 357.331 -2.00674 2.52844 0
M  V30 3735 H 356.383 0.0499523 3.80367 0
M  V30 3736 H 357.695 -0.153946 4.98562 0
M  V30 3737 H 356.849 -2.43987 5.55478 0
M  V30 3738 H 355.588 -2.30757 4.29654 0
M  V30 3739 H 354.593 -0.334446 5.48782 0
M  V30 3740 H 355.818 -0.487636 6.77347 0
M  V30 3741 H 353.764 -2.60205 6.02187 0
M  V30 3742 H 353.681 -1.55279 7.39881 0
M  V30 3743 H 354.949 -2.73772 7.29842 0
M  V30 3744 N 359.178 -1.55987 0.224894 0
M  V30 3745 C 360.408 -2.02489 -0.41007 0
M  V30 3746 C 360.816 -1.10391 -1.53657 0
M  V30 3747 O 360.159 -0.106458 -1.83391 0
M  V30 3748 C 360.221 -3.45319 -0.999757 0
M  V30 3749 C 359.885 -4.56999 -0.00827976 0
M  V30 3750 C 360.882 -5.13812 0.793314 0
M  V30 3751 C 358.567 -5.02176 0.111442 0
M  V30 3752 C 360.561 -6.14276 1.7013 0
M  V30 3753 C 358.248 -6.02477 1.02296 0
M  V30 3754 C 359.246 -6.58403 1.81643 0
M  V30 3755 O 358.934 -7.56751 2.71262 0
M  V30 3756 H 358.666 -0.667915 -0.104235 0
M  V30 3757 H 361.22 -2.0257 0.339782 0
M  V30 3758 H 359.45 -3.42318 -1.79876 0
M  V30 3759 H 361.139 -3.7545 -1.54248 0
M  V30 3760 H 361.905 -4.79756 0.711288 0
M  V30 3761 H 357.784 -4.58323 -0.49605 0
M  V30 3762 H 361.328 -6.57854 2.32107 0
M  V30 3763 H 357.225 -6.35954 1.10599 0
M  V30 3764 H 357.993 -7.74286 2.65375 0
M  V30 3765 N 360.656 0.0484629 -1.57525 0
M  V30 3766 C 361.619 1.03956 -2.04269 0
M  V30 3767 C 362.619 1.30211 -0.943496 0
M  V30 3768 O 363.809 1.25539 -1.20771 0
M  V30 3769 C 360.941 2.37742 -2.44319 0
M  V30 3770 H 362.134 0.636182 -2.93075 0
M  V30 3771 H 359.687 0.294811 -1.53494 0
M  V30 3772 H 360.422 2.82866 -1.5861 0
M  V30 3773 H 360.207 2.20021 -3.24551 0
M  V30 3774 H 361.697 3.08936 -2.80978 0
M  V30 3775 O 362.173 1.60359 0.191666 0
M  V30 3776 H 362.864 1.75005 0.830227 0
M  V30 END ATOM
M  V30 BEGIN BOND
M  V30 END BOND
M  V30 END CTAB
M  END
$$$$
