drugbank_target|Q9NXA8 NAD-dependent protein deacylase sirtuin-5, mitochondrial (DB02059; DB02701; DB03478; DB04786; DB15493)
 OpenBabel12092120303D

  0  0  0     0  0            999 V3000
M  V30 BEGIN CTAB
M  V30 COUNTS 4748 4807 0 0 0
M  V30 BEGIN ATOM
M  V30 1 H -0.908 1.98254 -0.117106 0
M  V30 2 N 0 1.576 0 0
M  V30 3 C 0.933 2.03868 1.02534 0
M  V30 4 C 1.911 0.928543 1.3348 0
M  V30 5 O 3.095 1.19667 1.45644 0
M  V30 6 C 0.222 2.43627 2.35294 0
M  V30 7 C -0.732 3.65373 2.2001 0
M  V30 8 S 0.101 5.13292 1.52614 0
M  V30 9 C 1.257 5.56322 2.86805 0
M  V30 10 H 1.49 2.90518 0.631377 0
M  V30 11 H -0.977 1.52953 0.210867 0
M  V30 12 H 0.981 2.67203 3.11629 0
M  V30 13 H -0.358 1.57376 2.7183 0
M  V30 14 H -1.165 3.90944 3.18086 0
M  V30 15 H -1.563 3.418 1.51819 0
M  V30 16 H 0.729 5.58782 3.83104 0
M  V30 17 H 1.672 6.56266 2.65933 0
M  V30 18 H 2.08 4.83886 2.90714 0
M  V30 19 N 1.4781 -0.272755 1.55222 0
M  V30 20 C 2.8941 -0.619959 1.47067 0
M  V30 21 C 3.0941 -1.895 0.684978 0
M  V30 22 O 2.1501 -2.51675 0.203931 0
M  V30 23 C 3.4631 -0.746693 2.91282 0
M  V30 24 C 5.0111 -0.840731 3.01497 0
M  V30 25 C 5.4861 -0.99924 4.46967 0
M  V30 26 N 6.9771 -1.06476 4.50796 0
M  V30 27 C 7.7121 -1.20621 5.6057 0
M  V30 28 N 7.2081 -1.31483 6.80209 0
M  V30 29 N 9.0011 -1.23733 5.48312 0
M  V30 30 H 1.1521 0.564606 2.04758 0
M  V30 31 H 3.4151 0.191177 0.928523 0
M  V30 32 H 3.1211 0.119753 3.51496 0
M  V30 33 H 2.9951 -1.6269 3.40311 0
M  V30 34 H 5.3821 -1.69764 2.41379 0
M  V30 35 H 5.4631 0.0640874 2.5572 0
M  V30 36 H 5.1071 -0.146984 5.07687 0
M  V30 37 H 5.0371 -1.91871 4.90401 0
M  V30 38 H 7.5281 -0.993196 3.64615 0
M  V30 39 H 7.8411 -1.42111 7.59621 0
M  V30 40 H 6.1861 -1.28487 6.8302 0
M  V30 41 H 9.3771 -1.14877 4.53785 0
M  V30 42 H 9.5501 -1.34412 6.33906 0
M  V30 43 N 2.9562 -1.48159 -0.537278 0
M  V30 44 C 4.3672 -1.49429 -1.11928 0
M  V30 45 C 4.7182 -0.26 -1.9447 0
M  V30 46 O 3.8432 0.633489 -2.0692 0
M  V30 47 C 4.4382 -2.70758 -2.03656 0
M  V30 48 C 2.9972 -2.74923 -2.57088 0
M  V30 49 C 2.1442 -2.42835 -1.3389 0
M  V30 50 H 5.0952 -1.55381 -0.322886 0
M  V30 51 H 5.1162 -2.48861 -2.87834 0
M  V30 52 H 4.6282 -3.60575 -1.43553 0
M  V30 53 H 2.7292 -1.89296 -3.20933 0
M  V30 54 H 2.8422 -3.76157 -2.9672 0
M  V30 55 H 1.2062 -1.93836 -1.65226 0
M  V30 56 H 1.9892 -3.34884 -0.755504 0
M  V30 57 N 4.4343 0.785586 -1.36625 0
M  V30 58 C 5.3643 1.91259 -1.33949 0
M  V30 59 C 6.3453 1.68795 -0.210325 0
M  V30 60 O 7.5303 1.89854 -0.408561 0
M  V30 61 C 4.6603 3.28339 -1.13186 0
M  V30 62 C 3.6143 3.65335 -2.22967 0
M  V30 63 C 2.9403 5.00806 -1.87342 0
M  V30 64 C 4.2403 3.7352 -3.65075 0
M  V30 65 H 5.9343 1.93755 -2.28253 0
M  V30 66 H 3.4803 0.930788 -1.09874 0
M  V30 67 H 5.4333 4.06804 -1.09948 0
M  V30 68 H 4.1573 3.2624 -0.153332 0
M  V30 69 H 2.8163 2.89169 -2.25337 0
M  V30 70 H 2.4643 4.95233 -0.880545 0
M  V30 71 H 2.1643 5.26529 -2.60846 0
M  V30 72 H 3.6883 5.81687 -1.85667 0
M  V30 73 H 5.1023 4.42168 -3.64911 0
M  V30 74 H 3.4993 4.10731 -4.37516 0
M  V30 75 H 4.5693 2.74527 -3.99703 0
M  V30 76 N 5.9124 1.20967 1.01018 0
M  V30 77 C 6.8444 0.922059 2.09835 0
M  V30 78 C 7.8574 -0.0927106 1.62536 0
M  V30 79 O 9.0464 0.139127 1.77957 0
M  V30 80 C 6.1464 0.362004 3.36961 0
M  V30 81 C 5.3194 1.42986 4.13369 0
M  V30 82 C 4.3784 0.879976 5.1879 0
M  V30 83 O 3.4044 1.56219 5.47343 0
M  V30 84 N 4.6064 -0.307396 5.79686 0
M  V30 85 H 7.3714 1.8588 2.35093 0
M  V30 86 H 4.9324 1.11422 1.1746 0
M  V30 87 H 6.9244 -0.0201474 4.04695 0
M  V30 88 H 5.4944 -0.479437 3.08902 0
M  V30 89 H 4.7144 1.98608 3.40512 0
M  V30 90 H 6.0024 2.14885 4.61196 0
M  V30 91 H 5.4004 -0.878796 5.58832 0
M  V30 92 H 3.9574 -0.631115 6.48737 0
M  V30 93 N 7.3905 -1.2043 1.01659 0
M  V30 94 C 8.6395 -1.89118 0.701237 0
M  V30 95 C 8.9525 -1.79705 -0.772358 0
M  V30 96 O 10.1585 -2.43528 -1.20026 0
M  V30 97 C 8.6145 -3.39168 1.20388 0
M  V30 98 C 8.2225 -3.57166 2.70438 0
M  V30 99 C 9.9665 -4.1341 0.963953 0
M  V30 100 C 7.8735 -5.01042 3.14183 0
M  V30 101 H 6.8035 -0.708267 0.2586 0
M  V30 102 H 9.4545 -1.36239 1.22927 0
M  V30 103 H 7.8365 -3.91369 0.603824 0
M  V30 104 H 9.0105 -3.15351 3.35992 0
M  V30 105 H 7.3255 -2.96294 2.92572 0
M  V30 106 H 9.9225 -5.19491 1.26621 0
M  V30 107 H 10.2655 -4.16181 -0.099578 0
M  V30 108 H 10.7985 -3.67309 1.52738 0
M  V30 109 H 7.5375 -5.03426 4.19812 0
M  V30 110 H 7.0575 -5.43668 2.53348 0
M  V30 111 H 8.7365 -5.69623 3.0682 0
M  V30 112 N 8.8686 -0.792821 -1.36206 0
M  V30 113 C 10.1146 -0.36733 -1.99446 0
M  V30 114 C 10.4476 1.05917 -1.62774 0
M  V30 115 O 9.7226 1.7324 -0.88421 0
M  V30 116 C 10.0056 -0.535044 -3.56103 0
M  V30 117 C 9.8586 -2.00548 -4.02617 0
M  V30 118 C 11.1776 0.0478191 -4.40074 0
M  V30 119 H 8.2966 -0.134941 -0.724541 0
M  V30 120 H 10.9386 -0.999794 -1.61568 0
M  V30 121 H 9.0886 0.00336329 -3.885 0
M  V30 122 H 10.7606 -2.60521 -3.80692 0
M  V30 123 H 9.0036 -2.50686 -3.54032 0
M  V30 124 H 9.6746 -2.07377 -5.11565 0
M  V30 125 H 12.1506 -0.411822 -4.14057 0
M  V30 126 H 11.0266 -0.0995336 -5.4881 0
M  V30 127 H 11.2876 1.14025 -4.27142 0
M  V30 128 N 10.3467 1.47872 -0.545128 0
M  V30 129 C 11.7577 1.86384 -0.108581 0
M  V30 130 C 12.1087 1.45309 1.31832 0
M  V30 131 O 11.2337 0.850641 1.9898 0
M  V30 132 C 11.8287 3.38265 -0.190274 0
M  V30 133 C 10.3877 3.75914 0.191164 0
M  V30 134 C 9.5347 2.71926 -0.543273 0
M  V30 135 H 12.4857 1.39561 -0.755537 0
M  V30 136 H 12.5067 3.75831 0.594217 0
M  V30 137 H 12.0187 3.6813 -1.2289 0
M  V30 138 H 10.1197 3.51665 1.23136 0
M  V30 139 H 10.2327 4.78836 -0.158987 0
M  V30 140 H 8.5967 2.54697 0.0122495 0
M  V30 141 H 9.3797 3.04634 -1.58282 0
M  V30 142 N 11.8248 0.280983 1.55075 0
M  V30 143 C 13.0498 -0.340154 2.04592 0
M  V30 144 C 13.4748 -1.48246 1.15779 0
M  V30 145 O 12.8328 -1.80614 0.15761 0
M  V30 146 C 12.8808 -0.793104 3.5177 0
M  V30 147 O 11.9848 -1.89981 3.66034 0
M  V30 148 H 11.3258 -0.0694289 0.66036 0
M  V30 149 H 13.8558 0.416993 2.00306 0
M  V30 150 H 13.8658 -1.08729 3.93245 0
M  V30 151 H 12.5408 0.0426163 4.15878 0
M  V30 152 H 11.1178 -1.60771 3.36463 0
M  V30 153 N 13.3029 -1.57598 0.00835791 0
M  V30 154 C 14.7189 -1.55764 -0.347822 0
M  V30 155 C 14.9189 -1.01186 -1.74252 0
M  V30 156 O 13.9749 -0.649371 -2.44007 0
M  V30 157 C 15.2879 -2.99927 -0.215407 0
M  V30 158 C 16.8359 -3.11656 -0.289725 0
M  V30 159 C 17.3109 -4.57621 -0.18634 0
M  V30 160 N 18.8019 -4.62557 -0.243978 0
M  V30 161 C 19.5369 -5.73094 -0.18745 0
M  V30 162 N 19.0329 -6.92753 -0.0810331 0
M  V30 163 N 20.8259 -5.61588 -0.239925 0
M  V30 164 H 12.9769 -1.91411 0.92062 0
M  V30 165 H 15.2399 -0.879562 0.353659 0
M  V30 166 H 14.9459 -3.43729 0.744512 0
M  V30 167 H 14.8199 -3.63865 -0.994097 0
M  V30 168 H 17.2069 -2.67779 -1.24009 0
M  V30 169 H 17.2879 -2.5048 0.51898 0
M  V30 170 H 16.9319 -5.02174 0.760519 0
M  V30 171 H 16.8619 -5.16752 -1.01364 0
M  V30 172 H 19.3529 -3.76481 -0.327217 0
M  V30 173 H 19.6659 -7.72787 -0.0440241 0
M  V30 174 H 18.0109 -6.94984 -0.0465419 0
M  V30 175 H 21.2019 -4.66996 -0.321317 0
M  V30 176 H 21.3749 -6.47714 -0.192407 0
M  V30 177 N 14.781 0.264519 -1.55364 0
M  V30 178 C 15.711 1.33121 -1.91836 0
M  V30 179 C 16.692 1.51101 -0.781192 0
M  V30 180 O 17.877 1.64003 -1.04003 0
M  V30 181 C 15.007 2.68921 -2.19769 0
M  V30 182 C 13.961 2.65661 -3.35571 0
M  V30 183 C 13.287 4.05093 -3.49004 0
M  V30 184 C 14.587 2.24187 -4.71739 0
M  V30 185 H 16.281 1.02844 -2.81182 0
M  V30 186 H 13.827 0.493286 -1.35287 0
M  V30 187 H 15.78 3.43663 -2.43872 0
M  V30 188 H 14.504 3.00799 -1.27231 0
M  V30 189 H 13.163 1.93377 -3.1145 0
M  V30 190 H 12.811 4.34206 -2.53917 0
M  V30 191 H 12.511 4.03804 -4.26868 0
M  V30 192 H 14.035 4.81561 -3.75408 0
M  V30 193 H 15.449 2.88654 -4.9533 0
M  V30 194 H 13.846 2.34044 -5.52579 0
M  V30 195 H 14.916 1.19327 -4.69988 0
M  V30 196 N 16.2591 1.48442 0.529413 0
M  V30 197 C 17.5081 1.55742 1.28169 0
M  V30 198 C 17.8211 0.236511 1.94165 0
M  V30 199 O 19.0271 0.187761 2.7085 0
M  V30 200 C 17.4831 2.74667 2.32564 0
M  V30 201 C 17.0911 4.13402 1.72636 0
M  V30 202 C 18.8351 2.9128 3.08798 0
M  V30 203 C 16.7421 5.23587 2.74975 0
M  V30 204 H 15.6721 0.579796 0.48203 0
M  V30 205 H 18.3231 1.74776 0.559056 0
M  V30 206 H 16.7051 2.49067 3.07866 0
M  V30 207 H 17.8791 4.49022 1.03519 0
M  V30 208 H 16.1941 4.0191 1.08892 0
M  V30 209 H 18.7911 3.70767 3.85274 0
M  V30 210 H 19.1341 2.00757 3.64695 0
M  V30 211 H 19.6671 3.16782 2.40611 0
M  V30 212 H 16.4061 6.16076 2.23897 0
M  V30 213 H 15.9261 4.92454 3.42417 0
M  V30 214 H 17.6051 5.51724 3.37949 0
M  V30 215 N 17.7372 -0.778329 1.37039 0
M  V30 216 C 18.9622 -1.57248 1.35233 0
M  V30 217 C 19.3872 -1.87999 -0.0615568 0
M  V30 218 O 18.7452 -1.48734 -1.03672 0
M  V30 219 C 18.7932 -2.86353 2.19167 0
M  V30 220 O 17.8972 -3.80442 1.59178 0
M  V30 221 H 17.2382 -0.476569 0.462362 0
M  V30 222 H 19.7682 -0.963853 1.80474 0
M  V30 223 H 19.7782 -3.35519 2.32145 0
M  V30 224 H 18.4532 -2.63299 3.21942 0
M  V30 225 H 17.0302 -3.39067 1.55203 0
M  V30 226 N 19.2153 -1.21501 -1.00376 0
M  V30 227 C 20.1473 -0.933174 -2.09343 0
M  V30 228 C 21.1603 0.0840896 -1.62583 0
M  V30 229 O 22.3493 -0.148563 -1.77881 0
M  V30 230 C 19.4493 -0.379869 -3.36764 0
M  V30 231 C 18.6223 -1.45176 -4.12605 0
M  V30 232 C 17.6813 -0.907476 -5.18316 0
M  V30 233 O 16.7073 -1.5912 -5.46507 0
M  V30 234 N 17.9093 0.276649 -5.7984 0
M  V30 235 H 20.6743 -1.87124 -2.34104 0
M  V30 236 H 18.2353 -1.12043 -1.16867 0
M  V30 237 H 20.2273 -0.00131488 -4.047 0
M  V30 238 H 18.7973 0.463048 -3.09151 0
M  V30 239 H 18.0173 -2.00411 -3.39454 0
M  V30 240 H 19.3053 -2.17328 -4.6005 0
M  V30 241 H 18.7033 0.849147 -5.59291 0
M  V30 242 H 17.2603 0.596702 -6.49063 0
M  V30 243 N 20.6934 1.19889 -1.02296 0
M  V30 244 C 21.6234 2.25141 -0.619174 0
M  V30 245 C 22.6044 1.66051 0.368915 0
M  V30 246 O 23.7894 1.92546 0.252941 0
M  V30 247 C 20.9194 3.4728 0.0368783 0
M  V30 248 C 19.8734 4.19005 -0.872865 0
M  V30 249 C 19.1994 5.34637 -0.0822402 0
M  V30 250 C 20.4994 4.74452 -2.18387 0
M  V30 251 H 22.1934 2.59171 -1.49903 0
M  V30 252 H 19.7394 1.24579 -0.722222 0
M  V30 253 H 21.6924 4.20098 0.330958 0
M  V30 254 H 20.4164 3.12433 0.95149 0
M  V30 255 H 19.0754 3.48061 -1.15105 0
M  V30 256 H 18.7234 4.96034 0.83422 0
M  V30 257 H 18.4234 5.83557 -0.688149 0
M  V30 258 H 19.9474 6.10255 0.205238 0
M  V30 259 H 21.3614 5.39055 -1.95172 0
M  V30 260 H 19.7584 5.33834 -2.74119 0
M  V30 261 H 20.8284 3.92844 -2.84257 0
M  V30 262 N 22.1715 0.800033 1.35784 0
M  V30 263 C 23.4015 0.389041 2.02904 0
M  V30 264 C 23.8095 -1.0027 1.60445 0
M  V30 265 O 23.1525 -1.65633 0.794453 0
M  V30 266 C 23.2145 0.385495 3.57427 0
M  V30 267 C 22.8785 1.72662 4.23127 0
M  V30 268 C 23.8755 2.68385 4.4527 0
M  V30 269 C 21.5605 2.00883 4.60381 0
M  V30 270 C 23.5545 3.90517 5.03761 0
M  V30 271 C 21.2415 3.2328 5.18588 0
M  V30 272 C 22.2395 4.17915 5.40218 0
M  V30 273 O 21.9275 5.38153 5.97199 0
M  V30 274 H 21.6595 0.157032 0.657508 0
M  V30 275 H 24.2135 1.08311 1.74522 0
M  V30 276 H 22.4435 -0.365128 3.84972 0
M  V30 277 H 24.1325 -0.00228296 4.059 0
M  V30 278 H 24.8985 2.47872 4.16874 0
M  V30 279 H 20.7775 1.28037 4.42863 0
M  V30 280 H 24.3215 4.64395 5.2056 0
M  V30 281 H 20.2185 3.43667 5.4641 0
M  V30 282 H 20.9865 5.3936 6.15656 0
M  V30 283 N 23.6496 -1.47581 0.552962 0
M  V30 284 C 24.8896 -2.04379 0.0296245 0
M  V30 285 C 25.2536 -1.4185 -1.29393 0
M  V30 286 O 26.4546 -1.89669 -1.90471 0
M  V30 287 C 24.7256 -3.57339 -0.0661371 0
M  V30 288 S 26.2846 -4.35511 -0.536213 0
M  V30 289 H 23.1026 -0.710625 0.0230991 0
M  V30 290 H 25.7046 -1.81005 0.738734 0
M  V30 291 H 24.4086 -4.00374 0.901596 0
M  V30 292 H 23.9396 -3.85202 -0.798931 0
M  V30 293 H 25.9546 -4.6253 -1.79668 0
M  V30 294 N 25.1277 -0.289203 -1.54924 0
M  V30 295 C 26.3757 0.322879 -1.99504 0
M  V30 296 C 26.6967 1.55313 -1.1791 0
M  V30 297 O 25.9667 1.94001 -0.272097 0
M  V30 298 H 24.5467 0.122291 -0.736922 0
M  V30 299 H 27.2087 -0.397802 -1.90797 0
M  V30 300 H 26.3047 0.603061 -3.06218 0
M  V30 301 N 26.6058 1.57591 -0.0167156 0
M  V30 302 C 27.5358 2.12496 0.967858 0
M  V30 303 C 28.5168 1.03807 1.34752 0
M  V30 304 O 29.7018 1.31577 1.42833 0
M  V30 305 C 26.8318 2.64194 2.25431 0
M  V30 306 C 25.7858 3.77559 2.01576 0
M  V30 307 C 25.1118 4.15636 3.36379 0
M  V30 308 C 26.4118 5.04151 1.36489 0
M  V30 309 H 28.1058 2.95013 0.510643 0
M  V30 310 H 25.6518 1.41915 0.244181 0
M  V30 311 H 27.6048 3.01236 2.94678 0
M  V30 312 H 26.3288 1.78821 2.73296 0
M  V30 313 H 24.9878 3.40937 1.34751 0
M  V30 314 H 24.6358 3.27263 3.81979 0
M  V30 315 H 24.3358 4.92022 3.21229 0
M  V30 316 H 25.8598 4.5525 4.06915 0
M  V30 317 H 27.2738 5.38857 1.95718 0
M  V30 318 H 25.6708 5.85453 1.31776 0
M  V30 319 H 26.7408 4.83733 0.336219 0
M  V30 320 N 28.0839 -0.256276 1.55502 0
M  V30 321 C 29.0309 -1.31714 1.89526 0
M  V30 322 C 30.0009 -1.4828 0.748479 0
M  V30 323 O 31.1859 -1.62416 1.00128 0
M  V30 324 C 28.3259 -2.66933 2.18725 0
M  V30 325 C 27.4389 -2.58452 3.4616 0
M  V30 326 C 26.5739 -3.85961 3.64976 0
M  V30 327 C 25.6129 -3.72059 4.86044 0
M  V30 328 N 24.7499 -4.9144 5.01429 0
M  V30 329 H 29.5899 -1.01998 2.80001 0
M  V30 330 H 27.1269 -0.492413 1.38613 0
M  V30 331 H 29.0849 -3.4563 2.33657 0
M  V30 332 H 27.7149 -2.94816 1.31466 0
M  V30 333 H 26.7669 -1.71374 3.3961 0
M  V30 334 H 28.0789 -2.44085 4.34999 0
M  V30 335 H 27.2329 -4.73101 3.79816 0
M  V30 336 H 25.9719 -4.03215 2.74353 0
M  V30 337 H 24.9769 -2.83302 4.7119 0
M  V30 338 H 26.2019 -3.56309 5.78118 0
M  V30 339 H 24.1479 -5.09072 4.13741 0
M  V30 340 H 24.0649 -4.79668 5.84341 0
M  V30 341 H 25.3329 -5.80104 5.20672 0
M  V30 342 N 29.562 -1.4872 -0.521534 0
M  V30 343 C 30.973 -1.50607 -1.10337 0
M  V30 344 C 31.324 -0.280612 -1.94183 0
M  V30 345 O 30.449 0.611507 -2.0758 0
M  V30 346 C 31.044 -2.72903 -2.00772 0
M  V30 347 C 29.603 -2.77634 -2.54158 0
M  V30 348 C 28.75 -2.44241 -1.31307 0
M  V30 349 H 31.701 -1.55714 -0.306388 0
M  V30 350 H 31.722 -2.519 -2.85178 0
M  V30 351 H 31.234 -3.62077 -1.39721 0
M  V30 352 H 29.335 -1.92689 -3.18907 0
M  V30 353 H 29.448 -3.79283 -2.92714 0
M  V30 354 H 27.812 -1.95577 -1.63161 0
M  V30 355 H 28.595 -3.35666 -0.719943 0
M  V30 356 N 31.0401 0.771051 -1.3745 0
M  V30 357 C 32.4511 1.34737 -1.29239 0
M  V30 358 C 32.8021 1.96109 0.0596908 0
M  V30 359 O 31.9271 1.93865 0.961534 0
M  V30 360 C 32.5221 2.44973 -2.34037 0
M  V30 361 C 31.0811 2.98372 -2.29458 0
M  V30 362 C 30.2281 1.71595 -2.17831 0
M  V30 363 H 33.1791 0.571256 -1.48062 0
M  V30 364 H 33.2001 3.24471 -1.98744 0
M  V30 365 H 32.7121 2.00276 -3.32432 0
M  V30 366 H 30.8131 3.47443 -1.34589 0
M  V30 367 H 30.9261 3.53939 -3.229 0
M  V30 368 H 29.2901 1.94547 -1.64388 0
M  V30 369 H 30.0731 1.29001 -3.18141 0
M  V30 370 N 32.5182 1.22032 0.997298 0
M  V30 371 C 33.4812 0.987909 2.06816 0
M  V30 372 C 34.4812 -0.0440084 1.6074 0
M  V30 373 O 35.6712 0.194053 1.73116 0
M  V30 374 C 32.8032 0.49132 3.37341 0
M  V30 375 H 33.9962 1.93803 2.28868 0
M  V30 376 H 31.5492 1.03838 1.16822 0
M  V30 377 H 32.2842 -0.463364 3.20973 0
M  V30 378 H 32.0692 1.23575 3.72118 0
M  V30 379 H 33.5592 0.348824 4.16141 0
M  V30 380 N 33.9963 -1.19345 1.0293 0
M  V30 381 C 35.2213 -1.93538 0.745511 0
M  V30 382 C 35.6463 -1.75007 -0.689511 0
M  V30 383 O 35.0043 -1.05265 -1.47611 0
M  V30 384 C 35.0523 -3.43336 1.10239 0
M  V30 385 O 34.1563 -4.11806 0.221289 0
M  V30 386 H 33.4973 -0.604193 0.275404 0
M  V30 387 H 36.0273 -1.5141 1.37609 0
M  V30 388 H 36.0373 -3.94004 1.05947 0
M  V30 389 H 34.7123 -3.56146 2.14786 0
M  V30 390 H 33.2893 -3.715 0.322842 0
M  V30 391 N 35.4744 -0.807222 -1.35358 0
M  V30 392 C 36.7024 -0.400377 -2.02989 0
M  V30 393 C 37.1174 0.988859 -1.60832 0
M  V30 394 O 36.4744 1.63729 -0.806175 0
M  V30 395 C 36.5254 -0.474867 -3.58368 0
M  V30 396 O 36.2464 -1.80933 -3.98992 0
M  V30 397 C 37.7474 -0.0609112 -4.43258 0
M  V30 398 H 34.9674 -0.162587 -0.651004 0
M  V30 399 H 37.5114 -1.09102 -1.72965 0
M  V30 400 H 35.6664 0.167534 -3.87038 0
M  V30 401 H 36.0804 -1.77256 -4.9364 0
M  V30 402 H 37.5544 -0.164145 -5.51756 0
M  V30 403 H 38.0314 0.993831 -4.27808 0
M  V30 404 H 38.6374 -0.676492 -4.19885 0
M  V30 405 N 36.9525 1.47285 -0.560781 0
M  V30 406 C 38.3685 1.58065 -0.22081 0
M  V30 407 C 38.5685 1.55892 1.27671 0
M  V30 408 O 37.6245 1.46422 2.0571 0
M  V30 409 C 38.9375 2.88418 -0.850625 0
M  V30 410 C 40.4855 3.02009 -0.822184 0
M  V30 411 C 40.9605 4.35066 -1.43113 0
M  V30 412 N 42.4515 4.41711 -1.39448 0
M  V30 413 C 43.1865 5.43237 -1.83525 0
M  V30 414 N 42.6825 6.51555 -2.35474 0
M  V30 415 N 44.4755 5.34304 -1.74574 0
M  V30 416 H 36.6265 1.46941 -1.53369 0
M  V30 417 H 38.8895 0.699558 -0.639783 0
M  V30 418 H 38.5955 2.95755 -1.9032 0
M  V30 419 H 38.4695 3.75612 -0.345773 0
M  V30 420 H 40.8565 2.94266 0.221714 0
M  V30 421 H 40.9375 2.16347 -1.36483 0
M  V30 422 H 40.5815 4.43565 -2.47412 0
M  V30 423 H 40.5115 5.19465 -0.863899 0
M  V30 424 H 43.0025 3.64027 -1.01452 0
M  V30 425 H 43.3155 7.25203 -2.67021 0
M  V30 426 H 41.6605 6.52435 -2.39487 0
M  V30 427 H 44.8515 4.48581 -1.33763 0
M  V30 428 H 45.0245 6.13288 -2.09242 0
M  V30 429 N 38.4306 0.297415 1.54768 0
M  V30 430 C 39.3786 -0.596051 2.24833 0
M  V30 431 C 40.3726 -1.13992 1.25308 0
M  V30 432 O 41.5786 -1.09098 1.4317 0
M  V30 433 H 37.9536 -0.210814 0.721846 0
M  V30 434 H 39.9246 0.0174667 2.98395 0
M  V30 435 C 38.6736 -1.75818 2.99972 0
M  V30 436 H 37.9966 -1.3489 3.76357 0
M  V30 437 H 39.4366 -2.35949 3.52284 0
M  V30 438 C 37.8956 -2.66014 2.06732 0
M  V30 439 O 38.4256 -3.67009 1.63302 0
M  V30 440 N 36.6316 -2.33669 1.72763 0
M  V30 441 H 36.1786 -1.51586 2.08277 0
M  V30 442 H 36.1366 -2.94285 1.10652 0
M  V30 443 N 39.9087 -1.5758 0.0250728 0
M  V30 444 C 40.8407 -2.06869 -0.986796 0
M  V30 445 C 41.8537 -0.991332 -1.29137 0
M  V30 446 O 43.0427 -1.26761 -1.25674 0
M  V30 447 C 40.1427 -2.47486 -2.31525 0
M  V30 448 C 39.3157 -3.78253 -2.19643 0
M  V30 449 C 38.3747 -4.05464 -3.35388 0
M  V30 450 O 37.4007 -4.75774 -3.12454 0
M  V30 451 N 38.6027 -3.55321 -4.59051 0
M  V30 452 H 41.3677 -2.94302 -0.566276 0
M  V30 453 H 38.9287 -1.6109 -0.161776 0
M  V30 454 H 40.9207 -2.62785 -3.07776 0
M  V30 455 H 39.4907 -1.65441 -2.65232 0
M  V30 456 H 38.7107 -3.7279 -1.28144 0
M  V30 457 H 39.9987 -4.63936 -2.08903 0
M  V30 458 H 39.3967 -2.98431 -4.80578 0
M  V30 459 H 37.9537 -3.75905 -5.32483 0
M  V30 460 N 41.3868 0.248026 -1.55636 0
M  V30 461 C 42.6358 0.974134 -1.76617 0
M  V30 462 C 42.9488 1.86528 -0.588796 0
M  V30 463 O 44.1548 2.62805 -0.681594 0
M  V30 464 C 42.6108 1.78213 -3.12679 0
M  V30 465 C 42.2188 0.93843 -4.38061 0
M  V30 466 C 43.9628 2.50104 -3.42999 0
M  V30 467 C 41.8698 1.74225 -5.65155 0
M  V30 468 H 40.7998 0.36745 -0.658405 0
M  V30 469 H 43.4508 0.22884 -1.82067 0
M  V30 470 H 41.8328 2.56933 -3.01333 0
M  V30 471 H 43.0068 0.193635 -4.60393 0
M  V30 472 H 41.3218 0.332905 -4.15067 0
M  V30 473 H 43.9188 3.10694 -4.3517 0
M  V30 474 H 44.2618 3.21662 -2.64271 0
M  V30 475 H 44.7948 1.78395 -3.55556 0
M  V30 476 H 41.5338 1.07043 -6.46701 0
M  V30 477 H 41.0538 2.46235 -5.46926 0
M  V30 478 H 42.7328 2.30967 -6.0437 0
M  V30 479 N 42.8649 1.48995 0.513639 0
M  V30 480 C 44.1049 1.59452 1.27885 0
M  V30 481 C 44.4689 0.269479 1.90099 0
M  V30 482 O 45.6699 0.249139 2.67643 0
M  V30 483 C 43.9409 2.71277 2.32688 0
M  V30 484 S 45.4999 3.01604 3.18717 0
M  V30 485 H 42.3179 0.562565 0.434789 0
M  V30 486 H 44.9199 1.86595 0.583301 0
M  V30 487 H 43.6239 3.66089 1.8549 0
M  V30 488 H 43.1549 2.46086 3.06929 0
M  V30 489 H 45.1699 2.42155 4.331 0
M  V30 490 N 44.343 -0.763751 1.37857 0
M  V30 491 C 45.273 -1.89103 1.36975 0
M  V30 492 C 46.254 -1.68439 0.237152 0
M  V30 493 O 47.439 -1.8918 0.438713 0
M  V30 494 C 44.569 -3.26496 1.18395 0
M  V30 495 C 43.523 -3.61741 2.28751 0
M  V30 496 C 42.849 -4.97762 1.95286 0
M  V30 497 C 44.149 -3.67665 3.70972 0
M  V30 498 H 45.843 -1.90099 2.31307 0
M  V30 499 H 43.389 -0.91319 1.11341 0
M  V30 500 H 45.342 -4.05003 1.16406 0
M  V30 501 H 44.066 -3.25955 0.205215 0
M  V30 502 H 42.725 -2.85547 2.29909 0
M  V30 503 H 42.373 -4.93769 0.959221 0
M  V30 504 H 42.073 -5.22313 2.69189 0
M  V30 505 H 43.597 -5.7866 1.94898 0
M  V30 506 H 45.011 -4.36307 3.719 0
M  V30 507 H 43.408 -4.03718 4.43995 0
M  V30 508 H 44.478 -2.68134 4.0402 0
M  V30 509 N 45.8211 -1.22559 -0.990812 0
M  V30 510 C 46.7681 -0.997519 -2.0813 0
M  V30 511 C 47.7381 0.0814702 -1.659 0
M  V30 512 O 48.9231 -0.0685424 -1.90677 0
M  V30 513 C 46.0631 -0.583615 -3.40129 0
M  V30 514 C 45.1761 -1.7336 -3.9569 0
M  V30 515 C 44.3111 -1.26748 -5.15857 0
M  V30 516 C 43.3501 -2.38888 -5.63559 0
M  V30 517 N 42.4871 -1.93308 -6.74964 0
M  V30 518 H 47.3271 -1.93099 -2.26973 0
M  V30 519 H 44.8641 -0.962114 -1.11273 0
M  V30 520 H 46.8221 -0.324801 -4.15934 0
M  V30 521 H 45.4521 0.312845 -3.2128 0
M  V30 522 H 44.5041 -2.10669 -3.16738 0
M  V30 523 H 45.8161 -2.57704 -4.27071 0
M  V30 524 H 44.9701 -0.966173 -5.98957 0
M  V30 525 H 43.7091 -0.394272 -4.86104 0
M  V30 526 H 42.7141 -2.69805 -4.79046 0
M  V30 527 H 43.9391 -3.26728 -5.95336 0
M  V30 528 H 41.8851 -1.08352 -6.4699 0
M  V30 529 H 41.8021 -2.71217 -7.05675 0
M  V30 530 H 43.0701 -1.66252 -7.61564 0
M  V30 531 N 47.2992 1.18797 -1.03562 0
M  V30 532 C 48.2322 2.2105 -0.56676 0
M  V30 533 C 49.2102 1.57704 0.395993 0
M  V30 534 O 50.3942 1.85908 0.311498 0
M  V30 535 C 47.5212 3.38259 0.172704 0
M  V30 536 C 46.5672 4.19987 -0.74252 0
M  V30 537 S 47.4002 4.87199 -2.22254 0
M  V30 538 C 48.5562 6.07813 -1.49379 0
M  V30 539 H 48.7892 2.60478 -1.43312 0
M  V30 540 H 46.3222 1.29151 -0.846133 0
M  V30 541 H 48.2802 4.06191 0.593191 0
M  V30 542 H 46.9412 2.97252 1.01488 0
M  V30 543 H 46.1342 5.03709 -0.171265 0
M  V30 544 H 45.7362 3.57408 -1.10163 0
M  V30 545 H 48.0282 6.72948 -0.784056 0
M  V30 546 H 48.9712 6.69435 -2.30786 0
M  V30 547 H 49.3792 5.55781 -0.988331 0
M  V30 548 N 48.7773 0.814389 1.34928 0
M  V30 549 C 49.7403 0.235759 2.27984 0
M  V30 550 C 50.7403 -0.581412 1.49921 0
M  V30 551 O 51.9303 -0.398758 1.69575 0
M  V30 552 C 49.0623 -0.670433 3.34242 0
M  V30 553 H 50.2553 1.05659 2.80671 0
M  V30 554 H 47.8083 0.585614 1.44915 0
M  V30 555 H 48.5433 -1.51466 2.86755 0
M  V30 556 H 48.3283 -0.0860822 3.92005 0
M  V30 557 H 49.8183 -1.06935 4.03676 0
M  V30 558 N 50.2554 -1.46986 0.568584 0
M  V30 559 C 51.6714 -1.57946 0.229189 0
M  V30 560 C 51.8714 -1.56567 -1.26843 0
M  V30 561 O 50.9274 -1.47511 -2.04931 0
M  V30 562 C 52.2404 -2.87963 0.865909 0
M  V30 563 C 53.7884 -3.01568 0.838188 0
M  V30 564 C 54.2634 -4.34301 1.45419 0
M  V30 565 N 55.7544 -4.40965 1.41788 0
M  V30 566 C 56.4894 -5.42256 1.86403 0
M  V30 567 N 55.9854 -6.50297 2.38926 0
M  V30 568 N 57.7784 -5.3337 1.77405 0
M  V30 569 H 49.9294 -1.46126 1.54146 0
M  V30 570 H 52.1924 -0.696156 0.643484 0
M  V30 571 H 51.8984 -2.94742 1.91886 0
M  V30 572 H 51.7724 -3.75423 0.365687 0
M  V30 573 H 54.1594 -2.94379 -0.206106 0
M  V30 574 H 54.2404 -2.1562 1.37629 0
M  V30 575 H 53.8844 -4.42247 2.49761 0
M  V30 576 H 53.8144 -5.19 0.891435 0
M  V30 577 H 56.3054 -3.63484 1.03381 0
M  V30 578 H 56.6184 -7.23777 2.70863 0
M  V30 579 H 54.9634 -6.51155 2.42944 0
M  V30 580 H 58.1544 -4.47865 1.3614 0
M  V30 581 H 58.3274 -6.12169 2.12492 0
M  V30 582 N 51.7335 -0.305618 -1.54608 0
M  V30 583 C 53.1445 0.186098 -1.8577 0
M  V30 584 C 53.4955 1.53058 -1.22751 0
M  V30 585 O 52.6205 2.09888 -0.526893 0
M  V30 586 C 53.2155 0.344449 -3.37044 0
M  V30 587 C 51.7745 0.780384 -3.68221 0
M  V30 588 C 50.9215 -0.108554 -2.77087 0
M  V30 589 H 53.8725 -0.526485 -1.49712 0
M  V30 590 H 53.8935 1.17828 -3.61796 0
M  V30 591 H 53.4055 -0.634235 -3.82883 0
M  V30 592 H 51.5065 1.76945 -3.27904 0
M  V30 593 H 51.6195 0.596572 -4.75371 0
M  V30 594 H 49.9835 0.412931 -2.5133 0
M  V30 595 H 50.7665 -1.08368 -3.25747 0
M  V30 596 N 53.2116 1.57565 -0.0334293 0
M  V30 597 C 54.4366 1.96689 0.657895 0
M  V30 598 C 54.8616 0.910057 1.64619 0
M  V30 599 O 54.2196 -0.128598 1.80843 0
M  V30 600 C 54.2676 3.34905 1.33683 0
M  V30 601 O 53.3716 3.31574 2.45219 0
M  V30 602 H 52.7126 0.641205 0.172489 0
M  V30 603 H 55.2426 2.04372 -0.0965621 0
M  V30 604 H 55.2526 3.71234 1.69262 0
M  V30 605 H 53.9276 4.11366 0.612411 0
M  V30 606 H 52.5046 3.06968 2.11719 0
M  V30 607 N 54.6897 -0.239769 1.55765 0
M  V30 608 C 55.9147 -0.988373 1.82335 0
M  V30 609 C 56.3397 -1.77886 0.611421 0
M  V30 610 O 55.6977 -1.75889 -0.439639 0
M  V30 611 C 55.7457 -1.89627 3.06715 0
M  V30 612 O 54.8497 -2.98904 2.84131 0
M  V30 613 H 54.1907 -0.280858 0.601677 0
M  V30 614 H 56.7207 -0.258597 2.02959 0
M  V30 615 H 56.7307 -2.30957 3.36338 0
M  V30 616 H 55.4057 -1.31511 3.9456 0
M  V30 617 H 53.9827 -2.61651 2.65694 0
M  V30 618 N 56.1678 -1.49265 -0.50573 0
M  V30 619 C 57.3928 -1.62478 -1.28902 0
M  V30 620 C 57.8178 -0.294332 -1.85783 0
M  V30 621 O 57.1758 0.737412 -1.65626 0
M  V30 622 C 57.2238 -2.69268 -2.39848 0
M  V30 623 O 56.3278 -2.28113 -3.43567 0
M  V30 624 H 55.6688 -0.54399 -0.380751 0
M  V30 625 H 58.1988 -1.95421 -0.605952 0
M  V30 626 H 58.2088 -2.91291 -2.85681 0
M  V30 627 H 56.8838 -3.65846 -1.97812 0
M  V30 628 H 55.4608 -2.16401 -3.03685 0
M  V30 629 N 57.6459 0.756429 -1.3826 0
M  V30 630 C 58.5789 1.87802 -1.29637 0
M  V30 631 C 59.5569 1.61667 -0.173939 0
M  V30 632 O 60.7409 1.85208 -0.350775 0
M  V30 633 C 57.8679 3.23354 -1.00797 0
M  V30 634 C 56.9139 3.68379 -2.14939 0
M  V30 635 S 57.7469 3.8025 -3.77054 0
M  V30 636 C 58.9029 5.18626 -3.50396 0
M  V30 637 H 59.1359 1.94829 -2.24564 0
M  V30 638 H 56.6689 0.919117 -1.24063 0
M  V30 639 H 58.6269 4.01637 -0.848413 0
M  V30 640 H 57.2879 3.14008 -0.0759369 0
M  V30 641 H 56.4809 4.66693 -1.90299 0
M  V30 642 H 56.0829 2.97242 -2.26988 0
M  V30 643 H 58.3749 6.04289 -3.06334 0
M  V30 644 H 59.3179 5.48286 -4.48094 0
M  V30 645 H 59.7259 4.87289 -2.84973 0
M  V30 646 N 59.124 1.23083 0.984299 0
M  V30 647 C 60.087 1.00979 2.05757 0
M  V30 648 C 61.087 -0.0269573 1.60777 0
M  V30 649 O 62.277 0.212403 1.729 0
M  V30 650 C 59.409 0.527072 3.36801 0
M  V30 651 H 60.602 1.9622 2.26799 0
M  V30 652 H 58.155 1.05072 1.15714 0
M  V30 653 H 58.89 -0.429294 3.21446 0
M  V30 654 H 58.675 1.27515 3.70786 0
M  V30 655 H 60.165 0.392942 4.15747 0
M  V30 656 N 60.6021 -1.18246 1.0419 0
M  V30 657 C 61.8791 -1.84121 0.660208 0
M  V30 658 C 62.2591 -1.92778 -0.860221 0
M  V30 659 O 61.6071 -1.45464 -1.76217 0
M  V30 660 C 61.8171 -3.22355 1.33747 0
M  V30 661 C 63.1651 -3.98376 1.46906 0
M  V30 662 O 64.1891 -3.31799 1.29568 0
M  V30 663 O 63.0481 -5.17665 1.75171 0
M  V30 664 H 60.1421 -0.794036 0.231161 0
M  V30 665 H 62.6881 -1.25628 1.14087 0
M  V30 666 H 61.4601 -3.10964 2.37522 0
M  V30 667 H 61.0831 -3.88506 0.845515 0
M  V30 668 N 62.0802 -0.821533 -1.34494 0
M  V30 669 C 63.3272 -0.408946 -1.98328 0
M  V30 670 C 63.6552 1.02764 -1.65136 0
M  V30 671 O 62.9102 1.73026 -0.914349 0
M  V30 672 C 63.2092 -0.556512 -3.53041 0
M  V30 673 C 62.8752 -1.95861 -4.0614 0
M  V30 674 C 61.5372 -2.34217 -4.20352 0
M  V30 675 C 63.8892 -2.87523 -4.34718 0
M  V30 676 C 61.2172 -3.63572 -4.6047 0
M  V30 677 C 63.5692 -4.1634 -4.76281 0
M  V30 678 C 62.2332 -4.54675 -4.88699 0
M  V30 679 H 61.5032 -0.149644 -0.725732 0
M  V30 680 H 64.1502 -1.04521 -1.6046 0
M  V30 681 H 62.4552 0.163148 -3.9146 0
M  V30 682 H 64.1522 -0.217826 -4.00408 0
M  V30 683 H 60.7422 -1.65066 -3.95539 0
M  V30 684 H 64.9262 -2.59133 -4.23277 0
M  V30 685 H 60.1822 -3.93101 -4.68275 0
M  V30 686 H 64.3562 -4.87455 -4.97354 0
M  V30 687 H 61.9832 -5.54959 -5.19542 0
M  V30 688 N 63.5583 1.46682 -0.576371 0
M  V30 689 C 64.9743 1.57822 -0.237562 0
M  V30 690 C 65.1743 1.57237 1.26011 0
M  V30 691 O 64.2303 1.48596 2.04146 0
M  V30 692 C 65.5433 2.87499 -0.881168 0
M  V30 693 C 67.0913 3.01119 -0.85417 0
M  V30 694 C 67.5663 4.33524 -1.4772 0
M  V30 695 N 69.0573 4.40207 -1.44125 0
M  V30 696 C 69.7923 5.4126 -1.89276 0
M  V30 697 N 69.2883 6.49021 -2.42371 0
M  V30 698 N 71.0813 5.32422 -1.80231 0
M  V30 699 H 63.2323 1.45306 -1.54919 0
M  V30 700 H 65.4953 0.692733 -0.647167 0
M  V30 701 H 65.2013 2.9372 -1.93447 0
M  V30 702 H 65.0753 3.75224 -0.385592 0
M  V30 703 H 67.4623 2.94485 0.190491 0
M  V30 704 H 67.5433 2.14887 -1.3877 0
M  V30 705 H 67.1873 4.40916 -2.52103 0
M  V30 706 H 67.1173 5.1852 -0.918947 0
M  V30 707 H 69.6083 3.62931 -1.05307 0
M  V30 708 H 69.9213 7.2233 -2.74698 0
M  V30 709 H 68.2663 6.49858 -2.46393 0
M  V30 710 H 71.4573 4.47137 -1.38514 0
M  V30 711 H 71.6303 6.11034 -2.15735 0
M  V30 712 N 65.0364 0.313813 1.54444 0
M  V30 713 C 65.9834 -0.55655 2.23989 0
M  V30 714 C 66.9534 -1.11943 1.22711 0
M  V30 715 O 68.1384 -1.16158 1.51367 0
M  V30 716 C 65.2784 -1.71635 2.99392 0
M  V30 717 C 64.3914 -1.18364 4.15468 0
M  V30 718 C 63.5264 -2.30834 4.78424 0
M  V30 719 C 62.5654 -1.74762 5.86622 0
M  V30 720 N 61.7024 -2.80855 6.43479 0
M  V30 721 H 66.5424 0.0430893 2.97969 0
M  V30 722 H 64.0794 0.0330359 1.47063 0
M  V30 723 H 66.0374 -2.39868 3.41349 0
M  V30 724 H 64.6674 -2.28742 2.27765 0
M  V30 725 H 63.7194 -0.393163 3.78363 0
M  V30 726 H 65.0314 -0.733262 4.93381 0
M  V30 727 H 64.1854 -3.0699 5.23299 0
M  V30 728 H 62.9244 -2.79204 3.99871 0
M  V30 729 H 61.9294 -0.970995 5.41158 0
M  V30 730 H 63.1544 -1.2728 6.67066 0
M  V30 731 H 61.1004 -3.28535 5.67804 0
M  V30 732 H 61.0174 -2.40351 7.16776 0
M  V30 733 H 62.2854 -3.5687 6.93011 0
M  V30 734 N 66.5145 -1.57545 0.0417849 0
M  V30 735 C 67.7615 -1.92317 -0.634082 0
M  V30 736 C 68.0895 -0.919334 -1.71402 0
M  V30 737 O 67.3445 0.0698253 -1.95575 0
M  V30 738 C 67.6435 -3.33794 -1.27735 0
M  V30 739 C 67.3095 -4.49716 -0.326543 0
M  V30 740 C 65.9715 -4.81156 -0.0648814 0
M  V30 741 C 68.3235 -5.20182 0.325623 0
M  V30 742 C 65.6515 -5.80414 0.856539 0
M  V30 743 C 68.0035 -6.20424 1.23518 0
M  V30 744 C 66.6675 -6.50298 1.5056 0
M  V30 745 H 65.9375 -0.703736 -0.232027 0
M  V30 746 H 68.5845 -1.91205 0.106259 0
M  V30 747 H 66.8895 -3.31228 -2.09274 0
M  V30 748 H 68.5865 -3.57975 -1.80707 0
M  V30 749 H 65.1765 -4.25176 -0.540665 0
M  V30 750 H 69.3605 -4.96112 0.136546 0
M  V30 751 H 64.6165 -6.019 1.07363 0
M  V30 752 H 68.7905 -6.74141 1.74664 0
M  V30 753 H 66.4175 -7.27025 2.22123 0
M  V30 754 N 67.9926 0.231505 -1.5589 0
M  V30 755 C 69.2396 0.957352 -1.78441 0
M  V30 756 C 69.5676 1.84726 -0.60882 0
M  V30 757 O 68.8226 1.91416 0.40725 0
M  V30 758 C 69.1216 1.83577 -3.0665 0
M  V30 759 C 68.7876 1.09993 -4.37278 0
M  V30 760 C 67.4496 0.896629 -4.72773 0
M  V30 761 C 69.8016 0.579558 -5.17968 0
M  V30 762 C 67.1296 0.160896 -5.86479 0
M  V30 763 C 69.4816 -0.142783 -6.32439 0
M  V30 764 C 68.1456 -0.357427 -6.66542 0
M  V30 765 H 67.4156 0.35032 -0.65296 0
M  V30 766 H 70.0626 0.226259 -1.90159 0
M  V30 767 H 68.3676 2.63441 -2.90011 0
M  V30 768 H 70.0646 2.39934 -3.21298 0
M  V30 769 H 66.6546 1.26835 -4.09403 0
M  V30 770 H 70.8386 0.724125 -4.90989 0
M  V30 771 H 66.0946 -0.0157293 -6.11398 0
M  V30 772 H 70.2686 -0.553559 -6.94196 0
M  V30 773 H 67.8956 -0.929466 -7.54497 0
M  V30 774 N 69.4707 1.49531 0.497807 0
M  V30 775 C 70.4337 1.65916 1.58128 0
M  V30 776 C 71.4337 0.530825 1.51786 0
M  V30 777 O 72.6237 0.797342 1.54881 0
M  V30 778 C 69.7557 1.65951 2.9778 0
M  V30 779 H 70.9487 2.62556 1.44929 0
M  V30 780 H 68.5017 1.38611 0.722275 0
M  V30 781 H 69.2367 0.709065 3.16453 0
M  V30 782 H 69.0217 2.47897 3.03792 0
M  V30 783 H 70.5117 1.80673 3.76493 0
M  V30 784 N 70.9488 -0.749086 1.3866 0
M  V30 785 C 71.8958 -1.86291 1.36251 0
M  V30 786 C 72.8658 -1.64578 0.224347 0
M  V30 787 O 74.0508 -1.86181 0.417279 0
M  V30 788 C 71.1908 -3.23644 1.19786 0
M  V30 789 C 70.3038 -3.57158 2.43027 0
M  V30 790 C 69.4388 -4.83838 2.19258 0
M  V30 791 C 68.4778 -5.10152 3.38247 0
M  V30 792 N 67.6148 -6.28029 3.13884 0
M  V30 793 H 72.4548 -1.87685 2.3147 0
M  V30 794 H 69.9918 -0.917287 1.14997 0
M  V30 795 H 71.9498 -4.0291 1.08254 0
M  V30 796 H 70.5798 -3.21566 0.282031 0
M  V30 797 H 69.6318 -2.72701 2.65214 0
M  V30 798 H 70.9438 -3.7253 3.31697 0
M  V30 799 H 70.0978 -5.71057 2.04888 0
M  V30 800 H 68.8368 -4.70614 1.2796 0
M  V30 801 H 67.8418 -4.21401 3.53131 0
M  V30 802 H 69.0668 -5.25271 4.30427 0
M  V30 803 H 67.0128 -6.1612 2.25238 0
M  V30 804 H 66.9298 -6.43922 3.96106 0
M  V30 805 H 68.1978 -7.18124 3.03179 0
M  V30 806 N 72.4269 -1.23603 -0.977757 0
M  V30 807 C 73.3899 -1.02069 -2.05218 0
M  V30 808 C 74.3899 0.0184305 -1.60789 0
M  V30 809 O 75.5799 -0.221569 -1.72785 0
M  V30 810 C 72.7119 -0.544926 -3.36517 0
M  V30 811 H 73.9049 -1.9742 -2.25755 0
M  V30 812 H 71.4579 -1.05684 -1.15155 0
M  V30 813 H 72.1929 0.412241 -3.21669 0
M  V30 814 H 71.9779 -1.2948 -3.70105 0
M  V30 815 H 73.4679 -0.414985 -4.15533 0
M  V30 816 N 73.905 1.17692 -1.04816 0
M  V30 817 C 74.852 2.21581 -0.645797 0
M  V30 818 C 75.822 1.62367 0.350159 0
M  V30 819 O 77.007 1.89254 0.242433 0
M  V30 820 C 74.147 3.45092 -0.0227568 0
M  V30 821 C 73.26 4.18613 -1.06709 0
M  V30 822 C 72.395 5.29602 -0.411767 0
M  V30 823 C 71.434 5.94904 -1.44067 0
M  V30 824 N 70.571 6.97414 -0.809781 0
M  V30 825 H 75.411 2.55353 -1.5362 0
M  V30 826 H 72.948 1.25438 -0.768364 0
M  V30 827 H 74.906 4.15679 0.35588 0
M  V30 828 H 73.536 3.11917 0.831122 0
M  V30 829 H 72.588 3.46779 -1.5636 0
M  V30 830 H 73.9 4.63293 -1.84827 0
M  V30 831 H 73.054 6.06696 0.0206623 0
M  V30 832 H 71.793 4.86045 0.401438 0
M  V30 833 H 70.798 5.16544 -1.88316 0
M  V30 834 H 72.023 6.40542 -2.25571 0
M  V30 835 H 69.969 6.55998 -0.0170186 0
M  V30 836 H 69.886 7.40386 -1.52856 0
M  V30 837 H 71.154 7.78463 -0.401999 0
M  V30 838 N 75.3831 0.828654 1.34056 0
M  V30 839 C 76.3331 0.226828 2.26869 0
M  V30 840 C 77.3171 -0.612243 1.48796 0
M  V30 841 O 78.5091 -0.465884 1.70759 0
M  V30 842 C 75.6381 -0.605654 3.37915 0
M  V30 843 C 74.7241 0.244361 4.23395 0
M  V30 844 N 75.1151 1.31815 4.88322 0
M  V30 845 C 73.4131 0.0296616 4.4599 0
M  V30 846 C 74.1141 1.83895 5.51867 0
M  V30 847 N 73.0901 1.14196 5.3147 0
M  V30 848 H 76.8921 1.04811 2.74576 0
M  V30 849 H 74.4061 0.67205 1.47842 0
M  V30 850 H 76.4031 -1.05302 4.03382 0
M  V30 851 H 75.0631 -1.42504 2.91758 0
M  V30 852 H 76.0741 1.70099 4.8917 0
M  V30 853 H 72.7511 -0.757097 4.10578 0
M  V30 854 H 74.1411 2.7376 6.136 0
M  V30 855 N 76.8612 -1.46375 0.584142 0
M  V30 856 C 78.1102 -2.01585 0.0679741 0
M  V30 857 C 78.4232 -1.46109 -1.30045 0
M  V30 858 O 79.6292 -1.93148 -1.90804 0
M  V30 859 C 78.0852 -3.5983 0.0709207 0
M  V30 860 C 77.6932 -4.24303 1.43775 0
M  V30 861 C 79.4372 -4.22693 -0.391228 0
M  V30 862 C 77.3442 -5.74631 1.39834 0
M  V30 863 H 76.2742 -0.753689 0.0216421 0
M  V30 864 H 78.9252 -1.68093 0.736001 0
M  V30 865 H 77.3072 -3.90405 -0.663299 0
M  V30 866 H 78.4812 -4.05335 2.19181 0
M  V30 867 H 76.7962 -3.73539 1.84004 0
M  V30 868 H 79.3932 -5.3289 -0.439524 0
M  V30 869 H 79.7362 -3.91728 -1.40906 0
M  V30 870 H 80.2692 -3.96749 0.288974 0
M  V30 871 H 77.0082 -6.10258 2.39303 0
M  V30 872 H 76.5282 -5.95858 0.686505 0
M  V30 873 H 78.2072 -6.37375 1.11187 0
M  V30 874 N 78.3393 -0.321999 -1.54275 0
M  V30 875 C 79.5853 0.281461 -2.00837 0
M  V30 876 C 79.9183 1.51909 -1.20985 0
M  V30 877 O 79.1933 1.923 -0.291733 0
M  V30 878 C 79.4763 0.617162 -3.54772 0
M  V30 879 C 79.3293 -0.631064 -4.45351 0
M  V30 880 C 80.6483 1.43542 -4.16033 0
M  V30 881 H 77.7673 0.100826 -0.730071 0
M  V30 882 H 80.4093 -0.438268 -1.84876 0
M  V30 883 H 78.5593 1.23034 -3.68504 0
M  V30 884 H 80.2313 -1.26934 -4.43492 0
M  V30 885 H 78.4743 -1.26025 -4.15091 0
M  V30 886 H 79.1453 -0.351735 -5.50878 0
M  V30 887 H 81.6213 0.917134 -4.05867 0
M  V30 888 H 80.4973 1.63907 -5.23856 0
M  V30 889 H 80.7583 2.43108 -3.69257 0
M  V30 890 N 79.8174 1.5752 -0.0501392 0
M  V30 891 C 81.0664 1.91827 0.623328 0
M  V30 892 C 81.3794 0.930222 1.72065 0
M  V30 893 O 82.5854 1.1653 2.4522 0
M  V30 894 C 81.0414 3.40692 1.16003 0
M  V30 895 C 80.6494 4.479 0.0948811 0
M  V30 896 C 82.3934 3.84034 1.80881 0
M  V30 897 C 80.3004 5.87879 0.644411 0
M  V30 898 H 79.2304 0.715918 0.236596 0
M  V30 899 H 81.8814 1.83115 -0.118861 0
M  V30 900 H 80.2634 3.44405 1.9545 0
M  V30 901 H 81.4374 4.55775 -0.678675 0
M  V30 902 H 79.7524 4.13892 -0.45637 0
M  V30 903 H 82.3494 4.85984 2.22988 0
M  V30 904 H 82.6924 3.20225 2.6601 0
M  V30 905 H 83.2254 3.82833 1.0809 0
M  V30 906 H 79.9644 6.55282 -0.169229 0
M  V30 907 H 79.4844 5.83567 1.38598 0
M  V30 908 H 81.1634 6.37098 1.12763 0
M  V30 909 N 81.2955 -0.223234 1.56011 0
M  V30 910 C 82.5445 -0.945912 1.78144 0
M  V30 911 C 82.8575 -1.85567 0.618396 0
M  V30 912 O 84.0635 -2.61688 0.723318 0
M  V30 913 C 82.5195 -1.73216 3.15475 0
M  V30 914 C 82.1275 -0.868619 4.39499 0
M  V30 915 C 83.8715 -2.44615 3.46935 0
M  V30 916 C 81.7785 -1.65212 5.67855 0
M  V30 917 H 80.7085 -0.356929 0.664167 0
M  V30 918 H 83.3595 -0.199845 1.82409 0
M  V30 919 H 81.7415 -2.52107 3.05382 0
M  V30 920 H 82.9155 -0.120366 4.60643 0
M  V30 921 H 81.2305 -0.26683 4.15544 0
M  V30 922 H 83.8275 -3.03732 4.40058 0
M  V30 923 H 84.1705 -3.17417 2.69355 0
M  V30 924 H 84.7035 -1.72715 3.58349 0
M  V30 925 H 81.4425 -0.967407 6.48322 0
M  V30 926 H 80.9625 -2.37503 5.50774 0
M  V30 927 H 82.6415 -2.21322 6.07968 0
M  V30 928 N 82.7736 -1.49793 -0.48987 0
M  V30 929 C 83.9986 -1.63836 -1.27172 0
M  V30 930 C 84.4236 -0.31402 -1.8546 0
M  V30 931 O 83.7816 0.719803 -1.66399 0
M  V30 932 C 83.8296 -2.71797 -2.36978 0
M  V30 933 O 82.9336 -2.31744 -3.41128 0
M  V30 934 H 82.2746 -0.547997 -0.37496 0
M  V30 935 H 84.8046 -1.96053 -0.585191 0
M  V30 936 H 84.8146 -2.94305 -2.82575 0
M  V30 937 H 83.4896 -3.67923 -1.93921 0
M  V30 938 H 82.0666 -2.1961 -3.01373 0
M  V30 939 N 84.2517 0.741722 -1.39055 0
M  V30 940 C 85.4997 1.49818 -1.35643 0
M  V30 941 C 85.8207 1.94938 0.0491642 0
M  V30 942 O 85.0907 1.68505 0.999141 0
M  V30 943 H 83.6707 0.555755 -0.499144 0
M  V30 944 H 86.3327 0.880957 -1.73854 0
M  V30 945 H 85.4287 2.38348 -2.01486 0
M  V30 946 N 85.7298 1.2412 0.971189 0
M  V30 947 C 86.6928 1.03156 2.04674 0
M  V30 948 C 87.6928 -0.00990322 1.60797 0
M  V30 949 O 88.8828 0.230729 1.72665 0
M  V30 950 C 86.0148 0.562765 3.36223 0
M  V30 951 H 87.2078 1.98614 2.24705 0
M  V30 952 H 84.7608 1.06293 1.14593 0
M  V30 953 H 85.4958 -0.395176 3.21883 0
M  V30 954 H 85.2808 1.31441 3.69413 0
M  V30 955 H 86.7708 0.437015 4.15307 0
M  V30 956 N 87.2079 -1.17134 1.05439 0
M  V30 957 C 88.4559 -1.87085 0.764429 0
M  V30 958 C 88.7769 -1.81584 -0.710787 0
M  V30 959 O 88.0469 -1.24349 -1.51374 0
M  V30 960 H 86.6269 -0.692627 0.279779 0
M  V30 961 H 89.2889 -1.42087 1.33406 0
M  V30 962 H 88.3849 -2.92759 1.0816 0
M  V30 963 N 88.686 -0.835752 -1.33615 0
M  V30 964 C 89.932 -0.430596 -1.98176 0
M  V30 965 C 90.265 1.00684 -1.66061 0
M  V30 966 O 89.54 1.70339 -0.938877 0
M  V30 967 C 89.823 -0.648065 -3.5422 0
M  V30 968 C 89.676 -2.13255 -3.96033 0
M  V30 969 C 90.995 -0.0922113 -4.40003 0
M  V30 970 H 88.114 -0.157924 -0.719881 0
M  V30 971 H 90.756 -1.05069 -1.58305 0
M  V30 972 H 88.906 -0.120237 -3.88314 0
M  V30 973 H 90.578 -2.725 -3.72211 0
M  V30 974 H 88.821 -2.61823 -3.45878 0
M  V30 975 H 89.492 -2.23547 -5.04708 0
M  V30 976 H 91.968 -0.543343 -4.12537 0
M  V30 977 H 90.844 -0.274083 -5.48215 0
M  V30 978 H 91.105 1.00378 -4.30554 0
M  V30 979 N 90.1641 1.46063 -0.591896 0
M  V30 980 C 91.3891 2.07226 -0.0850314 0
M  V30 981 C 91.8141 1.43625 1.21463 0
M  V30 982 O 91.1721 0.523305 1.73583 0
M  V30 983 C 91.2201 3.60554 0.0576567 0
M  V30 984 O 90.3241 3.97128 1.11188 0
M  V30 985 H 89.6651 0.660615 -0.0669568 0
M  V30 986 H 92.1951 1.8756 -0.81745 0
M  V30 987 H 92.2051 4.07165 0.2609 0
M  V30 988 H 90.8801 4.06235 -0.891416 0
M  V30 989 H 89.4571 3.62213 0.886356 0
M  V30 990 N 91.6422 0.330177 1.54103 0
M  V30 991 C 92.6052 -0.520144 2.2322 0
M  V30 992 C 93.6052 -1.03828 1.22786 0
M  V30 993 O 94.7952 -0.929652 1.4732 0
M  V30 994 C 91.9272 -1.72317 2.94142 0
M  V30 995 H 93.1202 0.0841605 2.99782 0
M  V30 996 H 90.6732 0.0813433 1.56088 0
M  V30 997 H 91.4082 -2.36653 2.21734 0
M  V30 998 H 91.1932 -1.35898 3.67796 0
M  V30 999 H 92.6832 -2.3266 3.46784 0
M  V30 1000 N 93.1203 -1.57491 0.0584922 0
M  V30 1001 C 94.0303 -2.15448 -0.928414 0
M  V30 1002 C 95.0463 -1.11416 -1.3365 0
M  V30 1003 O 96.2223 -1.4362 -1.41193 0
M  V30 1004 C 93.2873 -2.69393 -2.18239 0
M  V30 1005 C 92.3483 -3.88249 -1.83196 0
M  V30 1006 C 91.5813 -4.39613 -3.02616 0
M  V30 1007 O 91.8043 -3.90023 -4.16219 0
M  V30 1008 O 90.7383 -5.31111 -2.83204 0
M  V30 1009 H 94.5643 -3.00112 -0.465483 0
M  V30 1010 H 92.1493 -1.48499 -0.163826 0
M  V30 1011 H 94.0313 -3.04026 -2.91798 0
M  V30 1012 H 92.7063 -1.87796 -2.63656 0
M  V30 1013 H 91.6133 -3.58492 -1.06931 0
M  V30 1014 H 92.9463 -4.71098 -1.42573 0
M  V30 1015 N 94.5984 0.214957 -1.56127 0
M  V30 1016 C 95.8234 0.95924 -1.83884 0
M  V30 1017 C 96.2484 1.7689 -0.639644 0
M  V30 1018 O 95.6064 1.76566 0.411601 0
M  V30 1019 C 95.6544 1.84723 -3.09693 0
M  V30 1020 O 94.7584 2.94346 -2.8885 0
M  V30 1021 H 94.0994 0.27125 -0.606069 0
M  V30 1022 H 96.6294 0.226276 -2.03345 0
M  V30 1023 H 96.6394 2.25576 -3.39969 0
M  V30 1024 H 95.3144 1.25218 -3.96602 0
M  V30 1025 H 93.8914 2.57391 -2.69823 0
M  V30 1026 N 96.0765 1.50051 0.48192 0
M  V30 1027 C 97.3245 1.60181 1.23234 0
M  V30 1028 C 97.6455 0.299176 1.92691 0
M  V30 1029 O 96.9155 -0.682708 1.83619 0
M  V30 1030 H 95.4955 0.590232 0.457859 0
M  V30 1031 H 98.1575 1.86775 0.556881 0
M  V30 1032 H 97.2535 2.40753 1.98607 0
M  V30 1033 N 97.5546 -0.734337 1.39446 0
M  V30 1034 C 98.8006 -1.49613 1.36908 0
M  V30 1035 C 99.1336 -1.94169 -0.0347829 0
M  V30 1036 O 98.4086 -1.66833 -0.999847 0
M  V30 1037 C 98.6916 -2.73534 2.34203 0
M  V30 1038 C 98.5446 -2.34993 3.83534 0
M  V30 1039 C 99.8636 -3.75635 2.29317 0
M  V30 1040 H 96.9826 -0.542714 0.498629 0
M  V30 1041 H 99.6246 -0.839597 1.70443 0
M  V30 1042 H 97.7746 -3.29553 2.05736 0
M  V30 1043 H 99.4466 -1.84601 4.22753 0
M  V30 1044 H 97.6896 -1.67213 4.00278 0
M  V30 1045 H 98.3606 -3.23738 4.47099 0
M  V30 1046 H 100.837 -3.29203 2.54489 0
M  V30 1047 H 99.7126 -4.60008 2.99472 0
M  V30 1048 H 99.9736 -4.22603 1.29842 0
M  V30 1049 N 99.0327 -1.24633 -0.964593 0
M  V30 1050 C 100.444 -1.08045 -1.5226 0
M  V30 1051 C 100.795 0.347116 -1.93105 0
M  V30 1052 O 99.9197 1.23588 -1.77637 0
M  V30 1053 C 100.515 -1.95514 -2.76695 0
M  V30 1054 C 99.0737 -1.8314 -3.28841 0
M  V30 1055 C 98.2207 -1.90262 -2.01732 0
M  V30 1056 H 101.172 -1.38064 -0.782553 0
M  V30 1057 H 101.193 -1.48925 -3.50145 0
M  V30 1058 H 100.705 -2.99407 -2.46936 0
M  V30 1059 H 98.8057 -0.82092 -3.63444 0
M  V30 1060 H 98.9187 -2.67406 -3.97531 0
M  V30 1061 H 97.2827 -1.34027 -2.16584 0
M  V30 1062 H 98.0657 -2.9574 -1.74334 0
M  V30 1063 N 100.511 1.16574 -1.06058 0
M  V30 1064 C 101.739 1.90952 -0.796552 0
M  V30 1065 C 102.154 1.77302 0.648808 0
M  V30 1066 O 101.511 1.11605 1.44397 0
M  V30 1067 C 101.562 3.41736 -1.17894 0
M  V30 1068 O 101.283 3.54975 -2.56758 0
M  V30 1069 C 102.784 4.33169 -0.942308 0
M  V30 1070 H 100.004 0.605594 -0.288959 0
M  V30 1071 H 102.548 1.47777 -1.41358 0
M  V30 1072 H 100.703 3.82623 -0.606491 0
M  V30 1073 H 101.117 4.4846 -2.72 0
M  V30 1074 H 102.591 5.37439 -1.25952 0
M  V30 1075 H 103.068 4.3903 0.122078 0
M  V30 1076 H 103.674 3.98007 -1.49902 0
M  V30 1077 N 101.989 0.842826 1.3317 0
M  V30 1078 C 103.236 0.440447 1.97652 0
M  V30 1079 C 103.564 -1.00123 1.6675 0
M  V30 1080 O 102.819 -1.7155 0.941761 0
M  V30 1081 C 103.118 0.612607 3.52111 0
M  V30 1082 C 102.784 2.02297 4.02972 0
M  V30 1083 C 101.446 2.40874 4.16573 0
M  V30 1084 C 103.798 2.94402 4.30089 0
M  V30 1085 C 101.126 3.70852 4.54627 0
M  V30 1086 C 103.478 4.23865 4.69597 0
M  V30 1087 C 102.142 4.62392 4.81404 0
M  V30 1088 H 101.412 0.161171 0.72326 0
M  V30 1089 H 104.059 1.07061 1.58777 0
M  V30 1090 H 102.364 -0.100849 3.9167 0
M  V30 1091 H 104.061 0.2815 4.00011 0
M  V30 1092 H 100.651 1.71338 3.92863 0
M  V30 1093 H 104.835 2.65835 4.19101 0
M  V30 1094 H 100.091 4.00501 4.61962 0
M  V30 1095 H 104.265 4.95306 4.89536 0
M  V30 1096 H 101.892 5.63154 5.10648 0
M  V30 1097 N 103.467 -1.45747 0.599634 0
M  V30 1098 C 104.883 -1.57424 0.26264 0
M  V30 1099 C 105.083 -1.59222 -1.23493 0
M  V30 1100 O 104.139 -1.51825 -2.01756 0
M  V30 1101 C 105.452 -2.86061 0.926795 0
M  V30 1102 C 107 -2.99722 0.901967 0
M  V30 1103 C 107.475 -4.31119 1.54598 0
M  V30 1104 N 108.966 -4.37858 1.5111 0
M  V30 1105 C 109.701 -5.3818 1.97863 0
M  V30 1106 N 109.197 -6.45083 2.52666 0
M  V30 1107 N 110.99 -5.29487 1.88679 0
M  V30 1108 H 103.141 -1.42823 1.57211 0
M  V30 1109 H 105.404 -0.68235 0.658105 0
M  V30 1110 H 105.11 -2.90605 1.98095 0
M  V30 1111 H 104.984 -3.74563 0.445238 0
M  V30 1112 H 107.371 -2.9475 -0.143617 0
M  V30 1113 H 107.452 -2.12652 1.42171 0
M  V30 1114 H 107.096 -4.36849 2.59085 0
M  V30 1115 H 107.026 -5.16992 1.00132 0
M  V30 1116 H 109.517 -3.61209 1.11068 0
M  V30 1117 H 109.83 -7.17869 2.86155 0
M  V30 1118 H 108.175 -6.45856 2.56701 0
M  V30 1119 H 111.366 -4.44877 1.4561 0
M  V30 1120 H 111.539 -6.07524 2.25429 0
M  V30 1121 N 104.945 -0.338344 -1.53925 0
M  V30 1122 C 106.193 0.259245 -2.0043 0
M  V30 1123 C 106.514 1.51484 -1.22791 0
M  V30 1124 O 105.784 1.93037 -0.33368 0
M  V30 1125 H 104.364 0.0987845 -0.740439 0
M  V30 1126 H 107.026 -0.458302 -1.89435 0
M  V30 1127 H 106.122 0.505334 -3.07982 0
M  V30 1128 N 106.423 1.57458 -0.0668435 0
M  V30 1129 C 107.386 2.11323 0.887422 0
M  V30 1130 C 108.386 1.03618 1.22964 0
M  V30 1131 O 109.576 1.29626 1.16373 0
M  V30 1132 C 106.708 2.61048 2.19242 0
M  V30 1133 H 107.901 2.96942 0.420194 0
M  V30 1134 H 105.454 1.55239 0.181793 0
M  V30 1135 H 106.189 1.78868 2.70512 0
M  V30 1136 H 105.974 3.39769 1.95702 0
M  V30 1137 H 107.464 3.02814 2.87565 0
M  V30 1138 N 107.901 -0.206675 1.56239 0
M  V30 1139 C 109.149 -0.927007 1.79586 0
M  V30 1140 C 109.47 -1.8427 0.637929 0
M  V30 1141 O 108.74 -1.92849 -0.344398 0
M  V30 1142 H 107.32 -0.345292 0.662407 0
M  V30 1143 H 109.982 -0.21496 1.93711 0
M  V30 1144 H 109.078 -1.52501 2.72305 0
M  V30 1145 N 109.379 -1.50304 -0.473955 0
M  V30 1146 C 110.627 -1.60832 -1.22382 0
M  V30 1147 C 110.948 -0.30939 -1.9253 0
M  V30 1148 O 110.218 0.67296 -1.83978 0
M  V30 1149 H 108.798 -0.592652 -0.454723 0
M  V30 1150 H 111.46 -1.87068 -0.546968 0
M  V30 1151 H 110.556 -2.41803 -1.97327 0
M  V30 1152 N 110.857 0.726932 -1.39834 0
M  V30 1153 C 112.087 1.51393 -1.40583 0
M  V30 1154 C 112.495 1.892 -0.000740625 0
M  V30 1155 O 111.838 1.55189 0.982951 0
M  V30 1156 C 111.9 2.82588 -2.22226 0
M  V30 1157 C 111.564 2.67169 -3.70769 0
M  V30 1158 C 112.561 2.3518 -4.63666 0
M  V30 1159 C 110.246 2.83788 -4.14451 0
M  V30 1160 C 112.24 2.20002 -5.98229 0
M  V30 1161 C 109.927 2.68229 -5.49087 0
M  V30 1162 C 110.925 2.36382 -6.4079 0
M  V30 1163 O 110.613 2.2093 -7.72946 0
M  V30 1164 H 110.345 0.474168 -0.48181 0
M  V30 1165 H 112.899 0.905247 -1.84376 0
M  V30 1166 H 111.129 3.45746 -1.73195 0
M  V30 1167 H 112.818 3.44247 -2.15055 0
M  V30 1168 H 113.584 2.21984 -4.31217 0
M  V30 1169 H 109.463 3.07566 -3.43401 0
M  V30 1170 H 113.007 1.95067 -6.69772 0
M  V30 1171 H 108.904 2.81006 -5.81125 0
M  V30 1172 H 109.672 2.35937 -7.83757 0
M  V30 1173 N 112.336 1.25143 0.95797 0
M  V30 1174 C 113.582 1.10863 1.70531 0
M  V30 1175 C 113.937 -0.347391 1.89238 0
M  V30 1176 O 113.23 -1.25262 1.44983 0
M  V30 1177 C 113.424 1.79272 3.09187 0
M  V30 1178 C 113.253 3.31376 3.04006 0
M  V30 1179 C 112.023 4.0062 3.07948 0
M  V30 1180 C 114.221 4.27825 2.8543 0
M  V30 1181 N 112.203 5.39526 2.9289 0
M  V30 1182 C 113.574 5.53794 2.78769 0
M  V30 1183 C 115.629 4.1828 2.70085 0
M  V30 1184 C 114.332 6.7131 2.58331 0
M  V30 1185 C 116.358 5.35485 2.51017 0
M  V30 1186 C 115.72 6.60393 2.45073 0
M  V30 1187 H 111.819 0.460362 0.632132 0
M  V30 1188 H 114.403 1.58196 1.13499 0
M  V30 1189 H 112.574 1.34439 3.64391 0
M  V30 1190 H 114.306 1.57764 3.72683 0
M  V30 1191 H 111.061 3.51855 3.17009 0
M  V30 1192 H 111.485 6.12416 2.88574 0
M  V30 1193 H 116.127 3.22461 2.73457 0
M  V30 1194 H 113.845 7.67243 2.53701 0
M  V30 1195 H 117.431 5.29959 2.40073 0
M  V30 1196 H 116.311 7.49557 2.30509 0
M  V30 1197 N 113.814 -1.1601 1.06675 0
M  V30 1198 C 115.23 -1.38622 0.790948 0
M  V30 1199 C 115.43 -1.92109 -0.607965 0
M  V30 1200 O 114.486 -2.12239 -1.36787 0
M  V30 1201 C 115.799 -2.36347 1.85905 0
M  V30 1202 C 117.347 -2.50023 1.88301 0
M  V30 1203 C 117.822 -3.51033 2.94176 0
M  V30 1204 N 119.313 -3.58563 2.93235 0
M  V30 1205 C 120.048 -4.36521 3.71803 0
M  V30 1206 N 119.544 -5.17869 4.602 0
M  V30 1207 N 121.337 -4.31541 3.60178 0
M  V30 1208 H 113.488 -0.796294 1.96908 0
M  V30 1209 H 115.751 -0.412597 0.853503 0
M  V30 1210 H 115.457 -2.04147 2.86386 0
M  V30 1211 H 115.331 -3.36042 1.71334 0
M  V30 1212 H 117.718 -2.81524 0.884769 0
M  V30 1213 H 117.799 -1.5035 2.06951 0
M  V30 1214 H 117.443 -3.20268 3.94196 0
M  V30 1215 H 117.373 -4.50445 2.72776 0
M  V30 1216 H 119.864 -3.00496 2.29152 0
M  V30 1217 H 120.177 -5.74578 5.16797 0
M  V30 1218 H 118.522 -5.17199 4.64253 0
M  V30 1219 H 121.713 -3.67051 2.90502 0
M  V30 1220 H 121.886 -4.9205 4.21653 0
M  V30 1221 N 115.292 -0.849877 -1.32721 0
M  V30 1222 C 116.239 -0.289033 -2.28983 0
M  V30 1223 C 117.209 0.601324 -1.54833 0
M  V30 1224 O 118.394 0.537253 -1.8308 0
M  V30 1225 C 115.534 0.520623 -3.4115 0
M  V30 1226 C 114.647 -0.394989 -4.3019 0
M  V30 1227 C 113.782 0.426834 -5.29482 0
M  V30 1228 C 112.821 -0.486476 -6.10164 0
M  V30 1229 N 111.958 0.297879 -7.01468 0
M  V30 1230 H 116.798 -1.11519 -2.76347 0
M  V30 1231 H 114.335 -0.56138 -1.35967 0
M  V30 1232 H 116.293 1.00563 -4.04899 0
M  V30 1233 H 114.923 1.31165 -2.9495 0
M  V30 1234 H 113.975 -0.99836 -3.67065 0
M  V30 1235 H 115.287 -1.09612 -4.86607 0
M  V30 1236 H 114.441 0.975205 -5.98811 0
M  V30 1237 H 113.18 1.16136 -4.73671 0
M  V30 1238 H 112.185 -1.04677 -5.39743 0
M  V30 1239 H 113.41 -1.21953 -6.6806 0
M  V30 1240 H 111.356 1.01558 -6.48091 0
M  V30 1241 H 111.273 -0.344318 -7.55216 0
M  V30 1242 H 112.541 0.828131 -7.75089 0
M  V30 1243 N 116.77 1.45427 -0.607355 0
M  V30 1244 C 118.016 2.03097 -0.111035 0
M  V30 1245 C 118.371 1.46735 1.24445 0
M  V30 1246 O 117.664 0.632478 1.8086 0
M  V30 1247 C 117.858 3.57398 -0.0129263 0
M  V30 1248 C 117.687 4.28726 -1.35735 0
M  V30 1249 C 116.457 4.66659 -1.93798 0
M  V30 1250 C 118.655 4.60699 -2.28607 0
M  V30 1251 N 116.637 5.22845 -3.21723 0
M  V30 1252 C 118.008 5.17716 -3.41131 0
M  V30 1253 C 120.063 4.42638 -2.27982 0
M  V30 1254 C 118.766 5.58576 -4.53194 0
M  V30 1255 C 120.792 4.84531 -3.39093 0
M  V30 1256 C 120.154 5.4164 -4.50339 0
M  V30 1257 H 116.253 0.777476 -0.083994 0
M  V30 1258 H 118.837 1.77249 -0.805655 0
M  V30 1259 H 117.008 3.82907 0.650914 0
M  V30 1260 H 118.74 4.01722 0.490033 0
M  V30 1261 H 115.495 4.50207 -1.47007 0
M  V30 1262 H 115.919 5.55438 -3.87063 0
M  V30 1263 H 120.561 3.97798 -1.43235 0
M  V30 1264 H 118.279 6.02382 -5.38667 0
M  V30 1265 H 121.865 4.72289 -3.39757 0
M  V30 1266 H 120.745 5.73461 -5.34895 0
M  V30 1267 N 118.248 0.346503 1.53744 0
M  V30 1268 C 119.18 -0.543316 2.22667 0
M  V30 1269 C 120.193 -1.06159 1.23427 0
M  V30 1270 O 121.382 -0.971235 1.49764 0
M  V30 1271 C 118.482 -1.76076 2.89569 0
M  V30 1272 C 117.655 -1.37727 4.15151 0
M  V30 1273 C 116.714 -2.45471 4.65436 0
M  V30 1274 O 115.74 -2.08655 5.29577 0
M  V30 1275 N 116.942 -3.7677 4.41616 0
M  V30 1276 H 119.707 0.0469703 2.99663 0
M  V30 1277 H 117.268 0.170766 1.60997 0
M  V30 1278 H 119.26 -2.47593 3.20125 0
M  V30 1279 H 117.83 -2.25835 2.16142 0
M  V30 1280 H 117.05 -0.492746 3.91108 0
M  V30 1281 H 118.338 -1.09708 4.96832 0
M  V30 1282 H 117.736 -4.09467 3.90325 0
M  V30 1283 H 116.293 -4.44448 4.7677 0
M  V30 1284 N 119.726 -1.57421 0.075193 0
M  V30 1285 C 120.689 -2.11791 -0.876203 0
M  V30 1286 C 121.689 -1.04268 -1.22412 0
M  V30 1287 O 122.879 -1.30242 -1.15684 0
M  V30 1288 C 120.011 -2.62207 -2.17854 0
M  V30 1289 H 121.204 -2.9716 -0.40444 0
M  V30 1290 H 118.757 -1.55333 -0.173557 0
M  V30 1291 H 119.492 -1.803 -2.6956 0
M  V30 1292 H 119.277 -3.40802 -1.93897 0
M  V30 1293 H 120.767 -3.04335 -2.85955 0
M  V30 1294 N 121.204 0.198386 -1.56346 0
M  V30 1295 C 122.136 1.26987 -1.90806 0
M  V30 1296 C 123.149 1.41877 -0.798419 0
M  V30 1297 O 124.338 1.42362 -1.07682 0
M  V30 1298 C 121.438 2.64246 -2.12196 0
M  V30 1299 C 120.611 2.71007 -3.43328 0
M  V30 1300 C 119.67 3.89439 -3.5387 0
M  V30 1301 O 118.696 3.76695 -4.26719 0
M  V30 1302 N 119.898 5.04752 -2.86715 0
M  V30 1303 H 122.663 0.977433 -2.83313 0
M  V30 1304 H 120.224 0.388322 -1.57174 0
M  V30 1305 H 122.216 3.41896 -2.1654 0
M  V30 1306 H 120.786 2.85992 -1.26204 0
M  V30 1307 H 120.006 1.79657 -3.50881 0
M  V30 1308 H 121.294 2.72512 -4.29668 0
M  V30 1309 H 120.692 5.18004 -2.2735 0
M  V30 1310 H 119.249 5.8036 -2.96691 0
M  V30 1311 N 122.682 1.50554 0.465978 0
M  V30 1312 C 123.959 1.5232 1.22712 0
M  V30 1313 C 124.339 0.270807 2.09356 0
M  V30 1314 O 123.687 -0.745541 2.15995 0
M  V30 1315 C 123.897 2.82175 2.05374 0
M  V30 1316 C 125.245 3.33033 2.6339 0
M  V30 1317 O 126.269 2.83531 2.15612 0
M  V30 1318 O 125.128 4.19336 3.50456 0
M  V30 1319 H 122.222 0.611183 0.557122 0
M  V30 1320 H 124.768 1.62847 0.477381 0
M  V30 1321 H 123.54 3.64797 1.41558 0
M  V30 1322 H 123.163 2.74675 2.87471 0
M  V30 1323 N 124.16 -0.719506 1.40217 0
M  V30 1324 C 125.09 -1.8465 1.42922 0
M  V30 1325 C 126.071 -1.67599 0.29062 0
M  V30 1326 O 127.256 -1.87688 0.498677 0
M  V30 1327 C 124.386 -3.22565 1.28722 0
M  V30 1328 C 123.34 -3.54281 2.40144 0
M  V30 1329 C 122.666 -4.91298 2.11023 0
M  V30 1330 C 123.966 -3.55676 3.82481 0
M  V30 1331 H 125.66 -1.82644 2.37237 0
M  V30 1332 H 123.206 -0.877305 1.1419 0
M  V30 1333 H 125.159 -4.01095 1.29232 0
M  V30 1334 H 123.883 -3.25137 0.308811 0
M  V30 1335 H 122.542 -2.78088 2.38877 0
M  V30 1336 H 122.19 -4.90468 1.11582 0
M  V30 1337 H 121.89 -5.13485 2.8567 0
M  V30 1338 H 123.414 -5.72166 2.13209 0
M  V30 1339 H 124.828 -4.24254 3.85592 0
M  V30 1340 H 123.225 -3.89388 4.56614 0
M  V30 1341 H 124.295 -2.55144 4.12346 0
M  V30 1342 N 125.638 -1.25649 -0.95132 0
M  V30 1343 C 126.601 -1.06399 -2.03007 0
M  V30 1344 C 127.601 -0.0156794 -1.60792 0
M  V30 1345 O 128.791 -0.25817 -1.72276 0
M  V30 1346 C 125.923 -0.616184 -3.35285 0
M  V30 1347 H 127.116 -2.02164 -2.21517 0
M  V30 1348 H 124.669 -1.08103 -1.12887 0
M  V30 1349 H 125.404 0.343917 -3.22471 0
M  V30 1350 H 125.189 -1.37301 -3.67275 0
M  V30 1351 H 126.679 -0.503032 -4.14559 0
M  V30 1352 N 127.117 1.15442 -1.07289 0
M  V30 1353 C 128.345 1.90096 -0.81676 0
M  V30 1354 C 128.76 1.7798 0.629966 0
M  V30 1355 O 128.117 1.1313 1.43206 0
M  V30 1356 C 128.168 3.40466 -1.21512 0
M  V30 1357 O 127.889 3.52232 -2.60508 0
M  V30 1358 C 129.39 4.32145 -0.988198 0
M  V30 1359 H 126.61 0.602495 -0.295366 0
M  V30 1360 H 129.154 1.4627 -1.42918 0
M  V30 1361 H 127.309 3.81958 -0.647039 0
M  V30 1362 H 127.723 4.45549 -2.76742 0
M  V30 1363 H 129.197 5.36072 -1.31645 0
M  V30 1364 H 129.674 4.39135 0.0755063 0
M  V30 1365 H 130.28 3.96395 -1.54115 0
M  V30 1366 N 128.595 0.856903 1.32268 0
M  V30 1367 C 130.006 0.515711 1.79436 0
M  V30 1368 C 130.357 -0.966586 1.70738 0
M  V30 1369 O 129.482 -1.75409 1.26731 0
M  V30 1370 C 130.077 0.929335 3.25805 0
M  V30 1371 C 128.636 0.640006 3.70919 0
M  V30 1372 C 127.783 1.12784 2.53328 0
M  V30 1373 H 130.734 1.04389 1.19535 0
M  V30 1374 H 130.755 0.246633 3.797 0
M  V30 1375 H 130.267 2.00821 3.32103 0
M  V30 1376 H 128.368 -0.428051 3.70133 0
M  V30 1377 H 128.481 1.20788 4.63624 0
M  V30 1378 H 126.845 0.548033 2.48734 0
M  V30 1379 H 127.628 2.21387 2.62379 0
M  V30 1380 N 130.073 -1.45103 0.615059 0
M  V30 1381 C 131.003 -2.33339 -0.0865619 0
M  V30 1382 C 131.984 -1.4727 -0.851209 0
M  V30 1383 O 133.169 -1.76026 -0.820281 0
M  V30 1384 C 130.299 -3.30095 -1.07956 0
M  V30 1385 C 129.253 -4.25858 -0.427628 0
M  V30 1386 C 128.579 -5.12361 -1.5294 0
M  V30 1387 C 129.879 -5.18165 0.655944 0
M  V30 1388 H 131.573 -2.92254 0.650224 0
M  V30 1389 H 129.119 -1.40532 0.314138 0
M  V30 1390 H 131.072 -3.90698 -1.57901 0
M  V30 1391 H 129.796 -2.69355 -1.84703 0
M  V30 1392 H 128.455 -3.66564 0.0510292 0
M  V30 1393 H 128.103 -4.47984 -2.28734 0
M  V30 1394 H 127.803 -5.77238 -1.09865 0
M  V30 1395 H 129.327 -5.75833 -2.03098 0
M  V30 1396 H 130.741 -5.72796 0.240257 0
M  V30 1397 H 129.138 -5.91559 1.00888 0
M  V30 1398 H 130.208 -4.60144 1.52957 0
M  V30 1399 N 131.551 -0.354651 -1.53558 0
M  V30 1400 C 132.514 0.484566 -2.24019 0
M  V30 1401 C 133.514 1.01861 -1.24422 0
M  V30 1402 O 134.704 0.906097 -1.4878 0
M  V30 1403 C 131.836 1.67615 -2.96847 0
M  V30 1404 H 133.029 -0.131843 -2.9961 0
M  V30 1405 H 130.582 -0.106165 -1.55939 0
M  V30 1406 H 131.317 2.33095 -2.25471 0
M  V30 1407 H 131.102 1.30029 -3.69912 0
M  V30 1408 H 132.592 2.27114 -3.50441 0
M  V30 1409 N 133.029 1.57378 -0.0835403 0
M  V30 1410 C 134.276 1.9393 0.58287 0
M  V30 1411 C 134.604 0.964455 1.68904 0
M  V30 1412 O 133.859 -0.0179474 1.95692 0
M  V30 1413 C 134.158 3.37063 1.1884 0
M  V30 1414 C 133.824 4.50424 0.207194 0
M  V30 1415 C 132.486 4.81159 -0.0627115 0
M  V30 1416 C 134.838 5.19136 -0.463426 0
M  V30 1417 C 132.166 5.77939 -1.01012 0
M  V30 1418 C 134.518 6.16931 -1.39924 0
M  V30 1419 C 133.182 6.46078 -1.67749 0
M  V30 1420 H 132.452 0.70964 0.213287 0
M  V30 1421 H 135.099 1.90856 -0.156916 0
M  V30 1422 H 133.404 3.3666 2.00418 0
M  V30 1423 H 135.101 3.6264 1.71153 0
M  V30 1424 H 131.691 4.2646 0.427747 0
M  V30 1425 H 135.875 4.95576 -0.268034 0
M  V30 1426 H 131.131 5.98842 -1.23283 0
M  V30 1427 H 135.305 6.69273 -1.92476 0
M  V30 1428 H 132.932 7.2088 -2.41321 0
M  V30 1429 N 134.507 -0.190092 1.56449 0
M  V30 1430 C 135.47 -1.21925 1.9408 0
M  V30 1431 C 136.47 -1.38176 0.822431 0
M  V30 1432 O 137.66 -1.35903 1.08977 0
M  V30 1433 C 134.792 -2.58773 2.21922 0
M  V30 1434 H 135.985 -0.897464 2.86157 0
M  V30 1435 H 133.538 -0.43181 1.50217 0
M  V30 1436 H 134.273 -2.95998 1.32499 0
M  V30 1437 H 134.058 -2.48348 3.03424 0
M  V30 1438 H 135.548 -3.32978 2.52022 0
M  V30 1439 N 135.985 -1.50799 -0.457987 0
M  V30 1440 C 136.935 -1.67003 -1.55222 0
M  V30 1441 C 137.919 -0.52434 -1.52117 0
M  V30 1442 O 139.111 -0.779345 -1.58919 0
M  V30 1443 C 136.24 -1.77956 -2.93576 0
M  V30 1444 C 135.326 -2.98243 -3.01516 0
M  V30 1445 N 135.717 -4.21732 -2.79241 0
M  V30 1446 C 134.015 -2.97072 -3.32662 0
M  V30 1447 C 134.716 -5.02817 -2.92489 0
M  V30 1448 N 133.692 -4.37038 -3.23262 0
M  V30 1449 H 137.494 -2.60163 -1.36721 0
M  V30 1450 H 135.008 -1.48163 -0.664952 0
M  V30 1451 H 137.005 -1.87671 -3.72271 0
M  V30 1452 H 135.665 -0.859634 -3.13114 0
M  V30 1453 H 136.676 -4.51016 -2.54567 0
M  V30 1454 H 133.353 -2.14631 -3.58106 0
M  V30 1455 H 134.743 -6.11054 -2.79396 0
M  V30 1456 N 137.463 0.71206 -1.40597 0
M  V30 1457 C 138.411 1.84746 -1.41321 0
M  V30 1458 C 139.405 1.66842 -0.293268 0
M  V30 1459 O 140.611 1.73904 -0.464481 0
M  V30 1460 H 136.986 0.608522 -0.441819 0
M  V30 1461 H 138.957 1.81252 -2.37045 0
M  V30 1462 C 137.706 3.22638 -1.29614 0
M  V30 1463 H 137.029 3.37023 -2.15071 0
M  V30 1464 H 138.469 4.02209 -1.3418 0
M  V30 1465 C 136.928 3.36899 -0.00673121 0
M  V30 1466 O 137.458 3.90186 0.954859 0
M  V30 1467 N 135.664 2.9053 0.0639327 0
M  V30 1468 H 135.211 2.47353 -0.719311 0
M  V30 1469 H 135.169 3.0045 0.926118 0
M  V30 1470 N 138.941 1.26152 0.944643 0
M  V30 1471 C 140.352 1.10454 1.50522 0
M  V30 1472 C 140.703 -0.31635 1.93633 0
M  V30 1473 O 139.828 -1.20746 1.79581 0
M  V30 1474 C 140.423 1.99891 2.73549 0
M  V30 1475 C 138.982 1.88348 3.25886 0
M  V30 1476 C 138.129 1.93447 1.9868 0
M  V30 1477 H 141.08 1.39292 0.760489 0
M  V30 1478 H 141.101 1.54477 3.47732 0
M  V30 1479 H 140.613 3.03297 2.42141 0
M  V30 1480 H 138.714 0.878636 3.62092 0
M  V30 1481 H 138.827 2.73696 3.93227 0
M  V30 1482 H 137.191 1.37456 2.14425 0
M  V30 1483 H 137.974 2.98476 1.69607 0
M  V30 1484 N 140.419 -1.14872 1.07899 0
M  V30 1485 C 141.644 -1.90202 0.826926 0
M  V30 1486 C 142.069 -1.77774 -0.614664 0
M  V30 1487 O 141.427 -1.11431 -1.43013 0
M  V30 1488 C 141.475 -3.38352 1.24702 0
M  V30 1489 O 140.579 -4.10497 0.39575 0
M  V30 1490 H 139.92 -0.591968 0.300782 0
M  V30 1491 H 142.45 -1.45437 1.43907 0
M  V30 1492 H 142.46 -3.89156 1.22563 0
M  V30 1493 H 141.135 -3.46715 2.29698 0
M  V30 1494 H 139.712 -3.69796 0.480117 0
M  V30 1495 N 141.898 -0.863906 -1.31812 0
M  V30 1496 C 143.314 -0.555004 -1.49639 0
M  V30 1497 C 143.514 0.912266 -1.79666 0
M  V30 1498 O 142.57 1.69479 -1.87171 0
M  V30 1499 C 143.883 -1.44998 -2.63431 0
M  V30 1500 C 145.431 -1.45138 -2.77316 0
M  V30 1501 C 145.906 -2.33179 -3.94197 0
M  V30 1502 N 147.397 -2.31025 -4.01474 0
M  V30 1503 C 148.132 -2.95871 -4.9117 0
M  V30 1504 N 147.628 -3.69863 -5.8581 0
M  V30 1505 N 149.421 -2.85211 -4.84367 0
M  V30 1506 H 141.572 -1.81339 -1.10589 0
M  V30 1507 H 143.835 -0.77505 -0.545895 0
M  V30 1508 H 143.541 -2.49377 -2.48 0
M  V30 1509 H 143.415 -1.14409 -3.59431 0
M  V30 1510 H 145.802 -0.415201 -2.92164 0
M  V30 1511 H 145.883 -1.79747 -1.82001 0
M  V30 1512 H 145.527 -3.3687 -3.80107 0
M  V30 1513 H 145.457 -1.95897 -4.88807 0
M  V30 1514 H 147.948 -1.77238 -3.33759 0
M  V30 1515 H 148.261 -4.16486 -6.50968 0
M  V30 1516 H 146.606 -3.73971 -5.85808 0
M  V30 1517 H 149.797 -2.26948 -4.09405 0
M  V30 1518 H 149.97 -3.36027 -5.54066 0
M  V30 1519 N 143.376 1.44774 -0.622745 0
M  V30 1520 C 144.622 2.0242 -0.124083 0
M  V30 1521 C 144.955 1.4881 1.24777 0
M  V30 1522 O 144.23 0.668799 1.8264 0
M  V30 1523 C 144.513 3.59957 -0.101619 0
M  V30 1524 C 144.366 4.23867 -1.50521 0
M  V30 1525 C 145.685 4.36284 0.578272 0
M  V30 1526 H 142.804 0.735528 -0.0465645 0
M  V30 1527 H 145.446 1.72447 -0.797617 0
M  V30 1528 H 143.596 3.85623 0.471934 0
M  V30 1529 H 145.268 4.09336 -2.12701 0
M  V30 1530 H 143.511 3.81684 -2.06154 0
M  V30 1531 H 144.182 5.32843 -1.4416 0
M  V30 1532 H 146.658 4.16001 0.0906057 0
M  V30 1533 H 145.534 5.46004 0.563149 0
M  V30 1534 H 145.795 4.10271 1.64713 0
M  V30 1535 N 144.854 0.36279 1.53368 0
M  V30 1536 C 146.1 -0.220702 2.02199 0
M  V30 1537 C 146.455 -1.46649 1.24546 0
M  V30 1538 O 145.748 -1.88737 0.32996 0
M  V30 1539 C 145.942 -0.568417 3.52851 0
M  V30 1540 C 145.771 0.642126 4.45092 0
M  V30 1541 C 144.541 1.15335 4.91961 0
M  V30 1542 C 146.739 1.50649 4.91741 0
M  V30 1543 N 144.721 2.3242 5.68202 0
M  V30 1544 C 146.092 2.52404 5.66297 0
M  V30 1545 C 148.147 1.52969 4.73819 0
M  V30 1546 C 146.85 3.56331 6.24836 0
M  V30 1547 C 148.876 2.55789 5.33222 0
M  V30 1548 C 148.238 3.56268 6.07662 0
M  V30 1549 H 144.337 -0.0435508 0.780786 0
M  V30 1550 H 146.921 0.506704 1.87991 0
M  V30 1551 H 145.092 -1.2649 3.67226 0
M  V30 1552 H 146.824 -1.13676 3.88407 0
M  V30 1553 H 143.579 0.718412 4.68119 0
M  V30 1554 H 144.003 2.91591 6.10986 0
M  V30 1555 H 148.645 0.766418 4.15795 0
M  V30 1556 H 146.363 4.33543 6.81958 0
M  V30 1557 H 149.949 2.58435 5.21251 0
M  V30 1558 H 148.829 4.34524 6.52808 0
M  V30 1559 N 146.332 -1.57332 0.0918853 0
M  V30 1560 C 147.242 -2.17368 -0.882505 0
M  V30 1561 C 148.258 -1.14226 -1.31257 0
M  V30 1562 O 149.434 -1.46582 -1.38115 0
M  V30 1563 C 146.499 -2.73962 -2.12476 0
M  V30 1564 C 145.56 -3.92048 -1.7492 0
M  V30 1565 C 144.793 -4.45933 -2.93223 0
M  V30 1566 O 145.016 -3.98764 -4.07852 0
M  V30 1567 O 143.95 -5.36999 -2.71875 0
M  V30 1568 H 147.776 -3.01031 -0.40172 0
M  V30 1569 H 145.361 -1.48813 -0.132291 0
M  V30 1570 H 147.243 -3.10147 -2.85283 0
M  V30 1571 H 145.918 -1.93347 -2.59613 0
M  V30 1572 H 144.825 -3.6068 -0.993025 0
M  V30 1573 H 146.158 -4.74017 -1.32548 0
M  V30 1574 N 147.81 0.181792 -1.56548 0
M  V30 1575 C 149.057 0.900097 -1.81396 0
M  V30 1576 C 149.385 1.82695 -0.667281 0
M  V30 1577 O 148.64 1.92614 0.346146 0
M  V30 1578 C 148.939 1.73728 -3.12335 0
M  V30 1579 C 148.605 0.960255 -4.40556 0
M  V30 1580 C 147.267 0.745766 -4.75386 0
M  V30 1581 C 149.619 0.414477 -5.19549 0
M  V30 1582 C 146.947 -0.0257694 -5.86694 0
M  V30 1583 C 149.299 -0.343916 -6.31664 0
M  V30 1584 C 147.963 -0.569301 -6.65068 0
M  V30 1585 H 147.233 0.329369 -0.663775 0
M  V30 1586 H 149.88 0.165647 -1.90782 0
M  V30 1587 H 148.185 2.54081 -2.98245 0
M  V30 1588 H 149.882 2.29591 -3.28769 0
M  V30 1589 H 146.472 1.13746 -4.13231 0
M  V30 1590 H 150.656 0.567554 -4.93044 0
M  V30 1591 H 145.912 -0.210233 -6.11038 0
M  V30 1592 H 150.086 -0.774133 -6.92084 0
M  V30 1593 H 147.713 -1.16903 -7.51158 0
M  V30 1594 N 149.288 1.51039 0.449983 0
M  V30 1595 C 150.518 1.66627 1.22143 0
M  V30 1596 C 150.926 0.357776 1.85786 0
M  V30 1597 O 150.269 -0.672424 1.70951 0
M  V30 1598 C 150.331 2.71562 2.35573 0
M  V30 1599 C 149.995 4.14526 1.92399 0
M  V30 1600 C 150.992 4.99717 1.43453 0
M  V30 1601 C 148.677 4.60559 2.00475 0
M  V30 1602 C 150.671 6.28998 1.03155 0
M  V30 1603 C 148.358 5.8984 1.59788 0
M  V30 1604 C 149.356 6.73886 1.11208 0
M  V30 1605 O 149.044 8.0075 0.710935 0
M  V30 1606 H 148.776 0.562635 0.374724 0
M  V30 1607 H 151.33 1.98146 0.541036 0
M  V30 1608 H 149.56 2.3533 3.06849 0
M  V30 1609 H 151.249 2.76156 2.97478 0
M  V30 1610 H 152.015 4.65361 1.36618 0
M  V30 1611 H 147.894 3.95273 2.37235 0
M  V30 1612 H 151.438 6.9455 0.651663 0
M  V30 1613 H 147.335 6.23713 1.66289 0
M  V30 1614 H 148.103 8.142 0.837913 0
M  V30 1615 N 150.766 -0.704594 1.40972 0
M  V30 1616 C 151.716 -1.81051 1.38581 0
M  V30 1617 C 152.7 -1.58759 0.261585 0
M  V30 1618 O 153.892 -1.69745 0.501556 0
M  V30 1619 C 151.021 -3.19279 1.26157 0
M  V30 1620 C 150.107 -3.47296 2.43405 0
M  V30 1621 N 150.498 -3.46064 3.68881 0
M  V30 1622 C 148.796 -3.77804 2.37023 0
M  V30 1623 C 149.497 -3.72733 4.46592 0
M  V30 1624 N 148.473 -3.9203 3.76581 0
M  V30 1625 H 152.275 -1.78448 2.33525 0
M  V30 1626 H 149.789 -0.904198 1.349 0
M  V30 1627 H 151.786 -3.98488 1.22526 0
M  V30 1628 H 150.446 -3.231 0.321902 0
M  V30 1629 H 151.457 -3.26656 4.01891 0
M  V30 1630 H 148.134 -3.8905 1.51481 0
M  V30 1631 H 149.524 -3.77993 5.55492 0
M  V30 1632 N 152.244 -1.26651 -0.937939 0
M  V30 1633 C 153.474 -1.15006 -1.71631 0
M  V30 1634 C 153.882 0.297026 -1.86854 0
M  V30 1635 O 153.225 1.21493 -1.37786 0
M  V30 1636 C 153.287 -1.74984 -3.14039 0
M  V30 1637 C 152.951 -3.24103 -3.2219 0
M  V30 1638 C 153.948 -4.20877 -3.05219 0
M  V30 1639 C 151.633 -3.64625 -3.45476 0
M  V30 1640 C 153.627 -5.56151 -3.11408 0
M  V30 1641 C 151.314 -5.00032 -3.513 0
M  V30 1642 C 152.312 -5.95604 -3.34282 0
M  V30 1643 O 152 -7.28545 -3.3982 0
M  V30 1644 H 151.732 -0.401183 -0.544085 0
M  V30 1645 H 154.286 -1.67832 -1.18413 0
M  V30 1646 H 152.516 -1.16624 -3.68695 0
M  V30 1647 H 154.205 -1.58199 -3.73802 0
M  V30 1648 H 154.971 -3.90908 -2.87081 0
M  V30 1649 H 150.85 -2.90718 -3.57777 0
M  V30 1650 H 154.394 -6.30727 -2.98043 0
M  V30 1651 H 150.291 -5.29659 -3.68959 0
M  V30 1652 H 151.059 -7.3686 -3.56343 0
M  V30 1653 N 153.722 1.14298 -1.08507 0
M  V30 1654 C 155.138 1.37347 -0.812901 0
M  V30 1655 C 155.338 1.93052 0.577325 0
M  V30 1656 O 154.394 2.14389 1.33393 0
M  V30 1657 C 155.707 2.33359 -1.89642 0
M  V30 1658 C 157.255 2.46996 -1.92255 0
M  V30 1659 C 157.73 3.46309 -2.99724 0
M  V30 1660 N 159.221 3.53853 -2.98902 0
M  V30 1661 C 159.956 4.3055 -3.787 0
M  V30 1662 N 159.452 5.10482 -4.6838 0
M  V30 1663 N 161.245 4.25757 -3.66998 0
M  V30 1664 H 153.396 0.764867 -1.9815 0
M  V30 1665 H 155.659 0.398966 -0.859959 0
M  V30 1666 H 155.365 1.99565 -2.89597 0
M  V30 1667 H 155.239 3.33274 -1.76659 0
M  V30 1668 H 157.626 2.80081 -0.929445 0
M  V30 1669 H 157.707 1.47039 -2.09316 0
M  V30 1670 H 157.351 3.13957 -3.99241 0
M  V30 1671 H 157.281 4.46049 -2.79907 0
M  V30 1672 H 159.772 2.96812 -2.33904 0
M  V30 1673 H 160.085 5.66284 -5.25873 0
M  V30 1674 H 158.43 5.09747 -4.72422 0
M  V30 1675 H 161.621 3.62383 -2.96304 0
M  V30 1676 H 161.794 4.85279 -4.29427 0
M  V30 1677 N 155.201 0.870884 1.31352 0
M  V30 1678 C 156.617 0.562932 1.49343 0
M  V30 1679 C 156.817 -0.902725 1.80148 0
M  V30 1680 O 155.873 -1.68484 1.88067 0
M  V30 1681 C 157.186 1.46393 2.62659 0
M  V30 1682 C 158.734 1.46607 2.76542 0
M  V30 1683 C 159.209 2.35266 3.92955 0
M  V30 1684 N 160.7 2.33151 4.00243 0
M  V30 1685 C 161.435 2.98471 4.89594 0
M  V30 1686 N 160.931 3.72964 5.8384 0
M  V30 1687 N 162.724 2.87775 4.82848 0
M  V30 1688 H 154.875 1.81923 1.09626 0
M  V30 1689 H 157.138 0.777934 0.541777 0
M  V30 1690 H 156.844 2.50689 2.46674 0
M  V30 1691 H 156.718 1.16314 3.58819 0
M  V30 1692 H 159.105 0.43069 2.9194 0
M  V30 1693 H 159.186 1.8071 1.81046 0
M  V30 1694 H 158.83 3.38881 3.78315 0
M  V30 1695 H 158.76 1.98487 4.87761 0
M  V30 1696 H 161.251 1.79006 3.32814 0
M  V30 1697 H 161.564 4.19932 6.4875 0
M  V30 1698 H 159.909 3.77073 5.83816 0
M  V30 1699 H 163.1 2.29116 4.08195 0
M  V30 1700 H 163.273 3.38961 5.52277 0
M  V30 1701 N 156.679 -1.44442 0.630414 0
M  V30 1702 C 157.589 -2.34476 -0.0761693 0
M  V30 1703 C 158.605 -1.52576 -0.836449 0
M  V30 1704 O 159.781 -1.85307 -0.788874 0
M  V30 1705 C 156.846 -3.30545 -1.04599 0
M  V30 1706 C 155.907 -4.28352 -0.28516 0
M  V30 1707 C 155.14 -5.19831 -1.20878 0
M  V30 1708 O 155.363 -5.15223 -2.44747 0
M  V30 1709 O 154.297 -5.97892 -0.693491 0
M  V30 1710 H 158.123 -2.96345 0.664324 0
M  V30 1711 H 155.708 -1.44203 0.39061 0
M  V30 1712 H 157.59 -3.89681 -1.60396 0
M  V30 1713 H 156.265 -2.7121 -1.76711 0
M  V30 1714 H 155.172 -3.72764 0.315837 0
M  V30 1715 H 156.505 -4.90605 0.395924 0
M  V30 1716 N 158.157 -0.370918 -1.53173 0
M  V30 1717 C 159.403 0.217423 -2.01631 0
M  V30 1718 C 159.736 1.47983 -1.25756 0
M  V30 1719 O 159.011 1.91274 -0.352764 0
M  V30 1720 C 159.294 0.503982 -3.56556 0
M  V30 1721 C 159.147 -0.77243 -4.43118 0
M  V30 1722 C 160.466 1.30234 -4.20389 0
M  V30 1723 H 157.585 0.0775486 -0.732909 0
M  V30 1724 H 160.227 -0.496863 -1.83388 0
M  V30 1725 H 158.377 1.11248 -3.72231 0
M  V30 1726 H 160.049 -1.4098 -4.39229 0
M  V30 1727 H 158.292 -1.39167 -4.10871 0
M  V30 1728 H 158.963 -0.526815 -5.4948 0
M  V30 1729 H 161.439 0.787546 -4.08579 0
M  V30 1730 H 160.315 1.47158 -5.28806 0
M  V30 1731 H 160.576 2.31237 -3.76805 0
M  V30 1732 N 159.635 1.57281 -0.100228 0
M  V30 1733 C 160.568 2.09976 0.893612 0
M  V30 1734 C 161.546 1.01155 1.27304 0
M  V30 1735 O 162.73 1.28687 1.37739 0
M  V30 1736 C 159.857 2.58098 2.19324 0
M  V30 1737 C 158.903 3.78626 1.96328 0
M  V30 1738 S 159.736 5.21959 1.19662 0
M  V30 1739 C 160.892 5.73435 2.50844 0
M  V30 1740 H 161.125 2.93946 0.44534 0
M  V30 1741 H 158.658 1.53985 0.113167 0
M  V30 1742 H 160.616 2.8648 2.94005 0
M  V30 1743 H 159.277 1.74344 2.61272 0
M  V30 1744 H 158.47 4.10382 2.92579 0
M  V30 1745 H 158.072 3.50763 1.29775 0
M  V30 1746 H 160.364 5.82015 3.46792 0
M  V30 1747 H 161.307 6.7185 2.23659 0
M  V30 1748 H 161.715 5.01395 2.59352 0
M  V30 1749 N 161.113 -0.173488 1.56642 0
M  V30 1750 C 162.361 -0.888706 1.81512 0
M  V30 1751 C 162.682 -1.82875 0.676872 0
M  V30 1752 O 161.952 -1.93536 -0.303414 0
M  V30 1753 H 160.532 -0.331164 0.669582 0
M  V30 1754 H 163.194 -0.173823 1.94123 0
M  V30 1755 H 162.29 -1.46691 2.75478 0
M  V30 1756 N 162.591 -1.51276 -0.441967 0
M  V30 1757 C 163.816 -1.67799 -1.21895 0
M  V30 1758 C 164.241 -0.372864 -1.84367 0
M  V30 1759 O 163.599 0.666501 -1.68604 0
M  V30 1760 C 163.647 -2.79199 -2.28211 0
M  V30 1761 O 162.751 -2.42479 -3.33583 0
M  V30 1762 H 162.092 -0.559649 -0.357336 0
M  V30 1763 H 164.622 -1.97815 -0.522522 0
M  V30 1764 H 164.632 -3.03146 -2.73069 0
M  V30 1765 H 163.307 -3.73906 -1.82118 0
M  V30 1766 H 161.884 -2.29087 -2.94234 0
M  V30 1767 N 164.069 0.697108 -1.41344 0
M  V30 1768 C 165.016 1.81106 -1.43071 0
M  V30 1769 C 165.986 1.63632 -0.285275 0
M  V30 1770 O 167.171 1.84504 -0.486091 0
M  V30 1771 C 164.311 3.18975 -1.31715 0
M  V30 1772 C 163.424 3.47892 -2.56115 0
M  V30 1773 C 162.559 4.75367 -2.37064 0
M  V30 1774 C 161.598 4.97247 -3.56948 0
M  V30 1775 N 160.735 6.15947 -3.36977 0
M  V30 1776 H 165.575 1.78965 -2.38276 0
M  V30 1777 H 163.112 0.873975 -1.18322 0
M  V30 1778 H 165.07 3.98615 -1.23133 0
M  V30 1779 H 163.7 3.20297 -0.401183 0
M  V30 1780 H 162.752 2.62669 -2.75153 0
M  V30 1781 H 164.064 3.59962 -3.45295 0
M  V30 1782 H 163.218 5.63059 -2.25941 0
M  V30 1783 H 161.957 4.65541 -1.45338 0
M  V30 1784 H 160.962 4.08004 -3.68527 0
M  V30 1785 H 162.187 5.08934 -4.49626 0
M  V30 1786 H 160.133 6.07336 -2.47949 0
M  V30 1787 H 160.05 6.28777 -4.19732 0
M  V30 1788 H 161.318 7.06377 -3.29623 0
M  V30 1789 N 165.547 1.27147 0.931209 0
M  V30 1790 C 166.457 1.11372 2.06478 0
M  V30 1791 C 167.473 0.044645 1.73943 0
M  V30 1792 O 168.649 0.250417 1.99837 0
M  V30 1793 C 165.714 0.758838 3.38294 0
M  V30 1794 C 164.775 1.90841 3.84549 0
M  V30 1795 C 164.008 1.57036 5.10074 0
M  V30 1796 O 164.231 0.476645 5.68405 0
M  V30 1797 O 163.165 2.40839 5.51616 0
M  V30 1798 H 166.991 2.06493 2.22698 0
M  V30 1799 H 164.576 1.06301 1.04978 0
M  V30 1800 H 166.458 0.574098 4.17471 0
M  V30 1801 H 165.133 -0.162879 3.2329 0
M  V30 1802 H 164.04 2.14819 3.06274 0
M  V30 1803 H 165.373 2.81021 4.04089 0
M  V30 1804 N 167.025 -1.13721 1.09112 0
M  V30 1805 C 168.436 -1.6648 0.845068 0
M  V30 1806 C 168.787 -1.85911 -0.62701 0
M  V30 1807 O 167.912 -1.57556 -1.48341 0
M  V30 1808 C 168.507 -3.02413 1.52748 0
M  V30 1809 C 167.066 -3.52176 1.32849 0
M  V30 1810 C 166.213 -2.27492 1.58564 0
M  V30 1811 H 169.164 -0.976872 1.25072 0
M  V30 1812 H 169.185 -3.68223 0.958752 0
M  V30 1813 H 168.697 -2.88238 2.59885 0
M  V30 1814 H 166.798 -3.7156 0.278137 0
M  V30 1815 H 166.911 -4.32499 2.0611 0
M  V30 1816 H 165.275 -2.33923 1.00758 0
M  V30 1817 H 166.058 -2.15886 2.66924 0
M  V30 1818 N 168.503 -0.877838 -1.30888 0
M  V30 1819 C 169.451 -0.328662 -2.30266 0
M  V30 1820 C 170.445 0.560496 -1.59859 0
M  V30 1821 O 171.651 0.445722 -1.74394 0
M  V30 1822 H 168.026 -0.0876142 -0.746879 0
M  V30 1823 H 169.997 -1.18061 -2.74051 0
M  V30 1824 C 168.746 0.448071 -3.44801 0
M  V30 1825 H 168.069 -0.226859 -3.99156 0
M  V30 1826 H 169.509 0.797541 -4.16432 0
M  V30 1827 C 167.968 1.64239 -2.94155 0
M  V30 1828 O 168.498 2.74175 -2.93583 0
M  V30 1829 N 166.704 1.47716 -2.50256 0
M  V30 1830 H 166.251 0.582821 -2.5092 0
M  V30 1831 H 166.209 2.27765 -2.16727 0
M  V30 1832 N 169.982 1.44106 -0.638065 0
M  V30 1833 C 170.945 2.29138 0.0531013 0
M  V30 1834 C 171.945 1.41409 0.765506 0
M  V30 1835 O 173.135 1.63206 0.609046 0
M  V30 1836 C 170.267 3.23144 1.08584 0
M  V30 1837 H 171.46 2.91739 -0.694883 0
M  V30 1838 H 169.013 1.51134 -0.398538 0
M  V30 1839 H 169.748 2.65408 1.86357 0
M  V30 1840 H 169.533 3.87804 0.578852 0
M  V30 1841 H 171.023 3.87004 1.56899 0
M  V30 1842 N 171.46 0.379036 1.52974 0
M  V30 1843 C 172.708 -0.206014 2.01047 0
M  V30 1844 C 173.029 -1.48175 1.26765 0
M  V30 1845 O 172.299 -1.92085 0.384743 0
M  V30 1846 H 170.879 -0.0791184 0.742798 0
M  V30 1847 H 173.541 0.508366 1.88153 0
M  V30 1848 H 172.637 -0.423501 3.09213 0
M  V30 1849 N 172.938 -1.57226 0.108567 0
M  V30 1850 C 173.888 -2.11305 -0.856396 0
M  V30 1851 C 174.872 -1.03129 -1.23504 0
M  V30 1852 O 176.064 -1.29381 -1.20787 0
M  V30 1853 C 173.193 -2.70771 -2.11041 0
M  V30 1854 C 172.279 -3.86011 -1.7566 0
M  V30 1855 N 172.67 -4.93492 -1.10902 0
M  V30 1856 C 170.968 -3.95999 -2.05185 0
M  V30 1857 C 171.669 -5.73984 -0.944308 0
M  V30 1858 N 170.645 -5.2346 -1.46596 0
M  V30 1859 H 174.447 -2.91784 -0.352002 0
M  V30 1860 H 171.961 -1.62126 -0.0942324 0
M  V30 1861 H 173.958 -3.07851 -2.81128 0
M  V30 1862 H 172.618 -1.91751 -2.62034 0
M  V30 1863 H 173.629 -5.1208 -0.774235 0
M  V30 1864 H 170.306 -3.28007 -2.58298 0
M  V30 1865 H 171.696 -6.70479 -0.436813 0
M  V30 1866 N 174.416 0.165178 -1.56732 0
M  V30 1867 C 175.832 0.517174 -1.50988 0
M  V30 1868 C 176.032 1.84331 -0.813894 0
M  V30 1869 O 175.088 2.49672 -0.37682 0
M  V30 1870 C 176.401 0.544261 -2.95733 0
M  V30 1871 C 177.949 0.631039 -3.06573 0
M  V30 1872 C 178.424 0.68896 -4.52788 0
M  V30 1873 N 179.915 0.751683 -4.5706 0
M  V30 1874 C 180.65 0.817177 -5.67547 0
M  V30 1875 N 180.146 0.843129 -6.8765 0
M  V30 1876 N 181.939 0.856668 -5.55534 0
M  V30 1877 H 174.09 -0.704318 -2.00382 0
M  V30 1878 H 176.353 -0.254687 -0.913148 0
M  V30 1879 H 176.059 -0.361607 -3.49836 0
M  V30 1880 H 175.933 1.3886 -3.5071 0
M  V30 1881 H 178.32 1.52733 -2.52501 0
M  V30 1882 H 178.401 -0.240095 -2.54671 0
M  V30 1883 H 178.045 -0.2031 -5.07494 0
M  V30 1884 H 177.975 1.57633 -5.02454 0
M  V30 1885 H 180.466 0.739661 -3.70591 0
M  V30 1886 H 180.779 0.894448 -7.67606 0
M  V30 1887 H 179.124 0.811304 -6.90248 0
M  V30 1888 H 182.315 0.833437 -4.60621 0
M  V30 1889 H 182.488 0.904247 -6.4166 0
M  V30 1890 N 175.894 1.51508 0.433938 0
M  V30 1891 C 176.857 1.72473 1.50949 0
M  V30 1892 C 177.857 0.594725 1.49398 0
M  V30 1893 O 179.047 0.862315 1.5136 0
M  V30 1894 C 176.179 1.78431 2.90474 0
M  V30 1895 H 177.372 2.68467 1.33662 0
M  V30 1896 H 174.925 1.41549 0.662836 0
M  V30 1897 H 175.66 0.842645 3.13161 0
M  V30 1898 H 175.445 2.60558 2.93005 0
M  V30 1899 H 176.935 1.96479 3.68491 0
M  V30 1900 N 177.372 -0.689602 1.41712 0
M  V30 1901 C 178.621 -1.44534 1.40686 0
M  V30 1902 C 178.934 -1.95588 0.0213352 0
M  V30 1903 O 180.14 -2.71271 -0.111534 0
M  V30 1904 C 178.596 -2.61387 2.47396 0
M  V30 1905 C 178.204 -2.17094 3.91885 0
M  V30 1906 C 179.948 -3.38986 2.55517 0
M  V30 1907 C 177.855 -3.3094 4.90135 0
M  V30 1908 H 176.785 -0.542925 0.52321 0
M  V30 1909 H 179.436 -0.748054 1.6756 0
M  V30 1910 H 177.818 -3.33412 2.13664 0
M  V30 1911 H 178.992 -1.52318 4.34897 0
M  V30 1912 H 177.307 -1.52473 3.8748 0
M  V30 1913 H 179.904 -4.23747 3.26102 0
M  V30 1914 H 180.247 -3.84578 1.59391 0
M  V30 1915 H 180.78 -2.74021 2.8837 0
M  V30 1916 H 177.519 -2.90355 5.87685 0
M  V30 1917 H 177.039 -3.94546 4.51767 0
M  V30 1918 H 178.718 -3.9663 5.11169 0
M  V30 1919 N 178.85 -1.27639 -0.924453 0
M  V30 1920 C 179.813 -1.10681 -2.00705 0
M  V30 1921 C 180.813 -0.0497823 -1.60723 0
M  V30 1922 O 182.003 -0.294654 -1.7169 0
M  V30 1923 C 179.135 -0.687164 -3.33902 0
M  V30 1924 H 180.328 -2.06817 -2.17179 0
M  V30 1925 H 177.881 -1.10473 -1.10569 0
M  V30 1926 H 178.616 0.275439 -3.23128 0
M  V30 1927 H 178.401 -1.45061 -3.6428 0
M  V30 1928 H 179.891 -0.590853 -4.13399 0
M  V30 1929 N 180.328 1.1314 -1.09713 0
M  V30 1930 C 181.238 2.22242 -0.751367 0
M  V30 1931 C 182.254 1.72224 0.247938 0
M  V30 1932 O 183.43 2.01205 0.0885463 0
M  V30 1933 C 180.495 3.46231 -0.180274 0
M  V30 1934 C 179.556 4.11125 -1.2359 0
M  V30 1935 C 178.789 5.29195 -0.691966 0
M  V30 1936 O 179.012 5.68342 0.48414 0
M  V30 1937 O 177.946 5.84214 -1.44838 0
M  V30 1938 H 181.772 2.54197 -1.66186 0
M  V30 1939 H 179.357 1.21331 -0.871735 0
M  V30 1940 H 181.239 4.21185 0.134739 0
M  V30 1941 H 179.914 3.1597 0.703185 0
M  V30 1942 H 178.821 3.37985 -1.60366 0
M  V30 1943 H 180.154 4.45524 -2.09211 0
M  V30 1944 N 181.806 0.884767 1.30421 0
M  V30 1945 C 183.046 0.509806 1.9794 0
M  V30 1946 C 183.41 -0.923736 1.68319 0
M  V30 1947 O 184.611 -1.40481 2.29169 0
M  V30 1948 C 182.882 0.776732 3.48858 0
M  V30 1949 S 184.441 0.503843 4.35898 0
M  V30 1950 H 181.259 0.189699 0.685227 0
M  V30 1951 H 183.861 1.14399 1.58535 0
M  V30 1952 H 182.565 1.81857 3.67908 0
M  V30 1953 H 182.096 0.1301 3.93185 0
M  V30 1954 H 184.111 -0.657625 4.91823 0
M  V30 1955 N 183.284 -1.43765 0.645699 0
M  V30 1956 C 184.194 -2.34544 -0.0512957 0
M  V30 1957 C 185.21 -1.53455 -0.82022 0
M  V30 1958 O 186.386 -1.86133 -0.769176 0
M  V30 1959 C 183.451 -3.31636 -1.01087 0
M  V30 1960 C 182.512 -4.2863 -0.239712 0
M  V30 1961 C 181.745 -5.21084 -1.15358 0
M  V30 1962 O 181.968 -5.1779 -2.39269 0
M  V30 1963 O 180.902 -5.98593 -0.630038 0
M  V30 1964 H 184.728 -2.95624 0.695718 0
M  V30 1965 H 182.313 -1.43781 0.405882 0
M  V30 1966 H 184.195 -3.9136 -1.56254 0
M  V30 1967 H 182.87 -2.73069 -1.73824 0
M  V30 1968 H 181.777 -3.72408 0.355356 0
M  V30 1969 H 183.11 -4.90157 0.447936 0
M  V30 1970 N 184.763 -0.387143 -1.52771 0
M  V30 1971 C 185.991 0.195869 -2.05971 0
M  V30 1972 C 186.406 1.40691 -1.25903 0
M  V30 1973 O 185.763 1.79931 -0.305134 0
M  V30 1974 C 185.814 0.56812 -3.57008 0
M  V30 1975 O 185.535 -0.594803 -4.34043 0
M  V30 1976 C 187.036 1.20723 -4.26545 0
M  V30 1977 H 184.256 0.0300578 -0.670326 0
M  V30 1978 H 186.8 -0.551749 -1.96916 0
M  V30 1979 H 184.955 1.26564 -3.66143 0
M  V30 1980 H 185.369 -0.289322 -5.23701 0
M  V30 1981 H 186.843 1.41807 -5.33474 0
M  V30 1982 H 187.32 2.17395 -3.81623 0
M  V30 1983 H 187.926 0.550535 -4.21722 0
M  V30 1984 N 186.241 1.57166 -0.116904 0
M  V30 1985 C 187.657 1.5779 0.239693 0
M  V30 1986 C 187.857 1.1295 1.66867 0
M  V30 1987 O 186.913 0.81592 2.38954 0
M  V30 1988 C 188.226 3.00699 0.00828202 0
M  V30 1989 C 189.774 3.12912 0.0743438 0
M  V30 1990 C 190.249 4.57817 -0.129348 0
M  V30 1991 N 191.74 4.63139 -0.075247 0
M  V30 1992 C 192.475 5.73023 -0.207788 0
M  V30 1993 N 191.971 6.91665 -0.396382 0
M  V30 1994 N 193.764 5.61906 -0.14751 0
M  V30 1995 H 185.915 1.84615 -1.05029 0
M  V30 1996 H 188.178 0.85311 -0.41341 0
M  V30 1997 H 187.884 3.37784 -0.979531 0
M  V30 1998 H 187.758 3.69848 0.741077 0
M  V30 1999 H 190.145 2.75686 1.05268 0
M  V30 2000 H 190.226 2.4631 -0.690297 0
M  V30 2001 H 189.87 4.95742 -1.10465 0
M  V30 2002 H 189.8 5.22507 0.655253 0
M  V30 2003 H 192.291 3.7784 0.0670898 0
M  V30 2004 H 192.604 7.71255 -0.488437 0
M  V30 2005 H 190.949 6.93654 -0.432329 0
M  V30 2006 H 194.14 4.681 -0.00115036 0
M  V30 2007 H 194.313 6.47501 -0.254247 0
M  V30 2008 N 187.719 -0.156864 1.56817 0
M  V30 2009 C 188.649 -1.19589 2.00551 0
M  V30 2010 C 189.63 -1.4536 0.883426 0
M  V30 2011 O 190.815 -1.56449 1.15054 0
M  V30 2012 C 187.945 -2.53143 2.37773 0
M  V30 2013 C 186.899 -2.41913 3.53075 0
M  V30 2014 C 186.225 -3.80088 3.76081 0
M  V30 2015 C 187.525 -1.91157 4.86062 0
M  V30 2016 H 189.219 -0.832293 2.87599 0
M  V30 2017 H 186.765 -0.398918 1.38364 0
M  V30 2018 H 188.718 -3.26047 2.66967 0
M  V30 2019 H 187.442 -2.91319 1.4765 0
M  V30 2020 H 186.101 -1.71462 3.24031 0
M  V30 2021 H 185.749 -4.15683 2.83225 0
M  V30 2022 H 185.449 -3.73439 4.53671 0
M  V30 2023 H 186.973 -4.54556 4.0769 0
M  V30 2024 H 188.387 -2.53846 5.14038 0
M  V30 2025 H 186.784 -1.95422 5.67389 0
M  V30 2026 H 187.854 -0.866673 4.77092 0
M  V30 2027 N 189.197 -1.51736 -0.425897 0
M  V30 2028 C 190.445 -1.64644 -1.17204 0
M  V30 2029 C 190.766 -0.370486 -1.91448 0
M  V30 2030 O 190.036 0.614088 -1.86026 0
M  V30 2031 H 188.616 -0.606819 -0.435638 0
M  V30 2032 H 191.278 -1.88713 -0.487177 0
M  V30 2033 H 190.374 -2.47958 -1.89534 0
M  V30 2034 N 190.675 0.682077 -1.42076 0
M  V30 2035 C 191.622 1.79578 -1.44984 0
M  V30 2036 C 192.592 1.6332 -0.302614 0
M  V30 2037 O 193.777 1.83978 -0.505633 0
M  V30 2038 C 190.917 3.1756 -1.35091 0
M  V30 2039 C 190.03 3.45156 -2.59791 0
M  V30 2040 C 189.165 4.72826 -2.42093 0
M  V30 2041 C 188.204 4.93433 -3.62202 0
M  V30 2042 N 187.341 6.12338 -3.43491 0
M  V30 2043 H 192.181 1.76427 -2.40161 0
M  V30 2044 H 189.718 0.861376 -1.19242 0
M  V30 2045 H 191.676 3.97287 -1.27354 0
M  V30 2046 H 190.306 3.19854 -0.435133 0
M  V30 2047 H 189.358 2.59736 -2.77923 0
M  V30 2048 H 190.67 3.5628 -3.49094 0
M  V30 2049 H 189.824 5.60631 -2.319 0
M  V30 2050 H 188.563 4.63973 -1.50268 0
M  V30 2051 H 187.568 4.04073 -3.72834 0
M  V30 2052 H 188.793 5.04136 -4.54998 0
M  V30 2053 H 186.739 6.04672 -2.54377 0
M  V30 2054 H 186.656 6.2429 -4.26377 0
M  V30 2055 H 187.924 7.02841 -3.37097 0
M  V30 2056 N 192.153 1.28127 0.917671 0
M  V30 2057 C 193.085 1.07517 2.02417 0
M  V30 2058 C 194.098 0.0281099 1.62776 0
M  V30 2059 O 195.287 0.270748 1.76435 0
M  V30 2060 C 192.387 0.610957 3.33347 0
M  V30 2061 C 191.56 1.73255 4.01624 0
M  V30 2062 C 190.619 1.26238 5.10833 0
M  V30 2063 O 189.645 1.96389 5.34247 0
M  V30 2064 N 190.847 0.123448 5.80369 0
M  V30 2065 H 193.612 2.02806 2.20658 0
M  V30 2066 H 191.173 1.19827 1.08871 0
M  V30 2067 H 193.165 0.280101 4.0373 0
M  V30 2068 H 191.735 -0.24898 3.11607 0
M  V30 2069 H 190.955 2.23319 3.24842 0
M  V30 2070 H 192.243 2.48503 4.43986 0
M  V30 2071 H 191.641 -0.461847 5.63812 0
M  V30 2072 H 190.198 -0.148158 6.51632 0
M  V30 2073 N 193.631 -1.12557 1.10312 0
M  V30 2074 C 194.879 -1.83675 0.843091 0
M  V30 2075 C 195.2 -1.84435 -0.633131 0
M  V30 2076 O 194.47 -1.30657 -1.45964 0
M  V30 2077 H 193.05 -0.680138 0.308904 0
M  V30 2078 H 195.712 -1.36301 1.39313 0
M  V30 2079 H 194.808 -2.87908 1.2048 0
M  V30 2080 N 195.109 -0.891671 -1.2995 0
M  V30 2081 C 196.525 -0.58662 -1.48428 0
M  V30 2082 C 196.725 0.873951 -1.81561 0
M  V30 2083 O 195.781 1.65471 -1.90724 0
M  V30 2084 C 197.094 -1.50553 -2.60296 0
M  V30 2085 C 198.642 -1.50988 -2.74175 0
M  V30 2086 C 199.117 -2.41488 -3.89163 0
M  V30 2087 N 200.608 -2.39489 -3.96483 0
M  V30 2088 C 201.343 -3.06223 -4.84784 0
M  V30 2089 N 200.839 -3.82206 -5.77833 0
M  V30 2090 N 202.632 -2.95421 -4.78208 0
M  V30 2091 H 194.783 -1.83644 -1.06718 0
M  V30 2092 H 197.046 -0.786455 -0.529332 0
M  V30 2093 H 196.752 -2.54581 -2.42654 0
M  V30 2094 H 196.626 -1.22008 -3.56923 0
M  V30 2095 H 199.013 -0.47708 -2.91218 0
M  V30 2096 H 199.094 -1.83567 -1.78148 0
M  V30 2097 H 198.738 -3.44857 -3.72876 0
M  V30 2098 H 198.668 -2.06222 -4.84541 0
M  V30 2099 H 201.159 -1.84278 -3.29924 0
M  V30 2100 H 201.472 -4.302 -6.41988 0
M  V30 2101 H 199.817 -3.86313 -5.77743 0
M  V30 2102 H 203.008 -2.35581 -4.04499 0
M  V30 2103 H 203.181 -3.47704 -5.46814 0
M  V30 2104 N 196.587 1.43421 -0.653314 0
M  V30 2105 C 198.003 1.56341 -0.320886 0
M  V30 2106 C 198.203 1.63696 1.17499 0
M  V30 2107 O 197.259 1.59208 1.95982 0
M  V30 2108 C 198.572 2.82424 -1.03233 0
M  V30 2109 C 200.12 2.96168 -1.01259 0
M  V30 2110 C 200.595 4.25084 -1.70492 0
M  V30 2111 N 202.086 4.31948 -1.67257 0
M  V30 2112 C 202.821 5.30466 -2.17701 0
M  V30 2113 N 202.317 6.35261 -2.76434 0
M  V30 2114 N 204.11 5.2212 -2.082 0
M  V30 2115 H 196.261 1.3689 -1.62403 0
M  V30 2116 H 198.524 0.657455 -0.682977 0
M  V30 2117 H 198.23 2.83053 -2.08744 0
M  V30 2118 H 198.104 3.72653 -0.583948 0
M  V30 2119 H 200.491 2.9508 0.0341235 0
M  V30 2120 H 200.572 2.07229 -1.49966 0
M  V30 2121 H 200.216 4.26932 -2.7512 0
M  V30 2122 H 200.146 5.1292 -1.19251 0
M  V30 2123 H 202.637 3.56838 -1.24398 0
M  V30 2124 H 202.95 7.06754 -3.12601 0
M  V30 2125 H 201.295 6.35884 -2.80495 0
M  V30 2126 H 204.486 4.39166 -1.62021 0
M  V30 2127 H 204.659 5.98739 -2.47822 0
M  V30 2128 N 198.065 0.39524 1.52563 0
M  V30 2129 C 199.311 -0.185318 2.01952 0
M  V30 2130 C 199.644 -1.45964 1.28095 0
M  V30 2131 O 198.919 -1.90689 0.38315 0
M  V30 2132 C 199.202 -0.447193 3.57312 0
M  V30 2133 C 199.055 0.842828 4.41833 0
M  V30 2134 C 200.374 -1.23529 4.22408 0
M  V30 2135 H 197.493 -0.0658788 0.73405 0
M  V30 2136 H 200.135 0.525975 1.82575 0
M  V30 2137 H 198.285 -1.05312 3.73954 0
M  V30 2138 H 199.957 1.4795 4.36931 0
M  V30 2139 H 198.2 1.45686 4.08605 0
M  V30 2140 H 198.871 0.614165 5.48573 0
M  V30 2141 H 201.347 -0.722445 4.0978 0
M  V30 2142 H 200.223 -1.38727 5.3108 0
M  V30 2143 H 200.484 -2.25213 3.80436 0
M  V30 2144 N 199.544 -1.57102 0.125237 0
M  V30 2145 C 200.79 -1.95697 -0.532035 0
M  V30 2146 C 201.123 -1.009 -1.6593 0
M  V30 2147 O 200.398 -0.047347 -1.94442 0
M  V30 2148 C 200.681 -3.44181 -1.05884 0
M  V30 2149 C 200.534 -4.49752 0.0654392 0
M  V30 2150 C 201.853 -3.94655 -1.9477 0
M  V30 2151 H 198.972 -0.711571 -0.191925 0
M  V30 2152 H 201.614 -1.88923 0.20206 0
M  V30 2153 H 199.764 -3.50085 -1.68442 0
M  V30 2154 H 201.436 -4.55943 0.700982 0
M  V30 2155 H 199.679 -4.27653 0.727709 0
M  V30 2156 H 200.35 -5.50924 -0.344505 0
M  V30 2157 H 202.826 -3.91094 -1.42074 0
M  V30 2158 H 201.702 -4.99057 -2.28546 0
M  V30 2159 H 201.963 -3.35718 -2.87656 0
M  V30 2160 N 201.022 0.148545 -1.56898 0
M  V30 2161 C 202.268 0.862694 -1.83536 0
M  V30 2162 C 202.601 1.80889 -0.706604 0
M  V30 2163 O 201.876 1.92328 0.289885 0
M  V30 2164 C 202.159 1.63853 -3.20662 0
M  V30 2165 C 202.012 0.713925 -4.44098 0
M  V30 2166 C 203.331 2.60133 -3.54991 0
M  V30 2167 H 200.45 0.312179 -0.667618 0
M  V30 2168 H 203.092 0.127953 -1.89569 0
M  V30 2169 H 201.242 2.26489 -3.1565 0
M  V30 2170 H 202.914 0.098686 -4.61194 0
M  V30 2171 H 201.157 0.0234019 -4.33794 0
M  V30 2172 H 201.828 1.29278 -5.36648 0
M  V30 2173 H 204.304 2.07616 -3.60603 0
M  V30 2174 H 203.18 3.11468 -4.51972 0
M  V30 2175 H 203.441 3.41417 -2.80868 0
M  V30 2176 N 202.5 1.5196 0.417844 0
M  V30 2177 C 203.749 1.6482 1.16264 0
M  V30 2178 C 204.062 0.379886 1.91876 0
M  V30 2179 O 205.268 0.388154 2.68711 0
M  V30 2180 C 203.724 2.91161 2.1155 0
M  V30 2181 C 203.332 4.25068 1.41495 0
M  V30 2182 C 205.076 3.13383 2.86341 0
M  V30 2183 C 202.983 5.42541 2.35379 0
M  V30 2184 H 201.913 0.613954 0.437694 0
M  V30 2185 H 204.564 1.78442 0.427871 0
M  V30 2186 H 202.946 2.71218 2.88543 0
M  V30 2187 H 204.12 4.55463 0.699263 0
M  V30 2188 H 202.435 4.0888 0.787792 0
M  V30 2189 H 205.032 3.98324 3.5671 0
M  V30 2190 H 205.375 2.27256 3.48798 0
M  V30 2191 H 205.908 3.33757 2.1645 0
M  V30 2192 H 202.647 6.30987 1.77582 0
M  V30 2193 H 202.167 5.16497 3.04945 0
M  V30 2194 H 203.846 5.75272 2.96093 0
M  V30 2195 N 203.978 -0.674533 1.42435 0
M  V30 2196 C 205.206 -1.46283 1.46317 0
M  V30 2197 C 205.621 -1.88653 0.0745836 0
M  V30 2198 O 204.978 -1.58151 -0.91074 0
M  V30 2199 C 205.029 -2.71178 2.3905 0
M  V30 2200 O 204.75 -2.30586 3.72507 0
M  V30 2201 C 206.251 -3.64738 2.51955 0
M  V30 2202 H 203.471 -0.450104 0.497642 0
M  V30 2203 H 206.015 -0.828792 1.86953 0
M  V30 2204 H 204.17 -3.3077 2.01667 0
M  V30 2205 H 204.584 -3.11241 4.22172 0
M  V30 2206 H 206.058 -4.49096 3.20962 0
M  V30 2207 H 206.535 -4.10656 1.55752 0
M  V30 2208 H 207.141 -3.11038 2.90061 0
M  V30 2209 N 205.456 -1.28612 -0.910864 0
M  V30 2210 C 206.388 -1.08589 -2.01844 0
M  V30 2211 C 207.401 -0.0367419 -1.62759 0
M  V30 2212 O 208.59 -0.280101 -1.76289 0
M  V30 2213 C 205.69 -0.628626 -3.33019 0
M  V30 2214 C 204.863 -1.75382 -4.00699 0
M  V30 2215 C 203.922 -1.28945 -5.10156 0
M  V30 2216 O 202.948 -1.9922 -5.33198 0
M  V30 2217 N 204.15 -0.154224 -5.80295 0
M  V30 2218 H 206.915 -2.03973 -2.19579 0
M  V30 2219 H 204.476 -1.20403 -1.08234 0
M  V30 2220 H 206.468 -0.301508 -4.03575 0
M  V30 2221 H 205.038 0.232451 -3.11735 0
M  V30 2222 H 204.258 -2.25039 -3.23653 0
M  V30 2223 H 205.546 -2.50854 -4.42662 0
M  V30 2224 H 204.944 0.43194 -5.64049 0
M  V30 2225 H 203.501 0.113599 -6.51701 0
M  V30 2226 N 206.934 1.1197 -1.10907 0
M  V30 2227 C 207.882 2.19927 -0.757303 0
M  V30 2228 C 208.876 1.67564 0.248747 0
M  V30 2229 O 210.082 1.79672 0.108605 0
M  V30 2230 H 206.457 0.716925 -0.226987 0
M  V30 2231 H 208.428 2.46847 -1.67658 0
M  V30 2232 C 207.177 3.47061 -0.210671 0
M  V30 2233 H 206.5 3.87703 -0.976049 0
M  V30 2234 H 207.94 4.24 -0.0026584 0
M  V30 2235 C 206.399 3.19864 1.05777 0
M  V30 2236 O 206.929 3.40049 2.13845 0
M  V30 2237 N 205.135 2.73636 0.978349 0
M  V30 2238 H 204.682 2.5741 0.0988246 0
M  V30 2239 H 204.64 2.55815 1.82773 0
M  V30 2240 N 208.412 0.89855 1.29475 0
M  V30 2241 C 209.661 0.519863 1.94885 0
M  V30 2242 C 209.974 -0.9383 1.71625 0
M  V30 2243 O 211.18 -1.42445 2.31131 0
M  V30 2244 C 209.636 0.878836 3.49005 0
M  V30 2245 C 209.244 2.35569 3.81066 0
M  V30 2246 C 210.988 0.570004 4.20656 0
M  V30 2247 C 208.895 2.65558 5.28425 0
M  V30 2248 H 207.825 0.190692 0.729488 0
M  V30 2249 H 210.476 1.09539 1.47219 0
M  V30 2250 H 208.858 0.232253 3.95318 0
M  V30 2251 H 210.032 3.04773 3.45616 0
M  V30 2252 H 208.347 2.63343 3.22552 0
M  V30 2253 H 210.944 0.770925 5.29113 0
M  V30 2254 H 211.287 -0.491404 4.1339 0
M  V30 2255 H 211.82 1.17438 3.8007 0
M  V30 2256 H 208.559 3.70493 5.40754 0
M  V30 2257 H 208.079 2.00977 5.65127 0
M  V30 2258 H 209.758 2.51765 5.96006 0
M  V30 2259 N 209.89 -1.43072 0.660911 0
M  V30 2260 C 211.167 -1.95307 0.107017 0
M  V30 2261 C 211.547 -1.60192 -1.37484 0
M  V30 2262 O 210.895 -0.890949 -2.10415 0
M  V30 2263 C 211.105 -3.47124 0.361402 0
M  V30 2264 C 212.453 -4.23738 0.270455 0
M  V30 2265 O 213.477 -3.54981 0.294382 0
M  V30 2266 O 212.336 -5.46131 0.200737 0
M  V30 2267 H 209.43 -0.826984 -0.00517729 0
M  V30 2268 H 211.976 -1.52972 0.734681 0
M  V30 2269 H 210.748 -3.65837 1.38848 0
M  V30 2270 H 210.371 -3.96475 -0.298953 0
M  V30 2271 N 211.368 -0.403325 -1.52352 0
M  V30 2272 C 212.278 0.432009 -2.30588 0
M  V30 2273 C 213.294 1.05884 -1.38075 0
M  V30 2274 O 214.47 1.06161 -1.71148 0
M  V30 2275 C 211.535 1.53669 -3.10784 0
M  V30 2276 C 210.596 0.933525 -4.19027 0
M  V30 2277 C 209.829 1.98557 -4.9539 0
M  V30 2278 O 210.052 3.20283 -4.71991 0
M  V30 2279 O 208.986 1.59504 -5.80381 0
M  V30 2280 H 212.812 -0.205739 -3.03002 0
M  V30 2281 H 210.397 -0.166675 -1.48467 0
M  V30 2282 H 212.279 2.17814 -3.60742 0
M  V30 2283 H 210.954 2.15915 -2.41169 0
M  V30 2284 H 209.861 0.254954 -3.7323 0
M  V30 2285 H 211.194 0.35508 -4.90918 0
M  V30 2286 N 212.846 1.57033 -0.133567 0
M  V30 2287 C 213.776 2.1909 0.807567 0
M  V30 2288 C 214.757 1.13517 1.26681 0
M  V30 2289 O 215.942 1.41809 1.32679 0
M  V30 2290 C 213.072 2.80188 2.05212 0
M  V30 2291 C 212.026 3.91471 1.73015 0
M  V30 2292 C 211.352 4.39443 3.04622 0
M  V30 2293 C 212.652 5.12886 0.987168 0
M  V30 2294 H 214.346 2.97988 0.290403 0
M  V30 2295 H 211.892 1.43335 0.138239 0
M  V30 2296 H 213.845 3.22264 2.71521 0
M  V30 2297 H 212.569 1.98601 2.59278 0
M  V30 2298 H 211.228 3.49993 1.0909 0
M  V30 2299 H 210.876 3.54695 3.56651 0
M  V30 2300 H 210.576 5.14495 2.83847 0
M  V30 2301 H 212.1 4.8418 3.72024 0
M  V30 2302 H 213.514 5.51891 1.55208 0
M  V30 2303 H 211.911 5.93615 0.87985 0
M  V30 2304 H 212.981 4.84894 -0.0235286 0
M  V30 2305 N 214.325 -0.140222 1.56975 0
M  V30 2306 C 215.275 -1.17827 1.95194 0
M  V30 2307 C 216.259 -1.38195 0.824075 0
M  V30 2308 O 217.451 -1.39643 1.0876 0
M  V30 2309 C 214.58 -2.51024 2.34184 0
M  V30 2310 C 213.666 -2.3422 3.53556 0
M  V30 2311 N 214.057 -1.87185 4.69889 0
M  V30 2312 C 212.355 -2.64949 3.58773 0
M  V30 2313 C 213.056 -1.83586 5.5197 0
M  V30 2314 N 212.032 -2.2715 4.93866 0
M  V30 2315 H 215.834 -0.806817 2.82609 0
M  V30 2316 H 213.348 -0.348208 1.58623 0
M  V30 2317 H 215.345 -3.26074 2.59772 0
M  V30 2318 H 214.005 -2.88945 1.48124 0
M  V30 2319 H 215.016 -1.57048 4.93514 0
M  V30 2320 H 211.693 -3.067 2.8327 0
M  V30 2321 H 213.083 -1.48655 6.55249 0
M  V30 2322 N 215.803 -1.52179 -0.40978 0
M  V30 2323 C 217.219 -1.40968 -0.74835 0
M  V30 2324 C 217.419 -0.513657 -1.94843 0
M  V30 2325 O 216.475 0.0208026 -2.52491 0
M  V30 2326 C 217.788 -2.83483 -1.0029 0
M  V30 2327 C 219.336 -2.92821 -1.10565 0
M  V30 2328 C 219.811 -4.36303 -1.39296 0
M  V30 2329 N 221.302 -4.39535 -1.46162 0
M  V30 2330 C 222.037 -5.47614 -1.70018 0
M  V30 2331 N 221.533 -6.65812 -1.91483 0
M  V30 2332 N 223.326 -5.35129 -1.72027 0
M  V30 2333 H 215.477 -2.0897 0.380186 0
M  V30 2334 H 217.74 -0.94185 0.107805 0
M  V30 2335 H 217.446 -3.51168 -0.193461 0
M  V30 2336 H 217.32 -3.24487 -1.92323 0
M  V30 2337 H 219.707 -2.25318 -1.90568 0
M  V30 2338 H 219.788 -2.55276 -0.16369 0
M  V30 2339 H 219.432 -5.04366 -0.598109 0
M  V30 2340 H 219.362 -4.71385 -2.34743 0
M  V30 2341 H 221.853 -3.54332 -1.31367 0
M  V30 2342 H 222.166 -7.43964 -2.09134 0
M  V30 2343 H 220.511 -6.68879 -1.88749 0
M  V30 2344 H 223.702 -4.41764 -1.54796 0
M  V30 2345 H 223.875 -6.19433 -1.9028 0
M  V30 2346 N 217.281 0.66697 -1.42791 0
M  V30 2347 C 218.228 1.7803 -1.4688 0
M  V30 2348 C 219.198 1.6299 -0.319919 0
M  V30 2349 O 220.383 1.83432 -0.525118 0
M  V30 2350 C 217.523 3.1611 -1.38451 0
M  V30 2351 C 216.636 3.42381 -2.63437 0
M  V30 2352 C 215.771 4.70232 -2.47094 0
M  V30 2353 C 214.81 4.89564 -3.67415 0
M  V30 2354 N 213.947 6.08661 -3.49966 0
M  V30 2355 H 218.787 1.7387 -2.42019 0
M  V30 2356 H 216.324 0.84868 -1.20149 0
M  V30 2357 H 218.282 3.95914 -1.31561 0
M  V30 2358 H 216.912 3.19374 -0.469033 0
M  V30 2359 H 215.964 2.56774 -2.80662 0
M  V30 2360 H 217.276 3.52557 -3.52853 0
M  V30 2361 H 216.43 5.5814 -2.37834 0
M  V30 2362 H 215.169 4.62353 -1.5518 0
M  V30 2363 H 214.174 4.00096 -3.77099 0
M  V30 2364 H 215.399 4.99282 -4.6032 0
M  V30 2365 H 213.345 6.0194 -2.60776 0
M  V30 2366 H 213.262 6.19733 -4.32975 0
M  V30 2367 H 214.53 6.99226 -3.44532 0
M  V30 2368 N 218.759 1.29093 0.90403 0
M  V30 2369 C 219.722 1.1386 1.98919 0
M  V30 2370 C 220.722 0.0753457 1.60623 0
M  V30 2371 O 221.912 0.321931 1.71199 0
M  V30 2372 C 219.044 0.740198 3.32767 0
M  V30 2373 H 220.237 2.10246 2.13861 0
M  V30 2374 H 217.79 1.12218 1.08797 0
M  V30 2375 H 218.525 -0.223997 3.23525 0
M  V30 2376 H 218.31 1.50838 3.61926 0
M  V30 2377 H 219.8 0.656546 4.12407 0
M  V30 2378 N 220.237 -1.11381 1.11499 0
M  V30 2379 C 221.485 -1.8277 0.862524 0
M  V30 2380 C 221.806 -1.85097 -0.613534 0
M  V30 2381 O 221.076 -1.32198 -1.4457 0
M  V30 2382 H 219.656 -0.676823 0.316101 0
M  V30 2383 H 222.318 -1.34816 1.4075 0
M  V30 2384 H 221.414 -2.86614 1.23527 0
M  V30 2385 N 221.715 -0.905404 -1.28997 0
M  V30 2386 C 222.943 -0.549846 -1.9946 0
M  V30 2387 C 223.358 0.866834 -1.67724 0
M  V30 2388 O 222.715 1.57298 -0.925404 0
M  V30 2389 C 222.766 -0.739387 -3.53858 0
M  V30 2390 O 222.487 -2.10031 -3.84472 0
M  V30 2391 C 223.988 -0.389541 -4.41585 0
M  V30 2392 H 221.208 -0.210429 -0.637151 0
M  V30 2393 H 223.752 -1.21632 -1.64396 0
M  V30 2394 H 221.907 -0.120023 -3.87214 0
M  V30 2395 H 222.321 -2.13385 -4.79132 0
M  V30 2396 H 223.795 -0.572972 -5.49018 0
M  V30 2397 H 224.272 0.673756 -4.34001 0
M  V30 2398 H 224.878 -0.986089 -4.1371 0
M  V30 2399 N 223.193 1.4272 -0.668489 0
M  V30 2400 C 224.14 2.30796 0.0137489 0
M  V30 2401 C 225.11 1.4561 0.799177 0
M  V30 2402 O 226.295 1.74453 0.772702 0
M  V30 2403 C 223.435 3.31377 0.963507 0
M  V30 2404 C 222.548 4.31655 0.172569 0
M  V30 2405 C 221.683 5.19312 1.1175 0
M  V30 2406 C 220.722 6.11274 0.317886 0
M  V30 2407 N 219.859 6.91504 1.2152 0
M  V30 2408 H 224.699 2.88585 -0.743161 0
M  V30 2409 H 222.236 1.42154 -0.378226 0
M  V30 2410 H 224.194 3.88214 1.52792 0
M  V30 2411 H 222.824 2.75202 1.68712 0
M  V30 2412 H 221.876 3.76988 -0.508374 0
M  V30 2413 H 223.188 4.96779 -0.448527 0
M  V30 2414 H 222.342 5.80851 1.75206 0
M  V30 2415 H 221.081 4.5435 1.77249 0
M  V30 2416 H 220.086 5.48809 -0.329918 0
M  V30 2417 H 221.311 6.78283 -0.332917 0
M  V30 2418 H 219.257 6.29176 1.85671 0
M  V30 2419 H 219.174 7.53209 0.649036 0
M  V30 2420 H 220.442 7.57535 1.83742 0
M  V30 2421 N 224.671 0.411399 1.52136 0
M  V30 2422 C 225.619 -0.427633 2.28635 0
M  V30 2423 C 226.613 -1.04383 1.33419 0
M  V30 2424 O 227.819 -0.981772 1.50868 0
M  V30 2425 H 224.194 -0.156689 0.735495 0
M  V30 2426 H 226.165 0.238761 2.97443 0
M  V30 2427 C 224.914 -1.53082 3.12188 0
M  V30 2428 H 224.237 -1.06601 3.85326 0
M  V30 2429 H 225.677 -2.09167 3.68816 0
M  V30 2430 C 224.136 -2.49946 2.25895 0
M  V30 2431 O 224.666 -3.53884 1.90076 0
M  V30 2432 N 222.872 -2.2021 1.8962 0
M  V30 2433 H 222.419 -1.35719 2.18948 0
M  V30 2434 H 222.377 -2.85266 1.32176 0
M  V30 2435 N 226.149 -1.5696 0.141893 0
M  V30 2436 C 227.079 -2.19516 -0.795936 0
M  V30 2437 C 228.06 -1.14187 -1.26077 0
M  V30 2438 O 229.245 -1.42511 -1.31925 0
M  V30 2439 C 226.375 -2.81272 -2.03723 0
M  V30 2440 C 225.329 -3.92384 -1.70936 0
M  V30 2441 C 224.655 -4.41052 -3.02287 0
M  V30 2442 C 225.955 -5.13403 -0.959954 0
M  V30 2443 H 227.649 -2.98138 -0.274596 0
M  V30 2444 H 225.195 -1.43406 -0.130636 0
M  V30 2445 H 227.148 -3.237 -2.69808 0
M  V30 2446 H 225.872 -1.99973 -2.58221 0
M  V30 2447 H 224.531 -3.50566 -1.07232 0
M  V30 2448 H 224.179 -3.56582 -3.54765 0
M  V30 2449 H 223.879 -5.15993 -2.81114 0
M  V30 2450 H 225.403 -4.86146 -3.69451 0
M  V30 2451 H 226.817 -5.52706 -1.52279 0
M  V30 2452 H 225.214 -5.94073 -0.848357 0
M  V30 2453 H 226.284 -4.84875 0.0492434 0
M  V30 2454 N 227.627 0.131896 -1.57047 0
M  V30 2455 C 228.557 1.16384 -2.02428 0
M  V30 2456 C 229.538 1.43936 -0.90644 0
M  V30 2457 O 230.723 1.54599 -1.17528 0
M  V30 2458 C 227.853 2.49328 -2.4177 0
M  V30 2459 C 226.807 2.36266 -3.56879 0
M  V30 2460 C 226.133 3.74057 -3.8208 0
M  V30 2461 C 227.433 1.834 -4.89042 0
M  V30 2462 H 229.127 0.786433 -2.88887 0
M  V30 2463 H 226.673 0.376855 -1.38981 0
M  V30 2464 H 228.626 3.21759 -2.7212 0
M  V30 2465 H 227.35 2.88934 -1.52266 0
M  V30 2466 H 226.009 1.66286 -3.26718 0
M  V30 2467 H 225.657 4.11125 -2.89803 0
M  V30 2468 H 225.357 3.66174 -4.59554 0
M  V30 2469 H 226.881 4.48012 -4.1487 0
M  V30 2470 H 228.295 2.45636 -5.18011 0
M  V30 2471 H 226.692 1.8637 -5.70426 0
M  V30 2472 H 227.762 0.790662 -4.7841 0
M  V30 2473 N 229.106 1.52395 0.401703 0
M  V30 2474 C 230.016 1.7917 1.51444 0
M  V30 2475 C 231.032 0.677691 1.6026 0
M  V30 2476 O 232.208 0.963909 1.76835 0
M  V30 2477 C 229.273 1.94347 2.87107 0
M  V30 2478 C 228.334 3.18257 2.88116 0
M  V30 2479 C 227.567 3.32701 4.17308 0
M  V30 2480 O 227.79 2.52238 5.11598 0
M  V30 2481 O 226.724 4.25891 4.25324 0
M  V30 2482 H 230.55 2.73633 1.31752 0
M  V30 2483 H 228.135 1.3733 0.588296 0
M  V30 2484 H 230.017 2.06109 3.67555 0
M  V30 2485 H 228.692 1.03073 3.06851 0
M  V30 2486 H 227.599 3.11947 2.06494 0
M  V30 2487 H 228.932 4.09336 2.73322 0
M  V30 2488 N 230.584 -0.659388 1.43143 0
M  V30 2489 C 231.833 -1.41518 1.43721 0
M  V30 2490 C 232.146 -1.95499 0.0628176 0
M  V30 2491 O 233.352 -2.71446 -0.0539683 0
M  V30 2492 C 231.808 -2.5608 2.52885 0
M  V30 2493 C 231.416 -2.08733 3.96402 0
M  V30 2494 C 233.16 -3.3349 2.62649 0
M  V30 2495 C 231.067 -3.20469 4.97045 0
M  V30 2496 H 229.997 -0.531705 0.534608 0
M  V30 2497 H 232.648 -0.712343 1.69109 0
M  V30 2498 H 231.03 -3.28805 2.20688 0
M  V30 2499 H 232.204 -1.43059 4.3803 0
M  V30 2500 H 230.519 -1.44219 3.90627 0
M  V30 2501 H 233.116 -4.16734 3.35017 0
M  V30 2502 H 233.459 -3.8111 1.67513 0
M  V30 2503 H 233.992 -2.67842 2.94118 0
M  V30 2504 H 230.731 -2.77824 5.93712 0
M  V30 2505 H 230.251 -3.84874 4.60034 0
M  V30 2506 H 231.93 -3.85698 5.19467 0
M  V30 2507 N 232.062 -1.29571 -0.897171 0
M  V30 2508 C 233.012 -1.11539 -1.98855 0
M  V30 2509 C 233.996 -0.0340716 -1.60864 0
M  V30 2510 O 235.188 -0.256062 -1.75138 0
M  V30 2511 C 232.317 -0.796603 -3.3393 0
M  V30 2512 C 231.403 -1.91758 -3.78272 0
M  V30 2513 N 231.794 -3.16143 -3.94826 0
M  V30 2514 C 230.092 -1.81119 -4.07568 0
M  V30 2515 C 230.793 -3.89293 -4.32233 0
M  V30 2516 N 229.769 -3.17255 -4.41419 0
M  V30 2517 H 233.571 -2.05894 -2.09726 0
M  V30 2518 H 231.085 -1.20732 -1.08616 0
M  V30 2519 H 233.082 -0.648459 -4.11826 0
M  V30 2520 H 231.742 0.139003 -3.24402 0
M  V30 2521 H 232.753 -3.5157 -3.80288 0
M  V30 2522 H 229.43 -0.948461 -4.06584 0
M  V30 2523 H 230.82 -4.9635 -4.52865 0
M  V30 2524 N 233.54 1.10788 -1.12088 0
M  V30 2525 C 234.788 1.8231 -0.872205 0
M  V30 2526 C 235.109 1.85419 0.603709 0
M  V30 2527 O 234.379 1.32963 1.43867 0
M  V30 2528 H 232.959 0.675137 -0.319686 0
M  V30 2529 H 235.621 1.34068 -1.41463 0
M  V30 2530 H 234.717 2.85955 -1.25045 0
M  V30 2531 N 235.018 0.912232 1.28515 0
M  V30 2532 C 236.243 0.559774 1.99703 0
M  V30 2533 C 236.668 -0.851393 1.67729 0
M  V30 2534 O 236.026 -1.56875 0.908834 0
M  V30 2535 C 236.074 0.773874 3.52198 0
M  V30 2536 O 235.178 -0.167842 4.12058 0
M  V30 2537 H 234.519 0.21723 0.627461 0
M  V30 2538 H 237.049 1.22725 1.63706 0
M  V30 2539 H 237.059 0.683386 4.02236 0
M  V30 2540 H 235.734 1.80261 3.74805 0
M  V30 2541 H 234.311 -0.0287509 3.72889 0
M  V30 2542 N 236.496 -1.42363 0.676048 0
M  V30 2543 C 237.426 -2.33497 0.0124832 0
M  V30 2544 C 238.407 -1.50748 -0.787981 0
M  V30 2545 O 239.592 -1.79346 -0.744884 0
M  V30 2546 C 236.722 -3.34377 -0.938582 0
M  V30 2547 C 235.676 -4.27289 -0.246622 0
M  V30 2548 C 235.002 -5.18386 -1.31071 0
M  V30 2549 C 236.302 -5.14916 0.875125 0
M  V30 2550 H 237.996 -2.89233 0.773593 0
M  V30 2551 H 235.542 -1.39073 0.37346 0
M  V30 2552 H 237.495 -3.97044 -1.41188 0
M  V30 2553 H 236.219 -2.76947 -1.73113 0
M  V30 2554 H 234.878 -3.66018 0.206456 0
M  V30 2555 H 234.526 -4.57282 -2.09528 0
M  V30 2556 H 234.226 -5.81378 -0.852839 0
M  V30 2557 H 235.75 -5.83929 -1.78492 0
M  V30 2558 H 237.164 -5.71262 0.482983 0
M  V30 2559 H 235.561 -5.86747 1.25887 0
M  V30 2560 H 236.631 -4.53242 1.72335 0
M  V30 2561 N 237.974 -0.419461 -1.51915 0
M  V30 2562 C 239.221 0.152939 -2.01922 0
M  V30 2563 C 239.549 1.4426 -1.30458 0
M  V30 2564 O 238.804 1.91514 -0.402593 0
M  V30 2565 C 239.103 0.437067 -3.54717 0
M  V30 2566 C 238.769 -0.764632 -4.44369 0
M  V30 2567 C 237.431 -1.09423 -4.68594 0
M  V30 2568 C 239.783 -1.56713 -4.97082 0
M  V30 2569 C 237.111 -2.22732 -5.42777 0
M  V30 2570 C 239.463 -2.69107 -5.72507 0
M  V30 2571 C 238.127 -3.02541 -5.95 0
M  V30 2572 H 237.397 0.0559644 -0.738884 0
M  V30 2573 H 240.044 -0.562998 -1.83037 0
M  V30 2574 H 238.349 1.23469 -3.71837 0
M  V30 2575 H 240.046 0.893083 -3.90928 0
M  V30 2576 H 236.636 -0.497775 -4.257 0
M  V30 2577 H 240.82 -1.32571 -4.78266 0
M  V30 2578 H 236.076 -2.48971 -5.58411 0
M  V30 2579 H 240.25 -3.31671 -6.12346 0
M  V30 2580 H 237.877 -3.90457 -6.52264 0
M  V30 2581 N 239.452 1.56882 -0.150215 0
M  V30 2582 C 240.399 2.16922 0.788244 0
M  V30 2583 C 241.369 1.10303 1.24187 0
M  V30 2584 O 242.554 1.38359 1.31383 0
M  V30 2585 C 239.694 2.79754 2.02068 0
M  V30 2586 C 238.807 4.00775 1.61257 0
M  V30 2587 C 237.942 4.51595 2.79705 0
M  V30 2588 C 236.981 5.65074 2.35282 0
M  V30 2589 N 236.118 6.10499 3.4675 0
M  V30 2590 H 240.958 2.96779 0.269444 0
M  V30 2591 H 238.495 1.46599 0.12128 0
M  V30 2592 H 240.453 3.14329 2.74323 0
M  V30 2593 H 239.083 2.02536 2.51354 0
M  V30 2594 H 238.135 3.72158 0.787553 0
M  V30 2595 H 239.447 4.82978 1.24633 0
M  V30 2596 H 238.601 4.88242 3.60145 0
M  V30 2597 H 237.34 3.68406 3.19576 0
M  V30 2598 H 236.345 5.28 1.53283 0
M  V30 2599 H 237.57 6.50052 1.96493 0
M  V30 2600 H 235.516 5.30243 3.86236 0
M  V30 2601 H 235.433 6.87637 3.14152 0
M  V30 2602 H 236.701 6.51791 4.27537 0
M  V30 2603 N 240.93 -0.123565 1.57115 0
M  V30 2604 C 242.158 -0.846461 1.88793 0
M  V30 2605 C 242.573 -1.73652 0.740976 0
M  V30 2606 O 241.93 -1.80207 -0.288393 0
M  V30 2607 C 241.981 -1.6837 3.19897 0
M  V30 2608 O 241.702 -0.829477 4.30176 0
M  V30 2609 C 243.203 -2.51214 3.65248 0
M  V30 2610 H 240.423 -0.243573 0.625231 0
M  V30 2611 H 242.967 -0.109324 2.04208 0
M  V30 2612 H 241.122 -2.37364 3.06165 0
M  V30 2613 H 241.536 -1.40651 5.0529 0
M  V30 2614 H 243.01 -3.05497 4.59756 0
M  V30 2615 H 243.487 -3.28359 2.9168 0
M  V30 2616 H 244.093 -1.8747 3.81752 0
M  V30 2617 N 242.408 -1.52605 -0.393616 0
M  V30 2618 C 243.824 -1.41753 -0.733357 0
M  V30 2619 C 244.024 -0.534293 -1.94287 0
M  V30 2620 O 243.08 -0.0059787 -2.52499 0
M  V30 2621 C 244.393 -2.84531 -0.972772 0
M  V30 2622 C 245.941 -2.93978 -1.07453 0
M  V30 2623 C 246.416 -4.37756 -1.3466 0
M  V30 2624 N 247.907 -4.4106 -1.41492 0
M  V30 2625 C 248.642 -5.49387 -1.642 0
M  V30 2626 N 248.138 -6.67806 -1.8441 0
M  V30 2627 N 249.931 -5.36923 -1.66342 0
M  V30 2628 H 242.082 -2.08555 0.402328 0
M  V30 2629 H 244.345 -0.940654 0.117789 0
M  V30 2630 H 244.051 -3.51353 -0.156204 0
M  V30 2631 H 243.925 -3.26508 -1.88871 0
M  V30 2632 H 246.312 -2.27326 -1.88167 0
M  V30 2633 H 246.393 -2.55435 -0.136605 0
M  V30 2634 H 246.037 -5.04972 -0.544581 0
M  V30 2635 H 245.967 -4.73848 -2.2973 0
M  V30 2636 H 248.458 -3.55705 -1.27601 0
M  V30 2637 H 248.771 -7.46141 -2.01231 0
M  V30 2638 H 247.116 -6.70843 -1.81644 0
M  V30 2639 H 250.307 -4.43381 -1.50102 0
M  V30 2640 H 250.48 -6.21416 -1.837 0
M  V30 2641 N 243.887 0.651787 -1.4349 0
M  V30 2642 C 245.127 1.42345 -1.46688 0
M  V30 2643 C 245.491 1.91793 -0.0891023 0
M  V30 2644 O 246.692 2.688 0.00423594 0
M  V30 2645 C 244.963 2.57221 -2.48137 0
M  V30 2646 S 246.522 3.45725 -2.70221 0
M  V30 2647 H 243.34 0.485878 -0.51908 0
M  V30 2648 H 245.942 0.756578 -1.80267 0
M  V30 2649 H 244.646 2.1917 -3.46976 0
M  V30 2650 H 244.177 3.28757 -2.16061 0
M  V30 2651 H 246.192 4.53996 -2.00255 0
M  V30 2652 N 245.365 1.30045 0.890287 0
M  V30 2653 C 246.593 1.21472 1.67487 0
M  V30 2654 C 247.008 -0.223241 1.87476 0
M  V30 2655 O 246.365 -1.14828 1.41847 0
M  V30 2656 C 246.416 1.93394 3.05419 0
M  V30 2657 O 246.137 3.31576 2.86337 0
M  V30 2658 C 247.638 1.91414 3.99844 0
M  V30 2659 H 244.858 0.420604 0.522813 0
M  V30 2660 H 247.402 1.7158 1.11268 0
M  V30 2661 H 245.557 1.47099 3.58386 0
M  V30 2662 H 245.971 3.67929 3.73802 0
M  V30 2663 H 247.445 2.46285 4.94012 0
M  V30 2664 H 247.922 0.891833 4.3005 0
M  V30 2665 H 248.528 2.37496 3.52811 0
M  V30 2666 N 246.843 -1.10192 1.12674 0
M  V30 2667 C 248.068 -1.86523 0.906853 0
M  V30 2668 C 248.493 -1.80221 -0.538711 0
M  V30 2669 O 247.851 -1.17396 -1.38158 0
M  V30 2670 C 247.899 -3.32758 1.3894 0
M  V30 2671 O 247.003 -4.08449 0.5695 0
M  V30 2672 H 246.344 -0.578678 0.325619 0
M  V30 2673 H 248.874 -1.39203 1.49946 0
M  V30 2674 H 248.884 -3.83608 1.38958 0
M  V30 2675 H 247.559 -3.36661 2.44197 0
M  V30 2676 H 246.136 -3.67427 0.636528 0
M  V30 2677 N 248.321 -0.919034 -1.28029 0
M  V30 2678 C 249.561 -0.562107 -1.96519 0
M  V30 2679 C 249.925 0.878784 -1.70708 0
M  V30 2680 O 251.126 1.34355 -2.32813 0
M  V30 2681 C 249.397 -0.868953 -3.46676 0
M  V30 2682 S 250.956 -0.619237 -4.34409 0
M  V30 2683 H 247.774 -0.2078 -0.679956 0
M  V30 2684 H 250.376 -1.18562 -1.55446 0
M  V30 2685 H 249.08 -1.91547 -3.62957 0
M  V30 2686 H 248.611 -0.234301 -3.92702 0
M  V30 2687 H 250.626 0.526995 -4.93394 0
M  V30 2688 N 249.799 1.42003 -0.683588 0
M  V30 2689 C 251.047 2.01015 -0.209101 0
M  V30 2690 C 251.368 1.54365 1.19149 0
M  V30 2691 O 250.638 0.769083 1.80172 0
M  V30 2692 H 249.218 0.743294 -0.074315 0
M  V30 2693 H 251.88 1.73798 -0.882066 0
M  V30 2694 H 250.976 3.11343 -0.2172 0
M  V30 2695 N 251.277 0.427512 1.51691 0
M  V30 2696 C 252.523 -0.142439 2.02299 0
M  V30 2697 C 252.856 -1.43214 1.31162 0
M  V30 2698 O 252.131 -1.89833 0.423511 0
M  V30 2699 C 252.414 -0.371301 3.58181 0
M  V30 2700 C 252.267 0.936358 4.39946 0
M  V30 2701 C 253.586 -1.14542 4.24933 0
M  V30 2702 H 250.705 -0.0502937 0.735282 0
M  V30 2703 H 253.347 0.564584 1.81418 0
M  V30 2704 H 251.497 -0.973559 3.76104 0
M  V30 2705 H 253.169 1.57184 4.33694 0
M  V30 2706 H 251.412 1.5432 4.05423 0
M  V30 2707 H 252.083 0.730388 5.47147 0
M  V30 2708 H 254.559 -0.635362 4.11221 0
M  V30 2709 H 253.435 -1.27431 5.33903 0
M  V30 2710 H 253.696 -2.17093 3.85127 0
M  V30 2711 N 252.755 -1.56801 0.158532 0
M  V30 2712 C 254.001 -1.96781 -0.490405 0
M  V30 2713 C 254.334 -1.04397 -1.63753 0
M  V30 2714 O 253.609 -0.0885805 -1.94298 0
M  V30 2715 C 253.892 -3.4635 -0.985594 0
M  V30 2716 C 253.745 -4.49512 0.160824 0
M  V30 2717 C 255.064 -3.98697 -1.86355 0
M  V30 2718 H 252.183 -0.715482 -0.176788 0
M  V30 2719 H 254.825 -1.88451 0.242088 0
M  V30 2720 H 252.975 -3.53579 -1.60978 0
M  V30 2721 H 254.647 -4.54353 0.797537 0
M  V30 2722 H 252.89 -4.26013 0.818256 0
M  V30 2723 H 253.561 -5.51531 -0.227569 0
M  V30 2724 H 256.037 -3.94019 -1.33746 0
M  V30 2725 H 254.913 -5.03792 -2.17909 0
M  V30 2726 H 255.174 -3.41744 -2.8047 0
M  V30 2727 N 254.233 0.115231 -1.57178 0
M  V30 2728 C 255.196 1.12526 -1.99676 0
M  V30 2729 C 256.196 1.34095 -0.88742 0
M  V30 2730 O 257.386 1.30548 -1.15337 0
M  V30 2731 C 254.518 2.4789 -2.34015 0
M  V30 2732 H 255.711 0.759912 -2.90113 0
M  V30 2733 H 253.264 0.359648 -1.52106 0
M  V30 2734 H 253.999 2.89339 -1.4647 0
M  V30 2735 H 253.784 2.33588 -3.14927 0
M  V30 2736 H 255.274 3.20575 -2.67622 0
M  V30 2737 N 255.711 1.52812 0.385517 0
M  V30 2738 C 256.621 1.80766 1.49535 0
M  V30 2739 C 257.637 0.694651 1.59532 0
M  V30 2740 O 258.813 0.982611 1.75803 0
M  V30 2741 C 255.878 1.97381 2.85029 0
M  V30 2742 C 254.939 3.21295 2.84724 0
M  V30 2743 C 254.172 3.37108 4.13756 0
M  V30 2744 O 254.395 2.5765 5.08893 0
M  V30 2745 O 253.329 4.30378 4.20783 0
M  V30 2746 H 257.155 2.75015 1.28842 0
M  V30 2747 H 254.74 1.37946 0.573697 0
M  V30 2748 H 256.622 2.09996 3.65349 0
M  V30 2749 H 255.297 1.06322 3.05741 0
M  V30 2750 H 254.204 3.1412 2.03174 0
M  V30 2751 H 255.537 4.12212 2.68965 0
M  V30 2752 N 257.189 -0.644168 1.43834 0
M  V30 2753 C 258.137 -1.77793 1.49974 0
M  V30 2754 C 259.131 -1.65253 0.372536 0
M  V30 2755 O 260.337 -1.7149 0.546924 0
M  V30 2756 H 256.712 -0.58675 0.47035 0
M  V30 2757 H 258.683 -1.69736 2.45423 0
M  V30 2758 C 257.432 -3.16087 1.4486 0
M  V30 2759 H 256.755 -3.26378 2.30905 0
M  V30 2760 H 258.195 -3.95349 1.53217 0
M  V30 2761 C 256.654 -3.36484 0.167463 0
M  V30 2762 O 257.184 -3.94298 -0.767609 0
M  V30 2763 N 255.39 -2.90504 0.0747556 0
M  V30 2764 H 254.937 -2.4364 0.836507 0
M  V30 2765 H 254.895 -3.04527 -0.781714 0
M  V30 2766 N 258.668 -1.30515 -0.883378 0
M  V30 2767 C 259.898 -1.22182 -1.66599 0
M  V30 2768 C 260.306 0.217507 -1.87946 0
M  V30 2769 O 259.649 1.1554 -1.42815 0
M  V30 2770 C 259.711 -1.88146 -3.06335 0
M  V30 2771 C 259.375 -3.37476 -3.08154 0
M  V30 2772 C 260.372 -4.33443 -2.87094 0
M  V30 2773 C 258.057 -3.7895 -3.29701 0
M  V30 2774 C 260.051 -5.68858 -2.8754 0
M  V30 2775 C 257.738 -5.14482 -3.29776 0
M  V30 2776 C 258.736 -6.09246 -3.0872 0
M  V30 2777 O 258.424 -7.42302 -3.08615 0
M  V30 2778 H 258.156 -0.423898 -0.52658 0
M  V30 2779 H 260.71 -1.72703 -1.11188 0
M  V30 2780 H 258.94 -1.32157 -3.63416 0
M  V30 2781 H 260.629 -1.7391 -3.66756 0
M  V30 2782 H 261.395 -4.02733 -2.70243 0
M  V30 2783 H 257.274 -3.05631 -3.45124 0
M  V30 2784 H 260.818 -6.428 -2.71024 0
M  V30 2785 H 256.715 -5.44832 -3.46163 0
M  V30 2786 H 257.483 -7.5131 -3.24769 0
M  V30 2787 N 260.146 1.09593 -1.13257 0
M  V30 2788 C 261.093 2.1618 -0.808381 0
M  V30 2789 C 262.063 1.64517 0.228754 0
M  V30 2790 O 263.248 1.9053 0.101381 0
M  V30 2791 C 260.388 3.43973 -0.278675 0
M  V30 2792 C 259.501 4.09545 -1.37466 0
M  V30 2793 C 258.636 5.25088 -0.803479 0
M  V30 2794 C 257.675 5.82579 -1.87799 0
M  V30 2795 N 256.812 6.89486 -1.32488 0
M  V30 2796 H 261.652 2.43254 -1.72138 0
M  V30 2797 H 259.189 1.19392 -0.859294 0
M  V30 2798 H 261.147 4.17174 0.0465583 0
M  V30 2799 H 259.777 3.17223 0.597459 0
M  V30 2800 H 258.829 3.34226 -1.81652 0
M  V30 2801 H 260.141 4.48307 -2.18684 0
M  V30 2802 H 259.295 6.05178 -0.429427 0
M  V30 2803 H 258.034 4.87684 0.0397956 0
M  V30 2804 H 257.039 5.01152 -2.26113 0
M  V30 2805 H 258.264 6.22045 -2.72463 0
M  V30 2806 H 256.21 6.54064 -0.503575 0
M  V30 2807 H 256.127 7.27007 -2.07355 0
M  V30 2808 H 257.395 7.73336 -0.978336 0
M  V30 2809 N 261.624 0.925811 1.2754 0
M  V30 2810 C 262.849 0.580924 1.99098 0
M  V30 2811 C 263.274 -0.833555 1.68622 0
M  V30 2812 O 262.632 -1.55903 0.925422 0
M  V30 2813 C 262.68 0.811186 3.51358 0
M  V30 2814 O 261.784 -0.124129 4.12213 0
M  V30 2815 H 261.125 0.223873 0.625122 0
M  V30 2816 H 263.655 1.24455 1.62395 0
M  V30 2817 H 263.665 0.72601 4.01489 0
M  V30 2818 H 262.34 1.84227 3.72872 0
M  V30 2819 H 260.917 0.0108006 3.72898 0
M  V30 2820 N 263.102 -1.41638 0.69111 0
M  V30 2821 C 264.513 -1.84346 0.295517 0
M  V30 2822 C 264.864 -1.57833 -1.16547 0
M  V30 2823 O 263.989 -1.04648 -1.89414 0
M  V30 2824 C 264.584 -3.34636 0.529575 0
M  V30 2825 C 263.143 -3.7593 0.187944 0
M  V30 2826 C 262.29 -2.65082 0.814052 0
M  V30 2827 H 265.241 -1.31253 0.892092 0
M  V30 2828 H 265.262 -3.79903 -0.213148 0
M  V30 2829 H 264.774 -3.53901 1.59297 0
M  V30 2830 H 262.875 -3.62268 -0.871367 0
M  V30 2831 H 262.988 -4.74808 0.63985 0
M  V30 2832 H 261.352 -2.53528 0.244017 0
M  V30 2833 H 262.135 -2.87167 1.88123 0
M  V30 2834 N 264.58 -0.43555 -1.51462 0
M  V30 2835 C 265.829 0.133007 -2.01261 0
M  V30 2836 C 266.142 1.43942 -1.32439 0
M  V30 2837 O 267.348 2.09081 -1.73198 0
M  V30 2838 C 265.804 0.287581 -3.58749 0
M  V30 2839 C 265.412 -1.00829 -4.36506 0
M  V30 2840 C 267.156 0.810004 -4.167 0
M  V30 2841 C 265.063 -0.819454 -5.85695 0
M  V30 2842 H 263.993 0.0534822 -0.752101 0
M  V30 2843 H 266.644 -0.565038 -1.74584 0
M  V30 2844 H 265.026 1.04859 -3.81865 0
M  V30 2845 H 266.2 -1.77749 -4.25138 0
M  V30 2846 H 264.515 -1.45911 -3.89999 0
M  V30 2847 H 267.112 0.967743 -5.2587 0
M  V30 2848 H 267.455 1.79196 -3.75758 0
M  V30 2849 H 267.988 0.107357 -3.97655 0
M  V30 2850 H 264.727 -1.77374 -6.31046 0
M  V30 2851 H 264.247 -0.0900208 -5.99732 0
M  V30 2852 H 265.926 -0.471949 -6.45276 0
M  V30 2853 N 266.058 1.56714 -0.166846 0
M  V30 2854 C 267.298 1.98641 0.481763 0
M  V30 2855 C 267.662 1.05038 1.6072 0
M  V30 2856 O 268.863 1.36087 2.31805 0
M  V30 2857 C 267.134 3.44362 0.956517 0
M  V30 2858 S 268.693 4.08317 1.60694 0
M  V30 2859 H 265.511 0.693873 0.155116 0
M  V30 2860 H 268.113 1.93719 -0.263251 0
M  V30 2861 H 266.817 4.10204 0.126936 0
M  V30 2862 H 266.348 3.53041 1.73568 0
M  V30 2863 H 268.363 4.02999 2.89494 0
M  V30 2864 N 267.536 -0.106894 1.57237 0
M  V30 2865 C 268.947 -0.662723 1.74542 0
M  V30 2866 C 269.298 -1.7971 0.787319 0
M  V30 2867 O 268.423 -2.16368 -0.0369636 0
M  V30 2868 C 269.018 -1.20896 3.16496 0
M  V30 2869 C 267.577 -1.71096 3.35266 0
M  V30 2870 C 266.724 -0.615642 2.7038 0
M  V30 2871 H 269.675 0.119106 1.58252 0
M  V30 2872 H 269.696 -2.07847 3.18716 0
M  V30 2873 H 269.208 -0.383122 3.86204 0
M  V30 2874 H 267.309 -2.56119 2.70618 0
M  V30 2875 H 267.422 -1.81208 4.43509 0
M  V30 2876 H 265.786 -1.05222 2.31949 0
M  V30 2877 H 266.569 0.199419 3.4272 0
M  V30 2878 N 269.014 -1.53014 -0.377408 0
M  V30 2879 C 269.977 -1.77957 -1.44444 0
M  V30 2880 C 270.977 -0.649763 -1.47087 0
M  V30 2881 O 272.167 -0.917897 -1.48055 0
M  V30 2882 C 269.299 -1.89089 -2.83651 0
M  V30 2883 H 270.492 -2.73243 -1.23606 0
M  V30 2884 H 268.045 -1.43912 -0.609844 0
M  V30 2885 H 268.78 -0.958293 -3.09818 0
M  V30 2886 H 268.565 -2.71254 -2.83132 0
M  V30 2887 H 270.055 -2.1002 -3.60945 0
M  V30 2888 N 270.492 0.636531 -1.44174 0
M  V30 2889 C 271.422 1.76003 -1.53444 0
M  V30 2890 C 272.403 1.65619 -0.387841 0
M  V30 2891 O 273.588 1.84461 -0.607257 0
M  V30 2892 C 270.718 3.14511 -1.4731 0
M  V30 2893 C 269.672 3.39677 -2.60391 0
M  V30 2894 C 268.998 4.78159 -2.39308 0
M  V30 2895 C 270.298 3.32772 -4.02567 0
M  V30 2896 H 271.992 1.68501 -2.47483 0
M  V30 2897 H 269.538 0.809237 -1.19111 0
M  V30 2898 H 271.491 3.92878 -1.52397 0
M  V30 2899 H 270.215 3.22783 -0.49785 0
M  V30 2900 H 268.874 2.63688 -2.54684 0
M  V30 2901 H 268.522 4.83128 -1.39988 0
M  V30 2902 H 268.222 4.95956 -3.15122 0
M  V30 2903 H 269.746 5.58762 -2.46205 0
M  V30 2904 H 271.16 4.01051 -4.09672 0
M  V30 2905 H 269.557 3.62104 -4.7854 0
M  V30 2906 H 270.627 2.30669 -4.2652 0
M  V30 2907 N 271.97 1.30982 0.876444 0
M  V30 2908 C 273.195 1.23373 1.66715 0
M  V30 2909 C 273.62 -0.19885 1.87046 0
M  V30 2910 O 272.978 -1.1427 1.40756 0
M  V30 2911 C 273.026 1.97644 3.01611 0
M  V30 2912 O 272.13 1.30935 3.91062 0
M  V30 2913 H 271.471 0.426279 0.509099 0
M  V30 2914 H 274.001 1.72944 1.09323 0
M  V30 2915 H 274.011 2.06992 3.51594 0
M  V30 2916 H 272.686 3.01829 2.86133 0
M  V30 2917 H 271.263 1.29996 3.49507 0
M  V30 2918 N 273.449 -1.08991 1.13837 0
M  V30 2919 C 274.697 -1.80899 0.901098 0
M  V30 2920 C 275.018 -1.86356 -0.574134 0
M  V30 2921 O 274.288 -1.35235 -1.41733 0
M  V30 2922 H 272.868 -0.669966 0.330386 0
M  V30 2923 H 275.53 -1.318 1.43578 0
M  V30 2924 H 274.626 -2.83929 1.29578 0
M  V30 2925 N 274.927 -0.932562 -1.27047 0
M  V30 2926 C 275.874 -0.434072 -2.26681 0
M  V30 2927 C 276.844 0.501639 -1.58344 0
M  V30 2928 O 278.029 0.419734 -1.86126 0
M  V30 2929 C 275.169 0.30261 -3.43771 0
M  V30 2930 C 274.282 -0.667774 -4.26808 0
M  V30 2931 C 273.417 0.0892393 -5.31125 0
M  V30 2932 C 272.456 -0.873532 -6.05835 0
M  V30 2933 N 271.593 -0.148832 -7.01942 0
M  V30 2934 H 276.433 -1.28868 -2.68695 0
M  V30 2935 H 273.97 -0.646713 -1.32121 0
M  V30 2936 H 275.928 0.746092 -4.10474 0
M  V30 2937 H 274.558 1.12142 -3.02695 0
M  V30 2938 H 273.61 -1.22978 -3.59973 0
M  V30 2939 H 274.922 -1.40337 -4.78651 0
M  V30 2940 H 274.076 0.592409 -6.03801 0
M  V30 2941 H 272.815 0.85777 -4.80097 0
M  V30 2942 H 271.82 -1.38791 -5.31994 0
M  V30 2943 H 273.045 -1.64193 -6.58952 0
M  V30 2944 H 270.991 0.601365 -6.53238 0
M  V30 2945 H 270.908 -0.82391 -7.51497 0
M  V30 2946 H 272.176 0.333527 -7.78786 0
M  V30 2947 N 276.405 1.4127 -0.698611 0
M  V30 2948 C 277.653 2.00782 -0.230409 0
M  V30 2949 C 277.974 1.5562 1.17505 0
M  V30 2950 O 277.244 0.78815 1.79346 0
M  V30 2951 H 275.824 0.742464 -0.0821944 0
M  V30 2952 H 278.486 1.72852 -0.90045 0
M  V30 2953 H 277.582 3.11095 -0.25021 0
M  V30 2954 N 277.883 0.443576 1.51229 0
M  V30 2955 C 278.846 -0.353132 2.26463 0
M  V30 2956 C 279.846 -0.944338 1.3015 0
M  V30 2957 O 281.036 -0.817813 1.5381 0
M  V30 2958 C 278.168 -1.50023 3.06114 0
M  V30 2959 H 279.361 0.3063 2.98332 0
M  V30 2960 H 276.914 0.196902 1.55055 0
M  V30 2961 H 277.649 -2.19553 2.38677 0
M  V30 2962 H 277.434 -1.08241 3.76864 0
M  V30 2963 H 278.924 -2.06296 3.63087 0
M  V30 2964 N 279.361 -1.56624 0.175154 0
M  V30 2965 C 280.772 -1.83561 -0.340916 0
M  V30 2966 C 281.123 -1.09511 -1.62794 0
M  V30 2967 O 280.248 -0.349389 -2.13561 0
M  V30 2968 C 280.843 -3.32979 -0.625313 0
M  V30 2969 C 279.402 -3.60399 -1.08581 0
M  V30 2970 C 278.549 -2.77024 -0.123722 0
M  V30 2971 H 281.5 -1.53593 0.399344 0
M  V30 2972 H 281.521 -3.50666 -1.47694 0
M  V30 2973 H 281.033 -3.86847 0.311575 0
M  V30 2974 H 279.134 -3.11945 -2.03767 0
M  V30 2975 H 279.247 -4.68711 -0.992317 0
M  V30 2976 H 277.611 -2.46993 -0.621821 0
M  V30 2977 H 278.394 -3.33674 0.807256 0
M  V30 2978 N 280.839 0.0985539 -1.57292 0
M  V30 2979 C 281.749 1.13824 -2.05137 0
M  V30 2980 C 282.765 1.44076 -0.975604 0
M  V30 2981 O 283.941 1.54786 -1.28853 0
M  V30 2982 C 281.006 2.43969 -2.46333 0
M  V30 2983 C 280.067 2.2093 -3.68087 0
M  V30 2984 C 279.3 3.44869 -4.0731 0
M  V30 2985 O 279.523 4.52972 -3.46659 0
M  V30 2986 O 278.457 3.34661 -5.00285 0
M  V30 2987 H 282.283 0.761881 -2.93988 0
M  V30 2988 H 279.868 0.310818 -1.46131 0
M  V30 2989 H 281.75 3.20609 -2.73473 0
M  V30 2990 H 280.425 2.81038 -1.60621 0
M  V30 2991 H 279.332 1.42081 -3.46069 0
M  V30 2992 H 280.665 1.88755 -4.54568 0
M  V30 2993 N 282.317 1.53212 0.369288 0
M  V30 2994 C 283.728 1.60943 0.946276 0
M  V30 2995 C 284.079 0.47452 1.90375 0
M  V30 2996 O 283.204 -0.399597 2.12679 0
M  V30 2997 C 283.799 2.91715 1.72302 0
M  V30 2998 C 282.358 3.01792 2.24941 0
M  V30 2999 C 281.505 2.56211 1.06072 0
M  V30 3000 H 284.456 1.58007 0.148198 0
M  V30 3001 H 284.477 2.79309 2.58393 0
M  V30 3002 H 283.989 3.74295 1.0259 0
M  V30 3003 H 282.09 2.23791 2.97906 0
M  V30 3004 H 282.203 4.06803 2.53077 0
M  V30 3005 H 280.567 2.10998 1.4266 0
M  V30 3006 H 281.35 3.41206 0.378639 0
M  V30 3007 N 283.795 -0.628877 1.44509 0
M  V30 3008 C 285.043 -1.38565 1.4712 0
M  V30 3009 C 285.364 -1.94712 0.105899 0
M  V30 3010 O 284.634 -1.75912 -0.862079 0
M  V30 3011 H 283.214 -0.514333 0.541729 0
M  V30 3012 H 285.876 -0.740018 1.80305 0
M  V30 3013 H 284.972 -2.21583 2.19789 0
M  V30 3014 N 285.273 -1.31445 -0.869486 0
M  V30 3015 C 286.501 -1.24122 -1.65534 0
M  V30 3016 C 286.916 0.193387 -1.87807 0
M  V30 3017 O 286.273 1.12557 -1.43656 0
M  V30 3018 C 286.324 -1.98229 -3.02304 0
M  V30 3019 O 286.045 -3.3609 -2.81026 0
M  V30 3020 C 287.546 -1.97751 -3.96749 0
M  V30 3021 H 284.766 -0.428868 -0.516055 0
M  V30 3022 H 287.31 -1.73328 -1.08525 0
M  V30 3023 H 285.465 -1.52782 -3.56001 0
M  V30 3024 H 285.879 -3.7383 -3.67902 0
M  V30 3025 H 287.353 -2.54114 -4.90031 0
M  V30 3026 H 287.83 -0.960137 -4.28577 0
M  V30 3027 H 288.436 -2.43079 -3.48988 0
M  V30 3028 N 286.751 1.08385 -1.14413 0
M  V30 3029 C 287.683 2.1519 -0.789036 0
M  V30 3030 C 288.696 1.61638 0.19417 0
M  V30 3031 O 289.885 1.78479 -0.0275711 0
M  V30 3032 C 286.985 3.38565 -0.15058 0
M  V30 3033 C 286.158 4.21501 -1.16857 0
M  V30 3034 C 285.217 5.23277 -0.553832 0
M  V30 3035 O 284.243 5.56041 -1.21686 0
M  V30 3036 N 285.445 5.76629 0.669296 0
M  V30 3037 H 288.21 2.46257 -1.70814 0
M  V30 3038 H 285.771 1.24198 -1.03858 0
M  V30 3039 H 287.763 4.03777 0.273181 0
M  V30 3040 H 286.333 3.05299 0.671667 0
M  V30 3041 H 285.553 3.52265 -1.76926 0
M  V30 3042 H 286.841 4.73731 -1.85624 0
M  V30 3043 H 286.239 5.52243 1.22654 0
M  V30 3044 H 284.796 6.43521 1.03556 0
M  V30 3045 N 288.23 0.939286 1.26551 0
M  V30 3046 C 289.507 0.5038 1.89001 0
M  V30 3047 C 289.887 -1.01854 1.84903 0
M  V30 3048 O 289.235 -1.87773 1.30206 0
M  V30 3049 C 289.445 1.063 3.32417 0
M  V30 3050 C 290.793 1.13051 4.09273 0
M  V30 3051 O 291.817 1.01345 3.41479 0
M  V30 3052 O 290.676 1.31233 5.30509 0
M  V30 3053 H 287.77 0.163897 0.810597 0
M  V30 3054 H 290.316 1.03173 1.34735 0
M  V30 3055 H 289.088 2.10665 3.29752 0
M  V30 3056 H 288.711 0.517408 3.94219 0
M  V30 3057 N 289.708 -1.40897 0.706093 0
M  V30 3058 C 290.671 -2.29131 0.0562841 0
M  V30 3059 C 291.671 -1.44901 -0.697166 0
M  V30 3060 O 292.861 -1.65926 -0.530484 0
M  V30 3061 C 289.993 -3.27957 -0.93043 0
M  V30 3062 H 291.186 -2.88091 0.833284 0
M  V30 3063 H 288.739 -1.4906 0.470192 0
M  V30 3064 H 289.474 -2.73997 -1.73482 0
M  V30 3065 H 289.259 -3.90124 -0.393166 0
M  V30 3066 H 290.749 -3.94049 -1.38256 0
M  V30 3067 N 291.186 -0.45159 -1.50991 0
M  V30 3068 C 292.411 0.110667 -2.07105 0
M  V30 3069 C 292.836 1.3446 -1.31538 0
M  V30 3070 O 292.194 1.77743 -0.357365 0
M  V30 3071 C 292.242 0.397238 -3.58405 0
M  V30 3072 O 291.346 1.48124 -3.84881 0
M  V30 3073 H 290.687 -0.00439271 -0.663985 0
M  V30 3074 H 293.217 -0.637026 -1.9443 0
M  V30 3075 H 293.227 0.64351 -4.02893 0
M  V30 3076 H 291.902 -0.504553 -4.12828 0
M  V30 3077 H 290.479 1.22381 -3.52246 0
M  V30 3078 N 292.664 1.56529 -0.183458 0
M  V30 3079 C 293.913 1.96419 0.458511 0
M  V30 3080 C 294.226 1.0727 1.63562 0
M  V30 3081 O 295.432 1.36893 2.34462 0
M  V30 3082 C 293.888 3.49298 0.867122 0
M  V30 3083 C 293.496 4.47092 -0.285057 0
M  V30 3084 C 295.24 3.97983 1.47683 0
M  V30 3085 C 293.147 5.91225 0.143862 0
M  V30 3086 H 292.077 0.733394 0.175071 0
M  V30 3087 H 294.728 1.81448 -0.273624 0
M  V30 3088 H 293.11 3.59731 1.65559 0
M  V30 3089 H 294.284 4.48383 -1.0625 0
M  V30 3090 H 292.599 4.08535 -0.805503 0
M  V30 3091 H 295.196 5.03134 1.80999 0
M  V30 3092 H 295.539 3.41618 2.37914 0
M  V30 3093 H 296.072 3.90617 0.752562 0
M  V30 3094 H 292.811 6.5149 -0.723974 0
M  V30 3095 H 292.331 5.93214 0.886413 0
M  V30 3096 H 294.01 6.44362 0.583628 0
M  V30 3097 N 294.142 -0.090211 1.57342 0
M  V30 3098 C 295.553 -0.644173 1.75235 0
M  V30 3099 C 295.904 -1.78865 0.806335 0
M  V30 3100 O 295.029 -2.16395 -0.0140128 0
M  V30 3101 C 295.624 -1.17532 3.1776 0
M  V30 3102 C 294.183 -1.67531 3.37061 0
M  V30 3103 C 293.33 -0.58693 2.71017 0
M  V30 3104 H 296.281 0.135884 1.58117 0
M  V30 3105 H 296.302 -2.04455 3.20902 0
M  V30 3106 H 295.814 -0.342138 3.86589 0
M  V30 3107 H 293.915 -2.53234 2.73319 0
M  V30 3108 H 294.028 -1.76493 4.45406 0
M  V30 3109 H 292.392 -1.02756 2.33052 0
M  V30 3110 H 293.175 0.235758 3.4249 0
M  V30 3111 N 295.62 -1.53406 -0.361157 0
M  V30 3112 C 296.866 -1.70054 -1.10496 0
M  V30 3113 C 297.199 -0.453278 -1.88836 0
M  V30 3114 O 296.474 0.5495 -1.86576 0
M  V30 3115 C 296.757 -2.95317 -2.06058 0
M  V30 3116 C 296.61 -4.3021 -1.31298 0
M  V30 3117 C 297.929 -3.16193 -3.06121 0
M  V30 3118 H 295.048 -0.618799 -0.400321 0
M  V30 3119 H 297.69 -1.86052 -0.385318 0
M  V30 3120 H 295.84 -2.81809 -2.67425 0
M  V30 3121 H 297.512 -4.55538 -0.726807 0
M  V30 3122 H 295.755 -4.29421 -0.614853 0
M  V30 3123 H 296.426 -5.14 -2.01265 0
M  V30 3124 H 298.902 -3.28916 -2.5486 0
M  V30 3125 H 297.778 -4.05266 -3.70204 0
M  V30 3126 H 298.039 -2.31676 -3.76535 0
M  V30 3127 N 297.098 0.621204 -1.44841 0
M  V30 3128 C 298.008 1.7612 -1.5498 0
M  V30 3129 C 299.024 1.68477 -0.434927 0
M  V30 3130 O 300.2 1.89076 -0.693693 0
M  V30 3131 C 297.265 3.1254 -1.50065 0
M  V30 3132 C 296.326 3.31741 -2.72482 0
M  V30 3133 C 295.559 4.61653 -2.67792 0
M  V30 3134 O 295.782 5.431 -1.74352 0
M  V30 3135 O 294.716 4.83271 -3.58794 0
M  V30 3136 H 298.542 1.70518 -2.51311 0
M  V30 3137 H 296.127 0.783643 -1.27198 0
M  V30 3138 H 298.009 3.93844 -1.49882 0
M  V30 3139 H 296.684 3.18663 -0.568806 0
M  V30 3140 H 295.591 2.50077 -2.7823 0
M  V30 3141 H 296.924 3.30486 -3.64746 0
M  V30 3142 N 298.576 1.31904 0.862503 0
M  V30 3143 C 299.523 1.20182 1.9704 0
M  V30 3144 C 300.493 0.0858247 1.65878 0
M  V30 3145 O 301.678 0.26 1.8902 0
M  V30 3146 C 298.818 0.922797 3.32533 0
M  V30 3147 C 297.931 2.12284 3.76244 0
M  V30 3148 C 297.066 1.77996 5.00491 0
M  V30 3149 C 296.105 2.94366 5.36671 0
M  V30 3150 N 295.242 2.60223 6.52095 0
M  V30 3151 H 300.082 2.14951 2.06398 0
M  V30 3152 H 297.619 1.06917 1.01031 0
M  V30 3153 H 299.577 0.741548 4.10557 0
M  V30 3154 H 298.207 0.0119227 3.22798 0
M  V30 3155 H 297.259 2.41461 2.9394 0
M  V30 3156 H 298.571 2.99357 3.98982 0
M  V30 3157 H 297.725 1.56377 5.862 0
M  V30 3158 H 296.464 0.881252 4.79672 0
M  V30 3159 H 295.469 3.16625 4.49476 0
M  V30 3160 H 296.694 3.84957 5.59451 0
M  V30 3161 H 294.64 1.72884 6.32809 0
M  V30 3162 H 294.557 3.40827 6.74814 0
M  V30 3163 H 295.825 2.42016 7.40978 0
M  V30 3164 N 300.054 -1.07777 1.14986 0
M  V30 3165 C 300.984 -2.16865 0.865557 0
M  V30 3166 C 301.965 -1.69123 -0.182083 0
M  V30 3167 O 303.15 -1.94164 -0.0373815 0
M  V30 3168 C 300.28 -3.45539 0.349313 0
M  V30 3169 C 299.234 -4.06708 1.33313 0
M  V30 3170 C 298.56 -5.30411 0.675918 0
M  V30 3171 C 299.86 -4.47241 2.69764 0
M  V30 3172 H 301.554 -2.40905 1.77778 0
M  V30 3173 H 299.1 -1.15781 0.856203 0
M  V30 3174 H 301.053 -4.21174 0.137983 0
M  V30 3175 H 299.777 -3.21072 -0.598362 0
M  V30 3176 H 298.436 -3.33112 1.53075 0
M  V30 3177 H 298.084 -5.02232 -0.277767 0
M  V30 3178 H 297.784 -5.72293 1.33244 0
M  V30 3179 H 299.308 -6.08755 0.474262 0
M  V30 3180 H 300.722 -5.14025 2.53873 0
M  V30 3181 H 299.119 -5.00062 3.3175 0
M  V30 3182 H 300.189 -3.58818 3.26156 0
M  V30 3183 N 301.532 -0.945985 -1.26051 0
M  V30 3184 C 302.943 -0.638096 -1.75457 0
M  V30 3185 C 303.294 0.846672 -1.76991 0
M  V30 3186 O 302.419 1.66262 -1.38513 0
M  V30 3187 C 303.014 -1.15157 -3.18629 0
M  V30 3188 C 301.573 -0.894004 -3.65629 0
M  V30 3189 C 300.72 -1.29967 -2.44957 0
M  V30 3190 H 303.671 -1.12376 -1.1206 0
M  V30 3191 H 303.692 -0.507615 -3.77099 0
M  V30 3192 H 303.204 -2.23222 -3.1748 0
M  V30 3193 H 301.305 0.172057 -3.72203 0
M  V30 3194 H 301.418 -1.52439 -4.54202 0
M  V30 3195 H 299.782 -0.718078 -2.44368 0
M  V30 3196 H 300.565 -2.38935 -2.46505 0
M  V30 3197 N 303.011 1.40521 -0.713556 0
M  V30 3198 C 304.427 1.54839 -0.386907 0
M  V30 3199 C 304.627 1.68532 1.1045 0
M  V30 3200 O 303.683 1.67377 1.89053 0
M  V30 3201 C 304.996 2.77792 -1.15118 0
M  V30 3202 C 306.544 2.91607 -1.13729 0
M  V30 3203 C 307.019 4.1747 -1.88368 0
M  V30 3204 N 308.51 4.24466 -1.85427 0
M  V30 3205 C 309.245 5.20755 -2.40004 0
M  V30 3206 N 308.741 6.22965 -3.03129 0
M  V30 3207 N 310.534 5.1282 -2.30158 0
M  V30 3208 H 302.685 1.29879 -1.68063 0
M  V30 3209 H 304.948 0.627896 -0.710247 0
M  V30 3210 H 304.654 2.73944 -2.20561 0
M  V30 3211 H 304.528 3.6984 -0.741477 0
M  V30 3212 H 306.915 2.94959 -0.0910608 0
M  V30 3213 H 306.996 2.00682 -1.5862 0
M  V30 3214 H 306.64 4.1488 -2.9298 0
M  V30 3215 H 306.57 5.074 -1.40898 0
M  V30 3216 H 309.061 3.51241 -1.3942 0
M  V30 3217 H 309.374 6.92859 -3.42295 0
M  V30 3218 H 307.719 6.23415 -3.07212 0
M  V30 3219 H 310.91 4.31899 -1.80501 0
M  V30 3220 H 311.083 5.87689 -2.72993 0
M  V30 3221 N 304.489 0.459591 1.5075 0
M  V30 3222 C 305.729 -0.09824 2.04164 0
M  V30 3223 C 306.093 -1.3801 1.33481 0
M  V30 3224 O 307.294 -2.01959 1.77387 0
M  V30 3225 C 305.565 -0.289467 3.56226 0
M  V30 3226 S 307.124 -0.807507 4.31306 0
M  V30 3227 H 303.942 -0.0213845 0.710678 0
M  V30 3228 H 306.544 0.624098 1.85271 0
M  V30 3229 H 305.248 0.649461 4.05229 0
M  V30 3230 H 304.779 -1.03825 3.79452 0
M  V30 3231 H 306.794 -2.0824 4.50389 0
M  V30 3232 N 305.967 -1.56429 0.191757 0
M  V30 3233 C 306.877 -2.22541 -0.742481 0
M  V30 3234 C 307.893 -1.22342 -1.23727 0
M  V30 3235 O 309.069 -1.55069 -1.28513 0
M  V30 3236 C 306.134 -2.8692 -1.94623 0
M  V30 3237 C 305.195 -4.02378 -1.49633 0
M  V30 3238 C 304.428 -4.63678 -2.6427 0
M  V30 3239 O 304.651 -4.23895 -3.81666 0
M  V30 3240 O 303.585 -5.53202 -2.37174 0
M  V30 3241 H 307.411 -3.02977 -0.209462 0
M  V30 3242 H 304.996 -1.49353 -0.0373832 0
M  V30 3243 H 306.878 -3.27663 -2.64982 0
M  V30 3244 H 305.553 -2.09466 -2.46791 0
M  V30 3245 H 304.46 -3.66265 -0.761636 0
M  V30 3246 H 305.793 -4.81487 -1.02134 0
M  V30 3247 N 307.445 0.0818655 -1.57387 0
M  V30 3248 C 308.355 1.11642 -2.06333 0
M  V30 3249 C 309.371 1.43033 -0.99083 0
M  V30 3250 O 310.547 1.53411 -1.30488 0
M  V30 3251 C 307.612 2.41342 -2.48907 0
M  V30 3252 C 306.673 2.17014 -3.7041 0
M  V30 3253 C 305.906 3.4053 -4.10944 0
M  V30 3254 O 306.129 4.4927 -3.51444 0
M  V30 3255 O 305.063 3.29336 -5.03807 0
M  V30 3256 H 308.889 0.730657 -2.9478 0
M  V30 3257 H 306.474 0.295301 -1.46452 0
M  V30 3258 H 308.356 3.17691 -2.76858 0
M  V30 3259 H 307.031 2.79319 -1.63593 0
M  V30 3260 H 305.938 1.38403 -3.47556 0
M  V30 3261 H 307.271 1.83923 -4.56545 0
M  V30 3262 N 308.923 1.53595 0.353017 0
M  V30 3263 C 309.886 1.80232 1.41594 0
M  V30 3264 C 310.886 0.673081 1.46035 0
M  V30 3265 O 312.076 0.941335 1.46576 0
M  V30 3266 C 309.208 1.93578 2.80607 0
M  V30 3267 H 310.401 2.75174 1.19244 0
M  V30 3268 H 307.954 1.44864 0.586872 0
M  V30 3269 H 308.689 1.00746 3.08254 0
M  V30 3270 H 308.474 2.75724 2.78781 0
M  V30 3271 H 309.964 2.15735 3.57558 0
M  V30 3272 N 310.401 -0.613514 1.45168 0
M  V30 3273 C 311.649 -1.36997 1.48581 0
M  V30 3274 C 311.97 -1.94589 0.126545 0
M  V30 3275 O 311.24 -1.76816 -0.843372 0
M  V30 3276 H 309.82 -0.508558 0.547154 0
M  V30 3277 H 312.482 -0.720853 1.81079 0
M  V30 3278 H 311.578 -2.1924 2.22127 0
M  V30 3279 N 311.879 -1.3236 -0.855495 0
M  V30 3280 C 313.119 -1.24187 -1.62348 0
M  V30 3281 C 313.483 0.193597 -1.91021 0
M  V30 3282 O 314.684 0.39904 -2.65822 0
M  V30 3283 C 312.955 -2.07661 -2.90881 0
M  V30 3284 S 314.514 -2.16505 -3.81669 0
M  V30 3285 H 311.332 -0.442076 -0.556857 0
M  V30 3286 H 313.934 -1.67198 -1.01317 0
M  V30 3287 H 312.638 -3.11018 -2.67761 0
M  V30 3288 H 312.169 -1.65425 -3.56929 0
M  V30 3289 H 314.184 -1.31394 -4.78487 0
M  V30 3290 N 313.357 1.07166 -1.15556 0
M  V30 3291 C 314.605 1.79443 -0.929764 0
M  V30 3292 C 314.926 1.87246 0.544414 0
M  V30 3293 O 314.196 1.37473 1.39564 0
M  V30 3294 H 312.776 0.664625 -0.341003 0
M  V30 3295 H 315.438 1.29499 -1.45657 0
M  V30 3296 H 314.534 2.81832 -1.34079 0
M  V30 3297 N 314.835 0.952656 1.25548 0
M  V30 3298 C 316.083 0.605176 1.92826 0
M  V30 3299 C 316.404 -0.860261 1.74999 0
M  V30 3300 O 315.674 -1.6125 1.11244 0
M  V30 3301 H 314.254 0.220832 0.713612 0
M  V30 3302 H 316.916 1.21047 1.52754 0
M  V30 3303 H 316.012 0.832798 3.00784 0
M  V30 3304 N 316.313 -1.40141 0.720998 0
M  V30 3305 C 317.243 -2.33339 0.0867621 0
M  V30 3306 C 318.224 -1.53178 -0.739622 0
M  V30 3307 O 319.409 -1.81625 -0.687449 0
M  V30 3308 C 316.539 -3.37194 -0.831728 0
M  V30 3309 C 315.493 -4.27857 -0.110558 0
M  V30 3310 C 314.819 -5.22294 -1.14513 0
M  V30 3311 C 316.119 -5.11872 1.0385 0
M  V30 3312 H 317.813 -2.86626 0.865219 0
M  V30 3313 H 315.359 -1.37814 0.417516 0
M  V30 3314 H 317.312 -4.01335 -1.28485 0
M  V30 3315 H 316.036 -2.82314 -1.64214 0
M  V30 3316 H 314.695 -3.65176 0.322797 0
M  V30 3317 H 314.343 -4.63717 -1.94874 0
M  V30 3318 H 314.043 -5.83797 -0.667446 0
M  V30 3319 H 315.567 -5.89312 -1.59824 0
M  V30 3320 H 316.981 -5.69436 0.664482 0
M  V30 3321 H 315.378 -5.82445 1.4449 0
M  V30 3322 H 316.448 -4.4753 1.86668 0
M  V30 3323 N 317.792 -0.46758 -1.50504 0
M  V30 3324 C 318.722 0.318381 -2.31319 0
M  V30 3325 C 319.703 0.993564 -1.38066 0
M  V30 3326 O 320.888 0.991411 -1.66987 0
M  V30 3327 C 318.018 1.40275 -3.17711 0
M  V30 3328 C 316.972 0.849373 -4.19487 0
M  V30 3329 C 316.298 2.03177 -4.94594 0
M  V30 3330 C 317.598 -0.136942 -5.2212 0
M  V30 3331 H 319.292 -0.356106 -2.97275 0
M  V30 3332 H 316.838 -0.172703 -1.42961 0
M  V30 3333 H 318.791 1.96004 -3.73042 0
M  V30 3334 H 317.515 2.10596 -2.49634 0
M  V30 3335 H 316.174 0.314076 -3.65252 0
M  V30 3336 H 315.822 2.72187 -4.22993 0
M  V30 3337 H 315.522 1.66774 -5.63436 0
M  V30 3338 H 317.046 2.59403 -5.52759 0
M  V30 3339 H 318.46 0.331056 -5.72343 0
M  V30 3340 H 316.857 -0.41507 -5.98663 0
M  V30 3341 H 317.927 -1.06398 -4.73083 0
M  V30 3342 N 319.27 1.56325 -0.20005 0
M  V30 3343 C 320.686 1.58839 0.155716 0
M  V30 3344 C 320.886 1.21636 1.60645 0
M  V30 3345 O 319.942 0.941437 2.34293 0
M  V30 3346 C 321.255 3.0032 -0.151124 0
M  V30 3347 C 322.803 3.12866 -0.0916284 0
M  V30 3348 C 323.278 4.56488 -0.371845 0
M  V30 3349 N 324.769 4.62089 -0.320641 0
M  V30 3350 C 325.504 5.71116 -0.511243 0
M  V30 3351 N 325 6.88592 -0.762461 0
M  V30 3352 N 326.793 5.60335 -0.445157 0
M  V30 3353 H 318.944 1.78788 -1.14668 0
M  V30 3354 H 321.207 0.829996 -0.458051 0
M  V30 3355 H 320.913 3.32117 -1.15721 0
M  V30 3356 H 320.787 3.73257 0.543986 0
M  V30 3357 H 323.174 2.80878 0.905065 0
M  V30 3358 H 323.255 2.42304 -0.81989 0
M  V30 3359 H 322.899 4.89189 -1.36588 0
M  V30 3360 H 322.829 5.25246 0.377362 0
M  V30 3361 H 325.32 3.77665 -0.13329 0
M  V30 3362 H 325.633 7.67581 -0.896576 0
M  V30 3363 H 323.978 6.90387 -0.799412 0
M  V30 3364 H 327.169 4.67436 -0.249278 0
M  V30 3365 H 327.342 6.45243 -0.597116 0
M  V30 3366 N 320.748 -0.0735177 1.57428 0
M  V30 3367 C 322.159 -0.625551 1.75908 0
M  V30 3368 C 322.51 -1.78 0.825261 0
M  V30 3369 O 321.635 -2.16398 0.00893964 0
M  V30 3370 C 322.23 -1.14155 3.18989 0
M  V30 3371 C 320.789 -1.63946 3.38819 0
M  V30 3372 C 319.936 -0.558151 2.71625 0
M  V30 3373 H 322.887 0.152647 1.57964 0
M  V30 3374 H 322.908 -2.0104 3.23053 0
M  V30 3375 H 322.42 -0.301116 3.8693 0
M  V30 3376 H 320.521 -2.50321 2.7599 0
M  V30 3377 H 320.634 -1.71759 4.47253 0
M  V30 3378 H 318.998 -1.00278 2.34129 0
M  V30 3379 H 319.781 0.272071 3.4222 0
M  V30 3380 N 322.226 -1.5378 -0.344866 0
M  V30 3381 C 323.176 -1.78057 -1.42407 0
M  V30 3382 C 324.16 -0.635732 -1.47808 0
M  V30 3383 O 325.352 -0.89508 -1.527 0
M  V30 3384 C 322.481 -1.99242 -2.79566 0
M  V30 3385 C 321.567 -3.19787 -2.78562 0
M  V30 3386 N 321.958 -4.41284 -2.47189 0
M  V30 3387 C 320.256 -3.2093 -3.0971 0
M  V30 3388 C 320.957 -5.23128 -2.54385 0
M  V30 3389 N 319.933 -4.59813 -2.89953 0
M  V30 3390 H 323.735 -2.69588 -1.17046 0
M  V30 3391 H 321.249 -1.52687 -0.553217 0
M  V30 3392 H 323.246 -2.14768 -3.57324 0
M  V30 3393 H 321.906 -1.08953 -3.05875 0
M  V30 3394 H 322.917 -4.68657 -2.20411 0
M  V30 3395 H 319.594 -2.40603 -3.41199 0
M  V30 3396 H 320.984 -6.30096 -2.333 0
M  V30 3397 N 323.704 0.605807 -1.45491 0
M  V30 3398 C 324.95 1.36679 -1.49823 0
M  V30 3399 C 325.283 1.93693 -0.140175 0
M  V30 3400 O 324.558 1.75158 0.845581 0
M  V30 3401 C 324.841 2.51337 -2.57879 0
M  V30 3402 C 324.694 1.99508 -4.03134 0
M  V30 3403 C 326.013 3.53463 -2.62205 0
M  V30 3404 H 323.132 0.495617 -0.545466 0
M  V30 3405 H 325.774 0.682732 -1.7731 0
M  V30 3406 H 323.924 3.09691 -2.34571 0
M  V30 3407 H 325.596 1.45789 -4.37656 0
M  V30 3408 H 323.839 1.30496 -4.13707 0
M  V30 3409 H 324.51 2.82169 -4.74431 0
M  V30 3410 H 326.986 3.04953 -2.83095 0
M  V30 3411 H 325.862 4.31178 -3.39672 0
M  V30 3412 H 326.123 4.09197 -1.67363 0
M  V30 3413 N 325.182 1.32811 0.848464 0
M  V30 3414 C 326.428 1.23907 1.60546 0
M  V30 3415 C 326.761 -0.197161 1.93197 0
M  V30 3416 O 326.036 -1.13596 1.5788 0
M  V30 3417 C 326.319 2.10489 2.92175 0
M  V30 3418 C 326.172 3.62522 2.66266 0
M  V30 3419 C 327.491 1.97075 3.93509 0
M  V30 3420 H 324.61 0.451459 0.58254 0
M  V30 3421 H 327.252 1.62818 0.979296 0
M  V30 3422 H 325.402 1.77434 3.45614 0
M  V30 3423 H 327.074 4.05821 2.19334 0
M  V30 3424 H 325.317 3.84879 2.00126 0
M  V30 3425 H 325.988 4.18437 3.6002 0
M  V30 3426 H 328.464 2.26045 3.49346 0
M  V30 3427 H 327.34 2.59923 4.83457 0
M  V30 3428 H 327.601 0.940186 4.31987 0
M  V30 3429 N 326.66 -1.06551 1.16123 0
M  V30 3430 C 327.906 -1.79719 0.952505 0
M  V30 3431 C 328.261 -1.85396 -0.514385 0
M  V30 3432 O 327.554 -1.33263 -1.37665 0
M  V30 3433 C 327.748 -3.23911 1.51052 0
M  V30 3434 C 327.577 -3.32284 3.03013 0
M  V30 3435 C 326.347 -3.42371 3.71632 0
M  V30 3436 C 328.545 -3.22363 4.00732 0
M  V30 3437 N 326.527 -3.39732 5.11327 0
M  V30 3438 C 327.898 -3.26937 5.26794 0
M  V30 3439 C 329.953 -3.0623 3.92591 0
M  V30 3440 C 328.656 -3.17035 6.45663 0
M  V30 3441 C 330.682 -2.97665 5.11028 0
M  V30 3442 C 330.044 -3.02858 6.35969 0
M  V30 3443 H 326.143 -0.670585 0.402293 0
M  V30 3444 H 328.727 -1.27125 1.4747 0
M  V30 3445 H 326.898 -3.74907 1.01484 0
M  V30 3446 H 328.63 -3.85242 1.2398 0
M  V30 3447 H 325.385 -3.47058 3.22254 0
M  V30 3448 H 325.809 -3.41919 5.84312 0
M  V30 3449 H 330.451 -3.01063 2.96852 0
M  V30 3450 H 328.169 -3.2096 7.41627 0
M  V30 3451 H 331.755 -2.86273 5.06497 0
M  V30 3452 H 330.635 -2.96286 7.26075 0
M  V30 3453 N 328.138 -0.959301 -1.25041 0
M  V30 3454 C 329.385 -0.616611 -1.92884 0
M  V30 3455 C 329.713 0.847036 -1.75087 0
M  V30 3456 O 328.968 1.62374 -1.09239 0
M  V30 3457 C 329.267 -0.927136 -3.45165 0
M  V30 3458 C 328.933 -2.37757 -3.83122 0
M  V30 3459 C 327.595 -2.77402 -3.93194 0
M  V30 3460 C 329.947 -3.31929 -4.01836 0
M  V30 3461 C 327.275 -4.10277 -4.19392 0
M  V30 3462 C 329.627 -4.64423 -4.29528 0
M  V30 3463 C 328.291 -5.03857 -4.37818 0
M  V30 3464 H 327.561 -0.225634 -0.705812 0
M  V30 3465 H 330.208 -1.20921 -1.48493 0
M  V30 3466 H 328.513 -0.252195 -3.90987 0
M  V30 3467 H 330.21 -0.6405 -3.95852 0
M  V30 3468 H 326.8 -2.06013 -3.75841 0
M  V30 3469 H 330.984 -3.02488 -3.93465 0
M  V30 3470 H 326.24 -4.40467 -4.24027 0
M  V30 3471 H 330.414 -5.37369 -4.42953 0
M  V30 3472 H 328.041 -6.06843 -4.57871 0
M  V30 3473 N 329.616 1.39756 -0.72842 0
M  V30 3474 C 330.864 2.00248 -0.272946 0
M  V30 3475 C 331.185 1.58077 1.14178 0
M  V30 3476 O 330.455 0.826014 1.77634 0
M  V30 3477 H 329.035 0.740554 -0.0979247 0
M  V30 3478 H 331.697 1.70903 -0.936912 0
M  V30 3479 H 330.793 3.10495 -0.316142 0
M  V30 3480 N 331.094 0.475555 1.50254 0
M  V30 3481 C 332.004 -0.321501 2.32387 0
M  V30 3482 C 333.02 -0.991755 1.42969 0
M  V30 3483 O 334.196 -0.978747 1.76018 0
M  V30 3484 C 331.261 -1.38667 3.17762 0
M  V30 3485 C 330.322 -0.732538 4.23004 0
M  V30 3486 C 329.555 -1.74695 5.04299 0
M  V30 3487 O 329.778 -2.97399 4.86734 0
M  V30 3488 O 328.712 -1.31631 5.8733 0
M  V30 3489 H 332.538 0.350071 3.01676 0
M  V30 3490 H 330.123 0.237321 1.47503 0
M  V30 3491 H 332.005 -2.00354 3.70724 0
M  V30 3492 H 330.68 -2.04163 2.51196 0
M  V30 3493 H 329.587 -0.0765902 3.74022 0
M  V30 3494 H 330.92 -0.120452 4.92053 0
M  V30 3495 N 332.573 -1.56217 0.208337 0
M  V30 3496 C 333.521 -2.21053 -0.723769 0
M  V30 3497 C 334.515 -1.18578 -1.20978 0
M  V30 3498 O 335.721 -1.36691 -1.17114 0
M  V30 3499 H 332.096 -0.708595 -0.251788 0
M  V30 3500 H 334.067 -2.98006 -0.153365 0
M  V30 3501 C 332.816 -2.89417 -1.927 0
M  V30 3502 H 332.139 -3.68019 -1.56212 0
M  V30 3503 H 333.579 -3.38201 -2.55727 0
M  V30 3504 C 332.038 -1.91166 -2.77411 0
M  V30 3505 O 332.568 -1.42026 -3.75754 0
M  V30 3506 N 330.774 -1.59105 -2.43175 0
M  V30 3507 H 330.321 -1.99259 -1.63259 0
M  V30 3508 H 330.279 -0.936255 -3.00136 0
M  V30 3509 N 334.051 0.0651679 -1.57465 0
M  V30 3510 C 334.981 1.07693 -2.07182 0
M  V30 3511 C 335.962 1.39962 -0.966673 0
M  V30 3512 O 337.147 1.49475 -1.2398 0
M  V30 3513 C 334.277 2.3885 -2.52127 0
M  V30 3514 C 333.231 2.20917 -3.66579 0
M  V30 3515 C 332.557 3.57515 -3.97601 0
M  V30 3516 C 333.857 1.62493 -4.9638 0
M  V30 3517 H 335.551 0.663199 -2.91962 0
M  V30 3518 H 333.097 0.317569 -1.40455 0
M  V30 3519 H 335.05 3.09928 -2.85522 0
M  V30 3520 H 333.774 2.82215 -1.64384 0
M  V30 3521 H 332.433 1.52279 -3.33477 0
M  V30 3522 H 332.081 3.98463 -3.06979 0
M  V30 3523 H 331.781 3.46353 -4.74672 0
M  V30 3524 H 333.305 4.30013 -4.33499 0
M  V30 3525 H 334.719 2.23445 -5.27963 0
M  V30 3526 H 333.116 1.62009 -5.77818 0
M  V30 3527 H 334.186 0.587041 -4.81333 0
M  V30 3528 N 335.529 1.53961 0.336706 0
M  V30 3529 C 336.806 1.62171 1.09361 0
M  V30 3530 C 337.186 0.447263 2.06307 0
M  V30 3531 O 336.534 -0.559802 2.21537 0
M  V30 3532 C 336.744 2.98565 1.80721 0
M  V30 3533 C 338.092 3.54157 2.34218 0
M  V30 3534 O 339.116 3.00784 1.90807 0
M  V30 3535 O 337.975 4.47528 3.13657 0
M  V30 3536 H 335.069 0.6562 0.503319 0
M  V30 3537 H 337.615 1.66307 0.33765 0
M  V30 3538 H 336.387 3.75482 1.10132 0
M  V30 3539 H 336.01 2.9805 2.63158 0
M  V30 3540 N 337.007 -0.598083 1.45811 0
M  V30 3541 C 338.418 -1.18011 1.44673 0
M  V30 3542 C 338.769 -1.95378 0.179364 0
M  V30 3543 O 337.894 -2.04124 -0.718509 0
M  V30 3544 C 338.489 -2.14677 2.62105 0
M  V30 3545 C 337.048 -2.68236 2.64057 0
M  V30 3546 C 336.195 -1.43816 2.37091 0
M  V30 3547 H 339.146 -0.38686 1.53913 0
M  V30 3548 H 339.167 -2.97878 2.36746 0
M  V30 3549 H 338.679 -1.5834 3.5433 0
M  V30 3550 H 336.78 -3.28486 1.75864 0
M  V30 3551 H 336.893 -3.12021 3.63566 0
M  V30 3552 H 335.257 -1.731 1.86838 0
M  V30 3553 H 336.04 -0.893333 3.31473 0
M  V30 3554 N 338.485 -1.33259 -0.841409 0
M  V30 3555 C 339.448 -1.23221 -1.9326 0
M  V30 3556 C 340.448 -0.151895 -1.60081 0
M  V30 3557 O 341.638 -0.403246 -1.69468 0
M  V30 3558 C 338.77 -0.898123 -3.28856 0
M  V30 3559 H 339.963 -2.2021 -2.03587 0
M  V30 3560 H 337.516 -1.17281 -1.03319 0
M  V30 3561 H 338.251 0.0693841 -3.24226 0
M  V30 3562 H 338.036 -1.67934 -3.54317 0
M  V30 3563 H 339.526 -0.852563 -4.08805 0
M  V30 3564 N 339.963 1.05934 -1.16686 0
M  V30 3565 C 341.212 1.78188 -0.945085 0
M  V30 3566 C 341.525 1.88338 0.528021 0
M  V30 3567 O 342.731 2.57258 0.867799 0
M  V30 3568 C 341.187 3.20277 -1.64167 0
M  V30 3569 C 340.795 3.18281 -3.15279 0
M  V30 3570 C 342.539 3.97039 -1.502 0
M  V30 3571 C 340.446 4.55112 -3.7766 0
M  V30 3572 H 339.376 0.667866 -0.349959 0
M  V30 3573 H 342.027 1.18794 -1.39858 0
M  V30 3574 H 340.409 3.79952 -1.11589 0
M  V30 3575 H 341.583 2.68167 -3.74731 0
M  V30 3576 H 339.898 2.55018 -3.29173 0
M  V30 3577 H 342.495 4.98194 -1.94183 0
M  V30 3578 H 342.838 4.13845 -0.451461 0
M  V30 3579 H 343.371 3.43894 -1.99954 0
M  V30 3580 H 340.11 4.43512 -4.82677 0
M  V30 3581 H 339.63 5.05406 -3.22994 0
M  V30 3582 H 341.309 5.24064 -3.79428 0
M  V30 3583 N 341.441 0.965919 1.2453 0
M  V30 3584 C 342.371 0.513476 2.27784 0
M  V30 3585 C 343.352 -0.445974 1.6415 0
M  V30 3586 O 344.537 -0.342485 1.91156 0
M  V30 3587 C 341.667 -0.198839 3.4673 0
M  V30 3588 C 340.621 0.676456 4.2262 0
M  V30 3589 C 339.947 -0.167248 5.34438 0
M  V30 3590 C 341.247 1.96017 4.84123 0
M  V30 3591 H 342.941 1.3765 2.65881 0
M  V30 3592 H 340.487 0.663321 1.27813 0
M  V30 3593 H 342.44 -0.526567 4.18097 0
M  V30 3594 H 341.164 -1.0962 3.07654 0
M  V30 3595 H 339.823 0.98743 3.53052 0
M  V30 3596 H 339.471 -1.0647 4.91603 0
M  V30 3597 H 339.171 0.415181 5.86131 0
M  V30 3598 H 340.695 -0.489688 6.08633 0
M  V30 3599 H 342.109 1.69814 5.47573 0
M  V30 3600 H 340.506 2.48918 5.4604 0
M  V30 3601 H 341.576 2.65622 4.05676 0
M  V30 3602 N 342.919 -1.39368 0.735821 0
M  V30 3603 C 343.829 -2.34395 0.0979693 0
M  V30 3604 C 344.845 -1.58361 -0.720968 0
M  V30 3605 O 346.021 -1.90648 -0.649245 0
M  V30 3606 C 343.086 -3.37393 -0.797916 0
M  V30 3607 C 342.147 -4.29287 0.0333662 0
M  V30 3608 C 341.38 -5.27365 -0.819854 0
M  V30 3609 O 341.603 -5.31959 -2.05855 0
M  V30 3610 O 340.537 -6.01389 -0.248079 0
M  V30 3611 H 344.363 -2.90601 0.882315 0
M  V30 3612 H 341.948 -1.40909 0.4965 0
M  V30 3613 H 343.83 -4.00505 -1.31048 0
M  V30 3614 H 342.505 -2.83571 -1.56106 0
M  V30 3615 H 341.412 -3.69395 0.591475 0
M  V30 3616 H 342.745 -4.86317 0.758752 0
M  V30 3617 N 344.397 -0.483516 -1.5 0
M  V30 3618 C 345.307 0.309172 -2.32554 0
M  V30 3619 C 346.323 0.984159 -1.43493 0
M  V30 3620 O 347.499 0.969399 -1.76535 0
M  V30 3621 C 344.564 1.36979 -3.18493 0
M  V30 3622 C 343.625 0.710095 -4.23387 0
M  V30 3623 C 342.858 1.72018 -5.05218 0
M  V30 3624 O 343.081 2.94813 -4.88305 0
M  V30 3625 O 342.015 1.28515 -5.8802 0
M  V30 3626 H 345.841 -0.366064 -3.01486 0
M  V30 3627 H 343.426 -0.24514 -1.47375 0
M  V30 3628 H 345.308 1.98385 -3.71781 0
M  V30 3629 H 343.983 2.02828 -2.52275 0
M  V30 3630 H 342.89 0.0567539 -3.74057 0
M  V30 3631 H 344.223 0.0943557 -4.9211 0
M  V30 3632 N 345.875 1.56104 -0.216619 0
M  V30 3633 C 347.121 1.98466 0.417033 0
M  V30 3634 C 347.454 1.10403 1.59765 0
M  V30 3635 O 346.729 0.160632 1.93836 0
M  V30 3636 C 347.012 3.49769 0.85637 0
M  V30 3637 C 346.865 4.48606 -0.327546 0
M  V30 3638 C 348.184 4.05339 1.7143 0
M  V30 3639 H 345.303 0.721551 0.150112 0
M  V30 3640 H 347.945 1.87423 -0.311864 0
M  V30 3641 H 346.095 3.5931 1.47745 0
M  V30 3642 H 347.767 4.5108 -0.965618 0
M  V30 3643 H 346.01 4.22682 -0.975805 0
M  V30 3644 H 346.681 5.51995 0.0227149 0
M  V30 3645 H 349.157 3.98712 1.19031 0
M  V30 3646 H 348.033 5.11533 1.99061 0
M  V30 3647 H 348.294 3.51918 2.67593 0
M  V30 3648 N 347.353 -0.0568162 1.57498 0
M  V30 3649 C 348.63 -0.786954 1.79071 0
M  V30 3650 C 349.01 -1.95028 0.80792 0
M  V30 3651 O 348.358 -2.27968 -0.155858 0
M  V30 3652 C 348.568 -1.24594 3.26002 0
M  V30 3653 C 349.916 -1.67323 3.90241 0
M  V30 3654 O 350.94 -1.34124 3.29984 0
M  V30 3655 O 349.799 -2.28842 4.9628 0
M  V30 3656 H 346.893 -0.378262 0.735423 0
M  V30 3657 H 349.439 -0.035734 1.69662 0
M  V30 3658 H 348.211 -0.41423 3.89101 0
M  V30 3659 H 347.834 -2.05803 3.40192 0
M  V30 3660 N 348.832 -1.54138 -0.328536 0
M  V30 3661 C 350.248 -1.44736 -0.672574 0
M  V30 3662 C 350.448 -0.616217 -1.91846 0
M  V30 3663 O 349.504 -0.113067 -2.52247 0
M  V30 3664 C 350.817 -2.884 -0.851217 0
M  V30 3665 C 352.365 -2.98271 -0.948877 0
M  V30 3666 C 352.84 -4.43074 -1.15973 0
M  V30 3667 N 354.331 -4.46665 -1.22658 0
M  V30 3668 C 355.066 -5.55857 -1.40751 0
M  V30 3669 N 354.562 -6.75026 -1.5592 0
M  V30 3670 N 356.355 -5.43495 -1.4342 0
M  V30 3671 H 348.506 -2.06661 0.490421 0
M  V30 3672 H 350.769 -0.934812 0.157579 0
M  V30 3673 H 350.475 -3.51699 -0.00704236 0
M  V30 3674 H 350.349 -3.34225 -1.74853 0
M  V30 3675 H 352.736 -2.35102 -1.78356 0
M  V30 3676 H 352.817 -2.55785 -0.0281435 0
M  V30 3677 H 352.461 -5.06827 -0.329915 0
M  V30 3678 H 352.391 -4.83165 -2.09426 0
M  V30 3679 H 354.882 -3.60797 -1.124 0
M  V30 3680 H 355.195 -7.54004 -1.69404 0
M  V30 3681 H 353.54 -6.77944 -1.53027 0
M  V30 3682 H 356.731 -4.49349 -1.31162 0
M  V30 3683 H 356.904 -6.28649 -1.57178 0
M  V30 3684 N 350.31 0.590341 -1.46126 0
M  V30 3685 C 351.22 1.72793 -1.58681 0
M  V30 3686 C 352.236 1.67516 -0.470566 0
M  V30 3687 O 353.412 1.87562 -0.733642 0
M  V30 3688 C 350.477 3.09287 -1.5666 0
M  V30 3689 C 349.538 3.25886 -2.79458 0
M  V30 3690 C 348.771 4.55869 -2.77524 0
M  V30 3691 O 348.994 5.3928 -1.85832 0
M  V30 3692 O 347.928 4.75552 -3.68964 0
M  V30 3693 H 351.754 1.65149 -2.54872 0
M  V30 3694 H 349.339 0.756486 -1.28832 0
M  V30 3695 H 351.221 3.90577 -1.58202 0
M  V30 3696 H 349.896 3.17385 -0.636271 0
M  V30 3697 H 348.803 2.44119 -2.83472 0
M  V30 3698 H 350.136 3.22675 -3.71674 0
M  V30 3699 N 351.788 1.33704 0.83433 0
M  V30 3700 C 352.718 1.26967 1.95963 0
M  V30 3701 C 353.699 0.149337 1.69443 0
M  V30 3702 O 354.884 0.339852 1.91203 0
M  V30 3703 C 352.014 1.01275 3.32206 0
M  V30 3704 C 350.968 2.09652 3.73136 0
M  V30 3705 C 350.294 1.69166 5.07235 0
M  V30 3706 C 351.594 3.51372 3.86439 0
M  V30 3707 H 353.288 2.2112 2.01857 0
M  V30 3708 H 350.834 1.06447 0.969793 0
M  V30 3709 H 352.787 0.952106 4.10503 0
M  V30 3710 H 351.511 0.0356203 3.26581 0
M  V30 3711 H 350.17 2.14766 2.97104 0
M  V30 3712 H 349.818 0.701437 4.98085 0
M  V30 3713 H 349.518 2.41694 5.35591 0
M  V30 3714 H 351.042 1.64576 5.88003 0
M  V30 3715 H 352.456 3.48734 4.55036 0
M  V30 3716 H 350.853 4.22425 4.26236 0
M  V30 3717 H 351.923 3.89546 2.88759 0
M  V30 3718 N 353.266 -1.05314 1.17247 0
M  V30 3719 C 354.229 -2.112 0.890357 0
M  V30 3720 C 355.229 -1.60359 -0.118943 0
M  V30 3721 O 356.419 -1.73833 0.113086 0
M  V30 3722 C 353.551 -3.39266 0.333422 0
M  V30 3723 H 354.744 -2.37659 1.82916 0
M  V30 3724 H 352.297 -1.21538 0.982758 0
M  V30 3725 H 353.032 -3.18462 -0.612587 0
M  V30 3726 H 352.817 -3.77477 1.06082 0
M  V30 3727 H 354.307 -4.17315 0.154322 0
M  V30 3728 N 354.744 -0.972509 -1.24016 0
M  V30 3729 C 355.694 -0.477561 -2.22942 0
M  V30 3730 C 356.678 0.44308 -1.54679 0
M  V30 3731 O 357.87 0.273219 -1.74879 0
M  V30 3732 C 354.999 0.226348 -3.42553 0
M  V30 3733 C 354.085 -0.713403 -4.18057 0
M  V30 3734 N 354.476 -1.8527 -4.70647 0
M  V30 3735 C 352.774 -0.525145 -4.42898 0
M  V30 3736 C 353.475 -2.44089 -5.28011 0
M  V30 3737 N 352.451 -1.72556 -5.15486 0
M  V30 3738 H 356.253 -1.34678 -2.61226 0
M  V30 3739 H 353.767 -0.832196 -1.39457 0
M  V30 3740 H 355.764 0.598184 -4.12586 0
M  V30 3741 H 354.424 1.09195 -3.05788 0
M  V30 3742 H 355.435 -2.2341 -4.67235 0
M  V30 3743 H 352.112 0.296096 -4.16449 0
M  V30 3744 H 353.502 -3.40259 -5.79374 0
M  V30 3745 N 356.222 1.38976 -0.743202 0
M  V30 3746 C 357.462 2.02193 -0.29954 0
M  V30 3747 C 357.826 1.5771 1.09506 0
M  V30 3748 O 359.027 2.13184 1.63726 0
M  V30 3749 C 357.298 3.55077 -0.406822 0
M  V30 3750 S 358.857 4.38778 -0.0442109 0
M  V30 3751 H 355.675 0.701335 -0.116836 0
M  V30 3752 H 358.277 1.69651 -0.971529 0
M  V30 3753 H 356.981 3.84942 -1.42295 0
M  V30 3754 H 356.512 3.92383 0.282707 0
M  V30 3755 H 358.527 4.82222 1.16947 0
M  V30 3756 N 357.7 0.491464 1.49741 0
M  V30 3757 C 358.977 -0.118984 1.95238 0
M  V30 3758 C 359.357 -1.55044 1.43264 0
M  V30 3759 O 358.705 -2.19287 0.642287 0
M  V30 3760 C 358.915 -0.0414187 3.48975 0
M  V30 3761 C 360.263 -0.220133 4.24029 0
M  V30 3762 O 361.287 -0.117055 3.56008 0
M  V30 3763 O 360.146 -0.430567 5.44801 0
M  V30 3764 H 357.24 -0.100536 0.820866 0
M  V30 3765 H 359.786 0.553322 1.60426 0
M  V30 3766 H 358.558 0.957214 3.79412 0
M  V30 3767 H 358.181 -0.754292 3.9038 0
M  V30 3768 N 359.178 -1.55987 0.224894 0
M  V30 3769 C 360.108 -2.23426 -0.678457 0
M  V30 3770 C 361.089 -1.20709 -1.19847 0
M  V30 3771 O 362.274 -1.49304 -1.24186 0
M  V30 3772 C 359.404 -2.91676 -1.88527 0
M  V30 3773 C 358.358 -4.00893 -1.49896 0
M  V30 3774 C 357.684 -4.56455 -2.78483 0
M  V30 3775 C 358.984 -5.17769 -0.686461 0
M  V30 3776 H 360.678 -2.99175 -0.116173 0
M  V30 3777 H 358.224 -1.43897 -0.054436 0
M  V30 3778 H 360.177 -3.37547 -2.5227 0
M  V30 3779 H 358.901 -2.1338 -2.47258 0
M  V30 3780 H 357.56 -3.55758 -0.884985 0
M  V30 3781 H 357.208 -3.74886 -3.35365 0
M  V30 3782 H 356.908 -5.30169 -2.53368 0
M  V30 3783 H 358.432 -5.05047 -3.43162 0
M  V30 3784 H 359.846 -5.60001 -1.22767 0
M  V30 3785 H 358.243 -5.97735 -0.532259 0
M  V30 3786 H 359.313 -4.83932 0.306196 0
M  V30 3787 N 360.656 0.0484629 -1.57525 0
M  V30 3788 C 361.896 0.748196 -1.90214 0
M  V30 3789 C 362.26 1.73545 -0.821347 0
M  V30 3790 O 363.461 2.48201 -1.03198 0
M  V30 3791 C 361.732 1.41727 -3.28098 0
M  V30 3792 S 363.291 2.14884 -3.82584 0
M  V30 3793 H 360.109 0.248307 -0.666232 0
M  V30 3794 H 362.711 0.00343188 -1.955 0
M  V30 3795 H 361.415 0.685244 -4.04639 0
M  V30 3796 H 360.946 2.20099 -3.26068 0
M  V30 3797 H 362.961 3.41755 -3.59747 0
M  V30 3798 N 362.134 1.5431 0.320358 0
M  V30 3799 C 363.064 1.86912 1.3995 0
M  V30 3800 C 364.045 0.726211 1.53819 0
M  V30 3801 O 365.23 0.980233 1.67646 0
M  V30 3802 C 362.36 2.09932 2.7667 0
M  V30 3803 C 361.314 3.25776 2.77586 0
M  V30 3804 C 360.64 3.34173 4.17412 0
M  V30 3805 C 361.94 4.6335 2.41048 0
M  V30 3806 H 363.634 2.77292 1.12914 0
M  V30 3807 H 361.18 1.33421 0.541738 0
M  V30 3808 H 363.133 2.31324 3.52232 0
M  V30 3809 H 361.857 1.16304 3.0519 0
M  V30 3810 H 360.516 3.04276 2.04479 0
M  V30 3811 H 360.164 2.38098 4.43078 0
M  V30 3812 H 359.864 4.12033 4.18931 0
M  V30 3813 H 361.388 3.57803 4.94782 0
M  V30 3814 H 362.802 4.84602 3.06324 0
M  V30 3815 H 361.199 5.43782 2.53813 0
M  V30 3816 H 362.269 4.65381 1.36193 0
M  V30 3817 N 363.613 -0.582584 1.46437 0
M  V30 3818 C 364.859 -1.34278 1.51978 0
M  V30 3819 C 365.192 -1.93446 0.170973 0
M  V30 3820 O 364.467 -1.76481 -0.817608 0
M  V30 3821 C 364.75 -2.47203 2.61845 0
M  V30 3822 C 364.603 -1.93069 4.06257 0
M  V30 3823 C 365.922 -3.49247 2.67795 0
M  V30 3824 H 363.041 -0.486876 0.553282 0
M  V30 3825 H 365.683 -0.654437 1.78374 0
M  V30 3826 H 363.833 -3.0592 2.39469 0
M  V30 3827 H 365.505 -1.38808 4.3992 0
M  V30 3828 H 363.748 -1.23898 4.1573 0
M  V30 3829 H 364.419 -2.74586 4.7886 0
M  V30 3830 H 366.895 -3.00411 2.8791 0
M  V30 3831 H 365.771 -4.25719 3.46489 0
M  V30 3832 H 366.032 -4.06482 1.73852 0
M  V30 3833 N 365.091 -1.34144 -0.827227 0
M  V30 3834 C 366.337 -1.26446 -1.58554 0
M  V30 3835 C 366.67 0.1664 -1.93486 0
M  V30 3836 O 365.945 1.1107 -1.59667 0
M  V30 3837 C 366.228 -2.15111 -2.8879 0
M  V30 3838 C 366.081 -3.66712 -2.60465 0
M  V30 3839 C 367.4 -2.03311 -3.90324 0
M  V30 3840 H 364.519 -0.46067 -0.575284 0
M  V30 3841 H 367.161 -1.64356 -0.953269 0
M  V30 3842 H 365.311 -1.8291 -3.42748 0
M  V30 3843 H 366.983 -4.09259 -2.1285 0
M  V30 3844 H 365.226 -3.88014 -1.93978 0
M  V30 3845 H 365.897 -4.24112 -3.53317 0
M  V30 3846 H 368.373 -2.31574 -3.45706 0
M  V30 3847 H 367.249 -2.67582 -4.79261 0
M  V30 3848 H 367.51 -1.00879 -4.30437 0
M  V30 3849 N 366.569 1.04691 -1.17803 0
M  V30 3850 C 367.817 1.7743 -0.967617 0
M  V30 3851 C 368.138 1.88359 0.504574 0
M  V30 3852 O 367.408 1.40402 1.36617 0
M  V30 3853 H 365.988 0.657242 -0.355024 0
M  V30 3854 H 368.65 1.2638 -1.48371 0
M  V30 3855 H 367.746 2.78924 -1.40027 0
M  V30 3856 N 368.047 0.979072 1.23499 0
M  V30 3857 C 369.275 0.665202 1.95915 0
M  V30 3858 C 369.69 -0.767571 1.72493 0
M  V30 3859 O 369.047 -1.51635 1.01554 0
M  V30 3860 C 369.098 0.944438 3.48945 0
M  V30 3861 O 368.819 2.3209 3.71572 0
M  V30 3862 C 370.32 0.646336 4.38563 0
M  V30 3863 H 367.54 0.247218 0.623798 0
M  V30 3864 H 370.084 1.31009 1.57025 0
M  V30 3865 H 368.239 0.345575 3.85856 0
M  V30 3866 H 368.653 2.40957 4.65876 0
M  V30 3867 H 370.127 0.892091 5.44744 0
M  V30 3868 H 370.604 -0.419575 4.37191 0
M  V30 3869 H 371.21 1.22562 4.07258 0
M  V30 3870 N 369.525 -1.3858 0.750561 0
M  V30 3871 C 370.75 -2.04997 0.314812 0
M  V30 3872 C 371.175 -1.56235 -1.04749 0
M  V30 3873 O 370.533 -0.712981 -1.66692 0
M  V30 3874 C 370.581 -3.58961 0.343415 0
M  V30 3875 O 369.685 -4.07025 -0.663628 0
M  V30 3876 H 369.026 -0.649081 0.139962 0
M  V30 3877 H 371.556 -1.77313 1.02084 0
M  V30 3878 H 371.566 -4.07542 0.193233 0
M  V30 3879 H 370.241 -3.93811 1.33738 0
M  V30 3880 H 368.818 -3.6982 -0.478307 0
M  V30 3881 N 371.003 -0.499398 -1.49478 0
M  V30 3882 C 372.228 0.044722 -2.07352 0
M  V30 3883 C 372.653 1.30207 -1.35749 0
M  V30 3884 O 372.011 1.76516 -0.413732 0
M  V30 3885 C 372.059 0.283013 -3.59488 0
M  V30 3886 O 371.163 1.35804 -3.89398 0
M  V30 3887 H 370.504 -0.0255147 -0.66351 0
M  V30 3888 H 373.034 -0.698561 -1.92305 0
M  V30 3889 H 373.044 0.515007 -4.04737 0
M  V30 3890 H 371.719 -0.635636 -4.11014 0
M  V30 3891 H 370.296 1.11113 -3.55961 0
M  V30 3892 N 372.481 1.55866 -0.233164 0
M  V30 3893 C 373.727 1.98897 0.395959 0
M  V30 3894 C 374.06 1.12091 1.58585 0
M  V30 3895 O 373.335 0.181182 1.93654 0
M  V30 3896 C 373.618 3.50658 0.819224 0
M  V30 3897 C 373.471 4.48233 -0.375109 0
M  V30 3898 C 374.79 4.07135 1.67121 0
M  V30 3899 H 371.909 0.723102 0.142451 0
M  V30 3900 H 374.551 1.87082 -0.331725 0
M  V30 3901 H 372.701 3.60857 1.43925 0
M  V30 3902 H 374.373 4.50031 -1.01341 0
M  V30 3903 H 372.616 4.21624 -1.02058 0
M  V30 3904 H 373.287 5.51988 -0.0358328 0
M  V30 3905 H 375.763 3.99952 1.14795 0
M  V30 3906 H 374.639 5.13615 1.93625 0
M  V30 3907 H 374.9 3.54736 2.63846 0
M  V30 3908 N 373.959 -0.0401083 1.57549 0
M  V30 3909 C 375.205 -0.734211 1.89043 0
M  V30 3910 C 375.538 -1.75591 0.829535 0
M  V30 3911 O 374.813 -1.93868 -0.156706 0
M  V30 3912 C 375.096 -1.41374 3.31188 0
M  V30 3913 C 374.949 -0.406299 4.47961 0
M  V30 3914 C 376.268 -2.35061 3.72068 0
M  V30 3915 H 373.387 -0.265447 0.687537 0
M  V30 3916 H 376.029 0.00294087 1.9 0
M  V30 3917 H 374.179 -2.04206 3.30503 0
M  V30 3918 H 375.851 0.219255 4.60779 0
M  V30 3919 H 374.094 0.275485 4.32924 0
M  V30 3920 H 374.765 -0.920022 5.44279 0
M  V30 3921 H 377.241 -1.82282 3.74049 0
M  V30 3922 H 376.117 -2.79593 4.72355 0
M  V30 3923 H 376.378 -3.21258 3.0372 0
M  V30 3924 N 375.437 -1.54477 -0.31217 0
M  V30 3925 C 376.667 -1.76948 -1.06645 0
M  V30 3926 C 377.075 -0.523593 -1.81811 0
M  V30 3927 O 376.418 0.51578 -1.76311 0
M  V30 3928 C 376.48 -2.91668 -2.10166 0
M  V30 3929 C 376.144 -4.30165 -1.54296 0
M  V30 3930 C 377.141 -5.10603 -0.978793 0
M  V30 3931 C 374.826 -4.76738 -1.58196 0
M  V30 3932 C 376.82 -6.3573 -0.461048 0
M  V30 3933 C 374.507 -6.01831 -1.06034 0
M  V30 3934 C 375.505 -6.81161 -0.500844 0
M  V30 3935 O 375.193 -8.03899 0.0128958 0
M  V30 3936 H 374.925 -0.594088 -0.322546 0
M  V30 3937 H 377.479 -2.02213 -0.360441 0
M  V30 3938 H 375.709 -2.62001 -2.84416 0
M  V30 3939 H 377.398 -3.01817 -2.71406 0
M  V30 3940 H 378.164 -4.75771 -0.941651 0
M  V30 3941 H 374.043 -4.15027 -2.00683 0
M  V30 3942 H 377.587 -6.97596 -0.0236894 0
M  V30 3943 H 373.484 -6.36152 -1.09459 0
M  V30 3944 H 374.252 -8.18437 -0.101457 0
M  V30 3945 N 376.915 0.57481 -1.46744 0
M  V30 3946 C 378.326 1.15695 -1.46532 0
M  V30 3947 C 378.677 1.95068 -0.210425 0
M  V30 3948 O 377.802 2.05241 0.685944 0
M  V30 3949 C 378.397 2.1048 -2.65487 0
M  V30 3950 C 376.956 2.64002 -2.68291 0
M  V30 3951 C 376.103 1.40026 -2.39349 0
M  V30 3952 H 379.054 0.362325 -1.54509 0
M  V30 3953 H 379.075 2.94074 -2.41455 0
M  V30 3954 H 378.587 1.52683 -3.56805 0
M  V30 3955 H 376.688 3.25646 -1.81067 0
M  V30 3956 H 376.801 3.06197 -3.68483 0
M  V30 3957 H 375.165 1.70106 -1.89568 0
M  V30 3958 H 375.948 0.840485 -3.32852 0
M  V30 3959 N 378.394 1.34581 0.820102 0
M  V30 3960 C 379.357 1.2628 1.91275 0
M  V30 3961 C 380.357 0.177344 1.59819 0
M  V30 3962 O 381.547 0.430156 1.68806 0
M  V30 3963 C 378.679 0.950327 3.27386 0
M  V30 3964 H 379.872 2.23421 2.00057 0
M  V30 3965 H 377.425 1.1891 1.0144 0
M  V30 3966 H 378.16 -0.0177938 3.24295 0
M  V30 3967 H 377.945 1.73549 3.51601 0
M  V30 3968 H 379.435 0.917492 4.07396 0
M  V30 3969 N 379.872 -1.04064 1.18357 0
M  V30 3970 C 380.835 -2.10243 0.912707 0
M  V30 3971 C 381.835 -1.60477 -0.101928 0
M  V30 3972 O 383.025 -1.73703 0.131517 0
M  V30 3973 C 380.157 -3.38893 0.369387 0
M  V30 3974 H 381.35 -2.35706 1.85426 0
M  V30 3975 H 378.903 -1.20489 0.995594 0
M  V30 3976 H 379.638 -3.19094 -0.578776 0
M  V30 3977 H 379.423 -3.76331 1.1008 0
M  V30 3978 H 380.913 -4.17128 0.198575 0
M  V30 3979 N 381.35 -0.985608 -1.22978 0
M  V30 3980 C 382.283 -0.47487 -2.23204 0
M  V30 3981 C 383.261 0.460865 -1.55932 0
M  V30 3982 O 384.445 0.388105 -1.84461 0
M  V30 3983 C 381.572 0.312427 -3.37256 0
M  V30 3984 C 380.618 -0.568219 -4.22698 0
M  V30 3985 S 381.451 -2.01919 -4.95973 0
M  V30 3986 C 382.607 -1.24118 -6.1347 0
M  V30 3987 H 382.84 -1.32419 -2.66181 0
M  V30 3988 H 380.373 -0.792005 -1.32539 0
M  V30 3989 H 382.331 0.760645 -4.03391 0
M  V30 3990 H 380.992 1.13693 -2.92801 0
M  V30 3991 H 380.185 0.0371657 -5.03986 0
M  V30 3992 H 379.787 -0.952897 -3.61657 0
M  V30 3993 H 382.079 -0.505121 -6.75614 0
M  V30 3994 H 383.022 -2.02907 -6.78406 0
M  V30 3995 H 383.43 -0.757669 -5.59392 0
M  V30 3996 N 382.828 1.3818 -0.7579 0
M  V30 3997 C 384.075 2.00019 -0.315985 0
M  V30 3998 C 384.403 1.60163 1.10355 0
M  V30 3999 O 383.658 0.83264 1.77103 0
M  V30 4000 C 383.957 3.55252 -0.391218 0
M  V30 4001 C 383.623 4.14834 -1.76702 0
M  V30 4002 C 382.285 4.30821 -2.14353 0
M  V30 4003 C 384.637 4.47658 -2.66931 0
M  V30 4004 C 381.965 4.76928 -3.41696 0
M  V30 4005 C 384.317 4.95184 -3.93669 0
M  V30 4006 C 382.981 5.09377 -4.31383 0
M  V30 4007 H 382.251 0.731923 -0.115627 0
M  V30 4008 H 384.898 1.65161 -0.969223 0
M  V30 4009 H 383.203 3.90273 0.34558 0
M  V30 4010 H 384.9 4.00988 -0.030805 0
M  V30 4011 H 381.49 4.02808 -1.46435 0
M  V30 4012 H 385.674 4.34904 -2.39106 0
M  V30 4013 H 380.93 4.86103 -3.70829 0
M  V30 4014 H 385.104 5.19551 -4.63724 0
M  V30 4015 H 382.731 5.44865 -5.30119 0
M  V30 4016 N 384.306 0.507319 1.49211 0
M  V30 4017 C 385.269 -0.256763 2.27757 0
M  V30 4018 C 386.269 -0.888287 1.34038 0
M  V30 4019 O 387.459 -0.751841 1.5714 0
M  V30 4020 C 384.591 -1.36905 3.12202 0
M  V30 4021 H 385.784 0.432557 2.96764 0
M  V30 4022 H 383.337 0.262488 1.5408 0
M  V30 4023 H 384.072 -2.09233 2.47775 0
M  V30 4024 H 383.857 -0.921599 3.81115 0
M  V30 4025 H 385.347 -1.9071 3.7151 0
M  V30 4026 N 385.784 -1.5574 0.241426 0
M  V30 4027 C 387.195 -1.84842 -0.262755 0
M  V30 4028 C 387.546 -1.16317 -1.58003 0
M  V30 4029 O 386.671 -0.439653 -2.11887 0
M  V30 4030 C 387.266 -3.35332 -0.483523 0
M  V30 4031 C 385.825 -3.6468 -0.931977 0
M  V30 4032 C 384.972 -2.77299 -0.0061151 0
M  V30 4033 H 387.923 -1.51761 0.464129 0
M  V30 4034 H 387.944 -3.56615 -1.32688 0
M  V30 4035 H 387.456 -3.85178 0.47537 0
M  V30 4036 H 385.557 -3.20307 -1.90353 0
M  V30 4037 H 385.67 -4.72498 -0.792628 0
M  V30 4038 H 384.034 -2.49408 -0.516503 0
M  V30 4039 H 384.817 -3.2995 0.948052 0
M  V30 4040 N 387.262 0.0317525 -1.57568 0
M  V30 4041 C 388.194 1.06073 -2.03178 0
M  V30 4042 C 389.207 1.32627 -0.944132 0
M  V30 4043 O 390.396 1.30162 -1.22148 0
M  V30 4044 C 387.496 2.40297 -2.38978 0
M  V30 4045 C 386.669 2.33137 -3.70089 0
M  V30 4046 C 385.728 3.49787 -3.9311 0
M  V30 4047 O 384.754 3.29403 -4.64201 0
M  V30 4048 N 385.956 4.71562 -3.38541 0
M  V30 4049 H 388.721 0.672006 -2.92069 0
M  V30 4050 H 386.282 0.219745 -1.60402 0
M  V30 4051 H 388.274 3.1705 -2.51518 0
M  V30 4052 H 386.844 2.71024 -1.55771 0
M  V30 4053 H 386.064 1.415 -3.67928 0
M  V30 4054 H 387.352 2.25493 -4.56104 0
M  V30 4055 H 386.75 4.91024 -2.80912 0
M  V30 4056 H 385.307 5.45689 -3.56464 0
M  V30 4057 N 388.74 1.54641 0.303973 0
M  V30 4058 C 389.986 1.74038 1.04109 0
M  V30 4059 C 390.319 0.523051 1.87024 0
M  V30 4060 O 389.594 -0.479874 1.88487 0
M  V30 4061 C 389.877 3.02761 1.94955 0
M  V30 4062 C 389.73 4.34787 1.1524 0
M  V30 4063 C 391.049 3.27336 2.94175 0
M  V30 4064 H 388.168 0.63323 0.377079 0
M  V30 4065 H 390.81 1.87354 0.316001 0
M  V30 4066 H 388.96 2.9154 2.56782 0
M  V30 4067 H 390.632 4.57922 0.557236 0
M  V30 4068 H 388.875 4.31407 0.455053 0
M  V30 4069 H 389.546 5.21116 1.8205 0
M  V30 4070 H 392.022 3.38148 2.42477 0
M  V30 4071 H 390.898 4.18726 3.54908 0
M  V30 4072 H 391.159 2.45491 3.67677 0
M  V30 4073 N 390.218 -0.567019 1.47046 0
M  V30 4074 C 391.181 -1.65696 1.58359 0
M  V30 4075 C 392.181 -1.54097 0.459441 0
M  V30 4076 O 393.371 -1.58432 0.724225 0
M  V30 4077 C 390.503 -3.05197 1.51879 0
M  V30 4078 H 391.696 -1.57019 2.5551 0
M  V30 4079 H 389.249 -0.786148 1.3509 0
M  V30 4080 H 389.984 -3.19417 0.560673 0
M  V30 4081 H 389.769 -3.15025 2.33455 0
M  V30 4082 H 391.259 -3.84511 1.62913 0
M  V30 4083 N 391.696 -1.35014 -0.812953 0
M  V30 4084 C 392.659 -1.27292 -1.90602 0
M  V30 4085 C 393.659 -0.185817 -1.59723 0
M  V30 4086 O 394.849 -0.439102 -1.68575 0
M  V30 4087 C 391.981 -0.967676 -3.26877 0
M  V30 4088 H 393.174 -2.24479 -1.9887 0
M  V30 4089 H 390.727 -1.19446 -1.00808 0
M  V30 4090 H 391.462 0.0005954 -3.243 0
M  V30 4091 H 391.247 -1.75412 -3.50675 0
M  V30 4092 H 392.737 -0.939085 -4.06904 0
M  V30 4093 N 393.175 1.03435 -1.18907 0
M  V30 4094 C 394.591 1.28973 -0.940111 0
M  V30 4095 C 394.791 1.97676 0.390691 0
M  V30 4096 O 393.847 2.26127 1.12352 0
M  V30 4097 C 395.16 2.14221 -2.11021 0
M  V30 4098 C 396.708 2.27547 -2.14922 0
M  V30 4099 C 397.183 3.16164 -3.31367 0
M  V30 4100 N 398.674 3.23752 -3.31269 0
M  V30 4101 C 399.409 3.92495 -4.18014 0
M  V30 4102 N 398.905 4.63515 -5.14904 0
M  V30 4103 N 400.698 3.88838 -4.05908 0
M  V30 4104 H 392.849 0.57252 -2.04538 0
M  V30 4105 H 395.112 0.315184 -0.894071 0
M  V30 4106 H 394.818 1.71054 -3.073 0
M  V30 4107 H 394.692 3.14919 -2.0762 0
M  V30 4108 H 397.079 2.69947 -1.19217 0
M  V30 4109 H 397.16 1.26418 -2.22378 0
M  V30 4110 H 396.804 2.74474 -4.27348 0
M  V30 4111 H 396.734 4.17339 -3.21148 0
M  V30 4112 H 399.225 2.73167 -2.61129 0
M  V30 4113 H 399.538 5.13583 -5.77453 0
M  V30 4114 H 397.883 4.62398 -5.18857 0
M  V30 4115 H 401.074 3.32491 -3.29495 0
M  V30 4116 H 401.247 4.4214 -4.73726 0
M  V30 4117 N 394.653 0.992116 1.22453 0
M  V30 4118 C 395.901 0.666215 1.90804 0
M  V30 4119 C 396.222 -0.804152 1.77647 0
M  V30 4120 O 395.492 -1.57629 1.16318 0
M  V30 4121 H 394.072 0.243423 0.706225 0
M  V30 4122 H 396.734 1.25845 1.48825 0
M  V30 4123 H 395.83 0.928069 2.97982 0
M  V30 4124 N 396.131 -1.37776 0.765217 0
M  V30 4125 C 397.377 -2.00145 0.327072 0
M  V30 4126 C 397.71 -1.60607 -1.09175 0
M  V30 4127 O 396.985 -0.849127 -1.74986 0
M  V30 4128 C 397.268 -3.57109 0.46319 0
M  V30 4129 C 397.121 -4.06576 1.92395 0
M  V30 4130 C 398.44 -4.39888 -0.136473 0
M  V30 4131 H 395.559 -0.727113 0.120316 0
M  V30 4132 H 398.201 -1.63549 0.967039 0
M  V30 4133 H 396.351 -3.88414 -0.0816358 0
M  V30 4134 H 398.023 -3.85864 2.52798 0
M  V30 4135 H 396.266 -3.59011 2.43503 0
M  V30 4136 H 396.937 -5.15639 1.97028 0
M  V30 4137 H 399.413 -4.14803 0.328317 0
M  V30 4138 H 398.289 -5.48899 -0.0110582 0
M  V30 4139 H 398.55 -4.24758 -1.22608 0
M  V30 4140 N 397.609 -0.515225 -1.4894 0
M  V30 4141 C 399.02 -0.0710067 -1.86565 0
M  V30 4142 C 399.371 1.34733 -1.42623 0
M  V30 4143 O 398.496 2.00653 -0.810379 0
M  V30 4144 C 399.091 -0.122083 -3.3858 0
M  V30 4145 C 397.65 0.266863 -3.75453 0
M  V30 4146 C 396.797 -0.488376 -2.72966 0
M  V30 4147 H 399.748 -0.727266 -1.41055 0
M  V30 4148 H 399.769 0.669818 -3.74558 0
M  V30 4149 H 399.281 -1.15448 -3.70531 0
M  V30 4150 H 397.382 1.30196 -3.49113 0
M  V30 4151 H 397.495 -0.0624811 -4.79059 0
M  V30 4152 H 395.859 0.0635622 -2.54621 0
M  V30 4153 H 396.642 -1.52113 -3.07761 0
M  V30 4154 N 399.087 1.5561 -0.249682 0
M  V30 4155 C 400.333 1.99306 0.374841 0
M  V30 4156 C 400.666 1.13767 1.57387 0
M  V30 4157 O 399.941 0.201711 1.93451 0
M  V30 4158 C 400.224 3.51507 0.781986 0
M  V30 4159 C 400.077 4.4781 -0.422629 0
M  V30 4160 C 401.396 4.08884 1.62793 0
M  V30 4161 H 398.515 0.724572 0.134773 0
M  V30 4162 H 401.157 1.86719 -0.351549 0
M  V30 4163 H 399.307 3.62363 1.4009 0
M  V30 4164 H 400.979 4.48931 -1.06108 0
M  V30 4165 H 399.222 4.20518 -1.06524 0
M  V30 4166 H 399.893 5.51919 -0.0943766 0
M  V30 4167 H 402.369 4.01147 1.10547 0
M  V30 4168 H 401.245 5.1564 1.88166 0
M  V30 4169 H 401.506 3.57515 2.60068 0
M  V30 4170 N 400.565 -0.0233959 1.57583 0
M  V30 4171 C 401.528 -1.00693 2.05897 0
M  V30 4172 C 402.528 -1.28693 0.964092 0
M  V30 4173 O 403.718 -1.23602 1.22753 0
M  V30 4174 C 400.85 -2.33825 2.4807 0
M  V30 4175 H 402.043 -0.589476 2.9405 0
M  V30 4176 H 399.596 -0.270354 1.53944 0
M  V30 4177 H 400.331 -2.80307 1.6309 0
M  V30 4178 H 400.116 -2.1483 3.2801 0
M  V30 4179 H 401.606 -3.04426 2.85857 0
M  V30 4180 N 402.043 -1.548 -0.295768 0
M  V30 4181 C 402.953 -1.89177 -1.38742 0
M  V30 4182 C 403.969 -0.786481 -1.55211 0
M  V30 4183 O 405.145 -1.08344 -1.69775 0
M  V30 4184 C 402.21 -2.13663 -2.73036 0
M  V30 4185 C 401.271 -3.37349 -2.65508 0
M  V30 4186 C 400.504 -3.60658 -3.93398 0
M  V30 4187 O 400.727 -2.86882 -4.93006 0
M  V30 4188 O 399.661 -4.54179 -3.94975 0
M  V30 4189 H 403.487 -2.82059 -1.12589 0
M  V30 4190 H 401.072 -1.41056 -0.492295 0
M  V30 4191 H 402.954 -2.3094 -3.52484 0
M  V30 4192 H 401.629 -1.23967 -2.99022 0
M  V30 4193 H 400.536 -3.25431 -1.84514 0
M  V30 4194 H 401.869 -4.27192 -2.44474 0
M  V30 4195 N 403.521 0.559213 -1.47345 0
M  V30 4196 C 404.768 1.31648 -1.53867 0
M  V30 4197 C 405.096 1.93468 -0.200104 0
M  V30 4198 O 404.351 1.78295 0.806799 0
M  V30 4199 C 404.65 2.44853 -2.6035 0
M  V30 4200 C 404.316 2.00876 -4.03683 0
M  V30 4201 C 402.978 1.88599 -4.42701 0
M  V30 4202 C 405.33 1.67279 -4.93626 0
M  V30 4203 C 402.658 1.41017 -5.69501 0
M  V30 4204 C 405.01 1.21169 -6.20887 0
M  V30 4205 C 403.674 1.07487 -6.58789 0
M  V30 4206 H 402.944 0.481734 -0.56304 0
M  V30 4207 H 405.591 0.627301 -1.80934 0
M  V30 4208 H 403.896 3.19318 -2.27032 0
M  V30 4209 H 405.593 3.03039 -2.62619 0
M  V30 4210 H 402.183 2.11374 -3.72853 0
M  V30 4211 H 406.367 1.75638 -4.64182 0
M  V30 4212 H 401.623 1.29086 -5.97618 0
M  V30 4213 H 405.797 0.942345 -6.89995 0
M  V30 4214 H 403.424 0.703946 -7.56934 0
M  V30 4215 N 404.999 1.35443 0.805782 0
M  V30 4216 C 405.947 1.28465 1.93906 0
M  V30 4217 C 406.941 0.17943 1.68447 0
M  V30 4218 O 408.147 0.345459 1.76654 0
M  V30 4219 H 404.522 0.399528 0.637088 0
M  V30 4220 H 406.493 2.24206 1.96912 0
M  V30 4221 C 405.242 1.07432 3.30687 0
M  V30 4222 H 404.565 1.91716 3.50835 0
M  V30 4223 H 406.005 1.06591 4.10383 0
M  V30 4224 C 404.464 -0.22179 3.36169 0
M  V30 4225 O 404.994 -1.21731 3.82811 0
M  V30 4226 N 403.2 -0.260841 2.89427 0
M  V30 4227 H 402.747 0.549884 2.51663 0
M  V30 4228 H 402.705 -1.12777 2.93477 0
M  V30 4229 N 406.477 -1.02803 1.19454 0
M  V30 4230 C 407.705 -1.79841 1.02297 0
M  V30 4231 C 408.12 -1.83879 -0.428259 0
M  V30 4232 O 407.477 -1.28345 -1.29745 0
M  V30 4233 C 407.528 -3.24852 1.58598 0
M  V30 4234 O 407.249 -3.21097 2.98041 0
M  V30 4235 C 408.75 -4.18485 1.46236 0
M  V30 4236 H 405.97 -0.565936 0.360496 0
M  V30 4237 H 408.514 -1.2948 1.58288 0
M  V30 4238 H 406.669 -3.72401 1.06753 0
M  V30 4239 H 407.083 -4.12033 3.24545 0
M  V30 4240 H 408.557 -5.18121 1.90407 0
M  V30 4241 H 409.034 -4.37254 0.41301 0
M  V30 4242 H 409.64 -3.76811 1.97215 0
M  V30 4243 N 407.956 -0.998596 -1.21925 0
M  V30 4244 C 408.866 -0.562736 -2.27751 0
M  V30 4245 C 409.882 0.391203 -1.69545 0
M  V30 4246 O 411.058 0.256625 -1.99758 0
M  V30 4247 C 408.123 0.11012 -3.46525 0
M  V30 4248 C 407.184 -0.887495 -4.20026 0
M  V30 4249 C 406.417 -0.246654 -5.3313 0
M  V30 4250 O 406.64 0.958088 -5.62296 0
M  V30 4251 O 405.574 -0.954374 -5.94286 0
M  V30 4252 H 409.4 -1.44329 -2.67213 0
M  V30 4253 H 406.985 -0.767135 -1.28201 0
M  V30 4254 H 408.867 0.486756 -4.18579 0
M  V30 4255 H 407.542 0.965154 -3.08976 0
M  V30 4256 H 406.449 -1.31517 -3.5022 0
M  V30 4257 H 407.782 -1.71191 -4.6147 0
M  V30 4258 N 409.434 1.37368 -0.772513 0
M  V30 4259 C 410.662 2.03942 -0.348588 0
M  V30 4260 C 411.077 1.58264 1.02947 0
M  V30 4261 O 410.434 0.764246 1.65727 0
M  V30 4262 C 410.485 3.5946 -0.38351 0
M  V30 4263 O 410.206 4.03468 -1.70721 0
M  V30 4264 C 411.707 4.4327 0.0519152 0
M  V30 4265 H 408.927 0.654931 -0.145966 0
M  V30 4266 H 411.471 1.75686 -1.04665 0
M  V30 4267 H 409.626 3.86486 0.265978 0
M  V30 4268 H 410.04 4.97991 -1.64636 0
M  V30 4269 H 411.514 5.51995 -0.0236733 0
M  V30 4270 H 411.991 4.2514 1.10238 0
M  V30 4271 H 412.597 4.21471 -0.569415 0
M  V30 4272 N 410.912 0.523116 1.48665 0
M  V30 4273 C 412.14 -0.0096312 2.06898 0
M  V30 4274 C 412.555 -1.28784 1.38059 0
M  V30 4275 O 411.912 -1.76453 0.465893 0
M  V30 4276 C 411.963 -0.244386 3.60673 0
M  V30 4277 O 411.684 0.983172 4.26925 0
M  V30 4278 C 413.185 -0.818289 4.35682 0
M  V30 4279 H 410.405 0.0304161 0.67031 0
M  V30 4280 H 412.949 0.726799 1.91149 0
M  V30 4281 H 411.104 -0.930847 3.76051 0
M  V30 4282 H 411.518 0.759653 5.1897 0
M  V30 4283 H 412.992 -0.93201 5.44075 0
M  V30 4284 H 413.469 -1.82153 3.99646 0
M  V30 4285 H 414.075 -0.168609 4.24966 0
M  V30 4286 N 412.39 -1.55475 0.257931 0
M  V30 4287 C 413.801 -1.8511 -0.243135 0
M  V30 4288 C 414.152 -1.17986 -1.5676 0
M  V30 4289 O 413.277 -0.462102 -2.11409 0
M  V30 4290 C 413.872 -3.35826 -0.447929 0
M  V30 4291 C 412.431 -3.65647 -0.893245 0
M  V30 4292 C 411.578 -2.7729 0.0232965 0
M  V30 4293 H 414.529 -1.51261 0.480199 0
M  V30 4294 H 414.55 -3.58002 -1.28898 0
M  V30 4295 H 414.062 -3.84652 0.516196 0
M  V30 4296 H 412.163 -3.22308 -1.86945 0
M  V30 4297 H 412.276 -4.73312 -0.742469 0
M  V30 4298 H 410.64 -2.49942 -0.490021 0
M  V30 4299 H 411.423 -3.28926 0.982994 0
M  V30 4300 N 413.868 0.0150385 -1.57593 0
M  V30 4301 C 414.831 0.995996 -2.06428 0
M  V30 4302 C 415.831 1.2818 -0.970903 0
M  V30 4303 O 417.021 1.22949 -1.23406 0
M  V30 4304 C 414.153 2.32506 -2.49307 0
M  V30 4305 H 415.346 0.573873 -2.94358 0
M  V30 4306 H 412.899 0.262186 -1.54085 0
M  V30 4307 H 413.634 2.79438 -1.64575 0
M  V30 4308 H 413.419 2.13087 -3.29145 0
M  V30 4309 H 414.909 3.02906 -2.87468 0
M  V30 4310 N 415.346 1.54954 0.287554 0
M  V30 4311 C 416.574 1.78881 1.03967 0
M  V30 4312 C 416.989 0.554894 1.80462 0
M  V30 4313 O 416.346 -0.475676 1.76192 0
M  V30 4314 C 416.397 3.00488 2.0097 0
M  V30 4315 O 416.118 4.19113 1.27577 0
M  V30 4316 C 417.619 3.36907 2.88112 0
M  V30 4317 H 414.839 0.596259 0.307761 0
M  V30 4318 H 417.383 2.01937 0.322749 0
M  V30 4319 H 415.538 2.79601 2.68145 0
M  V30 4320 H 415.952 4.87765 1.92835 0
M  V30 4321 H 417.426 4.25205 3.52001 0
M  V30 4322 H 417.903 2.55659 3.57121 0
M  V30 4323 H 418.509 3.60001 2.26449 0
M  V30 4324 N 416.824 -0.551391 1.4764 0
M  V30 4325 C 417.772 -1.67896 1.60978 0
M  V30 4326 C 418.766 -1.62549 0.476877 0
M  V30 4327 O 419.972 -1.67664 0.654878 0
M  V30 4328 H 416.347 -0.555649 0.506713 0
M  V30 4329 H 418.318 -1.53784 2.55721 0
M  V30 4330 C 417.067 -3.06234 1.64669 0
M  V30 4331 H 416.39 -3.11033 2.51194 0
M  V30 4332 H 417.83 -3.84804 1.7805 0
M  V30 4333 C 416.289 -3.34737 0.381115 0
M  V30 4334 O 416.819 -3.98381 -0.515297 0
M  V30 4335 N 415.025 -2.8944 0.259354 0
M  V30 4336 H 414.572 -2.37827 0.98976 0
M  V30 4337 H 414.53 -3.08882 -0.586464 0
M  V30 4338 N 418.302 -1.35869 -0.798587 0
M  V30 4339 C 419.718 -1.16082 -1.09532 0
M  V30 4340 C 419.918 0.0213124 -2.01489 0
M  V30 4341 O 418.974 0.689488 -2.42904 0
M  V30 4342 C 420.287 -2.46748 -1.7186 0
M  V30 4343 C 421.835 -2.53028 -1.84244 0
M  V30 4344 C 422.31 -3.83758 -2.49988 0
M  V30 4345 N 423.801 -3.85053 -2.57465 0
M  V30 4346 C 424.536 -4.8294 -3.09122 0
M  V30 4347 N 424.032 -5.91217 -3.61157 0
M  V30 4348 N 425.825 -4.70369 -3.0775 0
M  V30 4349 H 417.976 -2.11571 -0.187461 0
M  V30 4350 H 420.239 -0.936726 -0.145765 0
M  V30 4351 H 419.945 -3.33471 -1.11759 0
M  V30 4352 H 419.819 -2.61883 -2.71472 0
M  V30 4353 H 422.206 -1.66729 -2.43486 0
M  V30 4354 H 422.287 -2.418 -0.834643 0
M  V30 4355 H 421.931 -4.70459 -1.91393 0
M  V30 4356 H 421.861 -3.92278 -3.5132 0
M  V30 4357 H 424.352 -3.06822 -2.20609 0
M  V30 4358 H 424.665 -6.61892 -3.98896 0
M  V30 4359 H 423.01 -5.94899 -3.59333 0
M  V30 4360 H 426.201 -3.84914 -2.66381 0
M  V30 4361 H 426.374 -5.46816 -3.47701 0
M  V30 4362 N 419.78 1.02168 -1.19998 0
M  V30 4363 C 421.027 1.75685 -1.00702 0
M  V30 4364 C 421.355 1.88947 0.461426 0
M  V30 4365 O 420.61 1.40832 1.35885 0
M  V30 4366 C 420.909 3.18081 -1.62969 0
M  V30 4367 C 420.575 3.24809 -3.12746 0
M  V30 4368 C 419.237 3.26352 -3.53621 0
M  V30 4369 C 421.589 3.23379 -4.08749 0
M  V30 4370 C 418.917 3.2413 -4.89036 0
M  V30 4371 C 421.269 3.22698 -5.44104 0
M  V30 4372 C 419.933 3.22542 -5.84399 0
M  V30 4373 H 419.203 0.642877 -0.368496 0
M  V30 4374 H 421.85 1.19865 -1.49348 0
M  V30 4375 H 420.155 3.77027 -1.06573 0
M  V30 4376 H 421.852 3.73648 -1.45561 0
M  V30 4377 H 418.442 3.2434 -2.80181 0
M  V30 4378 H 422.626 3.21361 -3.78207 0
M  V30 4379 H 417.882 3.22338 -5.19527 0
M  V30 4380 H 422.056 3.20543 -6.18244 0
M  V30 4381 H 419.683 3.20575 -6.89301 0
M  V30 4382 N 421.258 1.00505 1.21394 0
M  V30 4383 C 422.674 0.717873 1.42544 0
M  V30 4384 C 422.874 -0.706936 1.88692 0
M  V30 4385 O 421.93 -1.47627 2.04847 0
M  V30 4386 C 423.243 1.73377 2.45684 0
M  V30 4387 C 424.791 1.75059 2.59467 0
M  V30 4388 C 425.266 2.75545 3.6584 0
M  V30 4389 N 426.757 2.74213 3.73311 0
M  V30 4390 C 427.492 3.48626 4.55245 0
M  V30 4391 N 426.988 4.32678 5.41075 0
M  V30 4392 N 428.781 3.37276 4.49668 0
M  V30 4393 H 420.932 1.92506 0.897503 0
M  V30 4394 H 423.195 0.830919 0.456375 0
M  V30 4395 H 422.901 2.75395 2.18748 0
M  V30 4396 H 422.775 1.53647 3.44489 0
M  V30 4397 H 425.162 0.737337 2.8574 0
M  V30 4398 H 425.243 1.98861 1.60897 0
M  V30 4399 H 424.887 3.77028 3.40313 0
M  V30 4400 H 424.817 2.49009 4.64007 0
M  V30 4401 H 427.308 2.13234 3.11993 0
M  V30 4402 H 427.621 4.86253 6.00648 0
M  V30 4403 H 425.966 4.3676 5.40616 0
M  V30 4404 H 429.157 2.71043 3.81646 0
M  V30 4405 H 429.33 3.95524 5.13288 0
M  V30 4406 N 422.737 -1.36956 0.779787 0
M  V30 4407 C 423.984 -1.99491 0.347766 0
M  V30 4408 C 424.312 -1.61898 -1.07793 0
M  V30 4409 O 423.567 -0.86071 -1.75756 0
M  V30 4410 C 423.866 -3.54585 0.447686 0
M  V30 4411 C 423.532 -4.1197 1.83279 0
M  V30 4412 C 422.194 -4.27356 2.2118 0
M  V30 4413 C 424.546 -4.43354 2.74019 0
M  V30 4414 C 421.874 -4.71432 3.4924 0
M  V30 4415 C 424.226 -4.88858 4.01497 0
M  V30 4416 C 422.89 -5.0245 4.39432 0
M  V30 4417 H 422.16 -0.729991 0.127257 0
M  V30 4418 H 424.807 -1.63599 0.995376 0
M  V30 4419 H 423.112 -3.90773 -0.283447 0
M  V30 4420 H 424.809 -4.00888 0.0945948 0
M  V30 4421 H 421.399 -4.00428 1.52825 0
M  V30 4422 H 425.583 -4.31045 2.45995 0
M  V30 4423 H 420.839 -4.80141 3.78516 0
M  V30 4424 H 425.013 -5.12108 4.71931 0
M  V30 4425 H 422.64 -5.36362 5.38721 0
M  V30 4426 N 424.215 -0.530993 -1.48385 0
M  V30 4427 C 425.165 0.251092 -2.26613 0
M  V30 4428 C 426.149 0.908977 -1.32765 0
M  V30 4429 O 427.341 0.811616 -1.57295 0
M  V30 4430 C 424.47 1.29677 -3.17866 0
M  V30 4431 C 423.556 0.643627 -4.19188 0
M  V30 4432 N 423.947 -0.271223 -5.05072 0
M  V30 4433 C 422.245 0.900711 -4.3681 0
M  V30 4434 C 422.946 -0.648109 -5.78078 0
M  V30 4435 N 421.922 -0.00895987 -5.43599 0
M  V30 4436 H 425.724 -0.452702 -2.90393 0
M  V30 4437 H 423.238 -0.349091 -1.58604 0
M  V30 4438 H 425.235 1.87079 -3.72568 0
M  V30 4439 H 423.895 2.00193 -2.55642 0
M  V30 4440 H 424.906 -0.643883 -5.13882 0
M  V30 4441 H 421.583 1.59636 -3.85775 0
M  V30 4442 H 422.973 -1.39833 -6.57188 0
M  V30 4443 N 425.693 1.55336 -0.266172 0
M  V30 4444 C 426.94 1.99397 0.353158 0
M  V30 4445 C 427.268 1.15451 1.56529 0
M  V30 4446 O 426.523 0.209974 1.9457 0
M  V30 4447 C 426.822 3.48606 0.787957 0
M  V30 4448 C 426.488 4.49773 -0.318541 0
M  V30 4449 C 425.15 4.77158 -0.62239 0
M  V30 4450 C 427.502 5.10212 -1.06459 0
M  V30 4451 C 424.83 5.62251 -1.67602 0
M  V30 4452 C 427.182 5.96449 -2.10788 0
M  V30 4453 C 425.846 6.22158 -2.41817 0
M  V30 4454 H 425.116 0.729644 0.12923 0
M  V30 4455 H 427.763 1.87732 -0.37802 0
M  V30 4456 H 426.068 3.57701 1.59866 0
M  V30 4457 H 427.765 3.80098 1.27775 0
M  V30 4458 H 424.355 4.2854 -0.0715925 0
M  V30 4459 H 428.539 4.89086 -0.843098 0
M  V30 4460 H 423.795 5.80419 -1.92155 0
M  V30 4461 H 427.969 6.42317 -2.69076 0
M  V30 4462 H 425.596 6.87888 -3.23596 0
M  V30 4463 N 427.171 -0.0066808 1.57599 0
M  V30 4464 C 428.103 -1.02827 2.04839 0
M  V30 4465 C 429.116 -1.31108 0.965113 0
M  V30 4466 O 430.305 -1.28202 1.24203 0
M  V30 4467 C 427.405 -2.36464 2.42771 0
M  V30 4468 C 426.578 -2.27219 3.73751 0
M  V30 4469 C 425.637 -3.43489 3.98625 0
M  V30 4470 O 424.663 -3.21976 4.69382 0
M  V30 4471 N 425.865 -4.66116 3.46 0
M  V30 4472 H 428.63 -0.625455 2.93101 0
M  V30 4473 H 426.191 -0.194198 1.60731 0
M  V30 4474 H 428.183 -3.13008 2.56531 0
M  V30 4475 H 426.753 -2.68512 1.60063 0
M  V30 4476 H 425.973 -1.35629 3.70133 0
M  V30 4477 H 427.261 -2.18208 4.59633 0
M  V30 4478 H 426.659 -4.86493 2.88688 0
M  V30 4479 H 425.216 -5.39949 3.65101 0
M  V30 4480 N 428.649 -1.55105 -0.279332 0
M  V30 4481 C 429.897 -1.75066 -1.00977 0
M  V30 4482 C 430.218 -0.551276 -1.87045 0
M  V30 4483 O 429.488 0.433984 -1.91032 0
M  V30 4484 H 428.068 -0.645578 -0.375816 0
M  V30 4485 H 430.73 -1.92497 -0.305089 0
M  V30 4486 H 429.826 -2.64894 -1.65038 0
M  V30 4487 N 430.127 0.543554 -1.4793 0
M  V30 4488 C 431.538 1.12561 -1.48953 0
M  V30 4489 C 431.889 1.94578 -0.251754 0
M  V30 4490 O 431.014 2.0665 0.642255 0
M  V30 4491 C 431.609 2.04801 -2.69892 0
M  V30 4492 C 430.168 2.58251 -2.73831 0
M  V30 4493 C 429.315 1.34918 -2.42265 0
M  V30 4494 H 432.266 0.32947 -1.55242 0
M  V30 4495 H 432.287 2.88886 -2.47639 0
M  V30 4496 H 431.799 1.4508 -3.59963 0
M  V30 4497 H 429.9 3.21732 -1.87934 0
M  V30 4498 H 430.013 2.98312 -3.74895 0
M  V30 4499 H 428.377 1.66046 -1.93134 0
M  V30 4500 H 429.16 0.769693 -3.3456 0
M  V30 4501 N 431.605 1.3629 0.791371 0
M  V30 4502 C 432.845 1.31792 1.56238 0
M  V30 4503 C 433.209 -0.102237 1.91728 0
M  V30 4504 O 434.41 -0.271759 2.67423 0
M  V30 4505 C 432.681 2.21303 2.80642 0
M  V30 4506 S 434.24 2.34468 3.70904 0
M  V30 4507 H 431.058 0.468141 0.535131 0
M  V30 4508 H 433.66 1.71841 0.932246 0
M  V30 4509 H 432.364 3.23439 2.52617 0
M  V30 4510 H 431.895 1.82266 3.4863 0
M  V30 4511 H 433.91 1.54074 4.71673 0
M  V30 4512 N 433.083 -1.0153 1.20538 0
M  V30 4513 C 434.331 -1.74803 1.01432 0
M  V30 4514 C 434.652 -1.8963 -0.454456 0
M  V30 4515 O 433.922 -1.43975 -1.32846 0
M  V30 4516 H 432.502 -0.647598 0.372324 0
M  V30 4517 H 435.164 -1.22402 1.5167 0
M  V30 4518 H 434.26 -2.75114 1.47373 0
M  V30 4519 N 434.561 -1.01147 -1.20859 0
M  V30 4520 C 435.789 -0.716911 -1.94082 0
M  V30 4521 C 436.204 0.721568 -1.74467 0
M  V30 4522 O 435.561 1.48889 -1.05539 0
M  V30 4523 C 435.612 -1.03662 -3.46318 0
M  V30 4524 O 435.333 -2.4186 -3.65288 0
M  V30 4525 C 436.834 -0.762386 -4.36695 0
M  V30 4526 H 434.054 -0.26367 -0.617024 0
M  V30 4527 H 436.598 -1.35127 -1.53496 0
M  V30 4528 H 434.753 -0.447757 -3.84804 0
M  V30 4529 H 435.167 -2.53224 -4.59323 0
M  V30 4530 H 436.641 -1.03621 -5.42187 0
M  V30 4531 H 437.118 0.303514 -4.3815 0
M  V30 4532 H 437.724 -1.33316 -4.03865 0
M  V30 4533 N 436.039 1.36541 -0.78704 0
M  V30 4534 C 437.267 2.03561 -0.370199 0
M  V30 4535 C 437.682 1.59347 1.01263 0
M  V30 4536 O 437.039 0.781781 1.64907 0
M  V30 4537 C 437.09 3.59033 -0.421614 0
M  V30 4538 O 436.811 4.01634 -1.7499 0
M  V30 4539 C 438.312 4.433 0.00489763 0
M  V30 4540 H 435.532 0.653346 -0.152904 0
M  V30 4541 H 438.076 1.74566 -1.06522 0
M  V30 4542 H 436.231 3.86746 0.224971 0
M  V30 4543 H 436.645 4.96217 -1.69909 0
M  V30 4544 H 438.119 5.51939 -0.0822184 0
M  V30 4545 H 438.596 4.26285 1.05723 0
M  V30 4546 H 439.202 4.20843 -0.614085 0
M  V30 4547 N 437.518 0.538854 1.48102 0
M  V30 4548 C 438.448 -0.207654 2.32575 0
M  V30 4549 C 439.429 -0.926559 1.4265 0
M  V30 4550 O 440.614 -0.91061 1.71527 0
M  V30 4551 C 437.744 -1.24957 3.24042 0
M  V30 4552 C 436.698 -0.648263 4.23062 0
M  V30 4553 C 436.024 -1.79348 5.03725 0
M  V30 4554 C 437.324 0.385897 5.20872 0
M  V30 4555 H 439.018 0.497534 2.95237 0
M  V30 4556 H 436.564 0.240715 1.41974 0
M  V30 4557 H 438.517 -1.77983 3.81969 0
M  V30 4558 H 437.241 -1.98446 2.59397 0
M  V30 4559 H 435.9 -0.139452 3.66335 0
M  V30 4560 H 435.548 -2.51696 4.35498 0
M  V30 4561 H 435.248 -1.39702 5.70751 0
M  V30 4562 H 436.772 -2.32735 5.64506 0
M  V30 4563 H 438.186 -0.057607 5.73271 0
M  V30 4564 H 436.583 0.700227 5.96001 0
M  V30 4565 H 437.653 1.28848 4.67468 0
M  V30 4566 N 438.996 -1.55193 0.274407 0
M  V30 4567 C 440.407 -1.85358 -0.223488 0
M  V30 4568 C 440.758 -1.19642 -1.555 0
M  V30 4569 O 439.883 -0.484498 -2.10907 0
M  V30 4570 C 440.478 -3.36282 -0.412285 0
M  V30 4571 C 439.037 -3.66574 -0.854413 0
M  V30 4572 C 438.184 -2.7725 0.0527056 0
M  V30 4573 H 441.135 -1.50743 0.496215 0
M  V30 4574 H 441.156 -3.59349 -1.25094 0
M  V30 4575 H 440.668 -3.84083 0.556965 0
M  V30 4576 H 438.769 -3.24273 -1.83516 0
M  V30 4577 H 438.882 -4.74073 -0.692226 0
M  V30 4578 H 437.246 -2.50447 -0.463484 0
M  V30 4579 H 438.029 -3.27865 1.01783 0
M  V30 4580 N 440.474 -0.00167713 -1.576 0
M  V30 4581 C 441.384 1.00548 -2.1196 0
M  V30 4582 C 442.4 1.3758 -1.06526 0
M  V30 4583 O 443.576 1.46278 -1.38436 0
M  V30 4584 C 440.641 2.27809 -2.6135 0
M  V30 4585 C 439.702 1.97074 -3.81393 0
M  V30 4586 C 438.935 3.18267 -4.28417 0
M  V30 4587 O 439.158 4.30009 -3.74765 0
M  V30 4588 O 438.092 3.02167 -5.20556 0
M  V30 4589 H 441.918 0.573373 -2.98238 0
M  V30 4590 H 439.503 0.217255 -1.47812 0
M  V30 4591 H 441.385 3.02568 -2.93309 0
M  V30 4592 H 440.06 2.70254 -1.78169 0
M  V30 4593 H 438.967 1.19785 -3.54404 0
M  V30 4594 H 440.3 1.59464 -4.65652 0
M  V30 4595 N 441.952 1.55251 0.271103 0
M  V30 4596 C 442.915 1.87484 1.31842 0
M  V30 4597 C 443.915 0.749545 1.42262 0
M  V30 4598 O 445.105 1.01771 1.4138 0
M  V30 4599 C 442.237 2.0818 2.69951 0
M  V30 4600 H 443.43 2.81108 1.0449 0
M  V30 4601 H 440.983 1.47771 0.509258 0
M  V30 4602 H 441.718 1.16944 3.02481 0
M  V30 4603 H 441.503 2.90114 2.63774 0
M  V30 4604 H 442.993 2.34385 3.4562 0
M  V30 4605 N 443.43 -0.535701 1.48216 0
M  V30 4606 C 444.36 -1.65014 1.65204 0
M  V30 4607 C 445.341 -1.62554 0.501011 0
M  V30 4608 O 446.526 -1.7984 0.732886 0
M  V30 4609 C 443.656 -3.03616 1.68626 0
M  V30 4610 C 442.61 -3.20932 2.83172 0
M  V30 4611 C 441.936 -4.60537 2.71679 0
M  V30 4612 C 443.236 -3.04249 4.24535 0
M  V30 4613 H 444.93 -1.51053 2.58502 0
M  V30 4614 H 442.476 -0.725262 1.24402 0
M  V30 4615 H 444.429 -3.81446 1.79099 0
M  V30 4616 H 443.153 -3.18587 0.719026 0
M  V30 4617 H 441.812 -2.45517 2.72244 0
M  V30 4618 H 441.46 -4.72336 1.72937 0
M  V30 4619 H 441.16 -4.73069 3.48538 0
M  V30 4620 H 442.684 -5.40475 2.84112 0
M  V30 4621 H 444.098 -3.71877 4.36326 0
M  V30 4622 H 442.495 -3.28278 5.02348 0
M  V30 4623 H 443.565 -2.00739 4.41397 0
M  V30 4624 N 444.908 -1.36708 -0.784132 0
M  V30 4625 C 445.871 -1.31307 -1.87859 0
M  V30 4626 C 446.871 -0.219654 -1.59293 0
M  V30 4627 O 448.061 -0.47476 -1.67606 0
M  V30 4628 C 445.193 -1.03679 -3.24751 0
M  V30 4629 H 446.386 -2.28647 -1.94064 0
M  V30 4630 H 443.939 -1.21558 -0.98252 0
M  V30 4631 H 444.674 -0.0681936 -3.24228 0
M  V30 4632 H 444.459 -1.82811 -3.46876 0
M  V30 4633 H 445.949 -1.02518 -4.04821 0
M  V30 4634 N 446.386 1.0089 -1.21074 0
M  V30 4635 C 447.626 1.76142 -1.03699 0
M  V30 4636 C 447.99 1.87292 0.422587 0
M  V30 4637 O 449.191 2.59068 0.716752 0
M  V30 4638 C 447.462 3.13805 -1.7106 0
M  V30 4639 S 449.021 4.04996 -1.68889 0
M  V30 4640 H 445.839 0.606113 -0.371683 0
M  V30 4641 H 448.441 1.20744 -1.53756 0
M  V30 4642 H 447.145 3.0332 -2.76451 0
M  V30 4643 H 446.676 3.74276 -1.21166 0
M  V30 4644 H 448.691 4.90842 -0.727211 0
M  V30 4645 N 447.864 1.01787 1.20321 0
M  V30 4646 C 448.814 0.559976 2.21016 0
M  V30 4647 C 449.798 -0.385366 1.56217 0
M  V30 4648 O 450.99 -0.208126 1.75772 0
M  V30 4649 C 448.119 -0.0990553 3.43157 0
M  V30 4650 C 447.205 0.86807 4.15121 0
M  V30 4651 N 447.596 2.0261 4.63447 0
M  V30 4652 C 445.894 0.689162 4.40643 0
M  V30 4653 C 446.595 2.63518 5.18588 0
M  V30 4654 N 445.571 1.91569 5.08726 0
M  V30 4655 H 449.373 1.44281 2.56048 0
M  V30 4656 H 446.887 0.883381 1.36272 0
M  V30 4657 H 448.884 -0.444643 4.14522 0
M  V30 4658 H 447.544 -0.977709 3.0963 0
M  V30 4659 H 448.555 2.40598 4.58621 0
M  V30 4660 H 445.232 -0.14133 4.17261 0
M  V30 4661 H 446.622 3.61527 5.66346 0
M  V30 4662 N 449.342 -1.36122 0.79427 0
M  V30 4663 C 450.252 -2.33769 0.197296 0
M  V30 4664 C 451.268 -1.61276 -0.653153 0
M  V30 4665 O 452.444 -1.9323 -0.5678 0
M  V30 4666 C 449.509 -3.40474 -0.654098 0
M  V30 4667 C 448.57 -4.28759 0.215411 0
M  V30 4668 C 447.803 -5.30368 -0.595443 0
M  V30 4669 O 448.026 -5.40211 -1.83107 0
M  V30 4670 O 446.96 -6.019 0.00721351 0
M  V30 4671 H 450.786 -2.86597 1.00478 0
M  V30 4672 H 448.371 -1.38676 0.555818 0
M  V30 4673 H 450.253 -4.05703 -1.13944 0
M  V30 4674 H 448.928 -2.89937 -1.43938 0
M  V30 4675 H 447.835 -3.66554 0.747615 0
M  V30 4676 H 449.168 -4.82661 0.964332 0
M  V30 4677 N 450.82 -0.546701 -1.47814 0
M  V30 4678 C 451.768 0.220048 -2.31557 0
M  V30 4679 C 452.762 0.919472 -1.42275 0
M  V30 4680 O 453.968 0.841953 -1.59095 0
M  V30 4681 H 450.343 0.0898334 -0.746615 0
M  V30 4682 H 452.314 -0.505589 -2.94086 0
M  V30 4683 C 451.063 1.24353 -3.24702 0
M  V30 4684 H 450.386 0.714758 -3.93359 0
M  V30 4685 H 451.826 1.75112 -3.8615 0
M  V30 4686 C 450.285 2.28593 -2.47481 0
M  V30 4687 O 450.815 3.35334 -2.21165 0
M  V30 4688 N 449.021 2.02244 -2.08676 0
M  V30 4689 H 448.568 1.15455 -2.30278 0
M  V30 4690 H 448.526 2.72207 -1.57323 0
M  V30 4691 N 452.299 1.55045 -0.282633 0
M  V30 4692 C 453.209 2.26491 0.61147 0
M  V30 4693 C 454.225 1.29348 1.16384 0
M  V30 4694 O 455.401 1.62298 1.19253 0
M  V30 4695 C 452.466 2.97779 1.77563 0
M  V30 4696 C 451.527 4.10418 1.25919 0
M  V30 4697 C 450.76 4.78297 2.36786 0
M  V30 4698 O 450.983 4.45426 3.56303 0
M  V30 4699 O 449.917 5.66089 2.04517 0
M  V30 4700 H 453.743 3.03683 0.0324615 0
M  V30 4701 H 451.328 1.49317 -0.0497576 0
M  V30 4702 H 453.21 3.42554 2.45427 0
M  V30 4703 H 451.885 2.23498 2.34159 0
M  V30 4704 H 450.792 3.70082 0.546797 0
M  V30 4705 H 452.125 4.86622 0.738887 0
M  V30 4706 N 453.777 0.010035 1.57597 0
M  V30 4707 C 455.005 -0.683413 1.95287 0
M  V30 4708 C 455.42 -1.66747 0.885481 0
M  V30 4709 O 454.777 -1.82003 -0.134629 0
M  V30 4710 C 454.828 -1.40652 3.33015 0
M  V30 4711 O 454.549 -0.461916 4.35658 0
M  V30 4712 C 456.05 -2.19356 3.85225 0
M  V30 4713 H 453.27 -0.189708 0.643624 0
M  V30 4714 H 455.814 0.0641359 2.04399 0
M  V30 4715 H 453.969 -2.10562 3.2518 0
M  V30 4716 H 454.383 -0.973215 5.15392 0
M  V30 4717 H 455.857 -2.65433 4.83993 0
M  V30 4718 H 456.334 -3.02457 3.18459 0
M  V30 4719 H 456.94 -1.54442 3.96267 0
M  V30 4720 N 455.255 -1.55392 -0.262866 0
M  V30 4721 C 456.501 -1.76737 -0.99458 0
M  V30 4722 C 456.834 -0.572453 -1.85571 0
M  V30 4723 O 456.109 0.429732 -1.89693 0
M  V30 4724 C 456.392 -3.07824 -1.8686 0
M  V30 4725 C 456.245 -4.3769 -1.03672 0
M  V30 4726 C 457.564 -3.35021 -2.85393 0
M  V30 4727 H 454.683 -0.643005 -0.360157 0
M  V30 4728 H 457.325 -1.88126 -0.266216 0
M  V30 4729 H 455.475 -2.98245 -2.48962 0
M  V30 4730 H 457.147 -4.59238 -0.43563 0
M  V30 4731 H 455.39 -4.32461 -0.340513 0
M  V30 4732 H 456.061 -5.25759 -1.6817 0
M  V30 4733 H 458.537 -3.44458 -2.33426 0
M  V30 4734 H 457.413 -4.27989 -3.43681 0
M  V30 4735 H 457.674 -2.55153 -3.61039 0
M  V30 4736 N 456.733 0.527833 -1.48498 0
M  V30 4737 C 457.958 1.313 -1.60546 0
M  V30 4738 C 458.383 1.86199 -0.26672 0
M  V30 4739 O 457.741 1.64513 0.761918 0
M  V30 4740 C 457.789 2.43818 -2.65678 0
M  V30 4741 O 456.893 3.46916 -2.22987 0
M  V30 4742 H 456.234 0.388784 -0.538277 0
M  V30 4743 H 458.764 0.634896 -1.945 0
M  V30 4744 H 458.774 2.89973 -2.87018 0
M  V30 4745 H 457.449 2.03222 -3.62869 0
M  V30 4746 H 456.026 3.06864 -2.11869 0
M  V30 4747 O 458.25 1.46817 0.672841 0
M  V30 4748 H 458.941 1.41236 1.3256 0
M  V30 END ATOM
M  V30 BEGIN BOND
M  V30 END BOND
M  V30 END CTAB
M  END
$$$$
