drugbank_target|O00299 Chloride intracellular channel protein 1 (DB09130; DB11638)
 OpenBabel12092121023D

  0  0  0     0  0            999 V3000
M  V30 BEGIN CTAB
M  V30 COUNTS 3787 3825 0 0 0
M  V30 BEGIN ATOM
M  V30 1 H -0.908 1.98254 -0.117106 0
M  V30 2 N 0 1.576 0 0
M  V30 3 C 0.933 2.03868 1.02534 0
M  V30 4 C 1.911 0.928543 1.3348 0
M  V30 5 O 3.095 1.19667 1.45644 0
M  V30 6 C 0.222 2.43627 2.35294 0
M  V30 7 C -0.732 3.65373 2.2001 0
M  V30 8 S 0.101 5.13292 1.52614 0
M  V30 9 C 1.257 5.56322 2.86805 0
M  V30 10 H 1.49 2.90518 0.631377 0
M  V30 11 H -0.977 1.52953 0.210867 0
M  V30 12 H 0.981 2.67203 3.11629 0
M  V30 13 H -0.358 1.57376 2.7183 0
M  V30 14 H -1.165 3.90944 3.18086 0
M  V30 15 H -1.563 3.418 1.51819 0
M  V30 16 H 0.729 5.58782 3.83104 0
M  V30 17 H 1.672 6.56266 2.65933 0
M  V30 18 H 2.08 4.83886 2.90714 0
M  V30 19 N 1.4781 -0.272755 1.55222 0
M  V30 20 C 2.4411 -1.32041 1.87344 0
M  V30 21 C 3.4411 -1.42342 0.74803 0
M  V30 22 O 4.6311 -1.41488 1.0162 0
M  V30 23 C 1.7631 -2.70173 2.07893 0
M  V30 24 H 2.9561 -1.04789 2.80997 0
M  V30 25 H 0.5091 -0.51083 1.47717 0
M  V30 26 H 1.2441 -3.02605 1.16622 0
M  V30 27 H 1.0291 -2.64082 2.89833 0
M  V30 28 H 2.5191 -3.45869 2.34017 0
M  V30 29 N 2.9562 -1.48159 -0.537278 0
M  V30 30 C 3.8662 -1.64807 -1.6696 0
M  V30 31 C 4.8822 -0.530651 -1.65711 0
M  V30 32 O 6.0582 -0.800784 -1.84796 0
M  V30 33 C 3.1232 -1.67708 -3.03438 0
M  V30 34 C 2.1842 -2.91025 -3.156 0
M  V30 35 C 1.4172 -2.93778 -4.45567 0
M  V30 36 O 1.6402 -2.05153 -5.3223 0
M  V30 37 O 0.5742 -3.85868 -4.61941 0
M  V30 38 H 4.4002 -2.6066 -1.55853 0
M  V30 39 H 1.9852 -1.31475 -0.709549 0
M  V30 40 H 3.8672 -1.7218 -3.84619 0
M  V30 41 H 2.5422 -0.750278 -3.14885 0
M  V30 42 H 1.4492 -2.92089 -2.33741 0
M  V30 43 H 2.7822 -3.83065 -3.09066 0
M  V30 44 N 4.4343 0.785586 -1.36625 0
M  V30 45 C 5.3443 1.92964 -1.33425 0
M  V30 46 C 6.3603 1.72394 -0.235851 0
M  V30 47 O 7.5363 1.95866 -0.468878 0
M  V30 48 C 4.6013 3.27884 -1.12662 0
M  V30 49 C 3.6623 3.61204 -2.32013 0
M  V30 50 C 2.8953 4.89687 -2.12231 0
M  V30 51 O 3.1183 5.59704 -1.09945 0
M  V30 52 O 2.0523 5.21752 -3.00098 0
M  V30 53 H 5.8783 1.98613 -2.29753 0
M  V30 54 H 3.4633 0.926384 -1.17211 0
M  V30 55 H 5.3453 4.08614 -1.03016 0
M  V30 56 H 4.0203 3.23118 -0.193991 0
M  V30 57 H 2.9273 2.80765 -2.47228 0
M  V30 58 H 4.2603 3.70698 -3.23796 0
M  V30 59 N 5.9124 1.20967 1.01018 0
M  V30 60 C 6.8444 0.922059 2.09835 0
M  V30 61 C 7.8574 -0.0927106 1.62536 0
M  V30 62 O 9.0464 0.139127 1.77957 0
M  V30 63 C 6.1464 0.362004 3.36961 0
M  V30 64 C 5.3194 1.42986 4.13369 0
M  V30 65 C 4.3784 0.879976 5.1879 0
M  V30 66 O 3.4044 1.56219 5.47343 0
M  V30 67 N 4.6064 -0.307396 5.79686 0
M  V30 68 H 7.3714 1.8588 2.35093 0
M  V30 69 H 4.9324 1.11422 1.1746 0
M  V30 70 H 6.9244 -0.0201474 4.04695 0
M  V30 71 H 5.4944 -0.479437 3.08902 0
M  V30 72 H 4.7144 1.98608 3.40512 0
M  V30 73 H 6.0024 2.14885 4.61196 0
M  V30 74 H 5.4004 -0.878796 5.58832 0
M  V30 75 H 3.9574 -0.631115 6.48737 0
M  V30 76 N 7.3905 -1.2043 1.01659 0
M  V30 77 C 8.8015 -1.71517 0.737482 0
M  V30 78 C 9.1525 -1.81547 -0.743973 0
M  V30 79 O 8.2775 -1.47803 -1.58061 0
M  V30 80 C 8.8725 -3.11515 1.33206 0
M  V30 81 C 7.4315 -3.59912 1.10183 0
M  V30 82 C 6.5785 -2.37116 1.43776 0
M  V30 83 H 9.5295 -1.05444 1.18606 0
M  V30 84 H 9.5505 -3.73575 0.722636 0
M  V30 85 H 9.0625 -3.04182 2.41028 0
M  V30 86 H 7.1635 -3.72577 0.0412756 0
M  V30 87 H 7.2765 -4.44731 1.78188 0
M  V30 88 H 5.6405 -2.39857 0.856778 0
M  V30 89 H 6.4235 -2.32424 2.52654 0
M  V30 90 N 8.8686 -0.792821 -1.36206 0
M  V30 91 C 9.8006 -0.151469 -2.28699 0
M  V30 92 C 10.8136 0.641262 -1.49638 0
M  V30 93 O 12.0026 0.475885 -1.72039 0
M  V30 94 C 9.1026 0.808424 -3.29117 0
M  V30 95 C 8.2756 0.0650202 -4.37352 0
M  V30 96 C 7.3346 0.941358 -5.17711 0
M  V30 97 O 6.3606 0.397352 -5.67811 0
M  V30 98 N 7.5626 2.2652 -5.3448 0
M  V30 99 H 10.3276 -0.945982 -2.84379 0
M  V30 100 H 7.8886 -0.647032 -1.48409 0
M  V30 101 H 9.8806 1.3986 -3.79765 0
M  V30 102 H 8.4506 1.5038 -2.74052 0
M  V30 103 H 7.6706 -0.706255 -3.87822 0
M  V30 104 H 8.9586 -0.447847 -5.06825 0
M  V30 105 H 8.3566 2.73128 -4.95396 0
M  V30 106 H 6.9136 2.80493 -5.88359 0
M  V30 107 N 10.3467 1.47872 -0.545128 0
M  V30 108 C 11.5927 2.02793 -0.0166104 0
M  V30 109 C 11.9257 1.41987 1.32489 0
M  V30 110 O 11.2007 0.571045 1.85928 0
M  V30 111 C 11.4837 3.59989 0.0893294 0
M  V30 112 C 11.3367 4.3125 -1.27841 0
M  V30 113 C 12.6557 4.32606 0.808724 0
M  V30 114 H 9.7747 0.736962 -0.00751035 0
M  V30 115 H 12.4167 1.76433 -0.705085 0
M  V30 116 H 10.5667 3.82579 0.675681 0
M  V30 117 H 12.2387 4.20035 -1.90704 0
M  V30 118 H 10.4817 3.92076 -1.85632 0
M  V30 119 H 11.1527 5.39736 -1.15713 0
M  V30 120 H 13.6287 4.14936 0.310992 0
M  V30 121 H 12.5047 5.42251 0.851782 0
M  V30 122 H 12.7657 4.00963 1.86229 0
M  V30 123 N 11.8248 0.280983 1.55075 0
M  V30 124 C 12.7348 -0.61388 2.26426 0
M  V30 125 C 13.7508 -1.16521 1.29224 0
M  V30 126 O 14.9268 -1.19426 1.62171 0
M  V30 127 C 11.9918 -1.7788 2.9759 0
M  V30 128 C 11.0528 -1.26355 4.10284 0
M  V30 129 C 10.2858 -2.37295 4.78045 0
M  V30 130 O 10.5088 -3.56777 4.45047 0
M  V30 131 O 9.4428 -2.05119 5.65871 0
M  V30 132 H 13.2688 -0.0356932 3.03679 0
M  V30 133 H 10.8538 0.0481686 1.49322 0
M  V30 134 H 12.7358 -2.45791 3.42293 0
M  V30 135 H 11.4108 -2.34397 2.23249 0
M  V30 136 H 10.3178 -0.550735 3.70024 0
M  V30 137 H 11.6508 -0.744065 4.86543 0
M  V30 138 N 13.3029 -1.57598 0.00835791 0
M  V30 139 C 14.2329 -2.1198 -0.979113 0
M  V30 140 C 15.2139 -1.03091 -1.35301 0
M  V30 141 O 16.3989 -1.30818 -1.43528 0
M  V30 142 C 13.5289 -2.62995 -2.26828 0
M  V30 143 C 12.4829 -3.76485 -2.03576 0
M  V30 144 C 11.8089 -4.13846 -3.38579 0
M  V30 145 C 13.1089 -5.0342 -1.39161 0
M  V30 146 H 14.8029 -2.94738 -0.526281 0
M  V30 147 H 12.3489 -1.41783 -0.251704 0
M  V30 148 H 14.3019 -2.99669 -2.96271 0
M  V30 149 H 13.0259 -1.7737 -2.7424 0
M  V30 150 H 11.6849 -3.40217 -1.36557 0
M  V30 151 H 11.3329 -3.25232 -3.83709 0
M  V30 152 H 11.0329 -4.90312 -3.23834 0
M  V30 153 H 12.5569 -4.53086 -4.09323 0
M  V30 154 H 13.9709 -5.37812 -1.98573 0
M  V30 155 H 12.3679 -5.84746 -1.34878 0
M  V30 156 H 13.4379 -4.83548 -0.361868 0
M  V30 157 N 14.781 0.264519 -1.55364 0
M  V30 158 C 16.028 0.994986 -1.7637 0
M  V30 159 C 16.356 1.85976 -0.5695 0
M  V30 160 O 15.611 1.90509 0.44776 0
M  V30 161 C 15.91 1.9004 -3.02687 0
M  V30 162 C 15.576 1.19243 -4.34847 0
M  V30 163 C 14.238 0.996709 -4.70764 0
M  V30 164 C 16.59 0.689296 -5.16622 0
M  V30 165 C 13.918 0.285261 -5.86006 0
M  V30 166 C 16.27 -0.00860079 -6.32599 0
M  V30 167 C 14.934 -0.215963 -6.67151 0
M  V30 168 H 14.204 0.364091 -0.645383 0
M  V30 169 H 16.851 0.266543 -1.89636 0
M  V30 170 H 15.156 2.69533 -2.84357 0
M  V30 171 H 16.853 2.46695 -3.16137 0
M  V30 172 H 13.443 1.3549 -4.06621 0
M  V30 173 H 17.627 0.828108 -4.89342 0
M  V30 174 H 12.883 0.113961 -6.11294 0
M  V30 175 H 17.057 -0.406186 -6.95214 0
M  V30 176 H 14.684 -0.769217 -7.56298 0
M  V30 177 N 16.2591 1.48442 0.529413 0
M  V30 178 C 17.5051 1.5672 1.28711 0
M  V30 179 C 17.8381 0.2406 1.92704 0
M  V30 180 O 17.1131 -0.753454 1.79313 0
M  V30 181 C 17.3961 2.70587 2.37603 0
M  V30 182 C 17.2491 4.12953 1.78297 0
M  V30 183 C 18.5681 2.80212 3.39366 0
M  V30 184 H 15.6871 0.570474 0.466613 0
M  V30 185 H 18.3291 1.80617 0.589706 0
M  V30 186 H 16.4791 2.50342 2.97088 0
M  V30 187 H 18.1511 4.44639 1.22858 0
M  V30 188 H 16.3941 4.19927 1.0883 0
M  V30 189 H 17.0651 4.88448 2.57144 0
M  V30 190 H 19.5411 2.98553 2.89836 0
M  V30 191 H 18.4171 3.61611 4.12951 0
M  V30 192 H 18.6781 1.88393 3.99951 0
M  V30 193 N 17.7372 -0.778329 1.37039 0
M  V30 194 C 18.6842 -1.89139 1.32269 0
M  V30 195 C 19.6542 -1.65017 0.189387 0
M  V30 196 O 20.8392 -1.87024 0.377693 0
M  V30 197 C 17.9792 -3.26112 1.12894 0
M  V30 198 C 17.0922 -3.62233 2.35396 0
M  V30 199 C 16.2272 -4.8838 2.08946 0
M  V30 200 C 15.2662 -5.17212 3.2735 0
M  V30 201 N 14.4032 -6.34546 3.00492 0
M  V30 202 H 19.2432 -1.92552 2.27437 0
M  V30 203 H 16.7802 -0.941473 1.13025 0
M  V30 204 H 18.7382 -4.05116 0.996835 0
M  V30 205 H 17.3682 -3.22091 0.213758 0
M  V30 206 H 16.4202 -2.78265 2.5937 0
M  V30 207 H 17.7322 -3.79481 3.23721 0
M  V30 208 H 16.8862 -5.75274 1.92729 0
M  V30 209 H 15.6252 -4.73222 1.17949 0
M  V30 210 H 14.6302 -4.28796 3.44113 0
M  V30 211 H 15.8552 -5.34283 4.19188 0
M  V30 212 H 13.8012 -6.20759 2.12118 0
M  V30 213 H 13.7182 -6.52179 3.82358 0
M  V30 214 H 14.9862 -7.24394 2.87879 0
M  V30 215 N 19.2153 -1.21501 -1.00376 0
M  V30 216 C 20.1783 -0.976927 -2.07337 0
M  V30 217 C 21.1783 0.0525322 -1.60714 0
M  V30 218 O 22.3683 -0.184869 -1.73216 0
M  V30 219 C 19.5003 -0.473423 -3.37597 0
M  V30 220 H 20.6933 -1.92587 -2.29892 0
M  V30 221 H 18.2463 -1.03217 -1.17371 0
M  V30 222 H 18.9813 0.480379 -3.20722 0
M  V30 223 H 18.7663 -1.216 -3.72768 0
M  V30 224 H 20.2563 -0.32675 -4.1632 0
M  V30 225 N 20.6934 1.19889 -1.02296 0
M  V30 226 C 21.9414 1.89046 -0.714558 0
M  V30 227 C 22.2624 1.79636 0.758681 0
M  V30 228 O 21.5324 1.20292 1.54618 0
M  V30 229 H 20.1124 0.699802 -0.261317 0
M  V30 230 H 22.7744 1.45574 -1.29592 0
M  V30 231 H 21.8704 2.95524 -1.0036 0
M  V30 232 N 22.1715 0.800033 1.35784 0
M  V30 233 C 23.3965 0.388511 2.03729 0
M  V30 234 C 23.8215 -0.990481 1.5991 0
M  V30 235 O 23.1795 -1.64013 0.772612 0
M  V30 236 C 23.2275 0.4726 3.5749 0
M  V30 237 O 22.3315 -0.51646 4.09153 0
M  V30 238 H 21.6725 0.163271 0.643614 0
M  V30 239 H 24.2025 1.0841 1.73518 0
M  V30 240 H 24.2125 0.34003 4.06581 0
M  V30 241 H 22.8875 1.47848 3.88734 0
M  V30 242 H 21.4645 -0.344673 3.71304 0
M  V30 243 N 23.6496 -1.47581 0.552962 0
M  V30 244 C 24.9266 -1.95563 -0.0381515 0
M  V30 245 C 25.3066 -1.49552 -1.48988 0
M  V30 246 O 24.6546 -0.732414 -2.16444 0
M  V30 247 C 24.8646 -3.48848 0.102919 0
M  V30 248 C 26.2126 -4.24577 -0.0446082 0
M  V30 249 O 27.2366 -3.56187 0.0302548 0
M  V30 250 O 26.0956 -5.46116 -0.204923 0
M  V30 251 H 23.1896 -0.824321 -0.0665067 0
M  V30 252 H 25.7356 -1.58001 0.619186 0
M  V30 253 H 24.5076 -3.75129 1.11328 0
M  V30 254 H 24.1306 -3.93165 -0.592224 0
M  V30 255 N 25.1277 -0.289203 -1.54924 0
M  V30 256 C 26.3757 0.322879 -1.99504 0
M  V30 257 C 26.6967 1.55313 -1.1791 0
M  V30 258 O 25.9667 1.94001 -0.272097 0
M  V30 259 H 24.5467 0.122291 -0.736922 0
M  V30 260 H 27.2087 -0.397802 -1.90797 0
M  V30 261 H 26.3047 0.603061 -3.06218 0
M  V30 262 N 26.6058 1.57591 -0.0167156 0
M  V30 263 C 27.5688 2.08393 0.954204 0
M  V30 264 C 28.5688 0.996531 1.26198 0
M  V30 265 O 29.7588 1.25858 1.20438 0
M  V30 266 C 26.8908 2.5394 2.27436 0
M  V30 267 H 28.0838 2.95455 0.514451 0
M  V30 268 H 25.6368 1.54582 0.231089 0
M  V30 269 H 26.3718 1.70171 2.76066 0
M  V30 270 H 26.1568 3.33371 2.06412 0
M  V30 271 H 27.6468 2.93512 2.97053 0
M  V30 272 N 28.0839 -0.256276 1.55502 0
M  V30 273 C 29.0309 -1.31714 1.89526 0
M  V30 274 C 30.0009 -1.4828 0.748479 0
M  V30 275 O 31.1859 -1.62416 1.00128 0
M  V30 276 C 28.3259 -2.66933 2.18725 0
M  V30 277 C 27.4389 -2.58452 3.4616 0
M  V30 278 C 26.5739 -3.85961 3.64976 0
M  V30 279 C 25.6129 -3.72059 4.86044 0
M  V30 280 N 24.7499 -4.9144 5.01429 0
M  V30 281 H 29.5899 -1.01998 2.80001 0
M  V30 282 H 27.1269 -0.492413 1.38613 0
M  V30 283 H 29.0849 -3.4563 2.33657 0
M  V30 284 H 27.7149 -2.94816 1.31466 0
M  V30 285 H 26.7669 -1.71374 3.3961 0
M  V30 286 H 28.0789 -2.44085 4.34999 0
M  V30 287 H 27.2329 -4.73101 3.79816 0
M  V30 288 H 25.9719 -4.03215 2.74353 0
M  V30 289 H 24.9769 -2.83302 4.7119 0
M  V30 290 H 26.2019 -3.56309 5.78118 0
M  V30 291 H 24.1479 -5.09072 4.13741 0
M  V30 292 H 24.0649 -4.79668 5.84341 0
M  V30 293 H 25.3329 -5.80104 5.20672 0
M  V30 294 N 29.562 -1.4872 -0.521534 0
M  V30 295 C 30.811 -1.56419 -1.27341 0
M  V30 296 C 31.124 -0.246805 -1.94037 0
M  V30 297 O 32.33 -0.202122 -2.70747 0
M  V30 298 C 30.786 -2.75896 -2.31105 0
M  V30 299 C 30.394 -4.14311 -1.70441 0
M  V30 300 C 32.138 -2.92913 -3.07249 0
M  V30 301 C 30.045 -5.25038 -2.72194 0
M  V30 302 H 28.975 -0.582344 -0.478949 0
M  V30 303 H 31.626 -1.75071 -0.549779 0
M  V30 304 H 30.008 -2.50697 -3.06541 0
M  V30 305 H 31.182 -4.49564 -1.01136 0
M  V30 306 H 29.497 -4.02482 -1.06759 0
M  V30 307 H 32.094 -3.72805 -3.83302 0
M  V30 308 H 32.437 -2.02689 -3.63625 0
M  V30 309 H 32.97 -3.18054 -2.38928 0
M  V30 310 H 29.709 -6.17255 -2.20627 0
M  V30 311 H 29.229 -4.94263 -3.39801 0
M  V30 312 H 30.908 -5.53508 -3.35019 0
M  V30 313 N 31.0401 0.771051 -1.3745 0
M  V30 314 C 32.2881 1.52661 -1.32435 0
M  V30 315 C 32.6091 1.9479 0.0905024 0
M  V30 316 O 31.8791 1.66348 1.03466 0
M  V30 317 H 30.4591 0.566218 -0.487244 0
M  V30 318 H 33.1211 0.917636 -1.71946 0
M  V30 319 H 32.2171 2.42568 -1.96385 0
M  V30 320 N 32.5182 1.22032 0.997298 0
M  V30 321 C 33.4662 0.983634 2.10778 0
M  V30 322 C 34.4602 -0.0717564 1.69248 0
M  V30 323 O 35.6662 0.080304 1.79821 0
M  V30 324 H 32.0412 0.300877 0.689186 0
M  V30 325 H 34.0122 1.92606 2.27916 0
M  V30 326 C 32.7612 0.57326 3.42942 0
M  V30 327 H 32.0842 1.37702 3.75338 0
M  V30 328 H 33.5242 0.447031 4.21637 0
M  V30 329 C 31.9832 -0.7167 3.29188 0
M  V30 330 O 32.5132 -1.77027 3.60589 0
M  V30 331 N 30.7192 -0.686167 2.82383 0
M  V30 332 H 30.2662 0.171507 2.57028 0
M  V30 333 H 30.2242 -1.54955 2.73562 0
M  V30 334 N 33.9963 -1.19345 1.0293 0
M  V30 335 C 35.2363 -1.90738 0.734727 0
M  V30 336 C 35.6003 -1.7785 -0.723414 0
M  V30 337 O 36.8013 -2.43844 -1.13108 0
M  V30 338 C 35.0723 -3.37569 1.17396 0
M  V30 339 S 36.6313 -4.27176 1.00329 0
M  V30 340 H 33.4493 -0.658771 0.267474 0
M  V30 341 H 36.0513 -1.4428 1.31922 0
M  V30 342 H 34.7553 -3.44475 2.23081 0
M  V30 343 H 34.2863 -3.8906 0.582772 0
M  V30 344 H 36.3013 -4.96126 -0.0859152 0
M  V30 345 N 35.4744 -0.807222 -1.35358 0
M  V30 346 C 36.8854 -0.44876 -1.81226 0
M  V30 347 C 37.2364 1.02929 -1.67033 0
M  V30 348 O 36.3614 1.79991 -1.20133 0
M  V30 349 C 36.9564 -0.807774 -3.2903 0
M  V30 350 C 35.5154 -0.501901 -3.73039 0
M  V30 351 C 34.6624 -1.03304 -2.57339 0
M  V30 352 H 37.6134 -0.998808 -1.23327 0
M  V30 353 H 37.6344 -0.10554 -3.80354 0
M  V30 354 H 37.1464 -1.88357 -3.39328 0
M  V30 355 H 35.2474 0.565128 -3.68289 0
M  V30 356 H 35.3604 -1.03497 -4.67787 0
M  V30 357 H 33.7244 -0.455339 -2.50597 0
M  V30 358 H 34.5074 -2.11496 -2.70415 0
M  V30 359 N 36.9525 1.47285 -0.560781 0
M  V30 360 C 38.1995 2.02464 -0.038062 0
M  V30 361 C 38.5275 1.43474 1.31322 0
M  V30 362 O 37.7825 0.581311 1.86867 0
M  V30 363 C 38.0815 3.57258 0.100784 0
M  V30 364 C 37.7475 4.35184 -1.18007 0
M  V30 365 C 36.4095 4.56194 -1.53103 0
M  V30 366 C 38.7615 4.80098 -2.02867 0
M  V30 367 C 36.0895 5.19367 -2.729 0
M  V30 368 C 38.4415 5.44593 -3.21871 0
M  V30 369 C 37.1055 5.63835 -3.57276 0
M  V30 370 H 36.3755 0.740869 -0.0139279 0
M  V30 371 H 39.0225 1.76916 -0.733012 0
M  V30 372 H 37.3275 3.81819 0.878724 0
M  V30 373 H 39.0245 3.97606 0.520639 0
M  V30 374 H 35.6145 4.19113 -0.8968 0
M  V30 375 H 39.7985 4.63642 -1.7706 0
M  V30 376 H 35.0545 5.32459 -3.00496 0
M  V30 377 H 39.2285 5.78358 -3.87911 0
M  V30 378 H 36.8555 6.12557 -4.50197 0
M  V30 379 N 38.4306 0.297415 1.54768 0
M  V30 380 C 39.6556 -0.318435 2.04941 0
M  V30 381 C 40.0806 -1.4701 1.17345 0
M  V30 382 O 39.4386 -1.80436 0.176758 0
M  V30 383 C 39.4866 -0.755749 3.52592 0
M  V30 384 O 38.5906 -1.86088 3.68028 0
M  V30 385 H 37.9316 -0.062421 0.661059 0
M  V30 386 H 40.4616 0.438215 1.99852 0
M  V30 387 H 40.4716 -1.04552 3.94376 0
M  V30 388 H 39.1466 0.0867233 4.1581 0
M  V30 389 H 37.7236 -1.57193 3.38149 0
M  V30 390 N 39.9087 -1.5758 0.0250728 0
M  V30 391 C 40.8407 -2.06869 -0.986796 0
M  V30 392 C 41.8537 -0.991332 -1.29137 0
M  V30 393 O 43.0427 -1.26761 -1.25674 0
M  V30 394 C 40.1427 -2.47486 -2.31525 0
M  V30 395 C 39.3157 -3.78253 -2.19643 0
M  V30 396 C 38.3747 -4.05464 -3.35388 0
M  V30 397 O 37.4007 -4.75774 -3.12454 0
M  V30 398 N 38.6027 -3.55321 -4.59051 0
M  V30 399 H 41.3677 -2.94302 -0.566276 0
M  V30 400 H 38.9287 -1.6109 -0.161776 0
M  V30 401 H 40.9207 -2.62785 -3.07776 0
M  V30 402 H 39.4907 -1.65441 -2.65232 0
M  V30 403 H 38.7107 -3.7279 -1.28144 0
M  V30 404 H 39.9987 -4.63936 -2.08903 0
M  V30 405 H 39.3967 -2.98431 -4.80578 0
M  V30 406 H 37.9537 -3.75905 -5.32483 0
M  V30 407 N 41.3868 0.248026 -1.55636 0
M  V30 408 C 42.8028 0.596483 -1.48035 0
M  V30 409 C 43.0028 1.88386 -0.715039 0
M  V30 410 O 42.0588 2.51319 -0.243944 0
M  V30 411 C 43.3718 0.700258 -2.92433 0
M  V30 412 C 44.9198 0.792659 -3.02797 0
M  V30 413 C 45.3948 0.928005 -4.485 0
M  V30 414 N 46.8858 0.992903 -4.52433 0
M  V30 415 C 47.6208 1.11687 -5.62418 0
M  V30 416 N 47.1168 1.20645 -6.82214 0
M  V30 417 N 48.9098 1.14994 -5.50212 0
M  V30 418 H 41.0608 -0.597109 -2.03834 0
M  V30 419 H 43.3238 -0.205925 -0.925364 0
M  V30 420 H 43.0298 -0.175658 -3.51261 0
M  V30 421 H 42.9038 1.57255 -3.42857 0
M  V30 422 H 45.2908 1.65903 -2.4405 0
M  V30 423 H 45.3718 -0.104762 -2.55585 0
M  V30 424 H 45.0158 0.0661971 -5.07857 0
M  V30 425 H 44.9458 1.84045 -4.93391 0
M  V30 426 H 47.4368 0.935064 -3.66149 0
M  V30 427 H 47.7498 1.30008 -7.61786 0
M  V30 428 H 46.0948 1.17605 -6.84977 0
M  V30 429 H 49.2858 1.07643 -4.55555 0
M  V30 430 H 49.4588 1.24311 -6.35965 0
M  V30 431 N 42.8649 1.48995 0.513639 0
M  V30 432 C 43.7949 1.67636 1.62544 0
M  V30 433 C 44.7759 0.525087 1.61793 0
M  V30 434 O 45.9609 0.759502 1.78732 0
M  V30 435 C 43.0909 1.73114 3.01079 0
M  V30 436 C 42.0449 2.87905 3.16693 0
M  V30 437 C 41.3709 2.78486 4.56453 0
M  V30 438 C 42.6709 4.29005 2.97913 0
M  V30 439 H 44.3649 2.60716 1.47198 0
M  V30 440 H 41.9109 1.25465 0.706714 0
M  V30 441 H 43.8639 1.84742 3.78746 0
M  V30 442 H 42.5879 0.766241 3.17484 0
M  V30 443 H 41.2469 2.75859 2.41448 0
M  V30 444 H 40.8949 1.7993 4.69717 0
M  V30 445 H 40.5949 3.55523 4.67843 0
M  V30 446 H 42.1189 2.92104 5.36197 0
M  V30 447 H 43.5329 4.41798 3.65359 0
M  V30 448 H 41.9299 5.07166 3.20785 0
M  V30 449 H 42.9999 4.44329 1.94165 0
M  V30 450 N 44.343 -0.763751 1.37857 0
M  V30 451 C 45.59 -1.52257 1.33506 0
M  V30 452 C 45.918 -1.94343 -0.078022 0
M  V30 453 O 45.173 -1.64958 -1.05297 0
M  V30 454 C 45.472 -2.79499 2.22745 0
M  V30 455 C 45.138 -2.56426 3.70886 0
M  V30 456 C 43.8 -2.49842 4.11257 0
M  V30 457 C 46.152 -2.36008 4.64704 0
M  V30 458 C 43.48 -2.20841 5.43549 0
M  V30 459 C 45.832 -2.0853 5.97242 0
M  V30 460 C 44.496 -2.00396 6.36709 0
M  V30 461 H 43.766 -0.557149 0.488534 0
M  V30 462 H 46.413 -0.879073 1.70131 0
M  V30 463 H 44.718 -3.48447 1.79142 0
M  V30 464 H 46.415 -3.37413 2.16688 0
M  V30 465 H 43.005 -2.62416 3.38874 0
M  V30 466 H 47.189 -2.40079 4.34368 0
M  V30 467 H 42.445 -2.13045 5.73081 0
M  V30 468 H 46.619 -1.91732 6.69486 0
M  V30 469 H 44.246 -1.77688 7.39142 0
M  V30 470 N 45.8211 -1.22559 -0.990812 0
M  V30 471 C 46.7541 -0.940773 -2.07905 0
M  V30 472 C 47.7321 0.117082 -1.62178 0
M  V30 473 O 48.9161 -0.0149506 -1.88494 0
M  V30 474 C 46.0431 -0.415321 -3.36144 0
M  V30 475 C 45.0891 -1.45818 -4.00799 0
M  V30 476 S 45.9221 -3.03219 -4.41382 0
M  V30 477 C 47.0781 -2.52317 -5.72789 0
M  V30 478 H 47.3111 -1.8623 -2.31745 0
M  V30 479 H 44.8441 -1.05688 -1.12558 0
M  V30 480 H 46.8021 -0.118747 -4.10328 0
M  V30 481 H 45.4631 0.485121 -3.10331 0
M  V30 482 H 44.6561 -1.04044 -4.93144 0
M  V30 483 H 44.2581 -1.70356 -3.32949 0
M  V30 484 H 46.5501 -1.93688 -6.49224 0
M  V30 485 H 47.4931 -3.43161 -6.19392 0
M  V30 486 H 47.9011 -1.93529 -5.30289 0
M  V30 487 N 47.2992 1.18797 -1.03562 0
M  V30 488 C 48.5452 1.8893 -0.737113 0
M  V30 489 C 48.8782 1.79837 0.732956 0
M  V30 490 O 48.1532 1.19525 1.5344 0
M  V30 491 C 48.4362 3.39607 -1.19745 0
M  V30 492 C 48.2892 3.57537 -2.72924 0
M  V30 493 C 49.6082 4.33069 -0.783526 0
M  V30 494 H 46.7272 0.686057 -0.269249 0
M  V30 495 H 49.3692 1.39797 -1.28673 0
M  V30 496 H 47.5192 3.81583 -0.729855 0
M  V30 497 H 49.1912 3.24688 -3.27682 0
M  V30 498 H 47.4342 3.00363 -3.12993 0
M  V30 499 H 48.1052 4.63238 -3.00191 0
M  V30 500 H 50.5812 3.98846 -1.18581 0
M  V30 501 H 49.4572 5.3707 -1.13343 0
M  V30 502 H 49.7182 4.40986 0.313681 0
M  V30 503 N 48.7773 0.814389 1.34928 0
M  V30 504 C 49.7073 0.244827 2.32213 0
M  V30 505 C 50.6883 -0.634024 1.57842 0
M  V30 506 O 51.8733 -0.562676 1.8587 0
M  V30 507 C 49.0033 -0.601106 3.42058 0
M  V30 508 C 47.9573 0.179896 4.27622 0
M  V30 509 C 47.2833 -0.788237 5.28858 0
M  V30 510 C 48.5833 1.38329 5.03649 0
M  V30 511 H 50.2773 1.05763 2.80097 0
M  V30 512 H 47.8233 0.510029 1.34665 0
M  V30 513 H 49.7763 -1.00968 4.09125 0
M  V30 514 H 48.5003 -1.44688 2.92802 0
M  V30 515 H 47.1593 0.569739 3.62146 0
M  V30 516 H 46.8073 -1.62973 4.75866 0
M  V30 517 H 46.5073 -0.269942 5.8698 0
M  V30 518 H 48.0313 -1.19485 5.98795 0
M  V30 519 H 49.4453 1.04918 5.63618 0
M  V30 520 H 47.8423 1.83662 5.71304 0
M  V30 521 H 48.9123 2.16592 4.33839 0
M  V30 522 N 50.2554 -1.46986 0.568584 0
M  V30 523 C 51.5014 -2.0332 0.0571487 0
M  V30 524 C 51.8564 -1.43384 -1.28291 0
M  V30 525 O 51.1494 -0.584304 -1.82473 0
M  V30 526 C 51.3434 -3.57306 -0.081836 0
M  V30 527 C 51.1724 -4.32174 1.24321 0
M  V30 528 C 49.9424 -4.71633 1.81358 0
M  V30 529 C 52.1404 -4.66598 2.16312 0
M  V30 530 N 50.1224 -5.31191 3.07748 0
M  V30 531 C 51.4934 -5.26578 3.27285 0
M  V30 532 C 53.5484 -4.48527 2.16166 0
M  V30 533 C 52.2514 -5.70395 4.38226 0
M  V30 534 C 54.2774 -4.93351 3.26127 0
M  V30 535 C 53.6394 -5.5339 4.3582 0
M  V30 536 H 49.7384 -0.77943 0.063351 0
M  V30 537 H 52.3224 -1.79323 0.758378 0
M  V30 538 H 50.4934 -3.81046 -0.752207 0
M  V30 539 H 52.2254 -4.00282 -0.59637 0
M  V30 540 H 48.9804 -4.53946 1.35019 0
M  V30 541 H 49.4044 -5.65505 3.72201 0
M  V30 542 H 54.0464 -4.01456 1.32638 0
M  V30 543 H 51.7644 -6.16452 5.22506 0
M  V30 544 H 55.3504 -4.81131 3.27115 0
M  V30 545 H 54.2304 -5.87441 5.19503 0
M  V30 546 N 51.7335 -0.305618 -1.54608 0
M  V30 547 C 52.6635 0.561482 -2.26649 0
M  V30 548 C 53.6445 1.13415 -1.26772 0
M  V30 549 O 54.8295 1.16262 -1.55553 0
M  V30 550 C 51.9595 1.73122 -3.01075 0
M  V30 551 C 50.9135 1.2887 -4.08138 0
M  V30 552 C 50.2395 2.54396 -4.70305 0
M  V30 553 C 51.5395 0.416578 -5.20636 0
M  V30 554 H 53.2335 -0.0393902 -2.99374 0
M  V30 555 H 50.7795 -0.020385 -1.43986 0
M  V30 556 H 52.7325 2.34396 -3.50195 0
M  V30 557 H 51.4565 2.3584 -2.25936 0
M  V30 558 H 50.1155 0.698991 -3.59875 0
M  V30 559 H 49.7635 3.15439 -3.918 0
M  V30 560 H 49.4635 2.25486 -5.42614 0
M  V30 561 H 50.9875 3.16464 -5.2219 0
M  V30 562 H 52.4015 0.935116 -5.65622 0
M  V30 563 H 50.7985 0.221046 -5.99693 0
M  V30 564 H 51.8685 -0.557162 -4.81688 0
M  V30 565 N 53.2116 1.57565 -0.0334293 0
M  V30 566 C 54.1586 2.10478 0.946981 0
M  V30 567 C 55.1286 1.00787 1.32027 0
M  V30 568 O 56.3136 1.28232 1.41284 0
M  V30 569 C 53.4536 2.63994 2.22263 0
M  V30 570 C 52.5666 3.87709 1.90541 0
M  V30 571 C 51.7016 4.29604 3.12433 0
M  V30 572 C 50.7406 5.46065 2.76549 0
M  V30 573 N 49.8776 5.83096 3.9108 0
M  V30 574 H 54.7176 2.93963 0.488846 0
M  V30 575 H 52.2546 1.45296 0.22969 0
M  V30 576 H 54.2126 2.93114 2.96884 0
M  V30 577 H 52.8426 1.83333 2.65685 0
M  V30 578 H 51.8946 3.65291 1.06144 0
M  V30 579 H 53.2066 4.72403 1.60116 0
M  V30 580 H 52.3606 4.60182 3.9537 0
M  V30 581 H 51.0996 3.43685 3.46023 0
M  V30 582 H 50.1046 5.15176 1.92026 0
M  V30 583 H 51.3296 6.33685 2.44171 0
M  V30 584 H 49.2756 5.00132 4.24504 0
M  V30 585 H 49.1926 6.6244 3.64293 0
M  V30 586 H 50.4606 6.18282 4.74708 0
M  V30 587 N 54.6897 -0.239769 1.55765 0
M  V30 588 C 55.9377 -0.964892 1.77579 0
M  V30 589 C 56.2587 -1.85582 0.598699 0
M  V30 590 O 55.5287 -1.92075 -0.385226 0
M  V30 591 H 54.1087 -0.359265 0.654933 0
M  V30 592 H 56.7707 -0.256001 1.93211 0
M  V30 593 H 55.8667 -1.58243 2.69009 0
M  V30 594 N 56.1678 -1.49265 -0.50573 0
M  V30 595 C 57.4138 -1.58748 -1.26202 0
M  V30 596 C 57.7468 -0.271227 -1.92297 0
M  V30 597 O 57.0218 0.724831 -1.80489 0
M  V30 598 C 57.3048 -2.74332 -2.33268 0
M  V30 599 C 57.1578 -4.15737 -1.71705 0
M  V30 600 C 58.4768 -2.85576 -3.34865 0
M  V30 601 H 55.5958 -0.577826 -0.457478 0
M  V30 602 H 58.2378 -1.81532 -0.560897 0
M  V30 603 H 56.3878 -2.55036 -2.93068 0
M  V30 604 H 58.0598 -4.46537 -1.15769 0
M  V30 605 H 56.3028 -4.21605 -1.02135 0
M  V30 606 H 56.9738 -4.92477 -2.49341 0
M  V30 607 H 59.4498 -3.03127 -2.8505 0
M  V30 608 H 58.3258 -3.68135 -4.07146 0
M  V30 609 H 58.5868 -1.94732 -3.96903 0
M  V30 610 N 57.6459 0.756429 -1.3826 0
M  V30 611 C 58.8739 1.54565 -1.3754 0
M  V30 612 C 59.2889 1.88767 0.0355331 0
M  V30 613 O 58.6459 1.52572 1.0014 0
M  V30 614 C 58.6969 2.84654 -2.22833 0
M  V30 615 O 58.4179 2.51912 -3.5843 0
M  V30 616 C 59.9189 3.78807 -2.30261 0
M  V30 617 H 57.1389 0.478353 -0.470553 0
M  V30 618 H 59.6829 0.936381 -1.81803 0
M  V30 619 H 57.8379 3.41965 -1.8204 0
M  V30 620 H 58.2519 3.35325 -4.03308 0
M  V30 621 H 59.7259 4.67045 -2.94233 0
M  V30 622 H 60.2029 4.19038 -1.31545 0
M  V30 623 H 60.8089 3.2742 -2.71433 0
M  V30 624 N 59.124 1.23083 0.984299 0
M  V30 625 C 60.371 1.06057 1.72505 0
M  V30 626 C 60.699 -0.403105 1.90277 0
M  V30 627 O 59.954 -1.3149 1.44944 0
M  V30 628 C 60.253 1.72673 3.1292 0
M  V30 629 C 59.919 3.22586 3.15038 0
M  V30 630 C 58.581 3.63489 3.15324 0
M  V30 631 C 60.933 4.185 3.10657 0
M  V30 632 C 58.261 4.98772 3.08939 0
M  V30 633 C 60.613 5.53769 3.05814 0
M  V30 634 C 59.277 5.94041 3.04419 0
M  V30 635 H 58.547 0.388091 0.631242 0
M  V30 636 H 61.194 1.52963 1.15215 0
M  V30 637 H 59.499 1.18116 3.73572 0
M  V30 638 H 61.196 1.56982 3.68996 0
M  V30 639 H 57.786 2.90022 3.15571 0
M  V30 640 H 61.97 3.87911 3.09579 0
M  V30 641 H 57.226 5.29193 3.0621 0
M  V30 642 H 61.4 6.27808 3.0138 0
M  V30 643 H 59.027 6.98833 2.99227 0
M  V30 644 N 60.6021 -1.18246 1.0419 0
M  V30 645 C 61.5501 -2.23968 0.627792 0
M  V30 646 C 62.5441 -1.65828 -0.346019 0
M  V30 647 O 63.7501 -1.78733 -0.213175 0
M  V30 648 H 60.1251 -0.728939 0.184802 0
M  V30 649 H 62.0961 -2.56202 1.52981 0
M  V30 650 C 60.8451 -3.47699 0.00796591 0
M  V30 651 H 60.1681 -3.92734 0.748347 0
M  V30 652 H 61.6081 -4.23294 -0.24455 0
M  V30 653 C 60.0671 -3.13153 -1.24246 0
M  V30 654 O 60.5971 -3.27003 -2.33307 0
M  V30 655 N 58.8031 -2.67467 -1.13622 0
M  V30 656 H 58.3501 -2.56396 -0.248734 0
M  V30 657 H 58.3081 -2.44724 -1.97377 0
M  V30 658 N 62.0802 -0.821533 -1.34494 0
M  V30 659 C 63.3262 -0.409552 -1.98622 0
M  V30 660 C 63.6592 1.0244 -1.64984 0
M  V30 661 O 62.9342 1.71325 -0.920758 0
M  V30 662 C 63.2172 -0.610458 -3.54888 0
M  V30 663 C 63.0702 -2.09043 -3.98273 0
M  V30 664 C 64.3892 -0.0455379 -4.40076 0
M  V30 665 H 61.5082 -0.15028 -0.721516 0
M  V30 666 H 64.1502 -1.03384 -1.59411 0
M  V30 667 H 62.3002 -0.079044 -3.8842 0
M  V30 668 H 63.9722 -2.68537 -3.75081 0
M  V30 669 H 62.2152 -2.58139 -3.48635 0
M  V30 670 H 62.8862 -2.18182 -5.07051 0
M  V30 671 H 65.3622 -0.499557 -4.1309 0
M  V30 672 H 64.2382 -0.215922 -5.48475 0
M  V30 673 H 64.4992 1.04939 -4.29465 0
M  V30 674 N 63.5583 1.46682 -0.576371 0
M  V30 675 C 64.7863 2.06798 -0.0649635 0
M  V30 676 C 65.2013 1.42612 1.23723 0
M  V30 677 O 64.5583 0.529203 1.74659 0
M  V30 678 C 64.6093 3.6132 0.114202 0
M  V30 679 O 64.3303 4.23104 -1.13644 0
M  V30 680 C 65.8313 4.38349 0.66069 0
M  V30 681 H 63.0513 0.668778 -0.0545616 0
M  V30 682 H 65.5953 1.88404 -0.795237 0
M  V30 683 H 63.7503 3.79162 0.794673 0
M  V30 684 H 64.1643 5.15894 -0.946253 0
M  V30 685 H 65.6383 5.47081 0.73526 0
M  V30 686 H 66.1153 4.05953 1.67627 0
M  V30 687 H 66.7213 4.25297 0.0152951 0
M  V30 688 N 65.0364 0.313813 1.54444 0
M  V30 689 C 66.2644 -0.293918 2.04802 0
M  V30 690 C 66.6794 -1.46537 1.19047 0
M  V30 691 O 66.0364 -1.81182 0.218939 0
M  V30 692 C 66.0874 -0.737806 3.53891 0
M  V30 693 O 65.8084 0.387038 4.36387 0
M  V30 694 C 67.3094 -1.40936 4.203 0
M  V30 695 H 64.5294 -0.0620057 0.668129 0
M  V30 696 H 67.0734 0.457169 1.99324 0
M  V30 697 H 65.2284 -1.43889 3.59687 0
M  V30 698 H 65.6424 0.0391274 5.24485 0
M  V30 699 H 67.1164 -1.67099 5.26101 0
M  V30 700 H 67.5934 -2.35355 3.70816 0
M  V30 701 H 68.1994 -0.751117 4.18615 0
M  V30 702 N 66.5145 -1.57545 0.0417849 0
M  V30 703 C 67.7605 -1.92601 -0.635021 0
M  V30 704 C 68.0935 -0.919627 -1.71045 0
M  V30 705 O 67.3685 0.0557892 -1.9442 0
M  V30 706 C 67.6515 -3.38085 -1.23979 0
M  V30 707 C 67.5045 -4.49467 -0.173057 0
M  V30 708 C 68.8235 -3.83776 -2.15416 0
M  V30 709 H 65.9425 -0.700397 -0.229374 0
M  V30 710 H 68.5845 -1.89728 0.101633 0
M  V30 711 H 66.7345 -3.40664 -1.86762 0
M  V30 712 H 68.4065 -4.59018 0.458312 0
M  V30 713 H 66.6495 -4.30909 0.499996 0
M  V30 714 H 67.3205 -5.48323 -0.636054 0
M  V30 715 H 69.7965 -3.83013 -1.62605 0
M  V30 716 H 68.6725 -4.8624 -2.54679 0
M  V30 717 H 68.9335 -3.19998 -3.05047 0
M  V30 718 N 67.9926 0.231505 -1.5589 0
M  V30 719 C 69.2696 0.981096 -1.69215 0
M  V30 720 C 69.6496 2.02799 -0.586164 0
M  V30 721 O 68.9976 2.24823 0.408253 0
M  V30 722 C 69.2076 1.60054 -3.10135 0
M  V30 723 C 70.5556 2.09658 -3.69227 0
M  V30 724 O 71.5796 1.69967 -3.13033 0
M  V30 725 O 70.4386 2.8258 -4.67772 0
M  V30 726 H 67.5326 0.457653 -0.688827 0
M  V30 727 H 70.0786 0.224073 -1.68214 0
M  V30 728 H 68.8506 0.844105 -3.82087 0
M  V30 729 H 68.4736 2.42336 -3.15212 0
M  V30 730 N 69.4707 1.49531 0.497807 0
M  V30 731 C 70.6987 1.62893 1.27567 0
M  V30 732 C 71.1137 0.301585 1.86376 0
M  V30 733 O 70.4707 -0.713335 1.67982 0
M  V30 734 C 70.5217 2.70013 2.40364 0
M  V30 735 O 70.2427 3.976 1.83972 0
M  V30 736 C 71.7437 2.94109 3.31685 0
M  V30 737 H 68.9637 0.548298 0.386794 0
M  V30 738 H 71.5077 1.95584 0.597245 0
M  V30 739 H 69.6627 2.40092 3.04031 0
M  V30 740 H 70.0767 4.56631 2.58047 0
M  V30 741 H 71.5507 3.72788 4.07104 0
M  V30 742 H 72.0277 2.04147 3.88871 0
M  V30 743 H 72.6337 3.2546 2.73781 0
M  V30 744 N 70.9488 -0.749086 1.3866 0
M  V30 745 C 71.8958 -1.86291 1.36251 0
M  V30 746 C 72.8658 -1.64578 0.224347 0
M  V30 747 O 74.0508 -1.86181 0.417279 0
M  V30 748 C 71.1908 -3.23644 1.19786 0
M  V30 749 C 70.3038 -3.57158 2.43027 0
M  V30 750 C 69.4388 -4.83838 2.19258 0
M  V30 751 C 68.4778 -5.10152 3.38247 0
M  V30 752 N 67.6148 -6.28029 3.13884 0
M  V30 753 H 72.4548 -1.87685 2.3147 0
M  V30 754 H 69.9918 -0.917287 1.14997 0
M  V30 755 H 71.9498 -4.0291 1.08254 0
M  V30 756 H 70.5798 -3.21566 0.282031 0
M  V30 757 H 69.6318 -2.72701 2.65214 0
M  V30 758 H 70.9438 -3.7253 3.31697 0
M  V30 759 H 70.0978 -5.71057 2.04888 0
M  V30 760 H 68.8368 -4.70614 1.2796 0
M  V30 761 H 67.8418 -4.21401 3.53131 0
M  V30 762 H 69.0668 -5.25271 4.30427 0
M  V30 763 H 67.0128 -6.1612 2.25238 0
M  V30 764 H 66.9298 -6.43922 3.96106 0
M  V30 765 H 68.1978 -7.18124 3.03179 0
M  V30 766 N 72.4269 -1.23603 -0.977757 0
M  V30 767 C 73.8429 -0.999251 -1.24447 0
M  V30 768 C 74.0429 0.298053 -1.99283 0
M  V30 769 O 73.0989 1.01681 -2.31122 0
M  V30 770 C 74.4119 -2.20784 -2.04144 0
M  V30 771 C 75.9599 -2.25303 -2.17273 0
M  V30 772 C 76.4349 -3.45755 -3.00362 0
M  V30 773 N 77.9259 -3.4601 -3.07947 0
M  V30 774 C 78.6609 -4.35868 -3.72568 0
M  V30 775 N 78.1569 -5.35966 -4.38991 0
M  V30 776 N 79.9499 -4.23605 -3.6948 0
M  V30 777 H 72.1009 -2.06986 -0.476483 0
M  V30 778 H 74.3639 -0.907801 -0.273134 0
M  V30 779 H 74.0699 -3.14945 -1.56533 0
M  V30 780 H 73.9439 -2.22085 -3.04891 0
M  V30 781 H 76.3309 -1.3168 -2.64092 0
M  V30 782 H 76.4119 -2.28033 -1.15907 0
M  V30 783 H 76.0559 -4.39687 -2.5424 0
M  V30 784 H 75.9859 -3.40266 -4.01904 0
M  V30 785 H 78.4769 -2.73588 -2.60688 0
M  V30 786 H 78.7899 -6.00783 -4.86086 0
M  V30 787 H 77.1349 -5.39863 -4.37691 0
M  V30 788 H 80.3259 -3.44647 -3.16759 0
M  V30 789 H 80.4989 -4.93836 -4.1956 0
M  V30 790 N 73.905 1.17692 -1.04816 0
M  V30 791 C 75.321 1.39863 -0.768794 0
M  V30 792 C 75.521 1.91118 0.638451 0
M  V30 793 O 74.577 2.10036 1.40146 0
M  V30 794 C 75.89 2.39274 -1.82122 0
M  V30 795 C 77.438 2.52987 -1.843 0
M  V30 796 C 77.913 3.55669 -2.88555 0
M  V30 797 N 79.404 3.63183 -2.87493 0
M  V30 798 C 80.139 4.42381 -3.64811 0
M  V30 799 N 79.635 5.25125 -4.51903 0
M  V30 800 N 81.428 4.37217 -3.53267 0
M  V30 801 H 73.579 0.82752 -1.95617 0
M  V30 802 H 75.842 0.426123 -0.846831 0
M  V30 803 H 75.548 2.08678 -2.83102 0
M  V30 804 H 75.422 3.38725 -1.65967 0
M  V30 805 H 77.809 2.82896 -0.839869 0
M  V30 806 H 77.89 1.53623 -2.04532 0
M  V30 807 H 77.534 3.26499 -3.89051 0
M  V30 808 H 77.464 4.54728 -2.65575 0
M  V30 809 H 79.955 3.04103 -2.24343 0
M  V30 810 H 80.268 5.82728 -5.07591 0
M  V30 811 H 78.613 5.24519 -4.55966 0
M  V30 812 H 81.804 3.71626 -2.84625 0
M  V30 813 H 81.977 4.98696 -4.13771 0
M  V30 814 N 75.3831 0.828654 1.34056 0
M  V30 815 C 76.6111 0.43262 2.02326 0
M  V30 816 C 77.0261 -0.963147 1.62385 0
M  V30 817 O 76.3831 -1.62425 0.832121 0
M  V30 818 C 76.4341 0.53182 3.57567 0
M  V30 819 O 76.1551 1.87258 3.96063 0
M  V30 820 C 77.6561 0.131422 4.43105 0
M  V30 821 H 74.8761 0.172923 0.648335 0
M  V30 822 H 77.4201 1.1184 1.71208 0
M  V30 823 H 75.5751 -0.105938 3.87255 0
M  V30 824 H 75.9891 1.85087 4.90758 0
M  V30 825 H 77.4631 0.251904 5.51425 0
M  V30 826 H 77.9401 -0.925645 4.29335 0
M  V30 827 H 78.5461 0.743207 4.18756 0
M  V30 828 N 76.8612 -1.46375 0.584142 0
M  V30 829 C 77.7712 -2.34115 -0.150728 0
M  V30 830 C 78.7872 -1.49838 -0.884567 0
M  V30 831 O 79.9632 -1.82704 -0.847429 0
M  V30 832 C 77.0282 -3.2705 -1.15062 0
M  V30 833 C 76.0892 -4.27228 -0.421293 0
M  V30 834 C 75.3222 -5.15722 -1.37355 0
M  V30 835 O 75.5452 -5.07176 -2.61014 0
M  V30 836 O 74.4792 -5.95383 -0.883355 0
M  V30 837 H 78.3052 -2.98309 0.569708 0
M  V30 838 H 75.8902 -1.45373 0.344535 0
M  V30 839 H 77.7722 -3.84381 -1.72712 0
M  V30 840 H 76.4472 -2.65451 -1.8525 0
M  V30 841 H 75.3542 -3.7358 0.197085 0
M  V30 842 H 76.6872 -4.91616 0.239641 0
M  V30 843 N 78.3393 -0.321999 -1.54275 0
M  V30 844 C 79.5673 0.283052 -2.04955 0
M  V30 845 C 79.9823 1.45904 -1.19823 0
M  V30 846 O 79.3393 1.81063 -0.228545 0
M  V30 847 C 79.3903 0.719028 -3.54277 0
M  V30 848 O 79.1113 -0.410175 -4.36176 0
M  V30 849 C 80.6123 1.38705 -4.21041 0
M  V30 850 H 77.8323 0.0584616 -0.668448 0
M  V30 851 H 80.3763 -0.467734 -1.99079 0
M  V30 852 H 78.5313 1.41979 -3.60445 0
M  V30 853 H 78.9453 -0.0669416 -5.24457 0
M  V30 854 H 80.4193 1.64306 -5.2698 0
M  V30 855 H 80.8963 2.33385 -3.72059 0
M  V30 856 H 81.5023 0.728906 -4.19007 0
M  V30 857 N 79.8174 1.5752 -0.0501392 0
M  V30 858 C 81.0634 1.92936 0.624798 0
M  V30 859 C 81.3964 0.928685 1.70555 0
M  V30 860 O 80.6714 -0.0454779 1.94447 0
M  V30 861 C 80.9544 3.38737 1.22185 0
M  V30 862 C 80.8074 4.49552 0.149218 0
M  V30 863 C 82.1264 3.84913 2.13378 0
M  V30 864 H 79.2454 0.701604 0.225657 0
M  V30 865 H 81.8874 1.89671 -0.111693 0
M  V30 866 H 80.0374 3.4165 1.84953 0
M  V30 867 H 81.7094 4.58768 -0.482648 0
M  V30 868 H 79.9524 4.30638 -0.522841 0
M  V30 869 H 80.6234 5.48653 0.606966 0
M  V30 870 H 83.0994 3.8387 1.60572 0
M  V30 871 H 81.9754 4.87584 2.52097 0
M  V30 872 H 82.2364 3.21611 3.03346 0
M  V30 873 N 81.2955 -0.223234 1.56011 0
M  V30 874 C 82.2275 -1.30006 1.88762 0
M  V30 875 C 83.2405 -1.43129 0.775746 0
M  V30 876 O 84.4295 -1.44057 1.05403 0
M  V30 877 C 81.5295 -2.67589 2.07965 0
M  V30 878 C 80.7025 -2.76434 3.38973 0
M  V30 879 C 79.7615 -3.95019 3.47629 0
M  V30 880 O 78.7875 -3.83436 4.20672 0
M  V30 881 N 79.9895 -5.09249 2.78649 0
M  V30 882 H 82.7545 -1.02238 2.81722 0
M  V30 883 H 80.3155 -0.413278 1.56536 0
M  V30 884 H 82.3075 -3.45297 2.11073 0
M  V30 885 H 80.8775 -2.87964 1.21638 0
M  V30 886 H 80.0975 -1.85216 3.47978 0
M  V30 887 H 81.3855 -2.79313 4.25278 0
M  V30 888 H 80.7835 -5.21556 2.19081 0
M  V30 889 H 79.3405 -5.85007 2.8742 0
M  V30 890 N 82.7736 -1.49793 -0.48987 0
M  V30 891 C 83.7206 -1.67281 -1.59014 0
M  V30 892 C 84.6906 -0.514177 -1.57941 0
M  V30 893 O 85.8756 -0.742533 -1.75759 0
M  V30 894 C 83.0156 -1.75569 -2.97102 0
M  V30 895 C 82.1286 -3.0281 -3.08107 0
M  V30 896 C 81.2636 -3.02008 -4.36995 0
M  V30 897 C 80.3026 -4.23782 -4.41673 0
M  V30 898 N 79.4396 -4.20826 -5.62005 0
M  V30 899 H 84.2796 -2.61224 -1.43409 0
M  V30 900 H 81.8166 -1.29508 -0.697565 0
M  V30 901 H 83.7746 -1.78354 -3.77155 0
M  V30 902 H 82.4046 -0.850827 -3.11385 0
M  V30 903 H 81.4566 -3.09584 -2.21047 0
M  V30 904 H 82.7686 -3.92801 -3.07423 0
M  V30 905 H 81.9226 -3.03418 -5.25378 0
M  V30 906 H 80.6616 -2.09815 -4.4026 0
M  V30 907 H 79.6666 -4.22604 -3.5169 0
M  V30 908 H 80.8916 -5.17181 -4.40115 0
M  V30 909 H 78.8376 -3.31476 -5.66091 0
M  V30 910 H 78.7546 -5.04564 -5.62984 0
M  V30 911 H 80.0226 -4.26355 -6.52565 0
M  V30 912 N 84.2517 0.741722 -1.39055 0
M  V30 913 C 85.1817 1.869 -1.39966 0
M  V30 914 C 86.1627 1.6804 -0.26392 0
M  V30 915 O 87.3477 1.88458 -0.468755 0
M  V30 916 C 84.4777 3.24572 -1.23574 0
M  V30 917 C 83.4317 3.58056 -2.34477 0
M  V30 918 C 82.7577 4.94593 -2.0318 0
M  V30 919 C 84.0577 3.61716 -3.76774 0
M  V30 920 H 85.7517 1.86395 -2.34302 0
M  V30 921 H 83.2977 0.895361 -1.1278 0
M  V30 922 H 85.2507 4.031 -1.22834 0
M  V30 923 H 83.9747 3.25587 -0.257045 0
M  V30 924 H 82.6337 2.81854 -2.34423 0
M  V30 925 H 82.2817 4.92181 -1.03765 0
M  V30 926 H 81.9817 5.17964 -2.77465 0
M  V30 927 H 83.5057 5.75486 -2.04079 0
M  V30 928 H 84.9197 4.30335 -3.78794 0
M  V30 929 H 83.3167 3.96603 -4.50362 0
M  V30 930 H 84.3867 2.61672 -4.08235 0
M  V30 931 N 85.7298 1.2412 0.971189 0
M  V30 932 C 86.9698 1.09066 1.7287 0
M  V30 933 C 87.3338 -0.364794 1.88503 0
M  V30 934 O 88.5348 -0.636748 2.61149 0
M  V30 935 C 86.8058 1.80629 3.08396 0
M  V30 936 S 88.3648 1.81263 3.99611 0
M  V30 937 H 85.1828 0.390145 0.594397 0
M  V30 938 H 87.7848 1.57397 1.15959 0
M  V30 939 H 86.4888 2.85647 2.94676 0
M  V30 940 H 86.0198 1.32617 3.70373 0
M  V30 941 H 88.0348 0.877804 4.88374 0
M  V30 942 N 87.2079 -1.17134 1.05439 0
M  V30 943 C 88.6189 -1.69084 0.791676 0
M  V30 944 C 88.9699 -1.83822 -0.685839 0
M  V30 945 O 88.0949 -1.52757 -1.53278 0
M  V30 946 C 88.6899 -3.07119 1.4305 0
M  V30 947 C 87.2489 -3.56225 1.21577 0
M  V30 948 C 86.3959 -2.32421 1.51247 0
M  V30 949 H 89.3469 -1.01617 1.219 0
M  V30 950 H 89.3679 -3.71087 0.84112 0
M  V30 951 H 88.8799 -2.9636 2.50584 0
M  V30 952 H 86.9809 -3.72257 0.159787 0
M  V30 953 H 87.0939 -4.38837 1.92246 0
M  V30 954 H 85.4579 -2.3701 0.932653 0
M  V30 955 H 86.2409 -2.24268 2.5992 0
M  V30 956 N 88.686 -0.835752 -1.33615 0
M  V30 957 C 89.934 -0.429109 -1.97492 0
M  V30 958 C 90.255 1.01433 -1.66543 0
M  V30 959 O 89.525 1.70611 -0.962744 0
M  V30 960 H 88.105 -0.155686 -0.730596 0
M  V30 961 H 90.767 -1.06802 -1.63031 0
M  V30 962 H 89.863 -0.55861 -3.0706 0
M  V30 963 N 90.1641 1.46063 -0.591896 0
M  V30 964 C 91.4121 2.01938 -0.0808391 0
M  V30 965 C 91.7331 1.46475 1.28725 0
M  V30 966 O 91.0031 0.652944 1.84698 0
M  V30 967 H 89.5831 0.746516 -0.0268938 0
M  V30 968 H 92.2451 1.79055 -0.769752 0
M  V30 969 H 91.3411 3.12094 -0.0187578 0
M  V30 970 N 91.6422 0.330177 1.54103 0
M  V30 971 C 92.5742 -0.566902 2.22079 0
M  V30 972 C 93.5872 -1.07462 1.22294 0
M  V30 973 O 94.7762 -0.987065 1.48726 0
M  V30 974 C 91.8762 -1.79138 2.87685 0
M  V30 975 C 91.0492 -1.42123 4.13666 0
M  V30 976 C 90.1082 -2.50394 4.62806 0
M  V30 977 O 89.1342 -2.14261 5.27334 0
M  V30 978 N 90.3362 -3.81433 4.37595 0
M  V30 979 H 93.1012 0.0151844 2.99696 0
M  V30 980 H 90.6622 0.153681 1.61169 0
M  V30 981 H 92.6542 -2.50975 3.1748 0
M  V30 982 H 91.2242 -2.28115 2.13734 0
M  V30 983 H 90.4442 -0.534201 3.90564 0
M  V30 984 H 91.7322 -1.14971 4.9564 0
M  V30 985 H 91.1302 -4.13584 3.8596 0
M  V30 986 H 89.6872 -4.4948 4.72029 0
M  V30 987 N 93.1203 -1.57491 0.0584922 0
M  V30 988 C 94.0503 -2.14988 -0.911178 0
M  V30 989 C 95.0313 -1.07343 -1.31952 0
M  V30 990 O 96.2163 -1.35318 -1.39294 0
M  V30 991 C 93.3463 -2.70078 -2.18347 0
M  V30 992 C 92.3003 -3.82771 -1.91495 0
M  V30 993 C 91.6263 -4.24408 -3.25241 0
M  V30 994 C 92.9263 -5.07592 -1.23075 0
M  V30 995 H 94.6203 -2.96263 -0.432246 0
M  V30 996 H 92.1663 -1.42512 -0.206469 0
M  V30 997 H 94.1193 -3.08943 -2.86587 0
M  V30 998 H 92.8433 -1.86005 -2.68458 0
M  V30 999 H 91.5023 -3.44389 -1.25664 0
M  V30 1000 H 91.1503 -3.37275 -3.73168 0
M  V30 1001 H 90.8503 -5.00366 -3.08071 0
M  V30 1002 H 92.3743 -4.65879 -3.94701 0
M  V30 1003 H 93.7883 -5.43857 -1.81362 0
M  V30 1004 H 92.1853 -5.88741 -1.16207 0
M  V30 1005 H 93.2553 -4.84454 -0.207847 0
M  V30 1006 N 94.5984 0.214957 -1.56127 0
M  V30 1007 C 96.0094 0.781386 -1.69562 0
M  V30 1008 C 96.3604 1.84707 -0.66165 0
M  V30 1009 O 95.4854 2.156 0.185927 0
M  V30 1010 C 96.0804 1.42411 -3.07416 0
M  V30 1011 C 94.6394 1.93786 -3.22683 0
M  V30 1012 C 93.7864 0.800438 -2.65496 0
M  V30 1013 H 96.7374 -0.00980633 -1.58697 0
M  V30 1014 H 96.7584 2.29309 -3.0364 0
M  V30 1015 H 96.2704 0.64826 -3.82648 0
M  V30 1016 H 94.3714 2.74152 -2.52332 0
M  V30 1017 H 94.4844 2.1133 -4.29973 0
M  V30 1018 H 92.8484 1.2095 -2.2415 0
M  V30 1019 H 93.6314 0.0371471 -3.4328 0
M  V30 1020 N 96.0765 1.50051 0.48192 0
M  V30 1021 C 97.3235 1.60498 1.23477 0
M  V30 1022 C 97.6515 0.300331 1.92167 0
M  V30 1023 O 96.9065 -0.713094 1.82246 0
M  V30 1024 C 97.2055 2.72717 2.30998 0
M  V30 1025 C 96.8715 4.13572 1.79636 0
M  V30 1026 C 95.5335 4.519 1.65348 0
M  V30 1027 C 97.8855 5.01649 1.41412 0
M  V30 1028 C 95.2135 5.76057 1.11244 0
M  V30 1029 C 97.5655 6.26343 0.887538 0
M  V30 1030 C 96.2295 6.63483 0.731207 0
M  V30 1031 H 95.4995 0.587303 0.451836 0
M  V30 1032 H 98.1465 1.83948 0.532468 0
M  V30 1033 H 96.4515 2.43312 3.07094 0
M  V30 1034 H 98.1485 2.78006 2.88988 0
M  V30 1035 H 94.7385 3.83329 1.91721 0
M  V30 1036 H 98.9225 4.72679 1.51289 0
M  V30 1037 H 94.1785 6.03516 0.978686 0
M  V30 1038 H 98.3525 6.93958 0.582654 0
M  V30 1039 H 95.9795 7.59568 0.309806 0
M  V30 1040 N 97.5546 -0.734337 1.39446 0
M  V30 1041 C 98.4846 -1.86155 1.40955 0
M  V30 1042 C 99.4656 -1.67898 0.272827 0
M  V30 1043 O 100.651 -1.88207 0.478743 0
M  V30 1044 C 97.7806 -3.23912 1.25294 0
M  V30 1045 C 96.7346 -3.56808 2.36373 0
M  V30 1046 C 96.0606 -4.93508 2.058 0
M  V30 1047 C 97.3606 -3.59713 3.78687 0
M  V30 1048 H 99.0546 -1.8515 2.35287 0
M  V30 1049 H 96.6006 -0.889367 1.13253 0
M  V30 1050 H 98.5536 -4.02443 1.2497 0
M  V30 1051 H 97.2776 -3.25446 0.274308 0
M  V30 1052 H 95.9366 -2.80606 2.35914 0
M  V30 1053 H 95.5846 -4.91623 1.06374 0
M  V30 1054 H 95.2846 -5.16486 2.80208 0
M  V30 1055 H 96.8086 -5.74396 2.07128 0
M  V30 1056 H 98.2226 -4.2832 3.81071 0
M  V30 1057 H 96.6196 -3.94209 4.52459 0
M  V30 1058 H 97.6896 -2.59504 4.09617 0
M  V30 1059 N 99.0327 -1.24633 -0.964593 0
M  V30 1060 C 99.9627 -1.06611 -2.07741 0
M  V30 1061 C 100.944 0.0218666 -1.70086 0
M  V30 1062 O 102.129 -0.145793 -1.93652 0
M  V30 1063 C 99.2587 -0.673444 -3.40708 0
M  V30 1064 C 98.2127 -1.71054 -3.92332 0
M  V30 1065 C 97.5387 -1.17285 -5.21678 0
M  V30 1066 C 98.8387 -3.10718 -4.19824 0
M  V30 1067 H 100.533 -1.99693 -2.23076 0
M  V30 1068 H 98.0787 -0.96152 -1.07195 0
M  V30 1069 H 100.032 -0.534345 -4.17998 0
M  V30 1070 H 98.7557 0.293073 -3.25282 0
M  V30 1071 H 97.4147 -1.83791 -3.17201 0
M  V30 1072 H 97.0627 -0.196847 -5.02615 0
M  V30 1073 H 96.7627 -1.86592 -5.57187 0
M  V30 1074 H 98.2867 -1.04593 -6.01575 0
M  V30 1075 H 99.7007 -3.01192 -4.87808 0
M  V30 1076 H 98.0977 -3.77406 -4.66567 0
M  V30 1077 H 99.1677 -3.58524 -3.26479 0
M  V30 1078 N 100.511 1.16574 -1.06058 0
M  V30 1079 C 101.741 1.90675 -0.795397 0
M  V30 1080 C 102.149 1.77547 0.653735 0
M  V30 1081 O 101.492 1.11611 1.45907 0
M  V30 1082 C 101.554 3.42011 -1.10764 0
M  V30 1083 C 101.218 3.78924 -2.55471 0
M  V30 1084 C 102.215 3.81042 -3.53699 0
M  V30 1085 C 99.8998 4.09626 -2.90708 0
M  V30 1086 C 101.894 4.13346 -4.85205 0
M  V30 1087 C 99.5808 4.41597 -4.22416 0
M  V30 1088 C 100.579 4.43436 -5.19474 0
M  V30 1089 O 100.267 4.74649 -6.48817 0
M  V30 1090 H 99.9988 0.611554 -0.288058 0
M  V30 1091 H 102.553 1.48711 -1.41683 0
M  V30 1092 H 100.783 3.84312 -0.429128 0
M  V30 1093 H 102.472 3.97384 -0.827077 0
M  V30 1094 H 103.238 3.57437 -3.27817 0
M  V30 1095 H 99.1168 4.07361 -2.15819 0
M  V30 1096 H 102.661 4.14696 -5.60957 0
M  V30 1097 H 98.5578 4.64667 -4.48056 0
M  V30 1098 H 99.3258 4.9247 -6.5377 0
M  V30 1099 N 101.989 0.842826 1.3317 0
M  V30 1100 C 103.237 0.439577 1.97262 0
M  V30 1101 C 103.558 -1.00548 1.67078 0
M  V30 1102 O 102.828 -1.70098 0.971779 0
M  V30 1103 H 101.408 0.159558 0.72976 0
M  V30 1104 H 104.07 1.07665 1.62463 0
M  V30 1105 H 103.166 0.574886 3.0676 0
M  V30 1106 N 103.467 -1.45747 0.599634 0
M  V30 1107 C 104.695 -2.06668 0.0978551 0
M  V30 1108 C 105.11 -1.44562 -1.21439 0
M  V30 1109 O 104.467 -0.556923 -1.73795 0
M  V30 1110 C 104.518 -3.61456 -0.0567044 0
M  V30 1111 O 104.239 -4.21242 1.20361 0
M  V30 1112 C 105.74 -4.39345 -0.590869 0
M  V30 1113 H 102.96 -0.667825 0.0651943 0
M  V30 1114 H 105.504 -1.87115 0.82511 0
M  V30 1115 H 103.659 -3.80378 -0.734251 0
M  V30 1116 H 104.073 -5.14323 1.02821 0
M  V30 1117 H 105.547 -5.48182 -0.648131 0
M  V30 1118 H 106.024 -4.08568 -1.61147 0
M  V30 1119 H 106.63 -4.25268 0.0523679 0
M  V30 1120 N 104.945 -0.338344 -1.53925 0
M  V30 1121 C 105.855 0.529421 -2.28548 0
M  V30 1122 C 106.871 1.11645 -1.3346 0
M  V30 1123 O 108.047 1.13325 -1.66492 0
M  V30 1124 C 105.112 1.66713 -3.03987 0
M  V30 1125 C 104.173 1.11041 -4.14691 0
M  V30 1126 C 103.406 2.19389 -4.86522 0
M  V30 1127 O 103.629 3.40013 -4.57982 0
M  V30 1128 O 102.563 1.83976 -5.73094 0
M  V30 1129 H 106.389 -0.0770399 -3.03602 0
M  V30 1130 H 103.974 -0.103555 -1.49041 0
M  V30 1131 H 105.856 2.32918 -3.5118 0
M  V30 1132 H 104.531 2.25949 -2.31794 0
M  V30 1133 H 103.438 0.413024 -3.71813 0
M  V30 1134 H 104.771 0.562975 -4.8897 0
M  V30 1135 N 106.423 1.57458 -0.0668435 0
M  V30 1136 C 107.669 1.93587 0.6043 0
M  V30 1137 C 108.002 0.946722 1.69561 0
M  V30 1138 O 107.277 -0.0248516 1.94484 0
M  V30 1139 C 107.56 3.40014 1.18585 0
M  V30 1140 C 107.413 4.49685 0.101529 0
M  V30 1141 C 108.732 3.87154 2.09284 0
M  V30 1142 H 105.851 0.703958 0.218202 0
M  V30 1143 H 108.493 1.89542 -0.131804 0
M  V30 1144 H 106.643 3.43592 1.81319 0
M  V30 1145 H 108.315 4.5823 -0.531279 0
M  V30 1146 H 106.558 4.30059 -0.568487 0
M  V30 1147 H 107.229 5.49266 0.54874 0
M  V30 1148 H 109.705 3.85551 1.56491 0
M  V30 1149 H 108.581 4.90231 2.46911 0
M  V30 1150 H 108.842 3.2481 2.99918 0
M  V30 1151 N 107.901 -0.206675 1.56239 0
M  V30 1152 C 108.851 -1.26 1.90021 0
M  V30 1153 C 109.835 -1.41566 0.764721 0
M  V30 1154 O 111.027 -1.44131 1.02739 0
M  V30 1155 C 108.156 -2.6073 2.23326 0
M  V30 1156 C 107.242 -2.49005 3.43304 0
M  V30 1157 N 107.633 -2.06946 4.61527 0
M  V30 1158 C 105.931 -2.79927 3.47213 0
M  V30 1159 C 106.632 -2.06832 5.43687 0
M  V30 1160 N 105.608 -2.47892 4.83788 0
M  V30 1161 H 109.41 -0.925955 2.78932 0
M  V30 1162 H 106.924 -0.415172 1.57003 0
M  V30 1163 H 108.921 -3.36798 2.45708 0
M  V30 1164 H 107.581 -2.94968 1.35735 0
M  V30 1165 H 108.592 -1.77839 4.86409 0
M  V30 1166 H 105.269 -3.18438 2.70006 0
M  V30 1167 H 106.659 -1.76312 6.48354 0
M  V30 1168 N 109.379 -1.50304 -0.473955 0
M  V30 1169 C 110.607 -1.64902 -1.24959 0
M  V30 1170 C 111.022 -0.331198 -1.85872 0
M  V30 1171 O 110.379 0.68652 -1.69095 0
M  V30 1172 C 110.43 -2.73803 -2.36038 0
M  V30 1173 O 110.151 -4.00477 -1.77624 0
M  V30 1174 C 111.652 -2.99349 -3.26964 0
M  V30 1175 H 108.872 -0.554383 -0.378022 0
M  V30 1176 H 111.416 -1.9651 -0.566054 0
M  V30 1177 H 109.571 -2.44898 -3.00173 0
M  V30 1178 H 109.985 -4.60678 -2.5075 0
M  V30 1179 H 111.459 -3.79217 -4.01121 0
M  V30 1180 H 111.936 -2.10307 -3.85574 0
M  V30 1181 H 112.542 -3.29774 -2.68569 0
M  V30 1182 N 110.857 0.726932 -1.39834 0
M  V30 1183 C 112.134 1.47902 -1.28001 0
M  V30 1184 C 112.514 2.1083 0.106789 0
M  V30 1185 O 111.862 1.99242 1.11869 0
M  V30 1186 C 112.072 2.52392 -2.41038 0
M  V30 1187 C 113.42 3.18546 -2.80737 0
M  V30 1188 O 114.444 2.62708 -2.40547 0
M  V30 1189 O 113.303 4.19604 -3.50135 0
M  V30 1190 H 110.397 0.657163 -0.502062 0
M  V30 1191 H 112.943 0.760071 -1.51727 0
M  V30 1192 H 111.715 2.04329 -3.33715 0
M  V30 1193 H 111.338 3.31837 -2.19021 0
M  V30 1194 N 112.336 1.25143 0.95797 0
M  V30 1195 C 113.564 1.12424 1.73691 0
M  V30 1196 C 113.979 -0.322304 1.86029 0
M  V30 1197 O 113.336 -1.22186 1.35561 0
M  V30 1198 C 113.387 1.76933 3.15241 0
M  V30 1199 O 113.108 3.15932 3.03511 0
M  V30 1200 C 114.609 1.6995 4.09429 0
M  V30 1201 H 111.829 0.3923 0.544373 0
M  V30 1202 H 114.373 1.6544 1.20207 0
M  V30 1203 H 112.528 1.27895 3.6568 0
M  V30 1204 H 112.942 3.47598 3.9278 0
M  V30 1205 H 114.416 2.19753 5.06372 0
M  V30 1206 H 114.893 0.662619 4.34173 0
M  V30 1207 H 115.499 2.18461 3.64904 0
M  V30 1208 N 113.814 -1.1601 1.06675 0
M  V30 1209 C 114.762 -2.22586 0.675157 0
M  V30 1210 C 115.756 -1.66525 -0.310766 0
M  V30 1211 O 116.962 -1.79145 -0.175215 0
M  V30 1212 H 113.337 -0.724855 0.200223 0
M  V30 1213 H 115.308 -2.52899 1.58381 0
M  V30 1214 C 114.057 -3.47604 0.0817162 0
M  V30 1215 H 113.38 -3.91058 0.831484 0
M  V30 1216 H 114.82 -4.23718 -0.154708 0
M  V30 1217 C 113.279 -3.15718 -1.17576 0
M  V30 1218 O 113.809 -3.31878 -2.26318 0
M  V30 1219 N 112.015 -2.69816 -1.07923 0
M  V30 1220 H 111.562 -2.56866 -0.194293 0
M  V30 1221 H 111.52 -2.48855 -1.92141 0
M  V30 1222 N 115.292 -0.849877 -1.32721 0
M  V30 1223 C 116.239 -0.289033 -2.28983 0
M  V30 1224 C 117.209 0.601324 -1.54833 0
M  V30 1225 O 118.394 0.537253 -1.8308 0
M  V30 1226 C 115.534 0.520623 -3.4115 0
M  V30 1227 C 114.647 -0.394989 -4.3019 0
M  V30 1228 C 113.782 0.426834 -5.29482 0
M  V30 1229 C 112.821 -0.486476 -6.10164 0
M  V30 1230 N 111.958 0.297879 -7.01468 0
M  V30 1231 H 116.798 -1.11519 -2.76347 0
M  V30 1232 H 114.335 -0.56138 -1.35967 0
M  V30 1233 H 116.293 1.00563 -4.04899 0
M  V30 1234 H 114.923 1.31165 -2.9495 0
M  V30 1235 H 113.975 -0.99836 -3.67065 0
M  V30 1236 H 115.287 -1.09612 -4.86607 0
M  V30 1237 H 114.441 0.975205 -5.98811 0
M  V30 1238 H 113.18 1.16136 -4.73671 0
M  V30 1239 H 112.185 -1.04677 -5.39743 0
M  V30 1240 H 113.41 -1.21953 -6.6806 0
M  V30 1241 H 111.356 1.01558 -6.48091 0
M  V30 1242 H 111.273 -0.344318 -7.55216 0
M  V30 1243 H 112.541 0.828131 -7.75089 0
M  V30 1244 N 116.77 1.45427 -0.607355 0
M  V30 1245 C 118.019 2.01452 -0.100036 0
M  V30 1246 C 118.332 1.48159 1.27704 0
M  V30 1247 O 119.538 1.96159 1.87707 0
M  V30 1248 C 117.994 3.59672 -0.128158 0
M  V30 1249 C 117.602 4.21962 -1.50507 0
M  V30 1250 C 119.346 4.23262 0.323932 0
M  V30 1251 C 117.253 5.72333 -1.48959 0
M  V30 1252 H 116.183 0.75325 -0.0336299 0
M  V30 1253 H 118.834 1.66901 -0.76265 0
M  V30 1254 H 117.216 3.91411 0.601105 0
M  V30 1255 H 118.39 4.01796 -2.25602 0
M  V30 1256 H 116.705 3.70565 -1.89923 0
M  V30 1257 H 119.302 5.33522 0.354691 0
M  V30 1258 H 119.645 3.93921 1.34656 0
M  V30 1259 H 120.178 3.96239 -0.352056 0
M  V30 1260 H 116.917 6.06373 -2.48981 0
M  V30 1261 H 116.437 5.94691 -0.781214 0
M  V30 1262 H 118.116 6.35525 -1.21313 0
M  V30 1263 N 118.248 0.346503 1.53744 0
M  V30 1264 C 119.158 -0.517293 2.28826 0
M  V30 1265 C 120.174 -1.10935 1.3405 0
M  V30 1266 O 121.35 -1.1244 1.6709 0
M  V30 1267 C 118.415 -1.65098 3.04866 0
M  V30 1268 C 117.476 -1.0884 4.15274 0
M  V30 1269 C 116.709 -2.16806 4.87679 0
M  V30 1270 O 116.932 -3.3758 4.59778 0
M  V30 1271 O 115.866 -1.80934 5.74061 0
M  V30 1272 H 119.692 0.0931396 3.03557 0
M  V30 1273 H 117.277 0.111458 1.48984 0
M  V30 1274 H 119.159 -2.31053 3.5241 0
M  V30 1275 H 117.834 -2.24717 2.32989 0
M  V30 1276 H 116.741 -0.3933 3.72027 0
M  V30 1277 H 118.074 -0.537036 4.89261 0
M  V30 1278 N 119.726 -1.57421 0.075193 0
M  V30 1279 C 120.636 -2.1642 -0.905511 0
M  V30 1280 C 121.652 -1.12828 -1.32461 0
M  V30 1281 O 122.828 -1.45109 -1.39661 0
M  V30 1282 C 119.893 -2.71693 -2.15369 0
M  V30 1283 C 118.954 -3.90171 -1.79068 0
M  V30 1284 C 118.187 -4.42798 -2.97936 0
M  V30 1285 O 118.41 -3.94416 -4.12058 0
M  V30 1286 O 117.344 -5.34085 -2.77555 0
M  V30 1287 H 121.17 -3.00588 -0.433626 0
M  V30 1288 H 118.755 -1.48664 -0.148067 0
M  V30 1289 H 120.637 -3.07104 -2.88557 0
M  V30 1290 H 119.312 -1.90582 -2.61649 0
M  V30 1291 H 118.219 -3.59606 -1.03122 0
M  V30 1292 H 119.552 -4.72584 -1.37569 0
M  V30 1293 N 121.204 0.198386 -1.56346 0
M  V30 1294 C 122.451 0.919286 -1.80431 0
M  V30 1295 C 122.779 1.83393 -0.647866 0
M  V30 1296 O 122.034 1.92236 0.366556 0
M  V30 1297 C 122.333 1.77031 -3.10475 0
M  V30 1298 C 121.999 1.00693 -4.39513 0
M  V30 1299 C 120.661 0.796145 -4.74568 0
M  V30 1300 C 123.013 0.469559 -5.19081 0
M  V30 1301 C 120.341 0.0364588 -5.86689 0
M  V30 1302 C 122.693 -0.2769 -6.31994 0
M  V30 1303 C 121.357 -0.49873 -6.65634 0
M  V30 1304 H 120.627 0.336391 -0.660244 0
M  V30 1305 H 123.274 0.185872 -1.90596 0
M  V30 1306 H 121.579 2.5723 -2.95533 0
M  V30 1307 H 123.276 2.33065 -3.26315 0
M  V30 1308 H 119.866 1.18122 -4.12001 0
M  V30 1309 H 124.05 0.619816 -4.92414 0
M  V30 1310 H 119.306 -0.145412 -6.11227 0
M  V30 1311 H 123.48 -0.700684 -6.92866 0
M  V30 1312 H 121.107 -1.0893 -7.52355 0
M  V30 1313 N 122.682 1.50554 0.465978 0
M  V30 1314 C 123.612 1.72722 1.57128 0
M  V30 1315 C 124.593 0.576294 1.6004 0
M  V30 1316 O 125.778 0.81598 1.76225 0
M  V30 1317 C 122.908 1.82605 2.95419 0
M  V30 1318 C 121.862 2.97835 3.07373 0
M  V30 1319 C 121.188 2.92867 4.47363 0
M  V30 1320 C 122.488 4.38265 2.84114 0
M  V30 1321 H 124.182 2.65267 1.38829 0
M  V30 1322 H 121.728 1.2765 0.666441 0
M  V30 1323 H 123.681 1.96698 3.72677 0
M  V30 1324 H 122.405 0.866858 3.14886 0
M  V30 1325 H 121.064 2.83401 2.3255 0
M  V30 1326 H 120.712 1.94783 4.63755 0
M  V30 1327 H 120.412 3.70227 4.56296 0
M  V30 1328 H 121.936 3.09015 5.26633 0
M  V30 1329 H 123.35 4.53198 3.51118 0
M  V30 1330 H 121.747 5.17115 3.04487 0
M  V30 1331 H 122.817 4.50281 1.7993 0
M  V30 1332 N 124.16 -0.719506 1.40217 0
M  V30 1333 C 125.07 -1.86378 1.42479 0
M  V30 1334 C 126.086 -1.71073 0.317834 0
M  V30 1335 O 127.262 -1.93406 0.561794 0
M  V30 1336 C 124.327 -3.22136 1.28178 0
M  V30 1337 C 123.388 -3.49723 2.48982 0
M  V30 1338 C 122.621 -4.79004 2.35353 0
M  V30 1339 O 122.844 -5.53821 1.36524 0
M  V30 1340 O 121.778 -5.06839 3.2465 0
M  V30 1341 H 125.604 -1.87425 2.38968 0
M  V30 1342 H 123.189 -0.869405 1.21498 0
M  V30 1343 H 125.071 -4.03234 1.22395 0
M  V30 1344 H 123.746 -3.21825 0.347934 0
M  V30 1345 H 122.653 -2.6865 2.60342 0
M  V30 1346 H 123.986 -3.54828 3.41113 0
M  V30 1347 N 125.638 -1.25649 -0.95132 0
M  V30 1348 C 126.601 -1.06399 -2.03007 0
M  V30 1349 C 127.601 -0.0156794 -1.60792 0
M  V30 1350 O 128.791 -0.25817 -1.72276 0
M  V30 1351 C 125.923 -0.616184 -3.35285 0
M  V30 1352 H 127.116 -2.02164 -2.21517 0
M  V30 1353 H 124.669 -1.08103 -1.12887 0
M  V30 1354 H 125.404 0.343917 -3.22471 0
M  V30 1355 H 125.189 -1.37301 -3.67275 0
M  V30 1356 H 126.679 -0.503032 -4.14559 0
M  V30 1357 N 127.117 1.15442 -1.07289 0
M  V30 1358 C 128.363 1.86489 -0.796846 0
M  V30 1359 C 128.696 1.82078 0.675371 0
M  V30 1360 O 127.971 1.24346 1.4956 0
M  V30 1361 C 128.254 3.35626 -1.30489 0
M  V30 1362 C 128.107 3.48673 -2.84161 0
M  V30 1363 C 129.426 4.30357 -0.920907 0
M  V30 1364 H 126.545 0.677144 -0.290939 0
M  V30 1365 H 129.187 1.35633 -1.33056 0
M  V30 1366 H 127.337 3.79068 -0.850883 0
M  V30 1367 H 129.009 3.14099 -3.37846 0
M  V30 1368 H 127.252 2.90253 -3.22391 0
M  V30 1369 H 127.923 4.53453 -3.14777 0
M  V30 1370 H 130.399 3.94871 -1.3121 0
M  V30 1371 H 129.275 5.33193 -1.30372 0
M  V30 1372 H 129.536 4.4176 0.173226 0
M  V30 1373 N 128.595 0.856903 1.32268 0
M  V30 1374 C 129.525 0.31858 2.31316 0
M  V30 1375 C 130.506 -0.583487 1.59779 0
M  V30 1376 O 131.691 -0.503259 1.87566 0
M  V30 1377 C 128.821 -0.491979 3.43798 0
M  V30 1378 C 127.775 0.315849 4.26833 0
M  V30 1379 C 127.101 -0.619586 5.31098 0
M  V30 1380 C 128.401 1.54282 4.98993 0
M  V30 1381 H 130.095 1.14621 2.76591 0
M  V30 1382 H 127.641 0.552613 1.32974 0
M  V30 1383 H 129.594 -0.879012 4.1213 0
M  V30 1384 H 128.318 -1.35299 2.97257 0
M  V30 1385 H 126.977 0.684664 3.6015 0
M  V30 1386 H 126.625 -1.47751 4.8081 0
M  V30 1387 H 126.325 -0.0830621 5.87541 0
M  V30 1388 H 127.849 -1.00375 6.02293 0
M  V30 1389 H 129.263 1.22796 5.59995 0
M  V30 1390 H 127.66 2.01745 5.65172 0
M  V30 1391 H 128.73 2.30285 4.26728 0
M  V30 1392 N 130.073 -1.45103 0.615059 0
M  V30 1393 C 131.313 -2.04069 0.116282 0
M  V30 1394 C 131.677 -1.4721 -1.2326 0
M  V30 1395 O 132.878 -1.97577 -1.82255 0
M  V30 1396 C 131.149 -3.57298 0.085482 0
M  V30 1397 S 132.708 -4.37394 -0.351015 0
M  V30 1398 H 129.526 -0.709006 0.0532183 0
M  V30 1399 H 132.128 -1.77709 0.81484 0
M  V30 1400 H 130.832 -3.9619 1.0706 0
M  V30 1401 H 130.363 -3.88244 -0.634835 0
M  V30 1402 H 132.378 -4.69734 -1.59889 0
M  V30 1403 N 131.551 -0.354651 -1.53558 0
M  V30 1404 C 132.962 0.126902 -1.86268 0
M  V30 1405 C 133.313 1.49075 -1.27558 0
M  V30 1406 O 132.438 2.08105 -0.5934 0
M  V30 1407 C 133.033 0.237046 -3.3797 0
M  V30 1408 C 131.592 0.662842 -3.70518 0
M  V30 1409 C 130.739 -0.196652 -2.76602 0
M  V30 1410 H 133.69 -0.573849 -1.47962 0
M  V30 1411 H 133.711 1.06259 -3.65362 0
M  V30 1412 H 133.223 -0.755725 -3.80671 0
M  V30 1413 H 131.324 1.66424 -3.33367 0
M  V30 1414 H 131.437 0.445034 -4.77029 0
M  V30 1415 H 129.801 0.332763 -2.52517 0
M  V30 1416 H 130.584 -1.18676 -3.22135 0
M  V30 1417 N 133.029 1.57378 -0.0835403 0
M  V30 1418 C 134.44 1.81261 0.447358 0
M  V30 1419 C 134.791 0.998331 1.68902 0
M  V30 1420 O 133.916 0.224282 2.15235 0
M  V30 1421 C 134.511 3.28767 0.818386 0
M  V30 1422 C 133.07 3.53455 1.29409 0
M  V30 1423 C 132.217 2.75831 0.285024 0
M  V30 1424 H 135.168 1.5566 -0.309115 0
M  V30 1425 H 135.189 3.41459 1.67887 0
M  V30 1426 H 134.701 3.88006 -0.0855019 0
M  V30 1427 H 132.802 2.99534 2.21608 0
M  V30 1428 H 132.915 4.62128 1.2639 0
M  V30 1429 H 131.279 2.42947 0.764767 0
M  V30 1430 H 132.062 3.37813 -0.611341 0
M  V30 1431 N 134.507 -0.190092 1.56449 0
M  V30 1432 C 135.923 -0.54113 1.50146 0
M  V30 1433 C 136.123 -1.85603 0.784465 0
M  V30 1434 O 135.179 -2.5024 0.337051 0
M  V30 1435 C 136.492 -0.591241 2.9483 0
M  V30 1436 C 138.04 -0.679732 3.0553 0
M  V30 1437 C 138.515 -0.760908 4.51635 0
M  V30 1438 N 140.006 -0.824302 4.55806 0
M  V30 1439 C 140.741 -0.907365 5.66175 0
M  V30 1440 N 140.237 -0.952422 6.86222 0
M  V30 1441 N 142.03 -0.94494 5.541 0
M  V30 1442 H 134.181 0.67235 2.01478 0
M  V30 1443 H 136.444 0.240127 0.917084 0
M  V30 1444 H 136.15 0.305905 3.50367 0
M  V30 1445 H 136.024 -1.44422 3.48457 0
M  V30 1446 H 138.411 -1.56731 2.50039 0
M  V30 1447 H 138.492 0.199549 2.5502 0
M  V30 1448 H 138.136 0.122336 5.07753 0
M  V30 1449 H 138.066 -1.65606 4.99882 0
M  V30 1450 H 140.557 -0.798526 3.69367 0
M  V30 1451 H 140.87 -1.01645 7.66086 0
M  V30 1452 H 139.215 -0.921014 6.8887 0
M  V30 1453 H 142.406 -0.906612 4.59236 0
M  V30 1454 H 142.579 -1.00622 6.4014 0
M  V30 1455 N 135.985 -1.50799 -0.457987 0
M  V30 1456 C 137.215 -1.65977 -1.23025 0
M  V30 1457 C 137.623 -0.347918 -1.85974 0
M  V30 1458 O 136.966 0.68148 -1.70592 0
M  V30 1459 C 137.028 -2.70309 -2.3701 0
M  V30 1460 C 136.692 -4.135 -1.94594 0
M  V30 1461 C 137.689 -4.98949 -1.46101 0
M  V30 1462 C 135.374 -4.5949 -2.02915 0
M  V30 1463 C 137.368 -6.28442 -1.06489 0
M  V30 1464 C 135.055 -5.88984 -1.62914 0
M  V30 1465 C 136.053 -6.73286 -1.1478 0
M  V30 1466 O 135.741 -8.00362 -0.75339 0
M  V30 1467 H 135.473 -0.56064 -0.377702 0
M  V30 1468 H 138.027 -1.97857 -0.551537 0
M  V30 1469 H 136.257 -2.337 -3.08093 0
M  V30 1470 H 137.946 -2.74574 -2.98938 0
M  V30 1471 H 138.712 -4.6463 -1.39084 0
M  V30 1472 H 134.591 -3.94009 -2.39328 0
M  V30 1473 H 138.135 -6.94194 -0.688488 0
M  V30 1474 H 134.032 -6.22822 -1.69595 0
M  V30 1475 H 134.8 -8.13744 -0.88108 0
M  V30 1476 N 137.463 0.71206 -1.40597 0
M  V30 1477 C 138.874 1.29135 -1.34837 0
M  V30 1478 C 139.225 1.96186 -0.0235395 0
M  V30 1479 O 138.35 1.97768 0.878444 0
M  V30 1480 C 138.945 2.34827 -2.44217 0
M  V30 1481 C 137.504 2.88371 -2.41907 0
M  V30 1482 C 136.651 1.62202 -2.24913 0
M  V30 1483 H 139.602 0.507944 -1.50352 0
M  V30 1484 H 139.623 3.15749 -2.12327 0
M  V30 1485 H 139.135 1.85996 -3.40627 0
M  V30 1486 H 137.236 3.41422 -1.49204 0
M  V30 1487 H 137.349 3.39925 -3.37621 0
M  V30 1488 H 135.713 1.874 -1.72492 0
M  V30 1489 H 136.496 1.15391 -3.23326 0
M  V30 1490 N 138.941 1.26152 0.944643 0
M  V30 1491 C 139.888 1.07408 2.04285 0
M  V30 1492 C 140.858 -0.0198413 1.66088 0
M  V30 1493 O 142.043 0.139264 1.90291 0
M  V30 1494 C 139.183 0.70945 3.37729 0
M  V30 1495 C 138.296 1.87926 3.88983 0
M  V30 1496 C 137.431 1.45807 5.10797 0
M  V30 1497 C 136.47 2.5964 5.54305 0
M  V30 1498 N 135.607 2.18226 6.67324 0
M  V30 1499 H 140.447 2.01389 2.1965 0
M  V30 1500 H 137.984 1.00275 1.07626 0
M  V30 1501 H 139.942 0.478948 4.14442 0
M  V30 1502 H 138.572 -0.193389 3.2222 0
M  V30 1503 H 137.624 2.22279 3.08701 0
M  V30 1504 H 138.936 2.73377 4.17213 0
M  V30 1505 H 138.09 1.18781 5.94959 0
M  V30 1506 H 136.829 0.574414 4.84305 0
M  V30 1507 H 135.834 2.87399 4.68702 0
M  V30 1508 H 137.059 3.48599 5.828 0
M  V30 1509 H 135.005 1.3229 6.42523 0
M  V30 1510 H 134.922 2.97221 6.95123 0
M  V30 1511 H 136.19 1.94403 7.54869 0
M  V30 1512 N 140.419 -1.14872 1.07899 0
M  V30 1513 C 141.349 -2.2193 0.725887 0
M  V30 1514 C 142.33 -1.67622 -0.28927 0
M  V30 1515 O 143.515 -1.93533 -0.160787 0
M  V30 1516 C 140.645 -3.47061 0.128856 0
M  V30 1517 C 139.599 -4.14363 1.07178 0
M  V30 1518 C 138.925 -5.33636 0.337229 0
M  V30 1519 C 140.225 -4.63492 2.40775 0
M  V30 1520 H 141.919 -2.51724 1.62097 0
M  V30 1521 H 139.465 -1.20991 0.780838 0
M  V30 1522 H 141.418 -4.21199 -0.130147 0
M  V30 1523 H 140.142 -3.16617 -0.80134 0
M  V30 1524 H 138.801 -3.42173 1.3158 0
M  V30 1525 H 138.449 -4.99449 -0.596606 0
M  V30 1526 H 138.149 -5.79609 0.965788 0
M  V30 1527 H 139.673 -6.10539 0.0861567 0
M  V30 1528 H 141.087 -5.2913 2.20669 0
M  V30 1529 H 139.484 -5.20148 2.99276 0
M  V30 1530 H 140.554 -3.78834 3.02676 0
M  V30 1531 N 141.898 -0.863906 -1.31812 0
M  V30 1532 C 142.861 -0.320212 -2.26952 0
M  V30 1533 C 143.861 0.525369 -1.51975 0
M  V30 1534 O 145.051 0.335547 -1.70938 0
M  V30 1535 C 142.183 0.545919 -3.365 0
M  V30 1536 H 143.376 -1.16004 -2.76556 0
M  V30 1537 H 140.929 -0.638995 -1.42641 0
M  V30 1538 H 141.664 1.40718 -2.92179 0
M  V30 1539 H 141.449 -0.0594674 -3.92055 0
M  V30 1540 H 142.939 0.918796 -4.07367 0
M  V30 1541 N 143.376 1.44774 -0.622745 0
M  V30 1542 C 144.339 2.29069 0.0774015 0
M  V30 1543 C 145.339 1.4059 0.780461 0
M  V30 1544 O 146.529 1.62551 0.626322 0
M  V30 1545 C 143.661 3.21974 1.12006 0
M  V30 1546 H 144.854 2.92459 -0.663901 0
M  V30 1547 H 142.407 1.51548 -0.382486 0
M  V30 1548 H 143.142 2.63417 1.89162 0
M  V30 1549 H 142.927 3.87168 0.619951 0
M  V30 1550 H 144.417 3.85318 1.60995 0
M  V30 1551 N 144.854 0.36279 1.53368 0
M  V30 1552 C 145.784 -0.476976 2.28576 0
M  V30 1553 C 146.765 -1.08631 1.30894 0
M  V30 1554 O 147.95 -1.10409 1.59761 0
M  V30 1555 C 145.08 -1.61828 3.07293 0
M  V30 1556 C 144.034 -1.13633 4.1264 0
M  V30 1557 C 143.36 -2.36766 4.79423 0
M  V30 1558 C 144.66 -0.223061 5.21823 0
M  V30 1559 H 146.354 0.150474 2.99022 0
M  V30 1560 H 143.9 0.0738103 1.43811 0
M  V30 1561 H 145.853 -2.21237 3.58653 0
M  V30 1562 H 144.577 -2.27292 2.34533 0
M  V30 1563 H 143.236 -0.564945 3.62221 0
M  V30 1564 H 142.884 -3.0068 4.03238 0
M  V30 1565 H 142.584 -2.05192 5.50609 0
M  V30 1566 H 144.108 -2.96865 5.33576 0
M  V30 1567 H 145.522 -0.724545 5.68703 0
M  V30 1568 H 143.919 0.001678 6.001 0
M  V30 1569 H 144.989 0.735553 4.79289 0
M  V30 1570 N 146.332 -1.57332 0.0918853 0
M  V30 1571 C 147.28 -2.15075 -0.885747 0
M  V30 1572 C 148.274 -1.09277 -1.29441 0
M  V30 1573 O 149.48 -1.27627 -1.26931 0
M  V30 1574 H 145.855 -0.687966 -0.303656 0
M  V30 1575 H 147.826 -2.96047 -0.373995 0
M  V30 1576 C 146.575 -2.74325 -2.13638 0
M  V30 1577 H 145.898 -3.55418 -1.8308 0
M  V30 1578 H 147.338 -3.183 -2.80109 0
M  V30 1579 C 145.797 -1.70062 -2.90827 0
M  V30 1580 O 146.327 -1.13763 -3.85254 0
M  V30 1581 N 144.533 -1.40628 -2.54307 0
M  V30 1582 H 144.08 -1.866 -1.7759 0
M  V30 1583 H 144.038 -0.711043 -3.06254 0
M  V30 1584 N 147.81 0.181792 -1.56548 0
M  V30 1585 C 149.221 0.745244 -1.71181 0
M  V30 1586 C 149.572 1.83262 -0.70068 0
M  V30 1587 O 148.697 2.15946 0.140154 0
M  V30 1588 C 149.292 1.35859 -3.10367 0
M  V30 1589 C 147.851 1.86898 -3.2672 0
M  V30 1590 C 146.998 0.743942 -2.67134 0
M  V30 1591 H 149.949 -0.0434661 -1.5864 0
M  V30 1592 H 149.97 2.22817 -3.08436 0
M  V30 1593 H 149.482 0.566948 -3.83937 0
M  V30 1594 H 147.583 2.68738 -2.5809 0
M  V30 1595 H 147.696 2.02162 -4.34359 0
M  V30 1596 H 146.06 1.16169 -2.26665 0
M  V30 1597 H 146.843 -0.035676 -3.43281 0
M  V30 1598 N 149.288 1.51039 0.449983 0
M  V30 1599 C 150.198 1.74261 1.57067 0
M  V30 1600 C 151.214 0.626363 1.62335 0
M  V30 1601 O 152.39 0.907162 1.79812 0
M  V30 1602 C 149.455 1.85114 2.93144 0
M  V30 1603 C 148.516 3.0893 2.98095 0
M  V30 1604 C 147.749 3.19256 4.27681 0
M  V30 1605 O 147.972 2.35835 5.19363 0
M  V30 1606 O 146.906 4.12144 4.38658 0
M  V30 1607 H 150.732 2.69303 1.40391 0
M  V30 1608 H 148.317 1.35389 0.631688 0
M  V30 1609 H 150.199 1.94311 3.73926 0
M  V30 1610 H 148.874 0.932588 3.09975 0
M  V30 1611 H 147.781 3.0522 2.16314 0
M  V30 1612 H 149.114 4.00433 2.86206 0
M  V30 1613 N 150.766 -0.704594 1.40972 0
M  V30 1614 C 151.991 -1.49858 1.43378 0
M  V30 1615 C 152.416 -1.88061 0.038184 0
M  V30 1616 O 151.774 -1.5402 -0.956425 0
M  V30 1617 C 151.822 -2.74333 2.34038 0
M  V30 1618 O 150.926 -3.7147 1.7912 0
M  V30 1619 H 150.267 -0.45139 0.486974 0
M  V30 1620 H 152.797 -0.866832 1.8533 0
M  V30 1621 H 152.807 -3.22741 2.49604 0
M  V30 1622 H 151.482 -2.45863 3.35446 0
M  V30 1623 H 150.059 -3.30363 1.72958 0
M  V30 1624 N 152.244 -1.26651 -0.937939 0
M  V30 1625 C 153.192 -1.08308 -2.05845 0
M  V30 1626 C 154.186 -0.0090757 -1.69398 0
M  V30 1627 O 155.392 -0.166007 -1.79233 0
M  V30 1628 H 151.767 -0.333416 -0.674046 0
M  V30 1629 H 153.738 -2.03261 -2.18467 0
M  V30 1630 C 152.487 -0.736229 -3.39816 0
M  V30 1631 H 151.81 -1.55453 -3.6834 0
M  V30 1632 H 153.25 -0.64769 -4.19024 0
M  V30 1633 C 151.709 0.558824 -3.32233 0
M  V30 1634 O 152.239 1.59621 -3.68624 0
M  V30 1635 N 150.445 0.550657 -2.85335 0
M  V30 1636 H 149.992 -0.293943 -2.55917 0
M  V30 1637 H 149.95 1.41726 -2.80644 0
M  V30 1638 N 153.722 1.14298 -1.08507 0
M  V30 1639 C 154.95 1.89219 -0.836876 0
M  V30 1640 C 155.365 1.78638 0.611054 0
M  V30 1641 O 154.722 1.14643 1.41998 0
M  V30 1642 C 154.773 3.39158 -1.25116 0
M  V30 1643 O 154.494 3.49449 -2.64229 0
M  V30 1644 C 155.995 4.31073 -1.03398 0
M  V30 1645 H 153.215 0.599328 -0.301739 0
M  V30 1646 H 155.759 1.44746 -1.44461 0
M  V30 1647 H 153.914 3.81251 -0.687514 0
M  V30 1648 H 154.328 4.42589 -2.81452 0
M  V30 1649 H 155.802 5.34646 -1.37323 0
M  V30 1650 H 156.279 4.3919 0.0289259 0
M  V30 1651 H 156.885 3.94738 -1.58311 0
M  V30 1652 N 155.201 0.870884 1.31352 0
M  V30 1653 C 156.164 0.332243 2.26779 0
M  V30 1654 C 157.164 -0.517302 1.52252 0
M  V30 1655 O 158.354 -0.326477 1.71113 0
M  V30 1656 C 155.486 -0.528066 3.36785 0
M  V30 1657 H 156.679 1.17469 2.75937 0
M  V30 1658 H 154.232 0.64655 1.423 0
M  V30 1659 H 154.967 -1.39167 2.92922 0
M  V30 1660 H 154.752 0.0802582 3.92018 0
M  V30 1661 H 156.242 -0.897179 4.07849 0
M  V30 1662 N 156.679 -1.44442 0.630414 0
M  V30 1663 C 157.927 -2.01653 0.134351 0
M  V30 1664 C 158.248 -1.49836 -1.24796 0
M  V30 1665 O 157.518 -0.701684 -1.82902 0
M  V30 1666 H 156.098 -0.74554 0.0466769 0
M  V30 1667 H 158.76 -1.76952 0.816955 0
M  V30 1668 H 157.856 -3.11935 0.101498 0
M  V30 1669 N 158.157 -0.370918 -1.53173 0
M  V30 1670 C 159.087 0.464847 -2.28826 0
M  V30 1671 C 160.068 1.07936 -1.31468 0
M  V30 1672 O 161.253 1.0956 -1.60344 0
M  V30 1673 C 158.383 1.60196 -3.08147 0
M  V30 1674 C 157.337 1.11443 -4.13237 0
M  V30 1675 C 156.663 2.3422 -4.80672 0
M  V30 1676 C 157.963 0.195384 -5.21934 0
M  V30 1677 H 159.657 -0.166329 -2.98938 0
M  V30 1678 H 157.203 -0.0814359 -1.4377 0
M  V30 1679 H 159.156 2.19332 -3.59822 0
M  V30 1680 H 157.88 2.26045 -2.35735 0
M  V30 1681 H 156.539 0.545727 -3.62515 0
M  V30 1682 H 156.187 2.98537 -4.04827 0
M  V30 1683 H 155.887 2.02269 -5.51689 0
M  V30 1684 H 157.411 2.94032 -5.35143 0
M  V30 1685 H 158.825 0.694375 -5.69079 0
M  V30 1686 H 157.222 -0.0335027 -6.00091 0
M  V30 1687 H 158.292 -0.760961 -4.78892 0
M  V30 1688 N 159.635 1.57281 -0.100228 0
M  V30 1689 C 160.912 1.86014 0.604812 0
M  V30 1690 C 161.292 0.998025 1.86018 0
M  V30 1691 O 160.64 0.0718184 2.28387 0
M  V30 1692 C 160.85 3.36784 0.915278 0
M  V30 1693 C 162.198 4.04957 1.27651 0
M  V30 1694 O 163.222 3.41695 1.00613 0
M  V30 1695 O 162.081 5.16593 1.7831 0
M  V30 1696 H 159.175 0.76942 0.303185 0
M  V30 1697 H 161.721 1.69176 -0.133313 0
M  V30 1698 H 160.493 3.91292 0.0248896 0
M  V30 1699 H 160.116 3.58987 1.70921 0
M  V30 1700 N 161.113 -0.173488 1.56642 0
M  V30 1701 C 162.362 -0.888758 1.81063 0
M  V30 1702 C 162.675 -1.83506 0.67712 0
M  V30 1703 O 163.881 -2.59254 0.806206 0
M  V30 1704 C 162.337 -1.63091 3.20826 0
M  V30 1705 C 161.945 -0.728357 4.4204 0
M  V30 1706 C 163.689 -2.33454 3.54541 0
M  V30 1707 C 161.596 -1.47062 5.72823 0
M  V30 1708 H 160.526 -0.335618 0.675186 0
M  V30 1709 H 163.177 -0.141712 1.82952 0
M  V30 1710 H 161.559 -2.42263 3.13248 0
M  V30 1711 H 162.733 0.0262449 4.60793 0
M  V30 1712 H 161.048 -0.134492 4.16183 0
M  V30 1713 H 163.645 -2.89578 4.49498 0
M  V30 1714 H 163.988 -3.08687 2.79317 0
M  V30 1715 H 164.521 -1.61227 3.63663 0
M  V30 1716 H 161.26 -0.760658 6.51072 0
M  V30 1717 H 160.78 -2.1986 5.58052 0
M  V30 1718 H 162.459 -2.01868 6.14702 0
M  V30 1719 N 162.591 -1.51276 -0.441967 0
M  V30 1720 C 163.838 -1.63715 -1.19179 0
M  V30 1721 C 164.166 -0.351175 -1.91303 0
M  V30 1722 O 163.421 0.664524 -1.84072 0
M  V30 1723 C 163.72 -2.78746 -2.23686 0
M  V30 1724 C 163.386 -4.18189 -1.68607 0
M  V30 1725 C 162.048 -4.56125 -1.53308 0
M  V30 1726 C 164.4 -5.05222 -1.28062 0
M  V30 1727 C 161.728 -5.78804 -0.959317 0
M  V30 1728 C 164.08 -6.28476 -0.721162 0
M  V30 1729 C 162.744 -6.65188 -0.55504 0
M  V30 1730 H 162.014 -0.599076 -0.436106 0
M  V30 1731 H 164.661 -1.85296 -0.48351 0
M  V30 1732 H 162.966 -2.51369 -3.00535 0
M  V30 1733 H 164.663 -2.8557 -2.81515 0
M  V30 1734 H 161.253 -3.88277 -1.8149 0
M  V30 1735 H 165.437 -4.76524 -1.38704 0
M  V30 1736 H 160.693 -6.05899 -0.81833 0
M  V30 1737 H 164.867 -6.95259 -0.398458 0
M  V30 1738 H 162.494 -7.60123 -0.108311 0
M  V30 1739 N 164.069 0.697108 -1.41344 0
M  V30 1740 C 165.032 1.79281 -1.42797 0
M  V30 1741 C 166.032 1.57607 -0.318837 0
M  V30 1742 O 167.222 1.64309 -0.578642 0
M  V30 1743 C 164.354 3.17632 -1.23785 0
M  V30 1744 H 165.547 1.79385 -2.40335 0
M  V30 1745 H 163.1 0.904582 -1.27464 0
M  V30 1746 H 163.835 3.23167 -0.270814 0
M  V30 1747 H 163.62 3.34765 -2.04144 0
M  V30 1748 H 165.11 3.97617 -1.27633 0
M  V30 1749 N 165.547 1.27147 0.931209 0
M  V30 1750 C 166.494 1.09568 2.03134 0
M  V30 1751 C 167.464 -0.00222433 1.661 0
M  V30 1752 O 168.649 0.159439 1.90133 0
M  V30 1753 C 165.789 0.745231 3.36957 0
M  V30 1754 C 164.902 1.92041 3.86968 0
M  V30 1755 C 164.037 1.51216 5.09222 0
M  V30 1756 C 163.076 2.65504 5.5152 0
M  V30 1757 N 162.213 2.25291 6.64972 0
M  V30 1758 H 167.053 2.03708 2.17502 0
M  V30 1759 H 164.59 1.01411 1.06556 0
M  V30 1760 H 166.548 0.522878 4.1391 0
M  V30 1761 H 165.178 -0.159202 3.22407 0
M  V30 1762 H 164.23 2.25541 3.06326 0
M  V30 1763 H 165.542 2.77787 4.1429 0
M  V30 1764 H 164.696 1.25084 5.93666 0
M  V30 1765 H 163.435 0.625749 4.83669 0
M  V30 1766 H 162.44 2.92354 4.65628 0
M  V30 1767 H 163.665 3.54761 5.7907 0
M  V30 1768 H 161.611 1.39098 6.41083 0
M  V30 1769 H 161.528 3.04577 6.91931 0
M  V30 1770 H 162.796 2.02398 7.52765 0
M  V30 1771 N 167.025 -1.13721 1.09112 0
M  V30 1772 C 168.272 -1.84924 0.825192 0
M  V30 1773 C 168.6 -1.83347 -0.649151 0
M  V30 1774 O 167.855 -1.26449 -1.49362 0
M  V30 1775 C 168.154 -3.32861 1.30146 0
M  V30 1776 C 167.82 -3.54621 2.78486 0
M  V30 1777 C 166.482 -3.60268 3.18999 0
M  V30 1778 C 168.834 -3.62855 3.74146 0
M  V30 1779 C 166.162 -3.71679 4.53951 0
M  V30 1780 C 168.514 -3.75793 5.08883 0
M  V30 1781 C 167.178 -3.79692 5.4899 0
M  V30 1782 H 166.448 -0.676684 0.301959 0
M  V30 1783 H 169.095 -1.3428 1.36533 0
M  V30 1784 H 167.4 -3.85835 0.681064 0
M  V30 1785 H 169.097 -3.86395 1.07236 0
M  V30 1786 H 165.687 -3.50879 2.46134 0
M  V30 1787 H 169.871 -3.57775 3.43963 0
M  V30 1788 H 165.127 -3.72963 4.84467 0
M  V30 1789 H 169.301 -3.81107 5.82864 0
M  V30 1790 H 166.928 -3.88287 6.53558 0
M  V30 1791 N 168.503 -0.877838 -1.30888 0
M  V30 1792 C 169.728 -0.506629 -2.01117 0
M  V30 1793 C 170.153 0.895564 -1.65412 0
M  V30 1794 O 169.511 1.5923 -0.866922 0
M  V30 1795 C 169.559 -0.680223 -3.54126 0
M  V30 1796 O 168.663 0.277033 -4.11468 0
M  V30 1797 H 168.004 -0.200518 -0.633 0
M  V30 1798 H 170.534 -1.18342 -1.66902 0
M  V30 1799 H 170.544 -0.5765 -4.03907 0
M  V30 1800 H 169.219 -1.70261 -3.79452 0
M  V30 1801 H 167.796 0.127606 -3.72682 0
M  V30 1802 N 169.982 1.44106 -0.638065 0
M  V30 1803 C 170.945 2.29138 0.0531013 0
M  V30 1804 C 171.945 1.41409 0.765506 0
M  V30 1805 O 173.135 1.63206 0.609046 0
M  V30 1806 C 170.267 3.23144 1.08584 0
M  V30 1807 H 171.46 2.91739 -0.694883 0
M  V30 1808 H 169.013 1.51134 -0.398538 0
M  V30 1809 H 169.748 2.65408 1.86357 0
M  V30 1810 H 169.533 3.87804 0.578852 0
M  V30 1811 H 171.023 3.87004 1.56899 0
M  V30 1812 N 171.46 0.379036 1.52974 0
M  V30 1813 C 172.69 -0.20649 2.05566 0
M  V30 1814 C 173.098 -1.41906 1.25137 0
M  V30 1815 O 172.441 -1.81421 0.288464 0
M  V30 1816 C 172.503 -0.651086 3.53555 0
M  V30 1817 C 172.167 0.446626 4.54812 0
M  V30 1818 C 173.164 1.30079 5.03364 0
M  V30 1819 C 170.849 0.610719 4.98573 0
M  V30 1820 C 172.843 2.30426 5.94292 0
M  V30 1821 C 170.53 1.61754 5.89304 0
M  V30 1822 C 171.528 2.46274 6.37054 0
M  V30 1823 O 171.216 3.45237 7.25994 0
M  V30 1824 H 170.948 -0.0372381 0.674974 0
M  V30 1825 H 173.502 0.539718 1.98182 0
M  V30 1826 H 171.732 -1.44911 3.58522 0
M  V30 1827 H 173.421 -1.16112 3.88938 0
M  V30 1828 H 174.187 1.18527 4.70294 0
M  V30 1829 H 170.066 -0.0374044 4.60985 0
M  V30 1830 H 173.61 2.96432 6.31485 0
M  V30 1831 H 169.507 1.73348 6.21788 0
M  V30 1832 H 170.275 3.41124 7.44027 0
M  V30 1833 N 172.938 -1.57226 0.108567 0
M  V30 1834 C 174.187 -1.94008 -0.551703 0
M  V30 1835 C 174.5 -0.993442 -1.68494 0
M  V30 1836 O 175.706 -1.25551 -2.40726 0
M  V30 1837 C 174.162 -3.44763 -1.03279 0
M  V30 1838 C 173.77 -4.47943 0.0714193 0
M  V30 1839 C 175.514 -3.90483 -1.66503 0
M  V30 1840 C 173.421 -5.89865 -0.425779 0
M  V30 1841 H 172.351 -0.724206 -0.209863 0
M  V30 1842 H 175.002 -1.82547 0.186741 0
M  V30 1843 H 173.384 -3.51422 -1.82533 0
M  V30 1844 H 174.558 -4.52942 0.847365 0
M  V30 1845 H 172.873 -4.11913 0.609669 0
M  V30 1846 H 175.47 -4.93925 -2.04798 0
M  V30 1847 H 175.813 -3.29877 -2.53942 0
M  V30 1848 H 176.346 -3.86581 -0.938074 0
M  V30 1849 H 173.085 -6.54202 0.412316 0
M  V30 1850 H 172.605 -5.88309 -1.16843 0
M  V30 1851 H 174.284 -6.40844 -0.890397 0
M  V30 1852 N 174.416 0.165178 -1.56732 0
M  V30 1853 C 175.363 1.2044 -1.96883 0
M  V30 1854 C 176.333 1.43664 -0.833657 0
M  V30 1855 O 177.518 1.56302 -1.09427 0
M  V30 1856 C 174.658 2.53727 -2.33916 0
M  V30 1857 C 173.771 2.3783 -3.6064 0
M  V30 1858 C 172.906 3.64026 -3.86857 0
M  V30 1859 C 171.945 3.43088 -5.06909 0
M  V30 1860 N 171.082 4.61369 -5.29229 0
M  V30 1861 H 175.922 0.854996 -2.85471 0
M  V30 1862 H 173.459 0.41076 -1.41249 0
M  V30 1863 H 175.417 3.31419 -2.53411 0
M  V30 1864 H 174.047 2.8665 -1.48431 0
M  V30 1865 H 173.099 1.51282 -3.49024 0
M  V30 1866 H 174.411 2.18308 -4.4849 0
M  V30 1867 H 173.565 4.50152 -4.06753 0
M  V30 1868 H 172.304 3.86533 -2.97394 0
M  V30 1869 H 171.309 2.55349 -4.86906 0
M  V30 1870 H 172.534 3.21997 -5.97909 0
M  V30 1871 H 170.48 4.84084 -4.42718 0
M  V30 1872 H 170.397 4.44783 -6.11313 0
M  V30 1873 H 171.665 5.48761 -5.53608 0
M  V30 1874 N 175.894 1.51508 0.433938 0
M  V30 1875 C 176.842 1.73646 1.54757 0
M  V30 1876 C 177.836 0.602854 1.5831 0
M  V30 1877 O 179.042 0.784318 1.62014 0
M  V30 1878 H 175.417 0.548718 0.51421 0
M  V30 1879 H 177.388 2.66991 1.33261 0
M  V30 1880 C 176.137 1.88172 2.92381 0
M  V30 1881 H 175.46 2.74808 2.90381 0
M  V30 1882 H 176.9 2.07672 3.6966 0
M  V30 1883 C 175.359 0.64239 3.30719 0
M  V30 1884 O 175.889 -0.201362 4.01195 0
M  V30 1885 N 174.095 0.485489 2.86516 0
M  V30 1886 H 173.642 1.17318 2.29334 0
M  V30 1887 H 173.6 -0.342482 3.12529 0
M  V30 1888 N 177.372 -0.689602 1.41712 0
M  V30 1889 C 178.597 -1.48329 1.44959 0
M  V30 1890 C 179.022 -1.8801 0.0581283 0
M  V30 1891 O 178.38 -1.55026 -0.940035 0
M  V30 1892 C 178.428 -2.71835 2.36935 0
M  V30 1893 O 177.532 -3.69549 1.8305 0
M  V30 1894 H 176.873 -0.446199 0.491734 0
M  V30 1895 H 179.403 -0.847127 1.86239 0
M  V30 1896 H 179.413 -3.20076 2.53013 0
M  V30 1897 H 178.088 -2.42291 3.38035 0
M  V30 1898 H 176.665 -3.2851 1.76452 0
M  V30 1899 N 178.85 -1.27639 -0.924453 0
M  V30 1900 C 179.798 -1.10485 -2.04685 0
M  V30 1901 C 180.792 -0.0270421 -1.69378 0
M  V30 1902 O 181.998 -0.185008 -1.79047 0
M  V30 1903 H 178.373 -0.340546 -0.670472 0
M  V30 1904 H 180.344 -2.05566 -2.16298 0
M  V30 1905 C 179.093 -0.772229 -3.39016 0
M  V30 1906 H 178.416 -1.59351 -3.66671 0
M  V30 1907 H 179.856 -0.692097 -4.18313 0
M  V30 1908 C 178.315 0.523554 -3.32807 0
M  V30 1909 O 178.845 1.55702 -3.70297 0
M  V30 1910 N 177.051 0.520363 -2.85903 0
M  V30 1911 H 176.598 -0.32107 -2.55591 0
M  V30 1912 H 176.556 1.38742 -2.82131 0
M  V30 1913 N 180.328 1.1314 -1.09713 0
M  V30 1914 C 181.739 1.66029 -0.853885 0
M  V30 1915 C 182.09 1.86241 0.617142 0
M  V30 1916 O 181.215 1.5834 1.47503 0
M  V30 1917 C 181.81 3.01599 -1.5435 0
M  V30 1918 C 180.369 3.51467 -1.34714 0
M  V30 1919 C 179.516 2.26648 -1.59769 0
M  V30 1920 H 182.467 0.970226 -1.25588 0
M  V30 1921 H 182.488 3.67709 -0.978267 0
M  V30 1922 H 182 2.86856 -2.6141 0
M  V30 1923 H 180.101 3.71408 -0.297838 0
M  V30 1924 H 180.214 4.314 -2.08401 0
M  V30 1925 H 178.578 2.33385 -1.01998 0
M  V30 1926 H 179.361 2.14467 -2.68065 0
M  V30 1927 N 181.806 0.884767 1.30421 0
M  V30 1928 C 182.769 0.356277 2.26414 0
M  V30 1929 C 183.769 -0.501124 1.52792 0
M  V30 1930 O 184.959 -0.30831 1.7145 0
M  V30 1931 C 182.091 -0.492316 3.37326 0
M  V30 1932 H 183.284 1.20389 2.74675 0
M  V30 1933 H 180.837 0.661607 1.41607 0
M  V30 1934 H 181.572 -1.36052 2.94381 0
M  V30 1935 H 181.357 0.121832 3.91911 0
M  V30 1936 H 182.847 -0.853871 4.08777 0
M  V30 1937 N 183.284 -1.43765 0.645699 0
M  V30 1938 C 184.214 -2.33471 -0.0370477 0
M  V30 1939 C 185.195 -1.49042 -0.819779 0
M  V30 1940 O 186.38 -1.77726 -0.782758 0
M  V30 1941 C 183.51 -3.32311 -1.0093 0
M  V30 1942 C 182.464 -4.2667 -0.337201 0
M  V30 1943 C 181.79 -5.1549 -1.42037 0
M  V30 1944 C 183.09 -5.16657 0.765706 0
M  V30 1945 H 184.784 -2.90809 0.712069 0
M  V30 1946 H 182.33 -1.39834 0.343876 0
M  V30 1947 H 184.283 -3.9396 -1.49578 0
M  V30 1948 H 183.007 -2.73213 -1.78948 0
M  V30 1949 H 181.666 -3.66374 0.128771 0
M  V30 1950 H 181.314 -4.52735 -2.1918 0
M  V30 1951 H 181.014 -5.79438 -0.975966 0
M  V30 1952 H 182.538 -5.80012 -1.90838 0
M  V30 1953 H 183.952 -5.72158 0.361702 0
M  V30 1954 H 182.349 -5.89286 1.13413 0
M  V30 1955 H 183.419 -4.56796 1.62683 0
M  V30 1956 N 184.763 -0.387143 -1.52771 0
M  V30 1957 C 185.711 0.463953 -2.27926 0
M  V30 1958 C 186.705 1.06493 -1.31741 0
M  V30 1959 O 187.911 1.00565 -1.49287 0
M  V30 1960 H 184.286 0.16837 -0.732909 0
M  V30 1961 H 186.257 -0.19141 -2.97785 0
M  V30 1962 C 185.006 1.5803 -3.09713 0
M  V30 1963 H 184.329 1.12718 -3.83581 0
M  V30 1964 H 185.769 2.15008 -3.65442 0
M  V30 1965 C 184.228 2.53509 -2.2189 0
M  V30 1966 O 184.758 3.56863 -1.84422 0
M  V30 1967 N 182.964 2.23199 -1.86093 0
M  V30 1968 H 182.511 1.39185 -2.16761 0
M  V30 1969 H 182.469 2.87333 -1.27621 0
M  V30 1970 N 186.241 1.57166 -0.116904 0
M  V30 1971 C 187.518 1.86645 0.585049 0
M  V30 1972 C 187.898 1.0177 1.84949 0
M  V30 1973 O 187.246 0.0960379 2.28298 0
M  V30 1974 C 187.456 3.37736 0.879507 0
M  V30 1975 C 188.804 4.06289 1.23348 0
M  V30 1976 O 189.828 3.42743 0.969836 0
M  V30 1977 O 188.687 5.18455 1.7282 0
M  V30 1978 H 185.781 0.772593 0.295007 0
M  V30 1979 H 188.327 1.69025 -0.151249 0
M  V30 1980 H 187.099 3.91296 -0.0166136 0
M  V30 1981 H 186.722 3.6078 1.67103 0
M  V30 1982 N 187.719 -0.156864 1.56817 0
M  V30 1983 C 188.667 -1.21319 1.98455 0
M  V30 1984 C 189.661 -1.45025 0.875444 0
M  V30 1985 O 190.867 -1.45435 1.0606 0
M  V30 1986 H 187.242 -0.408142 0.631605 0
M  V30 1987 H 189.213 -0.835244 2.86472 0
M  V30 1988 C 187.962 -2.54148 2.37285 0
M  V30 1989 H 187.285 -2.36733 3.22176 0
M  V30 1990 H 188.725 -3.26712 2.70251 0
M  V30 1991 C 187.184 -3.13967 1.22173 0
M  V30 1992 O 187.714 -3.98357 0.517149 0
M  V30 1993 N 185.92 -2.7327 0.988536 0
M  V30 1994 H 185.467 -2.04744 1.56326 0
M  V30 1995 H 185.425 -3.13628 0.220209 0
M  V30 1996 N 189.197 -1.51736 -0.425897 0
M  V30 1997 C 190.127 -1.76827 -1.52494 0
M  V30 1998 C 191.108 -0.618524 -1.58456 0
M  V30 1999 O 192.293 -0.862416 -1.74 0
M  V30 2000 C 189.423 -1.90374 -2.90474 0
M  V30 2001 C 188.377 -3.0588 -2.99369 0
M  V30 2002 C 187.703 -3.04625 -4.3944 0
M  V30 2003 C 189.003 -4.45644 -2.72394 0
M  V30 2004 H 190.697 -2.68855 -1.31748 0
M  V30 2005 H 188.243 -1.29372 -0.632362 0
M  V30 2006 H 190.196 -2.0651 -3.6733 0
M  V30 2007 H 188.92 -0.95004 -3.12477 0
M  V30 2008 H 187.579 -2.89467 -2.24954 0
M  V30 2009 H 187.227 -2.0701 -4.58428 0
M  V30 2010 H 186.927 -3.82195 -4.46319 0
M  V30 2011 H 188.451 -3.22869 -5.18255 0
M  V30 2012 H 189.865 -4.62348 -3.38979 0
M  V30 2013 H 188.262 -5.25006 -2.9067 0
M  V30 2014 H 189.332 -4.54893 -1.67929 0
M  V30 2015 N 190.675 0.682077 -1.42076 0
M  V30 2016 C 191.585 1.82535 -1.47371 0
M  V30 2017 C 192.601 1.7017 -0.363079 0
M  V30 2018 O 193.777 1.91848 -0.612875 0
M  V30 2019 C 190.842 3.18624 -1.36674 0
M  V30 2020 C 189.903 3.42999 -2.58167 0
M  V30 2021 C 189.136 4.72595 -2.4797 0
M  V30 2022 O 189.359 5.50006 -1.5116 0
M  V30 2023 O 188.293 4.98054 -3.37974 0
M  V30 2024 H 192.119 1.81023 -2.43853 0
M  V30 2025 H 189.704 0.836887 -1.2376 0
M  V30 2026 H 191.586 3.99847 -1.33043 0
M  V30 2027 H 190.261 3.20789 -0.433138 0
M  V30 2028 H 189.168 2.61653 -2.67373 0
M  V30 2029 H 190.501 3.45659 -3.50401 0
M  V30 2030 N 192.153 1.28127 0.917671 0
M  V30 2031 C 193.1 1.11717 2.0196 0
M  V30 2032 C 194.07 0.0153929 1.66093 0
M  V30 2033 O 195.255 0.179596 1.89953 0
M  V30 2034 C 192.395 0.780927 3.36148 0
M  V30 2035 C 191.508 1.96135 3.84909 0
M  V30 2036 C 190.643 1.56609 5.0759 0
M  V30 2037 C 189.682 2.71339 5.48673 0
M  V30 2038 N 188.819 2.32332 6.62545 0
M  V30 2039 H 193.659 2.06003 2.15329 0
M  V30 2040 H 191.196 1.02535 1.05475 0
M  V30 2041 H 193.154 0.56675 4.13333 0
M  V30 2042 H 191.784 -0.124998 3.22558 0
M  V30 2043 H 190.836 2.28777 3.03916 0
M  V30 2044 H 192.148 2.82165 4.1132 0
M  V30 2045 H 191.302 1.31374 5.92305 0
M  V30 2046 H 190.041 0.677014 4.82978 0
M  V30 2047 H 189.046 2.97276 4.62501 0
M  V30 2048 H 190.271 3.60882 5.75274 0
M  V30 2049 H 188.217 1.45889 6.39572 0
M  V30 2050 H 188.134 3.11899 6.88662 0
M  V30 2051 H 189.402 2.10371 7.50576 0
M  V30 2052 N 193.631 -1.12557 1.10312 0
M  V30 2053 C 194.879 -1.83675 0.843091 0
M  V30 2054 C 195.2 -1.84435 -0.633131 0
M  V30 2055 O 194.47 -1.30657 -1.45964 0
M  V30 2056 H 193.05 -0.680138 0.308904 0
M  V30 2057 H 195.712 -1.36301 1.39313 0
M  V30 2058 H 194.808 -2.87908 1.2048 0
M  V30 2059 N 195.109 -0.891671 -1.2995 0
M  V30 2060 C 196.039 -0.379797 -2.30391 0
M  V30 2061 C 197.02 0.540919 -1.6127 0
M  V30 2062 O 198.205 0.453352 -1.88834 0
M  V30 2063 C 195.335 0.400654 -3.44981 0
M  V30 2064 C 194.289 -0.428905 -4.25846 0
M  V30 2065 C 193.615 0.478557 -5.32554 0
M  V30 2066 C 194.915 -1.67458 -4.94727 0
M  V30 2067 H 196.609 -1.21914 -2.73454 0
M  V30 2068 H 194.155 -0.587675 -1.31462 0
M  V30 2069 H 196.108 0.769434 -4.14316 0
M  V30 2070 H 194.832 1.27371 -3.0074 0
M  V30 2071 H 193.491 -0.779911 -3.58208 0
M  V30 2072 H 193.139 1.34951 -4.84559 0
M  V30 2073 H 192.839 -0.0727433 -5.87555 0
M  V30 2074 H 194.363 0.843705 -6.04743 0
M  V30 2075 H 195.777 -1.376 -5.56542 0
M  V30 2076 H 194.174 -2.16659 -5.59624 0
M  V30 2077 H 195.244 -2.41518 -4.20473 0
M  V30 2078 N 196.587 1.43421 -0.653314 0
M  V30 2079 C 197.517 2.33487 0.0246656 0
M  V30 2080 C 198.498 1.49475 0.811863 0
M  V30 2081 O 199.683 1.78139 0.773322 0
M  V30 2082 C 196.813 3.32841 0.99166 0
M  V30 2083 C 195.767 4.26842 0.314568 0
M  V30 2084 C 195.093 5.16236 1.39302 0
M  V30 2085 C 196.393 5.16243 -0.793095 0
M  V30 2086 H 198.087 2.90427 -0.727481 0
M  V30 2087 H 195.633 1.39649 -0.351287 0
M  V30 2088 H 197.586 3.94747 1.47487 0
M  V30 2089 H 196.31 2.74158 1.77497 0
M  V30 2090 H 194.969 3.663 -0.148199 0
M  V30 2091 H 194.617 4.53891 2.16776 0
M  V30 2092 H 194.317 5.79948 0.945223 0
M  V30 2093 H 195.841 5.81015 1.87759 0
M  V30 2094 H 197.255 5.71958 -0.392039 0
M  V30 2095 H 195.652 5.88676 -1.16536 0
M  V30 2096 H 196.722 4.55927 -1.65103 0
M  V30 2097 N 198.065 0.39524 1.52563 0
M  V30 2098 C 199.012 -0.437036 2.26624 0
M  V30 2099 C 199.982 -1.05281 1.28472 0
M  V30 2100 O 201.167 -1.07971 1.57311 0
M  V30 2101 C 198.307 -1.55524 3.08069 0
M  V30 2102 C 197.42 -0.961745 4.21158 0
M  V30 2103 C 196.555 -2.05149 4.89987 0
M  V30 2104 C 195.594 -1.4342 5.95061 0
M  V30 2105 N 194.731 -2.46351 6.57462 0
M  V30 2106 H 199.571 0.200976 2.97322 0
M  V30 2107 H 197.108 0.110944 1.46681 0
M  V30 2108 H 199.066 -2.21437 3.53584 0
M  V30 2109 H 197.696 -2.16348 2.3957 0
M  V30 2110 H 196.748 -0.192048 3.79915 0
M  V30 2111 H 198.06 -0.470701 4.96574 0
M  V30 2112 H 197.214 -2.78819 5.38837 0
M  V30 2113 H 195.953 -2.57615 4.14109 0
M  V30 2114 H 194.958 -0.682774 5.45544 0
M  V30 2115 H 196.183 -0.917416 6.72875 0
M  V30 2116 H 194.129 -2.97975 5.8442 0
M  V30 2117 H 194.046 -2.02019 7.28508 0
M  V30 2118 H 195.314 -3.19633 7.10954 0
M  V30 2119 N 199.544 -1.57102 0.125237 0
M  V30 2120 C 200.507 -2.14471 -0.80838 0
M  V30 2121 C 201.507 -1.0811 -1.19033 0
M  V30 2122 O 202.697 -1.33856 -1.11482 0
M  V30 2123 C 199.829 -2.69005 -2.09402 0
M  V30 2124 H 201.022 -2.98297 -0.309696 0
M  V30 2125 H 198.575 -1.55807 -0.124051 0
M  V30 2126 H 199.31 -1.88785 -2.63687 0
M  V30 2127 H 199.095 -3.46799 -1.82957 0
M  V30 2128 H 200.585 -3.13278 -2.76128 0
M  V30 2129 N 201.022 0.148545 -1.56898 0
M  V30 2130 C 201.952 1.18524 -2.01182 0
M  V30 2131 C 202.933 1.4489 -0.891123 0
M  V30 2132 O 204.118 1.55836 -1.15882 0
M  V30 2133 C 201.248 2.51879 -2.39112 0
M  V30 2134 C 200.202 2.40038 -3.54353 0
M  V30 2135 C 199.528 3.78089 -3.78091 0
M  V30 2136 C 200.828 1.88577 -4.87069 0
M  V30 2137 H 202.522 0.817029 -2.88036 0
M  V30 2138 H 200.068 0.391575 -1.38574 0
M  V30 2139 H 202.021 3.24627 -2.68692 0
M  V30 2140 H 200.745 2.90532 -1.49193 0
M  V30 2141 H 199.404 1.69742 -3.24936 0
M  V30 2142 H 199.052 4.14175 -2.85426 0
M  V30 2143 H 198.752 3.71028 -4.55645 0
M  V30 2144 H 200.276 4.52387 -4.10095 0
M  V30 2145 H 201.69 2.51117 -5.15377 0
M  V30 2146 H 200.087 1.9241 -5.68417 0
M  V30 2147 H 201.157 0.84136 -4.77545 0
M  V30 2148 N 202.5 1.5196 0.417844 0
M  V30 2149 C 203.447 1.74678 1.50852 0
M  V30 2150 C 204.417 0.588947 1.55308 0
M  V30 2151 O 205.602 0.825544 1.72016 0
M  V30 2152 C 202.742 1.89544 2.88387 0
M  V30 2153 C 201.855 3.17166 2.93309 0
M  V30 2154 C 200.99 3.22513 4.22088 0
M  V30 2155 C 200.029 4.44372 4.20951 0
M  V30 2156 N 199.166 4.47161 5.41287 0
M  V30 2157 H 204.006 2.67768 1.30783 0
M  V30 2158 H 201.543 1.32689 0.63498 0
M  V30 2159 H 203.501 1.96146 3.68216 0
M  V30 2160 H 202.131 0.998424 3.06971 0
M  V30 2161 H 201.183 3.19778 2.06024 0
M  V30 2162 H 202.495 4.07021 2.88332 0
M  V30 2163 H 201.649 3.28139 5.10303 0
M  V30 2164 H 200.388 2.30581 4.29748 0
M  V30 2165 H 199.393 4.38902 3.31127 0
M  V30 2166 H 200.618 5.3759 4.14938 0
M  V30 2167 H 198.564 3.58108 5.49632 0
M  V30 2168 H 198.481 5.3085 5.3827 0
M  V30 2169 H 199.749 4.57005 6.3148 0
M  V30 2170 N 203.978 -0.674533 1.42435 0
M  V30 2171 C 205.224 -1.43671 1.43131 0
M  V30 2172 C 205.557 -1.94142 0.0476021 0
M  V30 2173 O 204.832 -1.70924 -0.928188 0
M  V30 2174 C 205.115 -2.63355 2.45594 0
M  V30 2175 C 204.968 -2.18514 3.93156 0
M  V30 2176 C 206.287 -3.65571 2.45043 0
M  V30 2177 H 203.406 -0.521077 0.521198 0
M  V30 2178 H 206.048 -0.766551 1.7385 0
M  V30 2179 H 204.198 -3.2053 2.19528 0
M  V30 2180 H 205.87 -1.66504 4.30202 0
M  V30 2181 H 204.113 -1.50086 4.07009 0
M  V30 2182 H 204.784 -3.04484 4.60428 0
M  V30 2183 H 207.26 -3.18113 2.68223 0
M  V30 2184 H 206.136 -4.46893 3.18713 0
M  V30 2185 H 206.397 -4.16716 1.47649 0
M  V30 2186 N 205.456 -1.28612 -0.910864 0
M  V30 2187 C 206.386 -1.15326 -2.03032 0
M  V30 2188 C 207.367 -0.0502924 -1.70026 0
M  V30 2189 O 208.552 -0.227797 -1.92859 0
M  V30 2190 C 205.682 -0.817343 -3.37545 0
M  V30 2191 C 204.636 -1.8754 -3.84724 0
M  V30 2192 C 203.962 -1.39305 -5.16235 0
M  V30 2193 C 205.262 -3.28244 -4.06267 0
M  V30 2194 H 206.956 -2.08975 -2.14406 0
M  V30 2195 H 204.502 -1.00612 -1.03021 0
M  V30 2196 H 206.455 -0.711151 -4.15356 0
M  V30 2197 H 205.179 0.154846 -3.26233 0
M  V30 2198 H 203.838 -1.97079 -3.09121 0
M  V30 2199 H 203.486 -0.409846 -5.01328 0
M  V30 2200 H 203.186 -2.10057 -5.48771 0
M  V30 2201 H 204.71 -1.30014 -5.96598 0
M  V30 2202 H 206.124 -3.21611 -4.74594 0
M  V30 2203 H 204.521 -3.96855 -4.5014 0
M  V30 2204 H 205.591 -3.72048 -3.10979 0
M  V30 2205 N 206.934 1.1197 -1.10907 0
M  V30 2206 C 208.211 1.79959 -0.766432 0
M  V30 2207 C 208.591 1.97466 0.746363 0
M  V30 2208 O 207.939 1.55491 1.67436 0
M  V30 2209 C 208.149 3.14009 -1.52314 0
M  V30 2210 C 209.497 3.89134 -1.69883 0
M  V30 2211 O 210.521 3.2368 -1.48692 0
M  V30 2212 O 209.38 5.06572 -2.05054 0
M  V30 2213 H 206.474 0.779208 -0.277062 0
M  V30 2214 H 209.02 1.18762 -1.21217 0
M  V30 2215 H 207.792 2.96587 -2.55249 0
M  V30 2216 H 207.415 3.82915 -1.07059 0
M  V30 2217 N 208.412 0.89855 1.29475 0
M  V30 2218 C 209.36 0.365253 2.29714 0
M  V30 2219 C 210.354 -0.534993 1.6073 0
M  V30 2220 O 211.56 -0.417921 1.75081 0
M  V30 2221 H 207.935 0.0994853 0.74539 0
M  V30 2222 H 209.906 1.22406 2.72138 0
M  V30 2223 C 208.655 -0.393159 3.4547 0
M  V30 2224 H 207.978 0.290332 3.98744 0
M  V30 2225 H 209.418 -0.731189 4.17648 0
M  V30 2226 C 207.877 -1.59539 2.9673 0
M  V30 2227 O 208.407 -2.69469 2.97908 0
M  V30 2228 N 206.613 -1.43716 2.52575 0
M  V30 2229 H 206.16 -0.542828 2.51816 0
M  V30 2230 H 206.118 -2.24288 2.20323 0
M  V30 2231 N 209.89 -1.43072 0.660911 0
M  V30 2232 C 211.12 -2.05769 0.185153 0
M  V30 2233 C 211.528 -1.49668 -1.15742 0
M  V30 2234 O 210.871 -0.625649 -1.72717 0
M  V30 2235 C 210.933 -3.59489 0.0278237 0
M  V30 2236 C 210.597 -4.38212 1.2969 0
M  V30 2237 C 211.594 -4.69772 2.22734 0
M  V30 2238 C 209.279 -4.7809 1.54063 0
M  V30 2239 C 211.273 -5.40129 3.38437 0
M  V30 2240 C 208.96 -5.4819 2.70058 0
M  V30 2241 C 209.958 -5.79132 3.62071 0
M  V30 2242 O 209.646 -6.47798 4.76039 0
M  V30 2243 H 209.378 -0.669873 0.0908086 0
M  V30 2244 H 211.932 -1.84436 0.90402 0
M  V30 2245 H 210.162 -3.79426 -0.746489 0
M  V30 2246 H 211.851 -4.03862 -0.406275 0
M  V30 2247 H 212.617 -4.39476 2.05149 0
M  V30 2248 H 208.496 -4.53408 0.833215 0
M  V30 2249 H 212.04 -5.64198 4.10277 0
M  V30 2250 H 207.937 -5.77902 2.87574 0
M  V30 2251 H 208.705 -6.66283 4.75404 0
M  V30 2252 N 211.368 -0.403325 -1.52352 0
M  V30 2253 C 212.298 0.416205 -2.29761 0
M  V30 2254 C 213.279 1.05123 -1.33728 0
M  V30 2255 O 214.464 1.06134 -1.62632 0
M  V30 2256 C 211.594 1.53624 -3.11475 0
M  V30 2257 C 210.548 1.02653 -4.15507 0
M  V30 2258 C 209.874 2.23971 -4.85532 0
M  V30 2259 C 211.174 0.08463 -5.22231 0
M  V30 2260 H 212.868 -0.229701 -2.98518 0
M  V30 2261 H 210.414 -0.111913 -1.43564 0
M  V30 2262 H 212.367 2.1165 -3.64393 0
M  V30 2263 H 211.091 2.20994 -2.40477 0
M  V30 2264 H 209.75 0.46871 -3.63591 0
M  V30 2265 H 209.398 2.89883 -4.11068 0
M  V30 2266 H 209.098 1.90521 -5.55856 0
M  V30 2267 H 210.622 2.82614 -5.41259 0
M  V30 2268 H 212.036 0.573509 -5.70424 0
M  V30 2269 H 210.433 -0.160783 -5.99885 0
M  V30 2270 H 211.503 -0.86237 -4.7717 0
M  V30 2271 N 212.846 1.57033 -0.133567 0
M  V30 2272 C 214.074 2.00044 0.528195 0
M  V30 2273 C 214.489 1.01349 1.59291 0
M  V30 2274 O 213.846 0.00848369 1.82498 0
M  V30 2275 C 213.897 3.43018 1.1411 0
M  V30 2276 O 213.618 4.37939 0.11892 0
M  V30 2277 C 215.119 4.01237 1.88477 0
M  V30 2278 H 212.339 0.656517 0.138661 0
M  V30 2279 H 214.883 2.03267 -0.224196 0
M  V30 2280 H 213.038 3.40688 1.84418 0
M  V30 2281 H 213.452 5.21436 0.56613 0
M  V30 2282 H 214.926 5.03314 2.26669 0
M  V30 2283 H 215.403 3.41193 2.76558 0
M  V30 2284 H 216.009 4.07156 1.22898 0
M  V30 2285 N 214.325 -0.140222 1.56975 0
M  V30 2286 C 215.55 -0.870414 1.88251 0
M  V30 2287 C 215.975 -1.73637 0.723312 0
M  V30 2288 O 215.333 -1.78329 -0.32689 0
M  V30 2289 C 215.381 -1.69737 3.18154 0
M  V30 2290 O 214.485 -2.80229 3.02565 0
M  V30 2291 H 213.826 -0.242025 0.61832 0
M  V30 2292 H 216.356 -0.128999 2.04193 0
M  V30 2293 H 216.366 -2.09099 3.50345 0
M  V30 2294 H 215.041 -1.06152 4.02125 0
M  V30 2295 H 213.618 -2.44224 2.81796 0
M  V30 2296 N 215.803 -1.52179 -0.40978 0
M  V30 2297 C 217.214 -1.58377 -0.988615 0
M  V30 2298 C 217.565 -0.423879 -1.91566 0
M  V30 2299 O 216.69 0.455844 -2.11544 0
M  V30 2300 C 217.285 -2.87044 -1.79976 0
M  V30 2301 C 215.844 -2.95722 -2.32863 0
M  V30 2302 C 214.991 -2.53309 -1.12828 0
M  V30 2303 H 217.942 -1.57558 -0.190039 0
M  V30 2304 H 217.963 -2.7236 -2.65707 0
M  V30 2305 H 217.475 -3.71444 -1.12478 0
M  V30 2306 H 215.576 -2.15814 -3.03735 0
M  V30 2307 H 215.689 -3.99951 -2.63773 0
M  V30 2308 H 214.053 -2.07142 -1.48204 0
M  V30 2309 H 214.836 -3.40082 -0.46897 0
M  V30 2310 N 217.281 0.66697 -1.42791 0
M  V30 2311 C 218.211 1.79218 -1.49677 0
M  V30 2312 C 219.192 1.66405 -0.352623 0
M  V30 2313 O 220.377 1.85708 -0.567993 0
M  V30 2314 C 217.507 3.17565 -1.40605 0
M  V30 2315 C 216.461 3.45124 -2.53127 0
M  V30 2316 C 215.787 4.83127 -2.29112 0
M  V30 2317 C 217.087 3.41236 -3.95418 0
M  V30 2318 H 218.781 1.73713 -2.43853 0
M  V30 2319 H 216.327 0.83432 -1.17367 0
M  V30 2320 H 218.28 3.96022 -1.44029 0
M  V30 2321 H 217.004 3.23767 -0.429271 0
M  V30 2322 H 215.663 2.69031 -2.49034 0
M  V30 2323 H 215.311 4.85988 -1.29709 0
M  V30 2324 H 215.011 5.02528 -3.04531 0
M  V30 2325 H 216.535 5.63859 -2.34297 0
M  V30 2326 H 217.949 4.09651 -4.01073 0
M  V30 2327 H 216.346 3.72173 -4.70752 0
M  V30 2328 H 217.416 2.39665 -4.21532 0
M  V30 2329 N 218.759 1.29093 0.90403 0
M  V30 2330 C 220.17 1.15186 1.46932 0
M  V30 2331 C 220.521 -0.254587 1.94541 0
M  V30 2332 O 219.646 -1.14972 1.83332 0
M  V30 2333 C 220.241 2.08492 2.67051 0
M  V30 2334 C 218.8 1.98621 3.19729 0
M  V30 2335 C 217.947 1.9967 1.92425 0
M  V30 2336 H 220.898 1.41641 0.715789 0
M  V30 2337 H 220.919 1.65461 3.42641 0
M  V30 2338 H 220.431 3.10847 2.3237 0
M  V30 2339 H 218.532 0.993389 3.59114 0
M  V30 2340 H 218.645 2.86068 3.8432 0
M  V30 2341 H 217.009 1.44208 2.09943 0
M  V30 2342 H 217.792 3.03721 1.60026 0
M  V30 2343 N 220.237 -1.11381 1.11499 0
M  V30 2344 C 221.147 -2.21019 0.786628 0
M  V30 2345 C 222.163 -1.72597 -0.220507 0
M  V30 2346 O 223.339 -2.01321 -0.0565251 0
M  V30 2347 C 220.404 -3.459 0.235333 0
M  V30 2348 C 219.465 -4.09107 1.30115 0
M  V30 2349 C 218.698 -5.28027 0.776068 0
M  V30 2350 O 218.921 -5.6904 -0.393661 0
M  V30 2351 O 217.855 -5.81835 1.54114 0
M  V30 2352 H 221.681 -2.51521 1.70209 0
M  V30 2353 H 219.266 -1.19928 0.890928 0
M  V30 2354 H 221.148 -4.21346 -0.067715 0
M  V30 2355 H 219.823 -3.17049 -0.652828 0
M  V30 2356 H 218.73 -3.35391 1.65722 0
M  V30 2357 H 220.063 -4.42139 2.16273 0
M  V30 2358 N 221.715 -0.905404 -1.28997 0
M  V30 2359 C 222.625 -0.392246 -2.31298 0
M  V30 2360 C 223.641 0.515889 -1.66176 0
M  V30 2361 O 224.817 0.404093 -1.97304 0
M  V30 2362 C 221.882 0.36686 -3.44754 0
M  V30 2363 C 220.943 -0.573485 -4.25452 0
M  V30 2364 C 220.176 0.149488 -5.33491 0
M  V30 2365 O 220.399 1.37255 -5.5364 0
M  V30 2366 O 219.333 -0.510919 -5.99728 0
M  V30 2367 H 223.159 -1.2411 -2.77183 0
M  V30 2368 H 220.744 -0.669926 -1.33538 0
M  V30 2369 H 222.626 0.795907 -4.13816 0
M  V30 2370 H 221.301 1.19169 -3.00966 0
M  V30 2371 H 220.208 -1.05176 -3.59011 0
M  V30 2372 H 221.541 -1.36489 -4.72897 0
M  V30 2373 N 223.193 1.4272 -0.668489 0
M  V30 2374 C 224.439 2.01923 -0.188419 0
M  V30 2375 C 224.772 1.52704 1.19979 0
M  V30 2376 O 224.047 0.726566 1.8042 0
M  V30 2377 C 224.33 3.59451 -0.216085 0
M  V30 2378 C 224.183 4.18864 -1.6393 0
M  V30 2379 C 225.502 4.37903 0.439179 0
M  V30 2380 H 222.621 0.733674 -0.0699412 0
M  V30 2381 H 225.263 1.69822 -0.852076 0
M  V30 2382 H 223.413 3.86929 0.349012 0
M  V30 2383 H 225.085 4.02362 -2.25616 0
M  V30 2384 H 223.328 3.74933 -2.18193 0
M  V30 2385 H 223.999 5.27987 -1.61039 0
M  V30 2386 H 226.475 4.16079 -0.0417878 0
M  V30 2387 H 225.351 5.47519 0.389157 0
M  V30 2388 H 225.612 4.15303 1.51577 0
M  V30 2389 N 224.671 0.411399 1.52136 0
M  V30 2390 C 225.948 -0.222308 1.94333 0
M  V30 2391 C 226.328 -1.6242 1.34844 0
M  V30 2392 O 225.676 -2.22384 0.525145 0
M  V30 2393 C 225.886 -0.226345 3.48265 0
M  V30 2394 C 227.234 -0.444592 4.22266 0
M  V30 2395 O 228.258 -0.305602 3.54887 0
M  V30 2396 O 227.117 -0.718749 5.41753 0
M  V30 2397 H 224.211 -0.143907 0.814383 0
M  V30 2398 H 226.757 0.467506 1.63133 0
M  V30 2399 H 225.529 0.75475 3.83952 0
M  V30 2400 H 225.152 -0.960163 3.85832 0
M  V30 2401 N 226.149 -1.5696 0.141893 0
M  V30 2402 C 227.059 -2.20066 -0.812905 0
M  V30 2403 C 228.075 -1.18344 -1.27557 0
M  V30 2404 O 229.251 -1.50902 -1.33381 0
M  V30 2405 C 226.316 -2.80583 -2.03652 0
M  V30 2406 C 225.377 -3.97414 -1.62359 0
M  V30 2407 C 224.61 -4.55036 -2.78887 0
M  V30 2408 O 224.833 -4.11538 -3.94959 0
M  V30 2409 O 223.767 -5.45376 -2.54653 0
M  V30 2410 H 227.593 -3.02157 -0.305746 0
M  V30 2411 H 225.178 -1.49159 -0.0848799 0
M  V30 2412 H 227.06 -3.19067 -2.75272 0
M  V30 2413 H 225.735 -2.01508 -2.5333 0
M  V30 2414 H 224.642 -3.63656 -0.877775 0
M  V30 2415 H 225.975 -4.77994 -1.17401 0
M  V30 2416 N 227.627 0.131896 -1.57047 0
M  V30 2417 C 228.855 0.856461 -1.88341 0
M  V30 2418 C 229.27 1.74042 -0.731757 0
M  V30 2419 O 228.627 1.80051 0.297945 0
M  V30 2420 C 228.678 1.70064 -3.18999 0
M  V30 2421 O 228.399 0.852278 -4.2973 0
M  V30 2422 C 229.9 2.53148 -3.63911 0
M  V30 2423 H 227.12 0.246885 -0.62393 0
M  V30 2424 H 229.664 0.120152 -2.04147 0
M  V30 2425 H 227.819 2.38984 -3.04902 0
M  V30 2426 H 228.233 1.43329 -5.04537 0
M  V30 2427 H 229.707 3.07931 -4.58129 0
M  V30 2428 H 230.184 3.29901 -2.89935 0
M  V30 2429 H 230.79 1.89492 -3.80753 0
M  V30 2430 N 229.106 1.52395 0.401703 0
M  V30 2431 C 230.331 1.70972 1.17403 0
M  V30 2432 C 230.756 0.421615 1.83314 0
M  V30 2433 O 230.114 -0.621564 1.70312 0
M  V30 2434 C 230.162 2.85151 2.20728 0
M  V30 2435 O 229.266 2.51238 3.27037 0
M  V30 2436 H 228.607 0.568927 0.342372 0
M  V30 2437 H 231.137 1.99131 0.469891 0
M  V30 2438 H 231.147 3.10279 2.64936 0
M  V30 2439 H 229.822 3.78603 1.7214 0
M  V30 2440 H 228.399 2.36808 2.88057 0
M  V30 2441 N 230.584 -0.659388 1.43143 0
M  V30 2442 C 231.547 -1.75432 1.47501 0
M  V30 2443 C 232.547 -1.56707 0.360512 0
M  V30 2444 O 233.737 -1.62717 0.622002 0
M  V30 2445 C 230.869 -3.14239 1.32162 0
M  V30 2446 H 232.062 -1.7295 2.45006 0
M  V30 2447 H 229.615 -0.870469 1.29817 0
M  V30 2448 H 230.35 -3.22336 0.356401 0
M  V30 2449 H 230.135 -3.29235 2.12948 0
M  V30 2450 H 231.625 -3.94094 1.3813 0
M  V30 2451 N 232.062 -1.29571 -0.897171 0
M  V30 2452 C 232.972 -1.16808 -2.03453 0
M  V30 2453 C 233.988 -0.0907471 -1.73763 0
M  V30 2454 O 235.164 -0.303312 -1.99103 0
M  V30 2455 C 232.229 -0.848264 -3.36163 0
M  V30 2456 C 231.29 -2.0097 -3.79354 0
M  V30 2457 C 230.523 -1.70505 -5.05731 0
M  V30 2458 O 230.746 -0.62718 -5.66941 0
M  V30 2459 O 229.68 -2.5538 -5.45036 0
M  V30 2460 H 233.506 -2.12325 -2.17144 0
M  V30 2461 H 231.091 -1.09047 -1.02123 0
M  V30 2462 H 232.973 -0.684581 -4.15802 0
M  V30 2463 H 231.648 0.0771071 -3.23608 0
M  V30 2464 H 230.555 -2.22863 -3.00471 0
M  V30 2465 H 231.888 -2.91636 -3.96496 0
M  V30 2466 N 233.54 1.10788 -1.12088 0
M  V30 2467 C 234.817 1.79136 -0.785476 0
M  V30 2468 C 235.197 1.98246 0.725377 0
M  V30 2469 O 234.545 1.57258 1.65778 0
M  V30 2470 C 234.755 3.12375 -1.55636 0
M  V30 2471 C 236.103 3.8731 -1.74001 0
M  V30 2472 O 237.127 3.22085 -1.52117 0
M  V30 2473 O 235.986 5.04369 -2.10415 0
M  V30 2474 H 233.08 0.776226 -0.285311 0
M  V30 2475 H 235.626 1.1747 -1.2247 0
M  V30 2476 H 234.398 2.93863 -2.5838 0
M  V30 2477 H 234.021 3.81758 -1.11114 0
M  V30 2478 N 235.018 0.912232 1.28515 0
M  V30 2479 C 235.928 0.404506 2.31086 0
M  V30 2480 C 236.944 -0.50707 1.66448 0
M  V30 2481 O 238.12 -0.393624 1.97516 0
M  V30 2482 C 235.185 -0.348572 3.44943 0
M  V30 2483 C 234.246 0.59604 4.25142 0
M  V30 2484 C 233.479 -0.121194 5.33562 0
M  V30 2485 O 233.702 -1.34317 5.5436 0
M  V30 2486 O 232.636 0.542716 5.99448 0
M  V30 2487 H 236.462 1.25579 2.76521 0
M  V30 2488 H 234.047 0.676998 1.33181 0
M  V30 2489 H 235.929 -0.77395 4.14232 0
M  V30 2490 H 234.604 -1.17571 3.01594 0
M  V30 2491 H 233.511 1.07079 3.58448 0
M  V30 2492 H 234.844 1.38995 4.72167 0
M  V30 2493 N 236.496 -1.42363 0.676048 0
M  V30 2494 C 237.744 -2.01123 0.198437 0
M  V30 2495 C 238.065 -1.53731 -1.19966 0
M  V30 2496 O 237.335 -0.759518 -1.80577 0
M  V30 2497 H 235.915 -0.743678 0.0703721 0
M  V30 2498 H 238.577 -1.74263 0.872837 0
M  V30 2499 H 237.673 -3.11454 0.200686 0
M  V30 2500 N 237.974 -0.419461 -1.51915 0
M  V30 2501 C 239.22 0.153166 -2.02221 0
M  V30 2502 C 239.553 1.43907 -1.30401 0
M  V30 2503 O 238.828 1.90055 -0.413438 0
M  V30 2504 C 239.111 0.390291 -3.57979 0
M  V30 2505 C 238.964 -0.913014 -4.40436 0
M  V30 2506 C 240.283 1.16794 -4.2432 0
M  V30 2507 H 237.402 0.0541924 -0.735005 0
M  V30 2508 H 240.044 -0.554955 -1.81715 0
M  V30 2509 H 238.194 0.993491 -3.75582 0
M  V30 2510 H 239.866 -1.54882 -4.34522 0
M  V30 2511 H 238.109 -1.52168 -4.06236 0
M  V30 2512 H 238.78 -0.701361 -5.47526 0
M  V30 2513 H 241.256 0.657161 -4.10878 0
M  V30 2514 H 240.132 1.3026 -5.3322 0
M  V30 2515 H 240.393 2.19132 -3.83971 0
M  V30 2516 N 239.452 1.56882 -0.150215 0
M  V30 2517 C 240.677 2.01027 0.510184 0
M  V30 2518 C 241.102 1.02966 1.57415 0
M  V30 2519 O 240.46 0.00590158 1.81299 0
M  V30 2520 C 240.508 3.43899 1.08472 0
M  V30 2521 O 239.612 3.4885 2.19948 0
M  V30 2522 H 238.953 0.652233 0.124451 0
M  V30 2523 H 241.483 2.03093 -0.247894 0
M  V30 2524 H 241.493 3.82766 1.41259 0
M  V30 2525 H 240.168 4.14776 0.305582 0
M  V30 2526 H 238.745 3.21827 1.88366 0
M  V30 2527 N 240.93 -0.123565 1.57115 0
M  V30 2528 C 241.862 -1.17739 1.96648 0
M  V30 2529 C 242.875 -1.37906 0.865201 0
M  V30 2530 O 244.064 -1.37062 1.14351 0
M  V30 2531 C 241.164 -2.53821 2.24562 0
M  V30 2532 C 240.337 -2.54317 3.55867 0
M  V30 2533 C 239.396 -3.72112 3.72047 0
M  V30 2534 O 238.422 -3.55907 4.44206 0
M  V30 2535 N 239.624 -4.90498 3.10471 0
M  V30 2536 H 242.389 -0.841147 2.87654 0
M  V30 2537 H 239.95 -0.31289 1.58848 0
M  V30 2538 H 241.942 -3.31175 2.32606 0
M  V30 2539 H 240.512 -2.79645 1.39705 0
M  V30 2540 H 239.732 -1.62711 3.59053 0
M  V30 2541 H 241.02 -2.51701 4.42181 0
M  V30 2542 H 240.418 -5.06567 2.51806 0
M  V30 2543 H 238.975 -5.65544 3.24043 0
M  V30 2544 N 242.408 -1.52605 -0.393616 0
M  V30 2545 C 243.824 -1.41753 -0.733357 0
M  V30 2546 C 244.024 -0.534293 -1.94287 0
M  V30 2547 O 243.08 -0.0059787 -2.52499 0
M  V30 2548 C 244.393 -2.84531 -0.972772 0
M  V30 2549 C 245.941 -2.93978 -1.07453 0
M  V30 2550 C 246.416 -4.37756 -1.3466 0
M  V30 2551 N 247.907 -4.4106 -1.41492 0
M  V30 2552 C 248.642 -5.49387 -1.642 0
M  V30 2553 N 248.138 -6.67806 -1.8441 0
M  V30 2554 N 249.931 -5.36923 -1.66342 0
M  V30 2555 H 242.082 -2.08555 0.402328 0
M  V30 2556 H 244.345 -0.940654 0.117789 0
M  V30 2557 H 244.051 -3.51353 -0.156204 0
M  V30 2558 H 243.925 -3.26508 -1.88871 0
M  V30 2559 H 246.312 -2.27326 -1.88167 0
M  V30 2560 H 246.393 -2.55435 -0.136605 0
M  V30 2561 H 246.037 -5.04972 -0.544581 0
M  V30 2562 H 245.967 -4.73848 -2.2973 0
M  V30 2563 H 248.458 -3.55705 -1.27601 0
M  V30 2564 H 248.771 -7.46141 -2.01231 0
M  V30 2565 H 247.116 -6.70843 -1.81644 0
M  V30 2566 H 250.307 -4.43381 -1.50102 0
M  V30 2567 H 250.48 -6.21416 -1.837 0
M  V30 2568 N 243.887 0.651787 -1.4349 0
M  V30 2569 C 244.834 1.76462 -1.4876 0
M  V30 2570 C 245.804 1.62641 -0.337189 0
M  V30 2571 O 246.989 1.82864 -0.544544 0
M  V30 2572 C 244.129 3.14623 -1.41796 0
M  V30 2573 C 243.242 3.39568 -2.67053 0
M  V30 2574 C 242.377 4.67585 -2.52068 0
M  V30 2575 C 241.416 4.85639 -3.72587 0
M  V30 2576 N 240.553 6.04915 -3.56402 0
M  V30 2577 H 245.393 1.71293 -2.43849 0
M  V30 2578 H 242.93 0.835889 -1.21043 0
M  V30 2579 H 244.888 3.94496 -1.35753 0
M  V30 2580 H 243.518 3.18859 -0.50288 0
M  V30 2581 H 242.57 2.53783 -2.8337 0
M  V30 2582 H 243.882 3.48795 -3.56572 0
M  V30 2583 H 243.036 5.55586 -2.4374 0
M  V30 2584 H 241.775 4.60681 -1.60075 0
M  V30 2585 H 240.78 3.96073 -3.81321 0
M  V30 2586 H 242.005 4.94372 -4.65589 0
M  V30 2587 H 239.951 5.9914 -2.67146 0
M  V30 2588 H 239.868 6.15106 -4.39524 0
M  V30 2589 H 241.136 6.95533 -3.51929 0
M  V30 2590 N 245.365 1.30045 0.890287 0
M  V30 2591 C 246.612 1.18561 1.64163 0
M  V30 2592 C 246.94 -0.260852 1.92743 0
M  V30 2593 O 246.195 -1.20376 1.54299 0
M  V30 2594 C 246.494 1.95409 2.99249 0
M  V30 2595 C 246.16 3.45066 2.90242 0
M  V30 2596 C 244.822 3.85878 2.87492 0
M  V30 2597 C 247.174 4.4039 2.78758 0
M  V30 2598 C 244.502 5.20314 2.7109 0
M  V30 2599 C 246.854 5.74928 2.63894 0
M  V30 2600 C 245.518 6.14986 2.59516 0
M  V30 2601 H 244.788 0.433846 0.600715 0
M  V30 2602 H 247.435 1.61088 1.03552 0
M  V30 2603 H 245.74 1.45501 3.63781 0
M  V30 2604 H 247.437 1.8392 3.56334 0
M  V30 2605 H 244.027 3.12631 2.93189 0
M  V30 2606 H 248.211 4.09806 2.79952 0
M  V30 2607 H 243.467 5.50449 2.66112 0
M  V30 2608 H 247.641 6.48434 2.53981 0
M  V30 2609 H 245.268 7.19104 2.46565 0
M  V30 2610 N 246.843 -1.10192 1.12674 0
M  V30 2611 C 247.773 -2.18652 0.819362 0
M  V30 2612 C 248.754 -1.68698 -0.217915 0
M  V30 2613 O 249.939 -1.94041 -0.0785581 0
M  V30 2614 C 247.069 -3.46202 0.27594 0
M  V30 2615 C 246.023 -4.09444 1.24656 0
M  V30 2616 C 245.349 -5.31725 0.563258 0
M  V30 2617 C 246.649 -4.52863 2.60217 0
M  V30 2618 H 248.343 -2.44622 1.72628 0
M  V30 2619 H 245.889 -1.17571 0.831451 0
M  V30 2620 H 247.842 -4.21372 0.0486149 0
M  V30 2621 H 246.566 -3.1973 -0.666331 0
M  V30 2622 H 245.225 -3.36284 1.45974 0
M  V30 2623 H 244.873 -5.0153 -0.384235 0
M  V30 2624 H 244.573 -5.74991 1.21075 0
M  V30 2625 H 246.097 -6.09624 0.34503 0
M  V30 2626 H 247.511 -5.19294 2.42913 0
M  V30 2627 H 245.908 -5.06986 3.21068 0
M  V30 2628 H 246.978 -3.65656 3.18471 0
M  V30 2629 N 248.321 -0.919034 -1.28029 0
M  V30 2630 C 249.598 -0.473668 -1.89778 0
M  V30 2631 C 249.978 1.04783 -1.83259 0
M  V30 2632 O 249.326 1.8982 -1.27202 0
M  V30 2633 C 249.536 -1.00998 -3.34066 0
M  V30 2634 C 250.884 -1.06525 -4.1102 0
M  V30 2635 O 251.908 -0.958996 -3.43048 0
M  V30 2636 O 250.767 -1.22776 -5.3253 0
M  V30 2637 H 247.861 -0.15098 -0.813101 0
M  V30 2638 H 250.407 -1.01016 -1.36359 0
M  V30 2639 H 249.179 -2.05392 -3.33061 0
M  V30 2640 H 248.802 -0.454626 -3.94992 0
M  V30 2641 N 249.799 1.42003 -0.683588 0
M  V30 2642 C 251.047 2.01015 -0.209101 0
M  V30 2643 C 251.368 1.54365 1.19149 0
M  V30 2644 O 250.638 0.769083 1.80172 0
M  V30 2645 H 249.218 0.743294 -0.074315 0
M  V30 2646 H 251.88 1.73798 -0.882066 0
M  V30 2647 H 250.976 3.11343 -0.2172 0
M  V30 2648 N 251.277 0.427512 1.51691 0
M  V30 2649 C 252.225 -0.403359 2.29076 0
M  V30 2650 C 253.219 -1.02962 1.34518 0
M  V30 2651 O 254.425 -0.965715 1.51901 0
M  V30 2652 H 250.8 -0.148879 0.737115 0
M  V30 2653 H 252.771 0.270295 2.97173 0
M  V30 2654 C 251.52 -1.49763 3.13794 0
M  V30 2655 H 250.843 -1.02508 3.86435 0
M  V30 2656 H 252.283 -2.05244 3.71014 0
M  V30 2657 C 250.742 -2.47536 2.28533 0
M  V30 2658 O 251.272 -3.51848 1.93819 0
M  V30 2659 N 249.478 -2.18187 1.91945 0
M  V30 2660 H 249.025 -1.33389 2.20375 0
M  V30 2661 H 248.983 -2.83848 1.35195 0
M  V30 2662 N 252.755 -1.56801 0.158532 0
M  V30 2663 C 253.665 -2.20916 -0.789518 0
M  V30 2664 C 254.681 -1.1969 -1.26294 0
M  V30 2665 O 255.857 -1.52308 -1.31773 0
M  V30 2666 C 252.922 -2.82727 -2.00665 0
M  V30 2667 C 251.983 -3.99114 -1.58134 0
M  V30 2668 C 251.216 -4.57968 -2.74045 0
M  V30 2669 O 251.439 -4.15704 -3.90572 0
M  V30 2670 O 250.373 -5.48047 -2.48855 0
M  V30 2671 H 254.199 -3.02464 -0.273681 0
M  V30 2672 H 251.784 -1.4924 -0.0690548 0
M  V30 2673 H 253.666 -3.21968 -2.71872 0
M  V30 2674 H 252.341 -2.04184 -2.51179 0
M  V30 2675 H 251.248 -3.64567 -0.839155 0
M  V30 2676 H 252.581 -4.79212 -1.12325 0
M  V30 2677 N 254.233 0.115231 -1.57178 0
M  V30 2678 C 255.163 1.1423 -2.03651 0
M  V30 2679 C 256.144 1.42967 -0.921655 0
M  V30 2680 O 257.329 1.53343 -1.19162 0
M  V30 2681 C 254.459 2.4675 -2.44401 0
M  V30 2682 C 253.413 2.32467 -3.59365 0
M  V30 2683 C 252.739 3.69984 -3.86026 0
M  V30 2684 C 254.039 1.78203 -4.90959 0
M  V30 2685 H 255.733 0.755749 -2.89705 0
M  V30 2686 H 253.279 0.362093 -1.39373 0
M  V30 2687 H 255.232 3.18854 -2.75517 0
M  V30 2688 H 253.956 2.87302 -1.55322 0
M  V30 2689 H 252.615 1.62811 -3.28463 0
M  V30 2690 H 252.263 4.08028 -2.94147 0
M  V30 2691 H 251.963 3.61279 -4.63412 0
M  V30 2692 H 253.487 4.43587 -4.19599 0
M  V30 2693 H 254.901 2.40128 -5.20587 0
M  V30 2694 H 253.298 1.8031 -5.72371 0
M  V30 2695 H 254.368 0.739876 -4.79222 0
M  V30 2696 N 255.711 1.52812 0.385517 0
M  V30 2697 C 256.939 1.71907 1.15133 0
M  V30 2698 C 257.354 0.439004 1.83625 0
M  V30 2699 O 256.711 -0.586765 1.7281 0
M  V30 2700 C 256.762 2.87099 2.19673 0
M  V30 2701 O 256.483 4.10151 1.53973 0
M  V30 2702 C 257.984 3.17902 3.08955 0
M  V30 2703 H 255.204 0.575479 0.345057 0
M  V30 2704 H 257.748 1.99476 0.45052 0
M  V30 2705 H 255.903 2.61982 2.85384 0
M  V30 2706 H 256.317 4.74514 2.23465 0
M  V30 2707 H 257.791 4.01959 3.7833 0
M  V30 2708 H 258.268 2.3243 3.72657 0
M  V30 2709 H 258.874 3.44871 2.48885 0
M  V30 2710 N 257.189 -0.644168 1.43834 0
M  V30 2711 C 258.119 -1.76814 1.52509 0
M  V30 2712 C 259.1 -1.65823 0.379052 0
M  V30 2713 O 260.285 -1.84781 0.597466 0
M  V30 2714 C 257.415 -3.15288 1.4564 0
M  V30 2715 C 256.369 -3.41053 2.58586 0
M  V30 2716 C 255.695 -4.79421 2.36769 0
M  V30 2717 C 256.995 -3.34902 4.00797 0
M  V30 2718 H 258.689 -1.69812 2.46586 0
M  V30 2719 H 256.235 -0.815542 1.1868 0
M  V30 2720 H 258.188 -3.93681 1.50311 0
M  V30 2721 H 256.912 -3.23043 0.480725 0
M  V30 2722 H 255.571 -2.65035 2.53282 0
M  V30 2723 H 255.219 -4.83863 1.37424 0
M  V30 2724 H 254.919 -4.9762 3.12487 0
M  V30 2725 H 256.443 -5.6006 2.43238 0
M  V30 2726 H 257.857 -4.03218 4.07539 0
M  V30 2727 H 256.254 -3.64637 4.76613 0
M  V30 2728 H 257.324 -2.32928 4.25291 0
M  V30 2729 N 258.668 -1.30515 -0.883378 0
M  V30 2730 C 259.631 -1.1701 -1.97082 0
M  V30 2731 C 260.631 -0.10089 -1.60483 0
M  V30 2732 O 261.821 -0.349127 -1.70666 0
M  V30 2733 C 258.953 -0.793045 -3.31547 0
M  V30 2734 H 260.146 -2.13622 -2.10489 0
M  V30 2735 H 257.699 -1.13935 -1.06998 0
M  V30 2736 H 258.434 0.172499 -3.23841 0
M  V30 2737 H 258.219 -1.56576 -3.5948 0
M  V30 2738 H 259.709 -0.722073 -4.1131 0
M  V30 2739 N 260.146 1.09593 -1.13257 0
M  V30 2740 C 261.423 1.78293 -0.804432 0
M  V30 2741 C 261.803 1.99004 0.70431 0
M  V30 2742 O 261.151 1.59007 1.641 0
M  V30 2743 C 261.361 3.10707 -1.5894 0
M  V30 2744 C 262.709 3.85443 -1.78099 0
M  V30 2745 O 263.733 3.20454 -1.55525 0
M  V30 2746 O 262.592 5.02108 -2.15753 0
M  V30 2747 H 259.686 0.773156 -0.293528 0
M  V30 2748 H 262.232 1.16164 -1.23709 0
M  V30 2749 H 261.004 2.91106 -2.61482 0
M  V30 2750 H 260.627 3.80558 -1.15157 0
M  V30 2751 N 261.624 0.925811 1.2754 0
M  V30 2752 C 262.864 0.572521 1.96218 0
M  V30 2753 C 263.228 -0.869719 1.71172 0
M  V30 2754 O 264.429 -1.33119 2.33523 0
M  V30 2755 C 262.7 0.887325 3.4621 0
M  V30 2756 S 264.259 0.642266 4.34074 0
M  V30 2757 H 261.077 0.211403 0.678845 0
M  V30 2758 H 263.679 1.19384 1.54815 0
M  V30 2759 H 262.383 1.93469 3.61936 0
M  V30 2760 H 261.914 0.255123 3.92572 0
M  V30 2761 H 263.929 -0.500822 4.93666 0
M  V30 2762 N 263.102 -1.41638 0.69111 0
M  V30 2763 C 264.05 -2.32597 0.0115199 0
M  V30 2764 C 265.044 -1.5072 -0.773296 0
M  V30 2765 O 266.25 -1.66685 -0.67942 0
M  V30 2766 H 262.625 -0.751849 -0.0150746 0
M  V30 2767 H 264.596 -2.87593 0.795791 0
M  V30 2768 C 263.345 -3.35467 -0.914172 0
M  V30 2769 H 262.668 -3.9852 -0.319687 0
M  V30 2770 H 264.108 -4.01662 -1.35808 0
M  V30 2771 C 262.567 -2.69004 -2.02826 0
M  V30 2772 O 263.097 -2.53444 -3.11655 0
M  V30 2773 N 261.303 -2.2777 -1.80469 0
M  V30 2774 H 260.85 -2.40626 -0.919615 0
M  V30 2775 H 260.808 -1.83635 -2.55197 0
M  V30 2776 N 264.58 -0.43555 -1.51462 0
M  V30 2777 C 265.51 0.367376 -2.30592 0
M  V30 2778 C 266.491 1.02263 -1.35928 0
M  V30 2779 O 267.676 1.02661 -1.64847 0
M  V30 2780 C 264.806 1.46983 -3.14664 0
M  V30 2781 C 263.76 0.938161 -4.17591 0
M  V30 2782 C 263.086 2.13622 -4.90173 0
M  V30 2783 C 264.386 -0.0261621 -5.22293 0
M  V30 2784 H 266.08 -0.292969 -2.97963 0
M  V30 2785 H 263.626 -0.14234 -1.43295 0
M  V30 2786 H 265.579 2.03873 -3.688 0
M  V30 2787 H 264.303 2.15843 -2.4511 0
M  V30 2788 H 262.962 0.391481 -3.64504 0
M  V30 2789 H 262.61 2.81098 -4.17124 0
M  V30 2790 H 262.31 1.78688 -5.59772 0
M  V30 2791 H 263.834 2.7107 -5.47132 0
M  V30 2792 H 265.248 0.452384 -5.71512 0
M  V30 2793 H 263.645 -0.287992 -5.99409 0
M  V30 2794 H 264.715 -0.963391 -4.75233 0
M  V30 2795 N 266.058 1.56714 -0.166846 0
M  V30 2796 C 266.988 2.20754 0.760913 0
M  V30 2797 C 267.969 1.16178 1.24244 0
M  V30 2798 O 269.154 1.44592 1.29641 0
M  V30 2799 C 266.284 2.84478 1.99223 0
M  V30 2800 C 265.238 3.95053 1.64672 0
M  V30 2801 C 264.564 4.45805 2.95232 0
M  V30 2802 C 265.864 5.14865 0.878155 0
M  V30 2803 H 267.558 2.98537 0.22713 0
M  V30 2804 H 265.104 1.43596 0.107805 0
M  V30 2805 H 267.057 3.27951 2.64624 0
M  V30 2806 H 265.781 2.04056 2.55007 0
M  V30 2807 H 264.44 3.52228 1.01641 0
M  V30 2808 H 264.088 3.62181 3.49047 0
M  V30 2809 H 263.788 5.204 2.7287 0
M  V30 2810 H 265.312 4.91962 3.6167 0
M  V30 2811 H 266.726 5.55059 1.43466 0
M  V30 2812 H 265.123 5.95348 0.753738 0
M  V30 2813 H 266.193 4.84735 -0.126377 0
M  V30 2814 N 267.536 -0.106894 1.57237 0
M  V30 2815 C 268.947 -0.662723 1.74542 0
M  V30 2816 C 269.298 -1.7971 0.787319 0
M  V30 2817 O 268.423 -2.16368 -0.0369636 0
M  V30 2818 C 269.018 -1.20896 3.16496 0
M  V30 2819 C 267.577 -1.71096 3.35266 0
M  V30 2820 C 266.724 -0.615642 2.7038 0
M  V30 2821 H 269.675 0.119106 1.58252 0
M  V30 2822 H 269.696 -2.07847 3.18716 0
M  V30 2823 H 269.208 -0.383122 3.86204 0
M  V30 2824 H 267.309 -2.56119 2.70618 0
M  V30 2825 H 267.422 -1.81208 4.43509 0
M  V30 2826 H 265.786 -1.05222 2.31949 0
M  V30 2827 H 266.569 0.199419 3.4272 0
M  V30 2828 N 269.014 -1.53014 -0.377408 0
M  V30 2829 C 269.961 -1.78616 -1.46168 0
M  V30 2830 C 270.931 -0.629917 -1.53692 0
M  V30 2831 O 272.116 -0.870861 -1.69766 0
M  V30 2832 C 269.256 -1.97123 -2.8326 0
M  V30 2833 C 268.369 -3.24831 -2.84796 0
M  V30 2834 C 267.504 -3.33591 -4.13389 0
M  V30 2835 C 266.543 -4.55377 -4.09021 0
M  V30 2836 N 265.68 -4.61355 -5.29241 0
M  V30 2837 H 270.52 -2.71142 -1.23637 0
M  V30 2838 H 268.057 -1.34326 -0.599577 0
M  V30 2839 H 270.015 -2.05839 -3.62886 0
M  V30 2840 H 268.645 -1.07946 -3.04216 0
M  V30 2841 H 267.697 -3.25128 -1.97474 0
M  V30 2842 H 269.009 -4.14523 -2.77439 0
M  V30 2843 H 268.163 -3.41554 -5.01424 0
M  V30 2844 H 266.902 -2.41894 -4.23484 0
M  V30 2845 H 265.907 -4.47527 -3.19373 0
M  V30 2846 H 267.132 -5.48402 -4.00539 0
M  V30 2847 H 265.078 -3.72554 -5.39944 0
M  V30 2848 H 264.995 -5.44935 -5.24006 0
M  V30 2849 H 266.263 -4.73586 -6.19141 0
M  V30 2850 N 270.492 0.636531 -1.44174 0
M  V30 2851 C 271.422 1.76003 -1.53444 0
M  V30 2852 C 272.403 1.65619 -0.387841 0
M  V30 2853 O 273.588 1.84461 -0.607257 0
M  V30 2854 C 270.718 3.14511 -1.4731 0
M  V30 2855 C 269.672 3.39677 -2.60391 0
M  V30 2856 C 268.998 4.78159 -2.39308 0
M  V30 2857 C 270.298 3.32772 -4.02567 0
M  V30 2858 H 271.992 1.68501 -2.47483 0
M  V30 2859 H 269.538 0.809237 -1.19111 0
M  V30 2860 H 271.491 3.92878 -1.52397 0
M  V30 2861 H 270.215 3.22783 -0.49785 0
M  V30 2862 H 268.874 2.63688 -2.54684 0
M  V30 2863 H 268.522 4.83128 -1.39988 0
M  V30 2864 H 268.222 4.95956 -3.15122 0
M  V30 2865 H 269.746 5.58762 -2.46205 0
M  V30 2866 H 271.16 4.01051 -4.09672 0
M  V30 2867 H 269.557 3.62104 -4.7854 0
M  V30 2868 H 270.627 2.30669 -4.2652 0
M  V30 2869 N 271.97 1.30982 0.876444 0
M  V30 2870 C 272.92 1.14688 1.97055 0
M  V30 2871 C 273.904 0.0596593 1.60789 0
M  V30 2872 O 275.096 0.283892 1.74708 0
M  V30 2873 C 272.225 0.849627 3.3262 0
M  V30 2874 C 271.311 1.97752 3.75173 0
M  V30 2875 N 271.702 3.22384 3.89746 0
M  V30 2876 C 270 1.8758 4.04635 0
M  V30 2877 C 270.701 3.96121 4.25985 0
M  V30 2878 N 269.677 3.24237 4.36315 0
M  V30 2879 H 273.479 2.09204 2.06424 0
M  V30 2880 H 270.993 1.22445 1.06682 0
M  V30 2881 H 272.99 0.713895 4.10742 0
M  V30 2882 H 271.65 -0.087376 3.24582 0
M  V30 2883 H 272.661 3.57575 3.74647 0
M  V30 2884 H 269.338 1.01303 4.05024 0
M  V30 2885 H 270.728 5.03491 4.44911 0
M  V30 2886 N 273.449 -1.08991 1.13837 0
M  V30 2887 C 274.698 -1.80631 0.897509 0
M  V30 2888 C 275.011 -1.86872 -0.57777 0
M  V30 2889 O 276.217 -2.54866 -0.935701 0
M  V30 2890 C 274.673 -3.24517 1.55618 0
M  V30 2891 C 274.281 -3.26529 3.0673 0
M  V30 2892 C 276.025 -4.00882 1.3962 0
M  V30 2893 C 273.932 -4.64965 3.65461 0
M  V30 2894 H 272.862 -0.67691 0.332129 0
M  V30 2895 H 275.513 -1.2246 1.3666 0
M  V30 2896 H 273.895 -3.82778 1.01476 0
M  V30 2897 H 275.069 -2.78008 3.67489 0
M  V30 2898 H 273.384 -2.63656 3.22296 0
M  V30 2899 H 275.981 -5.03167 1.80906 0
M  V30 2900 H 276.324 -4.14896 0.341578 0
M  V30 2901 H 276.857 -3.49075 1.90766 0
M  V30 2902 H 273.596 -4.56153 4.70749 0
M  V30 2903 H 273.116 -5.13792 3.09481 0
M  V30 2904 H 274.795 -5.3394 3.654 0
M  V30 2905 N 274.927 -0.932562 -1.27047 0
M  V30 2906 C 276.173 -0.576412 -1.94436 0
M  V30 2907 C 276.506 0.880891 -1.73072 0
M  V30 2908 O 275.781 1.62905 -1.06264 0
M  V30 2909 C 276.064 -0.909031 -3.48437 0
M  V30 2910 C 275.917 -2.42044 -3.79123 0
M  V30 2911 C 277.236 -0.418341 -4.38107 0
M  V30 2912 H 274.355 -0.210888 -0.706184 0
M  V30 2913 H 276.997 -1.16522 -1.50075 0
M  V30 2914 H 275.147 -0.407947 -3.86352 0
M  V30 2915 H 276.819 -2.99359 -3.50973 0
M  V30 2916 H 275.062 -2.86758 -3.25503 0
M  V30 2917 H 275.733 -2.6037 -4.86736 0
M  V30 2918 H 278.209 -0.847856 -4.0737 0
M  V30 2919 H 277.085 -0.679981 -5.44672 0
M  V30 2920 H 277.346 0.681642 -4.36814 0
M  V30 2921 N 276.405 1.4127 -0.698611 0
M  V30 2922 C 277.337 2.292 0.00399731 0
M  V30 2923 C 278.35 1.44944 0.741279 0
M  V30 2924 O 279.539 1.68416 0.591477 0
M  V30 2925 C 276.639 3.22875 1.02979 0
M  V30 2926 C 275.812 4.35904 0.36151 0
M  V30 2927 C 274.871 5.10134 1.29033 0
M  V30 2928 O 273.897 5.63809 0.781562 0
M  V30 2929 N 275.099 5.17885 2.6225 0
M  V30 2930 H 277.864 2.9014 -0.750921 0
M  V30 2931 H 275.425 1.52455 -0.544882 0
M  V30 2932 H 277.417 3.69404 1.65296 0
M  V30 2933 H 275.987 2.63221 1.68622 0
M  V30 2934 H 275.207 3.91719 -0.441584 0
M  V30 2935 H 276.495 5.08696 -0.103055 0
M  V30 2936 H 275.893 4.7573 3.061 0
M  V30 2937 H 274.45 5.6798 3.19754 0
M  V30 2938 N 277.883 0.443576 1.51229 0
M  V30 2939 C 279.129 -0.120975 2.02439 0
M  V30 2940 C 279.462 -1.41815 1.32674 0
M  V30 2941 O 278.737 -1.89373 0.443622 0
M  V30 2942 C 279.02 -0.333291 3.58554 0
M  V30 2943 C 278.873 0.982968 4.38928 0
M  V30 2944 C 280.192 -1.10028 4.26124 0
M  V30 2945 H 277.311 -0.0424923 0.735774 0
M  V30 2946 H 279.953 0.583794 1.80809 0
M  V30 2947 H 278.103 -0.933614 3.77115 0
M  V30 2948 H 279.775 1.61775 4.32003 0
M  V30 2949 H 278.018 1.58611 4.03763 0
M  V30 2950 H 278.689 0.788379 5.46341 0
M  V30 2951 H 281.165 -0.591711 4.11871 0
M  V30 2952 H 280.041 -1.21761 5.35225 0
M  V30 2953 H 280.302 -2.12996 3.87408 0
M  V30 2954 N 279.361 -1.56624 0.175154 0
M  V30 2955 C 280.607 -1.9729 -0.469506 0
M  V30 2956 C 280.94 -1.06128 -1.62636 0
M  V30 2957 O 280.215 -0.109183 -1.94193 0
M  V30 2958 C 280.498 -3.47375 -0.948804 0
M  V30 2959 C 280.351 -4.49317 0.208491 0
M  V30 2960 C 281.67 -4.00652 -1.82116 0
M  V30 2961 H 278.789 -0.717317 -0.16919 0
M  V30 2962 H 281.431 -1.88184 0.262062 0
M  V30 2963 H 279.581 -3.55267 -1.57219 0
M  V30 2964 H 281.253 -4.53482 0.845682 0
M  V30 2965 H 279.496 -4.25121 0.863395 0
M  V30 2966 H 280.167 -5.51741 -0.169059 0
M  V30 2967 H 282.643 -3.95416 -1.2956 0
M  V30 2968 H 281.519 -5.06075 -2.12554 0
M  V30 2969 H 281.78 -3.44699 -2.7683 0
M  V30 2970 N 280.839 0.0985539 -1.57292 0
M  V30 2971 C 282.079 0.808332 -1.87737 0
M  V30 2972 C 282.443 1.7607 -0.76572 0
M  V30 2973 O 283.644 2.51358 -0.952499 0
M  V30 2974 C 281.915 1.52093 -3.23423 0
M  V30 2975 S 283.474 2.26947 -3.75554 0
M  V30 2976 H 280.292 0.269377 -0.657995 0
M  V30 2977 H 282.894 0.0656269 -1.9539 0
M  V30 2978 H 281.598 0.81363 -4.02254 0
M  V30 2979 H 281.129 2.30361 -3.189 0
M  V30 2980 H 283.144 3.53027 -3.48692 0
M  V30 2981 N 282.317 1.53212 0.369288 0
M  V30 2982 C 283.264 1.79388 1.45219 0
M  V30 2983 C 284.234 0.638059 1.53356 0
M  V30 2984 O 285.419 0.879852 1.69302 0
M  V30 2985 C 282.559 1.98623 2.82211 0
M  V30 2986 C 281.672 3.26337 2.8307 0
M  V30 2987 C 280.807 3.35779 4.11614 0
M  V30 2988 C 279.846 4.5754 4.06601 0
M  V30 2989 N 278.983 4.64155 5.26787 0
M  V30 2990 H 283.823 2.71794 1.22198 0
M  V30 2991 H 281.36 1.34642 0.592444 0
M  V30 2992 H 283.318 2.07761 3.61789 0
M  V30 2993 H 281.948 1.09558 3.03639 0
M  V30 2994 H 281 3.26171 1.95747 0
M  V30 2995 H 282.312 4.15988 2.75237 0
M  V30 2996 H 281.466 3.44208 4.99606 0
M  V30 2997 H 280.205 2.44137 4.22195 0
M  V30 2998 H 279.21 4.49215 3.16996 0
M  V30 2999 H 280.435 5.50519 3.97625 0
M  V30 3000 H 278.381 3.75413 5.3796 0
M  V30 3001 H 278.298 5.47706 5.21109 0
M  V30 3002 H 279.566 4.76863 6.16621 0
M  V30 3003 N 283.795 -0.628877 1.44509 0
M  V30 3004 C 284.742 -1.74074 1.51549 0
M  V30 3005 C 285.712 -1.62084 0.363021 0
M  V30 3006 O 286.897 -1.81975 0.573567 0
M  V30 3007 C 284.037 -3.12328 1.46784 0
M  V30 3008 C 283.15 -3.35277 2.72422 0
M  V30 3009 C 282.285 -4.63515 2.59475 0
M  V30 3010 C 281.324 -4.7965 3.80266 0
M  V30 3011 N 280.461 -5.99168 3.65981 0
M  V30 3012 H 285.301 -1.67392 2.46544 0
M  V30 3013 H 282.838 -0.816527 1.22357 0
M  V30 3014 H 284.796 -3.92286 1.42012 0
M  V30 3015 H 283.426 -3.18018 0.553544 0
M  V30 3016 H 282.478 -2.49242 2.87372 0
M  V30 3017 H 283.79 -3.43078 3.62076 0
M  V30 3018 H 282.944 -5.51638 2.52548 0
M  V30 3019 H 281.683 -4.58076 1.67384 0
M  V30 3020 H 280.688 -3.89957 3.87574 0
M  V30 3021 H 281.913 -4.86902 4.73395 0
M  V30 3022 H 279.859 -5.94814 2.76644 0
M  V30 3023 H 279.776 -6.08035 4.49254 0
M  V30 3024 H 281.044 -6.89846 3.6295 0
M  V30 3025 N 285.273 -1.31445 -0.869486 0
M  V30 3026 C 286.503 -1.23942 -1.65294 0
M  V30 3027 C 286.911 0.197561 -1.88166 0
M  V30 3028 O 286.254 1.14019 -1.44033 0
M  V30 3029 C 286.316 -1.91385 -3.04322 0
M  V30 3030 C 285.98 -3.40726 -3.04557 0
M  V30 3031 C 286.977 -4.36464 -2.82481 0
M  V30 3032 C 284.662 -3.82425 -3.25663 0
M  V30 3033 C 286.656 -5.71876 -2.8149 0
M  V30 3034 C 284.343 -5.1795 -3.243 0
M  V30 3035 C 285.341 -6.12486 -3.02241 0
M  V30 3036 O 285.029 -7.45534 -3.00724 0
M  V30 3037 H 284.761 -0.429459 -0.522054 0
M  V30 3038 H 287.315 -1.73873 -1.0935 0
M  V30 3039 H 285.545 -1.36004 -3.61994 0
M  V30 3040 H 287.234 -1.77791 -3.64891 0
M  V30 3041 H 288 -4.05576 -2.65956 0
M  V30 3042 H 283.879 -3.09274 -3.41863 0
M  V30 3043 H 287.423 -6.45638 -2.64191 0
M  V30 3044 H 283.32 -5.48473 -3.40365 0
M  V30 3045 H 284.088 -7.54713 -3.16782 0
M  V30 3046 N 286.751 1.08385 -1.14413 0
M  V30 3047 C 288.167 1.32844 -0.884563 0
M  V30 3048 C 288.367 1.95841 0.474181 0
M  V30 3049 O 287.423 2.21158 1.21842 0
M  V30 3050 C 288.736 2.22978 -2.01745 0
M  V30 3051 C 290.284 2.36458 -2.05077 0
M  V30 3052 C 290.759 3.29934 -3.1766 0
M  V30 3053 N 292.25 3.37511 -3.17239 0
M  V30 3054 C 292.985 4.09871 -4.0099 0
M  V30 3055 N 292.481 4.84936 -4.94781 0
M  V30 3056 N 294.274 4.05704 -3.89051 0
M  V30 3057 H 286.425 0.658756 -2.01926 0
M  V30 3058 H 288.688 0.352821 -0.879899 0
M  V30 3059 H 288.394 1.83934 -2.99769 0
M  V30 3060 H 288.268 3.23441 -1.94077 0
M  V30 3061 H 290.655 2.7476 -1.0766 0
M  V30 3062 H 290.736 1.35736 -2.16816 0
M  V30 3063 H 290.38 2.92352 -4.15322 0
M  V30 3064 H 290.31 4.30584 -3.03158 0
M  V30 3065 H 292.801 2.83996 -2.49308 0
M  V30 3066 H 293.114 5.37612 -5.55151 0
M  V30 3067 H 291.459 4.83988 -4.98779 0
M  V30 3068 H 294.65 3.46167 -3.15097 0
M  V30 3069 H 294.823 4.61834 -4.54547 0
M  V30 3070 N 288.23 0.939286 1.26551 0
M  V30 3071 C 289.478 0.58469 1.93457 0
M  V30 3072 C 289.799 -0.878774 1.74076 0
M  V30 3073 O 289.069 -1.62421 1.09528 0
M  V30 3074 H 287.649 0.21325 0.715914 0
M  V30 3075 H 290.311 1.1942 1.54029 0
M  V30 3076 H 289.407 0.800849 3.0165 0
M  V30 3077 N 289.708 -1.40897 0.706093 0
M  V30 3078 C 290.955 -2.01054 0.241531 0
M  V30 3079 C 291.283 -1.55956 -1.16223 0
M  V30 3080 O 290.538 -0.766336 -1.80072 0
M  V30 3081 C 290.837 -3.5646 0.259099 0
M  V30 3082 C 290.503 -4.21106 1.61184 0
M  V30 3083 C 289.165 -4.38479 1.98216 0
M  V30 3084 C 291.517 -4.57256 2.50132 0
M  V30 3085 C 288.845 -4.89282 3.2376 0
M  V30 3086 C 291.197 -5.09454 3.7502 0
M  V30 3087 C 289.861 -5.25037 4.12181 0
M  V30 3088 H 289.131 -0.73571 0.0883825 0
M  V30 3089 H 291.778 -1.68645 0.907257 0
M  V30 3090 H 290.083 -3.88721 -0.490189 0
M  V30 3091 H 291.78 -4.00826 -0.11804 0
M  V30 3092 H 288.37 -4.07966 1.31384 0
M  V30 3093 H 292.554 -4.43479 2.228 0
M  V30 3094 H 287.81 -4.99531 3.52532 0
M  V30 3095 H 291.984 -5.36404 4.44121 0
M  V30 3096 H 289.611 -5.64164 5.09532 0
M  V30 3097 N 291.186 -0.45159 -1.50991 0
M  V30 3098 C 292.414 0.108334 -2.06616 0
M  V30 3099 C 292.829 1.35224 -1.31757 0
M  V30 3100 O 292.186 1.78475 -0.381174 0
M  V30 3101 C 292.237 0.41619 -3.59096 0
M  V30 3102 O 291.958 -0.778361 -4.3113 0
M  V30 3103 C 293.459 1.02523 -4.31282 0
M  V30 3104 H 290.679 0.00159995 -0.670998 0
M  V30 3105 H 293.223 -0.634771 -1.94399 0
M  V30 3106 H 291.378 1.10921 -3.71181 0
M  V30 3107 H 291.792 -0.511181 -5.22003 0
M  V30 3108 H 293.266 1.19053 -5.39009 0
M  V30 3109 H 293.743 2.01013 -3.905 0
M  V30 3110 H 294.349 0.371173 -4.23677 0
M  V30 3111 N 292.664 1.56529 -0.183458 0
M  V30 3112 C 293.913 1.96419 0.458511 0
M  V30 3113 C 294.226 1.0727 1.63562 0
M  V30 3114 O 295.432 1.36893 2.34462 0
M  V30 3115 C 293.888 3.49298 0.867122 0
M  V30 3116 C 293.496 4.47092 -0.285057 0
M  V30 3117 C 295.24 3.97983 1.47683 0
M  V30 3118 C 293.147 5.91225 0.143862 0
M  V30 3119 H 292.077 0.733394 0.175071 0
M  V30 3120 H 294.728 1.81448 -0.273624 0
M  V30 3121 H 293.11 3.59731 1.65559 0
M  V30 3122 H 294.284 4.48383 -1.0625 0
M  V30 3123 H 292.599 4.08535 -0.805503 0
M  V30 3124 H 295.196 5.03134 1.80999 0
M  V30 3125 H 295.539 3.41618 2.37914 0
M  V30 3126 H 296.072 3.90617 0.752562 0
M  V30 3127 H 292.811 6.5149 -0.723974 0
M  V30 3128 H 292.331 5.93214 0.886413 0
M  V30 3129 H 294.01 6.44362 0.583628 0
M  V30 3130 N 294.142 -0.090211 1.57342 0
M  V30 3131 C 295.553 -0.644173 1.75235 0
M  V30 3132 C 295.904 -1.78865 0.806335 0
M  V30 3133 O 295.029 -2.16395 -0.0140128 0
M  V30 3134 C 295.624 -1.17532 3.1776 0
M  V30 3135 C 294.183 -1.67531 3.37061 0
M  V30 3136 C 293.33 -0.58693 2.71017 0
M  V30 3137 H 296.281 0.135884 1.58117 0
M  V30 3138 H 296.302 -2.04455 3.20902 0
M  V30 3139 H 295.814 -0.342138 3.86589 0
M  V30 3140 H 293.915 -2.53234 2.73319 0
M  V30 3141 H 294.028 -1.76493 4.45406 0
M  V30 3142 H 292.392 -1.02756 2.33052 0
M  V30 3143 H 293.175 0.235758 3.4249 0
M  V30 3144 N 295.62 -1.53406 -0.361157 0
M  V30 3145 C 296.53 -1.83122 -1.4664 0
M  V30 3146 C 297.546 -0.719943 -1.58407 0
M  V30 3147 O 298.722 -1.01046 -1.74218 0
M  V30 3148 C 295.787 -2.01891 -2.81853 0
M  V30 3149 C 294.848 -3.25784 -2.79577 0
M  V30 3150 C 294.081 -3.43648 -4.0834 0
M  V30 3151 O 294.304 -2.65714 -5.0473 0
M  V30 3152 O 293.238 -4.37018 -4.13883 0
M  V30 3153 H 297.064 -2.7703 -1.24451 0
M  V30 3154 H 294.649 -1.38841 -0.551678 0
M  V30 3155 H 296.531 -2.15782 -3.61962 0
M  V30 3156 H 295.206 -1.11173 -3.0401 0
M  V30 3157 H 294.113 -3.17312 -1.98151 0
M  V30 3158 H 295.446 -4.16439 -2.62373 0
M  V30 3159 N 297.098 0.621204 -1.44841 0
M  V30 3160 C 298.061 1.71459 -1.521 0
M  V30 3161 C 299.061 1.55696 -0.401933 0
M  V30 3162 O 300.251 1.61011 -0.664925 0
M  V30 3163 C 297.383 3.10624 -1.40447 0
M  V30 3164 H 298.576 1.66394 -2.49506 0
M  V30 3165 H 296.129 0.835745 -1.3208 0
M  V30 3166 H 296.864 3.21277 -0.441737 0
M  V30 3167 H 296.649 3.23473 -2.21602 0
M  V30 3168 H 298.139 3.90293 -1.4853 0
M  V30 3169 N 298.576 1.31904 0.862503 0
M  V30 3170 C 299.823 1.22017 1.61611 0
M  V30 3171 C 300.151 -0.21991 1.93253 0
M  V30 3172 O 299.406 -1.17076 1.56817 0
M  V30 3173 C 299.705 2.01713 2.95037 0
M  V30 3174 C 299.371 3.51145 2.82857 0
M  V30 3175 C 298.033 3.91889 2.79243 0
M  V30 3176 C 300.385 4.46204 2.69353 0
M  V30 3177 C 297.713 5.25947 2.59993 0
M  V30 3178 C 300.065 5.80397 2.5164 0
M  V30 3179 C 298.729 6.20352 2.46413 0
M  V30 3180 H 297.999 0.44649 0.591378 0
M  V30 3181 H 300.646 1.63248 1.00111 0
M  V30 3182 H 298.951 1.53185 3.60613 0
M  V30 3183 H 300.648 1.91437 3.52353 0
M  V30 3184 H 297.238 3.1878 2.86491 0
M  V30 3185 H 301.422 4.15652 2.71196 0
M  V30 3186 H 296.678 5.5597 2.54376 0
M  V30 3187 H 300.852 6.53676 2.40169 0
M  V30 3188 H 298.479 7.24172 2.31256 0
M  V30 3189 N 300.054 -1.07777 1.14986 0
M  V30 3190 C 301.47 -1.32373 0.891596 0
M  V30 3191 C 301.67 -1.9609 -0.463788 0
M  V30 3192 O 300.726 -2.21801 -1.20667 0
M  V30 3193 C 302.039 -2.21905 2.02925 0
M  V30 3194 C 303.587 -2.35367 2.06329 0
M  V30 3195 C 304.062 -3.28245 3.19405 0
M  V30 3196 N 305.553 -3.35824 3.19024 0
M  V30 3197 C 306.288 -4.07739 4.03158 0
M  V30 3198 N 305.784 -4.82306 4.97346 0
M  V30 3199 N 307.577 -4.03635 3.91197 0
M  V30 3200 H 299.728 -0.648039 2.02273 0
M  V30 3201 H 301.991 -0.348149 0.881757 0
M  V30 3202 H 301.697 -1.82342 3.0074 0
M  V30 3203 H 301.571 -3.22407 1.95789 0
M  V30 3204 H 303.958 -2.74186 1.09116 0
M  V30 3205 H 304.039 -1.34585 2.17533 0
M  V30 3206 H 303.683 -2.90146 4.16867 0
M  V30 3207 H 303.613 -4.28971 3.05437 0
M  V30 3208 H 306.104 -2.8267 2.50811 0
M  V30 3209 H 306.417 -5.34661 5.57994 0
M  V30 3210 H 304.762 -4.81337 5.01338 0
M  V30 3211 H 307.953 -3.44491 3.16928 0
M  V30 3212 H 308.126 -4.59417 4.5699 0
M  V30 3213 N 301.532 -0.945985 -1.26051 0
M  V30 3214 C 302.78 -0.594941 -1.93145 0
M  V30 3215 C 303.101 0.86953 -1.7454 0
M  V30 3216 O 302.371 1.61838 -1.10387 0
M  V30 3217 H 300.951 -0.217044 -0.714773 0
M  V30 3218 H 303.613 -1.20235 -1.53393 0
M  V30 3219 H 302.709 -0.816835 -3.01221 0
M  V30 3220 N 303.011 1.40521 -0.713556 0
M  V30 3221 C 304.257 2.01221 -0.252564 0
M  V30 3222 C 304.59 1.56444 1.1506 0
M  V30 3223 O 303.865 0.783597 1.78017 0
M  V30 3224 C 304.148 3.58582 -0.330332 0
M  V30 3225 C 304.001 4.13437 -1.77173 0
M  V30 3226 C 305.32 4.39079 0.299641 0
M  V30 3227 H 302.439 0.731077 -0.0932471 0
M  V30 3228 H 305.081 1.67026 -0.905673 0
M  V30 3229 H 303.231 3.87844 0.225737 0
M  V30 3230 H 304.903 3.9498 -2.38303 0
M  V30 3231 H 303.146 3.67801 -2.3001 0
M  V30 3232 H 303.817 5.22597 -1.77755 0
M  V30 3233 H 306.293 4.15735 -0.174139 0
M  V30 3234 H 305.169 5.4848 0.214771 0
M  V30 3235 H 305.43 4.19915 1.38288 0
M  V30 3236 N 304.489 0.459591 1.5075 0
M  V30 3237 C 305.439 -0.358926 2.25157 0
M  V30 3238 C 306.423 -0.971285 1.28276 0
M  V30 3239 O 307.615 -0.885739 1.53244 0
M  V30 3240 C 304.744 -1.44695 3.11317 0
M  V30 3241 C 303.83 -0.842894 4.15639 0
M  V30 3242 N 304.221 0.0299373 5.05791 0
M  V30 3243 C 302.519 -1.10809 4.32015 0
M  V30 3244 C 303.22 0.371563 5.80512 0
M  V30 3245 N 302.196 -0.250409 5.43023 0
M  V30 3246 H 305.998 0.313636 2.92222 0
M  V30 3247 H 303.512 0.273021 1.60089 0
M  V30 3248 H 305.509 -2.04641 3.63218 0
M  V30 3249 H 304.169 -2.12162 2.45799 0
M  V30 3250 H 305.18 0.39797 5.16369 0
M  V30 3251 H 301.857 -1.7786 3.77719 0
M  V30 3252 H 303.247 1.08319 6.63111 0
M  V30 3253 N 305.967 -1.56429 0.191757 0
M  V30 3254 C 307.383 -1.58754 -0.164137 0
M  V30 3255 C 307.583 -1.20782 -1.61288 0
M  V30 3256 O 306.639 -0.928999 -2.34789 0
M  V30 3257 C 307.952 -3.00396 0.135195 0
M  V30 3258 C 309.5 -3.1291 0.0750351 0
M  V30 3259 C 309.975 -4.56679 0.347632 0
M  V30 3260 N 311.466 -4.62252 0.296131 0
M  V30 3261 C 312.201 -5.71379 0.480948 0
M  V30 3262 N 311.697 -6.88986 0.725933 0
M  V30 3263 N 313.49 -5.60563 0.415435 0
M  V30 3264 H 305.641 -1.79393 1.13718 0
M  V30 3265 H 307.904 -0.832414 0.453643 0
M  V30 3266 H 307.61 -3.32726 1.13958 0
M  V30 3267 H 307.484 -3.72963 -0.563773 0
M  V30 3268 H 309.871 -2.80394 -0.919948 0
M  V30 3269 H 309.952 -2.42736 0.807029 0
M  V30 3270 H 309.596 -4.89907 1.33992 0
M  V30 3271 H 309.526 -5.25039 -0.405212 0
M  V30 3272 H 312.017 -3.7773 0.113259 0
M  V30 3273 H 312.33 -7.68046 0.855857 0
M  V30 3274 H 310.675 -6.90801 0.762788 0
M  V30 3275 H 313.866 -4.67561 0.224486 0
M  V30 3276 H 314.039 -6.45551 0.562889 0
M  V30 3277 N 307.445 0.0818655 -1.57387 0
M  V30 3278 C 308.675 0.794954 -1.90694 0
M  V30 3279 C 309.083 1.72147 -0.784982 0
M  V30 3280 O 308.426 1.81974 0.251196 0
M  V30 3281 C 308.488 1.65042 -3.19376 0
M  V30 3282 C 308.152 0.894337 -4.48164 0
M  V30 3283 C 309.149 0.21813 -5.19442 0
M  V30 3284 C 306.834 0.864495 -4.94805 0
M  V30 3285 C 308.828 -0.477802 -6.35607 0
M  V30 3286 C 306.515 0.164785 -6.10878 0
M  V30 3287 C 307.513 -0.505173 -6.81129 0
M  V30 3288 O 307.201 -1.19363 -7.94989 0
M  V30 3289 H 306.933 0.231779 -0.635023 0
M  V30 3290 H 309.487 0.059493 -2.05314 0
M  V30 3291 H 307.717 2.42844 -3.00938 0
M  V30 3292 H 309.406 2.24127 -3.38411 0
M  V30 3293 H 310.172 0.232558 -4.84442 0
M  V30 3294 H 306.051 1.37542 -4.40004 0
M  V30 3295 H 309.595 -1.00129 -6.90377 0
M  V30 3296 H 305.492 0.148249 -6.4533 0
M  V30 3297 H 306.26 -1.10188 -8.11049 0
M  V30 3298 N 308.923 1.53595 0.353017 0
M  V30 3299 C 309.853 1.83902 1.43883 0
M  V30 3300 C 310.834 0.693421 1.55324 0
M  V30 3301 O 312.019 0.944452 1.69687 0
M  V30 3302 C 309.149 2.04016 2.8106 0
M  V30 3303 C 308.103 3.19814 2.84434 0
M  V30 3304 C 307.429 3.25244 4.24406 0
M  V30 3305 C 308.729 4.58133 2.50822 0
M  V30 3306 H 310.423 2.74835 1.1877 0
M  V30 3307 H 307.969 1.32242 0.569917 0
M  V30 3308 H 309.922 2.238 3.57059 0
M  V30 3309 H 308.646 1.09804 3.07588 0
M  V30 3310 H 307.305 2.9987 2.10887 0
M  V30 3311 H 306.953 2.28646 4.48029 0
M  V30 3312 H 306.653 4.03054 4.27576 0
M  V30 3313 H 308.177 3.47228 5.0226 0
M  V30 3314 H 309.591 4.77995 3.16534 0
M  V30 3315 H 307.988 5.38276 2.6529 0
M  V30 3316 H 309.058 4.62387 1.46034 0
M  V30 3317 N 310.401 -0.613514 1.45168 0
M  V30 3318 C 311.626 -1.40437 1.52618 0
M  V30 3319 C 312.051 -1.87438 0.157707 0
M  V30 3320 O 311.409 -1.59791 -0.856537 0
M  V30 3321 C 311.457 -2.58894 2.51011 0
M  V30 3322 O 310.561 -3.59326 2.02382 0
M  V30 3323 H 309.902 -0.419506 0.514695 0
M  V30 3324 H 312.432 -0.747215 1.90467 0
M  V30 3325 H 312.442 -3.06214 2.69624 0
M  V30 3326 H 311.117 -2.24032 3.50403 0
M  V30 3327 H 309.694 -3.18695 1.93618 0
M  V30 3328 N 311.879 -1.3236 -0.855495 0
M  V30 3329 C 312.827 -1.2118 -1.9854 0
M  V30 3330 C 313.821 -0.116788 -1.68997 0
M  V30 3331 O 315.027 -0.279657 -1.77814 0
M  V30 3332 H 311.402 -0.375608 -0.651477 0
M  V30 3333 H 313.373 -2.16743 -2.05098 0
M  V30 3334 C 312.122 -0.950849 -3.34446 0
M  V30 3335 H 311.445 -1.78563 -3.57708 0
M  V30 3336 H 312.885 -0.912863 -4.14057 0
M  V30 3337 C 311.344 0.346404 -3.35114 0
M  V30 3338 O 311.874 1.35855 -3.7803 0
M  V30 3339 N 310.08 0.36808 -2.88259 0
M  V30 3340 H 309.627 -0.456102 -2.5353 0
M  V30 3341 H 309.585 1.23591 -2.89089 0
M  V30 3342 N 313.357 1.07166 -1.15556 0
M  V30 3343 C 314.32 2.12589 -0.856644 0
M  V30 3344 C 315.32 1.6015 0.14444 0
M  V30 3345 O 316.51 1.7399 -0.0854163 0
M  V30 3346 C 313.642 3.39753 -0.279405 0
M  V30 3347 H 314.835 2.40539 -1.79112 0
M  V30 3348 H 312.388 1.23086 -0.963298 0
M  V30 3349 H 313.123 3.17447 0.663174 0
M  V30 3350 H 312.908 3.79117 -1.00063 0
M  V30 3351 H 314.398 4.17507 -0.0879113 0
M  V30 3352 N 314.835 0.952656 1.25548 0
M  V30 3353 C 316.065 0.622592 1.96996 0
M  V30 3354 C 316.473 -0.809112 1.71026 0
M  V30 3355 O 315.816 -1.55258 0.981861 0
M  V30 3356 C 315.878 0.798946 3.5051 0
M  V30 3357 C 315.542 2.20744 4.00151 0
M  V30 3358 C 316.539 3.18394 4.11001 0
M  V30 3359 C 314.224 2.5311 4.33867 0
M  V30 3360 C 316.218 4.46504 4.54877 0
M  V30 3361 C 313.905 3.8145 4.7743 0
M  V30 3362 C 314.903 4.77959 4.87897 0
M  V30 3363 O 314.591 6.04012 5.30494 0
M  V30 3364 H 314.323 0.232503 0.634758 0
M  V30 3365 H 316.877 1.2789 1.60728 0
M  V30 3366 H 315.107 0.0854903 3.86605 0
M  V30 3367 H 316.796 0.47023 4.03167 0
M  V30 3368 H 317.562 2.94715 3.85186 0
M  V30 3369 H 313.441 1.78719 4.24948 0
M  V30 3370 H 316.985 5.21835 4.62962 0
M  V30 3371 H 312.882 4.04936 5.0269 0
M  V30 3372 H 313.65 6.0736 5.48685 0
M  V30 3373 N 316.313 -1.40141 0.720998 0
M  V30 3374 C 317.276 -2.29058 0.0805834 0
M  V30 3375 C 318.276 -1.45632 -0.681758 0
M  V30 3376 O 319.466 -1.6648 -0.512856 0
M  V30 3377 C 316.598 -3.28925 -0.895593 0
M  V30 3378 H 317.791 -2.87191 0.863793 0
M  V30 3379 H 315.344 -1.48553 0.485975 0
M  V30 3380 H 316.079 -2.75822 -1.70566 0
M  V30 3381 H 315.864 -3.90519 -0.351766 0
M  V30 3382 H 317.354 -3.95494 -1.34069 0
M  V30 3383 N 317.792 -0.46758 -1.50504 0
M  V30 3384 C 319.208 -0.121533 -1.59137 0
M  V30 3385 C 319.408 1.3717 -1.47603 0
M  V30 3386 O 318.464 2.14464 -1.33272 0
M  V30 3387 C 319.777 -0.6686 -2.93173 0
M  V30 3388 C 321.325 -0.631716 -3.06559 0
M  V30 3389 C 321.8 -1.15627 -4.43164 0
M  V30 3390 N 323.291 -1.11553 -4.49567 0
M  V30 3391 C 324.026 -1.49195 -5.5365 0
M  V30 3392 N 323.522 -1.94269 -6.65005 0
M  V30 3393 N 325.315 -1.4082 -5.44175 0
M  V30 3394 H 317.466 -1.4388 -1.56245 0
M  V30 3395 H 319.729 -0.594784 -0.738198 0
M  V30 3396 H 319.435 -1.71453 -3.07078 0
M  V30 3397 H 319.309 -0.11021 -3.77039 0
M  V30 3398 H 321.696 0.405297 -2.92304 0
M  V30 3399 H 321.777 -1.22687 -2.24458 0
M  V30 3400 H 321.421 -2.1919 -4.58168 0
M  V30 3401 H 321.351 -0.537365 -5.23851 0
M  V30 3402 H 323.842 -0.784895 -3.69659 0
M  V30 3403 H 324.155 -2.21148 -7.40482 0
M  V30 3404 H 322.5 -1.98219 -6.66134 0
M  V30 3405 H 325.691 -1.0545 -4.56068 0
M  V30 3406 H 325.864 -1.70481 -6.25172 0
M  V30 3407 N 319.27 1.56325 -0.20005 0
M  V30 3408 C 320.18 2.22931 0.730668 0
M  V30 3409 C 321.196 1.22997 1.23076 0
M  V30 3410 O 322.372 1.55748 1.27689 0
M  V30 3411 C 319.437 2.87948 1.93098 0
M  V30 3412 C 318.498 4.03166 1.47497 0
M  V30 3413 C 317.731 4.65073 2.61807 0
M  V30 3414 O 317.954 4.25913 3.79413 0
M  V30 3415 O 316.888 5.54452 2.34237 0
M  V30 3416 H 320.714 3.03084 0.193391 0
M  V30 3417 H 318.299 1.49371 0.0294621 0
M  V30 3418 H 320.181 3.29063 2.6324 0
M  V30 3419 H 318.856 2.10771 2.45677 0
M  V30 3420 H 317.763 3.66664 0.742201 0
M  V30 3421 H 319.096 4.82022 0.995796 0
M  V30 3422 N 320.748 -0.0735177 1.57428 0
M  V30 3423 C 321.658 -1.10547 2.06922 0
M  V30 3424 C 322.674 -1.42506 0.998402 0
M  V30 3425 O 323.85 -1.52717 1.31299 0
M  V30 3426 C 320.915 -2.40019 2.50184 0
M  V30 3427 C 319.976 -2.15046 3.71556 0
M  V30 3428 C 319.209 -3.38345 4.12745 0
M  V30 3429 O 319.432 -4.47399 3.53822 0
M  V30 3430 O 318.366 -3.2666 5.05546 0
M  V30 3431 H 322.192 -0.715013 2.95163 0
M  V30 3432 H 319.777 -0.287531 1.46607 0
M  V30 3433 H 321.659 -3.16218 2.78539 0
M  V30 3434 H 320.334 -2.78447 1.65072 0
M  V30 3435 H 319.241 -1.36558 3.48285 0
M  V30 3436 H 320.574 -1.81499 4.57514 0
M  V30 3437 N 322.226 -1.5378 -0.344866 0
M  V30 3438 C 323.473 -1.70963 -1.08526 0
M  V30 3439 C 323.801 -0.472126 -1.88683 0
M  V30 3440 O 323.056 0.546116 -1.87926 0
M  V30 3441 C 323.355 -2.92407 -2.05506 0
M  V30 3442 C 323.021 -4.28066 -1.41671 0
M  V30 3443 C 321.683 -4.64951 -1.2399 0
M  V30 3444 C 324.035 -5.12344 -0.956726 0
M  V30 3445 C 321.363 -5.83733 -0.589277 0
M  V30 3446 C 323.715 -6.3179 -0.320015 0
M  V30 3447 C 322.379 -6.67372 -0.130881 0
M  V30 3448 H 321.649 -0.625598 -0.397124 0
M  V30 3449 H 324.296 -1.87995 -0.36469 0
M  V30 3450 H 322.601 -2.69973 -2.8394 0
M  V30 3451 H 324.298 -3.02895 -2.62784 0
M  V30 3452 H 320.888 -3.99034 -1.56429 0
M  V30 3453 H 325.072 -4.8438 -1.08118 0
M  V30 3454 H 320.328 -6.09877 -0.431344 0
M  V30 3455 H 324.502 -6.96386 0.0445072 0
M  V30 3456 H 322.129 -7.59273 0.375318 0
M  V30 3457 N 323.704 0.605807 -1.45491 0
M  V30 3458 C 324.667 1.69836 -1.5391 0
M  V30 3459 C 325.667 1.55261 -0.418424 0
M  V30 3460 O 326.857 1.60296 -0.681965 0
M  V30 3461 C 323.989 3.09117 -1.43734 0
M  V30 3462 H 325.182 1.63738 -2.51257 0
M  V30 3463 H 322.735 0.821689 -1.32959 0
M  V30 3464 H 323.47 3.20791 -0.475788 0
M  V30 3465 H 323.255 3.21104 -2.25021 0
M  V30 3466 H 324.745 3.88696 -1.52661 0
M  V30 3467 N 325.182 1.32811 0.848464 0
M  V30 3468 C 326.407 1.26882 1.6406 0
M  V30 3469 C 326.832 -0.15913 1.87426 0
M  V30 3470 O 326.19 -1.11258 1.43148 0
M  V30 3471 C 326.238 2.03997 2.97351 0
M  V30 3472 O 325.342 1.39201 3.88197 0
M  V30 3473 H 324.683 0.436982 0.499943 0
M  V30 3474 H 327.213 1.75224 1.0563 0
M  V30 3475 H 327.223 2.14403 3.47124 0
M  V30 3476 H 325.898 3.0783 2.79666 0
M  V30 3477 H 324.475 1.37381 3.46671 0
M  V30 3478 N 326.66 -1.06551 1.16123 0
M  V30 3479 C 327.888 -1.83005 0.965237 0
M  V30 3480 C 328.303 -1.82423 -0.486542 0
M  V30 3481 O 327.66 -1.24152 -1.33763 0
M  V30 3482 C 327.711 -3.29733 1.48183 0
M  V30 3483 O 327.432 -3.30416 2.87674 0
M  V30 3484 C 328.933 -4.22926 1.32848 0
M  V30 3485 H 326.153 -0.577118 0.342309 0
M  V30 3486 H 328.697 -1.3445 1.54089 0
M  V30 3487 H 326.852 -3.75609 0.948517 0
M  V30 3488 H 327.266 -4.22149 3.11272 0
M  V30 3489 H 328.74 -5.23916 1.73827 0
M  V30 3490 H 329.217 -4.38346 0.273692 0
M  V30 3491 H 329.823 -3.82894 1.85127 0
M  V30 3492 N 328.138 -0.959301 -1.25041 0
M  V30 3493 C 329.378 -0.624343 -1.94631 0
M  V30 3494 C 329.742 0.82403 -1.73418 0
M  V30 3495 O 330.943 1.26881 -2.3697 0
M  V30 3496 C 329.214 -0.978805 -3.43736 0
M  V30 3497 S 330.773 -0.757127 -4.32219 0
M  V30 3498 H 327.591 -0.229327 -0.673001 0
M  V30 3499 H 330.193 -1.23447 -1.51595 0
M  V30 3500 H 328.897 -2.02997 -3.56679 0
M  V30 3501 H 328.428 -0.359117 -3.91757 0
M  V30 3502 H 330.443 0.369759 -4.9482 0
M  V30 3503 N 329.616 1.39756 -0.72842 0
M  V30 3504 C 331.027 1.83498 -0.344289 0
M  V30 3505 C 331.378 1.60868 1.12321 0
M  V30 3506 O 330.503 1.09634 1.86573 0
M  V30 3507 C 331.098 3.33114 -0.618112 0
M  V30 3508 C 329.657 3.753 -0.287549 0
M  V30 3509 C 328.804 2.62831 -0.884048 0
M  V30 3510 H 331.755 1.28842 -0.926578 0
M  V30 3511 H 331.776 3.80334 0.112349 0
M  V30 3512 H 331.288 3.49553 -1.68625 0
M  V30 3513 H 329.389 3.64451 0.775012 0
M  V30 3514 H 329.502 4.72945 -0.765512 0
M  V30 3515 H 327.866 2.52792 -0.311149 0
M  V30 3516 H 328.649 2.82078 -1.95671 0
M  V30 3517 N 331.094 0.475555 1.50254 0
M  V30 3518 C 332.371 -0.139685 1.95101 0
M  V30 3519 C 332.751 -1.56555 1.41611 0
M  V30 3520 O 332.099 -2.19956 0.618993 0
M  V30 3521 C 332.309 -0.0784298 3.48912 0
M  V30 3522 C 333.657 -0.265095 4.23772 0
M  V30 3523 O 334.681 -0.154808 3.55863 0
M  V30 3524 O 333.54 -0.488327 5.44314 0
M  V30 3525 H 330.634 -0.109236 0.819754 0
M  V30 3526 H 333.18 0.536276 1.61004 0
M  V30 3527 H 331.952 0.916918 3.80405 0
M  V30 3528 H 331.575 -0.795655 3.89558 0
M  V30 3529 N 332.573 -1.56217 0.208337 0
M  V30 3530 C 333.85 -1.89739 -0.475234 0
M  V30 3531 C 334.23 -1.1238 -1.78701 0
M  V30 3532 O 333.578 -0.228979 -2.2735 0
M  V30 3533 C 333.788 -3.42289 -0.681101 0
M  V30 3534 C 335.136 -4.12789 -0.994507 0
M  V30 3535 O 336.16 -3.47814 -0.768357 0
M  V30 3536 O 335.019 -5.27649 -1.42299 0
M  V30 3537 H 332.113 -0.788478 -0.249461 0
M  V30 3538 H 334.659 -1.67855 0.249538 0
M  V30 3539 H 333.431 -3.90534 0.244722 0
M  V30 3540 H 333.054 -3.69909 -1.45785 0
M  V30 3541 N 334.051 0.0651679 -1.57465 0
M  V30 3542 C 334.961 1.09448 -2.07505 0
M  V30 3543 C 335.977 1.41974 -1.00595 0
M  V30 3544 O 337.153 1.52018 -1.32107 0
M  V30 3545 C 334.218 2.38689 -2.51453 0
M  V30 3546 C 333.279 2.13073 -3.72691 0
M  V30 3547 C 332.512 3.36152 -4.14533 0
M  V30 3548 O 332.735 4.45517 -3.56189 0
M  V30 3549 O 331.669 3.23974 -5.07272 0
M  V30 3550 H 335.495 0.69935 -2.95538 0
M  V30 3551 H 333.08 0.279752 -1.46757 0
M  V30 3552 H 334.962 3.14736 -2.80212 0
M  V30 3553 H 333.637 2.77568 -1.66546 0
M  V30 3554 H 332.544 1.34709 -3.49005 0
M  V30 3555 H 333.877 1.79071 -4.5847 0
M  V30 3556 N 335.529 1.53961 0.336706 0
M  V30 3557 C 336.439 1.85432 1.43708 0
M  V30 3558 C 337.455 0.745053 1.57242 0
M  V30 3559 O 338.631 1.03804 1.72588 0
M  V30 3560 C 335.696 2.06349 2.78605 0
M  V30 3561 C 334.757 3.30191 2.74358 0
M  V30 3562 C 333.99 3.50101 4.02822 0
M  V30 3563 O 334.213 2.7371 5.00439 0
M  V30 3564 O 333.147 4.43547 4.06878 0
M  V30 3565 H 336.973 2.78975 1.20028 0
M  V30 3566 H 334.558 1.39701 0.52952 0
M  V30 3567 H 336.44 2.21513 3.58483 0
M  V30 3568 H 335.115 1.15995 3.02203 0
M  V30 3569 H 334.022 3.20425 1.93078 0
M  V30 3570 H 335.355 4.2056 2.55715 0
M  V30 3571 N 337.007 -0.598083 1.45811 0
M  V30 3572 C 338.256 -1.35295 1.49594 0
M  V30 3573 C 338.569 -1.95057 0.145679 0
M  V30 3574 O 339.775 -2.71431 0.0612099 0
M  V30 3575 C 338.231 -2.45124 2.63519 0
M  V30 3576 C 337.839 -1.91732 4.04899 0
M  V30 3577 C 339.583 -3.2205 2.76558 0
M  V30 3578 C 337.49 -2.991 5.1019 0
M  V30 3579 H 336.42 -0.508552 0.556679 0
M  V30 3580 H 339.071 -0.639977 1.71978 0
M  V30 3581 H 337.453 -3.19149 2.34435 0
M  V30 3582 H 338.627 -1.24352 4.43704 0
M  V30 3583 H 336.942 -1.27522 3.96393 0
M  V30 3584 H 339.539 -4.0215 3.52391 0
M  V30 3585 H 339.882 -3.73663 1.83526 0
M  V30 3586 H 340.415 -2.55127 3.05213 0
M  V30 3587 H 337.154 -2.52393 6.04961 0
M  V30 3588 H 336.674 -3.65017 4.75944 0
M  V30 3589 H 338.353 -3.63318 5.35359 0
M  V30 3590 N 338.485 -1.33259 -0.841409 0
M  V30 3591 C 339.395 -1.25332 -1.98316 0
M  V30 3592 C 340.411 -0.164364 -1.73222 0
M  V30 3593 O 341.587 -0.387486 -1.97637 0
M  V30 3594 C 338.652 -0.990078 -3.32262 0
M  V30 3595 C 337.713 -2.16879 -3.70489 0
M  V30 3596 C 336.946 -1.91801 -4.98044 0
M  V30 3597 O 337.169 -0.867075 -5.63771 0
M  V30 3598 O 336.103 -2.78267 -5.33714 0
M  V30 3599 H 339.929 -2.21344 -2.07944 0
M  V30 3600 H 337.514 -1.1328 -0.974058 0
M  V30 3601 H 339.396 -0.860321 -4.12524 0
M  V30 3602 H 338.071 -0.0602155 -3.23644 0
M  V30 3603 H 336.978 -2.35407 -2.90748 0
M  V30 3604 H 338.311 -3.0819 -3.8377 0
M  V30 3605 N 339.963 1.05934 -1.16686 0
M  V30 3606 C 340.893 2.1546 -0.899949 0
M  V30 3607 C 341.874 1.69391 0.155154 0
M  V30 3608 O 343.059 1.94199 0.00648693 0
M  V30 3609 C 340.189 3.44939 -0.404241 0
M  V30 3610 C 339.143 4.04536 -1.39767 0
M  V30 3611 C 338.469 5.29268 -0.760216 0
M  V30 3612 C 339.769 4.42893 -2.76845 0
M  V30 3613 H 341.463 2.38046 -1.81588 0
M  V30 3614 H 339.009 1.14404 -0.874514 0
M  V30 3615 H 340.962 4.20901 -0.204971 0
M  V30 3616 H 339.686 3.21983 0.547206 0
M  V30 3617 H 338.345 3.30635 -1.58355 0
M  V30 3618 H 337.993 5.02611 0.197831 0
M  V30 3619 H 337.693 5.70101 -1.42332 0
M  V30 3620 H 339.217 6.07924 -0.57105 0
M  V30 3621 H 340.631 5.09921 -2.62019 0
M  V30 3622 H 339.028 4.94721 -3.39663 0
M  V30 3623 H 340.098 3.53584 -3.31823 0
M  V30 3624 N 341.441 0.965919 1.2453 0
M  V30 3625 C 342.404 0.499547 2.2369 0
M  V30 3626 C 343.404 -0.40294 1.5567 0
M  V30 3627 O 344.594 -0.19865 1.73064 0
M  V30 3628 C 341.726 -0.276792 3.39774 0
M  V30 3629 H 342.919 1.37613 2.66463 0
M  V30 3630 H 340.472 0.750324 1.37112 0
M  V30 3631 H 341.207 -1.17055 3.02438 0
M  V30 3632 H 340.992 0.370826 3.90343 0
M  V30 3633 H 342.482 -0.592175 4.1338 0
M  V30 3634 N 342.919 -1.39368 0.735821 0
M  V30 3635 C 344.149 -2.04498 0.293967 0
M  V30 3636 C 344.557 -1.55593 -1.07645 0
M  V30 3637 O 343.9 -0.716324 -1.69158 0
M  V30 3638 C 343.962 -3.58836 0.218342 0
M  V30 3639 C 343.626 -4.30721 1.52736 0
M  V30 3640 C 344.623 -4.57305 2.47322 0
M  V30 3641 C 342.308 -4.69251 1.79189 0
M  V30 3642 C 344.302 -5.21429 3.66593 0
M  V30 3643 C 341.989 -5.33104 2.98737 0
M  V30 3644 C 342.987 -5.59125 3.9226 0
M  V30 3645 O 342.675 -6.21653 5.09708 0
M  V30 3646 H 342.407 -0.664118 0.126189 0
M  V30 3647 H 344.961 -1.79385 1.00051 0
M  V30 3648 H 343.191 -3.8285 -0.544314 0
M  V30 3649 H 344.88 -4.05447 -0.191626 0
M  V30 3650 H 345.646 -4.27983 2.28156 0
M  V30 3651 H 341.525 -4.48354 1.07239 0
M  V30 3652 H 345.069 -5.41656 4.39607 0
M  V30 3653 H 340.966 -5.61846 3.17803 0
M  V30 3654 H 341.734 -6.40146 5.10054 0
M  V30 3655 N 344.397 -0.483516 -1.5 0
M  V30 3656 C 345.307 0.309172 -2.32554 0
M  V30 3657 C 346.323 0.984159 -1.43493 0
M  V30 3658 O 347.499 0.969399 -1.76535 0
M  V30 3659 C 344.564 1.36979 -3.18493 0
M  V30 3660 C 343.625 0.710095 -4.23387 0
M  V30 3661 C 342.858 1.72018 -5.05218 0
M  V30 3662 O 343.081 2.94813 -4.88305 0
M  V30 3663 O 342.015 1.28515 -5.8802 0
M  V30 3664 H 345.841 -0.366064 -3.01486 0
M  V30 3665 H 343.426 -0.24514 -1.47375 0
M  V30 3666 H 345.308 1.98385 -3.71781 0
M  V30 3667 H 343.983 2.02828 -2.52275 0
M  V30 3668 H 342.89 0.0567539 -3.74057 0
M  V30 3669 H 344.223 0.0943557 -4.9211 0
M  V30 3670 N 345.875 1.56104 -0.216619 0
M  V30 3671 C 346.807 2.17339 0.72776 0
M  V30 3672 C 347.82 1.14109 1.16116 0
M  V30 3673 O 349.009 1.4111 1.09317 0
M  V30 3674 C 346.109 2.73818 1.99693 0
M  V30 3675 C 345.282 4.02168 1.71988 0
M  V30 3676 C 344.341 4.43259 2.83562 0
M  V30 3677 O 343.367 5.10257 2.52244 0
M  V30 3678 N 344.569 4.08535 4.12407 0
M  V30 3679 H 347.334 2.99005 0.203983 0
M  V30 3680 H 344.895 1.61861 -0.0354289 0
M  V30 3681 H 346.887 2.9828 2.73516 0
M  V30 3682 H 345.457 1.96483 2.43132 0
M  V30 3683 H 344.677 3.85612 0.818337 0
M  V30 3684 H 345.965 4.85907 1.50903 0
M  V30 3685 H 345.363 3.54687 4.40696 0
M  V30 3686 H 343.92 4.37901 4.8279 0
M  V30 3687 N 347.353 -0.0568162 1.57498 0
M  V30 3688 C 348.599 -0.75422 1.88253 0
M  V30 3689 C 348.932 -1.76461 0.810865 0
M  V30 3690 O 348.207 -1.93691 -0.177259 0
M  V30 3691 C 348.49 -1.44878 3.2967 0
M  V30 3692 C 348.343 -0.453789 4.47505 0
M  V30 3693 C 349.662 -2.38994 3.69554 0
M  V30 3694 H 346.781 -0.272724 0.684683 0
M  V30 3695 H 349.423 -0.0172113 1.89992 0
M  V30 3696 H 347.573 -2.077 3.28318 0
M  V30 3697 H 349.245 0.170371 4.60985 0
M  V30 3698 H 347.488 0.229552 4.33192 0
M  V30 3699 H 348.159 -0.977699 5.43273 0
M  V30 3700 H 350.635 -1.86239 3.72095 0
M  V30 3701 H 349.511 -2.84587 4.69363 0
M  V30 3702 H 349.772 -3.24461 3.00296 0
M  V30 3703 N 348.832 -1.54138 -0.328536 0
M  V30 3704 C 349.795 -1.82462 -1.38709 0
M  V30 3705 C 350.795 -0.696229 -1.44946 0
M  V30 3706 O 351.985 -0.964535 -1.4506 0
M  V30 3707 C 349.117 -1.98018 -2.77492 0
M  V30 3708 H 350.31 -2.77037 -1.14851 0
M  V30 3709 H 347.863 -1.45779 -0.563751 0
M  V30 3710 H 348.598 -1.05637 -3.06613 0
M  V30 3711 H 348.383 -2.80124 -2.74359 0
M  V30 3712 H 349.873 -2.21396 -3.54081 0
M  V30 3713 N 350.31 0.590341 -1.46126 0
M  V30 3714 C 351.257 1.69994 -1.56111 0
M  V30 3715 C 352.227 1.61065 -0.405867 0
M  V30 3716 O 353.412 1.8039 -0.621613 0
M  V30 3717 C 350.552 3.08326 -1.55013 0
M  V30 3718 C 349.665 3.27936 -2.81215 0
M  V30 3719 C 348.8 4.56473 -2.71673 0
M  V30 3720 C 347.839 4.694 -3.92849 0
M  V30 3721 N 346.976 5.89254 -3.81738 0
M  V30 3722 H 351.816 1.60797 -2.50895 0
M  V30 3723 H 349.353 0.783799 -1.24479 0
M  V30 3724 H 351.311 3.88383 -1.52362 0
M  V30 3725 H 349.941 3.16439 -0.637667 0
M  V30 3726 H 348.993 2.41536 -2.93879 0
M  V30 3727 H 350.305 3.33357 -3.71045 0
M  V30 3728 H 349.459 5.44748 -2.67085 0
M  V30 3729 H 348.198 4.53477 -1.7947 0
M  V30 3730 H 347.203 3.79544 -3.97777 0
M  V30 3731 H 348.428 4.7418 -4.86138 0
M  V30 3732 H 346.374 5.87271 -2.92317 0
M  V30 3733 H 346.291 5.95911 -4.65217 0
M  V30 3734 H 347.559 6.79981 -3.81112 0
M  V30 3735 N 351.788 1.33704 0.83433 0
M  V30 3736 C 352.751 1.24244 1.92603 0
M  V30 3737 C 353.751 0.160383 1.59998 0
M  V30 3738 O 354.941 0.412228 1.69252 0
M  V30 3739 C 352.073 0.91555 3.28376 0
M  V30 3740 H 353.266 2.21287 2.02416 0
M  V30 3741 H 350.819 1.17827 1.02696 0
M  V30 3742 H 351.554 -0.0521886 3.24258 0
M  V30 3743 H 351.339 1.69811 3.53422 0
M  V30 3744 H 352.829 0.874231 4.08347 0
M  V30 3745 N 353.266 -1.05314 1.17247 0
M  V30 3746 C 354.196 -2.1498 0.911362 0
M  V30 3747 C 355.177 -1.69471 -0.146169 0
M  V30 3748 O 356.362 -1.942 0.003812 0
M  V30 3749 C 353.492 -3.4472 0.422528 0
M  V30 3750 C 352.446 -4.03789 1.4191 0
M  V30 3751 C 351.772 -5.28858 0.788274 0
M  V30 3752 C 353.072 -4.41418 2.7919 0
M  V30 3753 H 354.766 -2.3708 1.82848 0
M  V30 3754 H 352.312 -1.13938 0.880569 0
M  V30 3755 H 354.265 -4.20787 0.227289 0
M  V30 3756 H 352.989 -3.22269 -0.530123 0
M  V30 3757 H 351.648 -3.2979 1.60106 0
M  V30 3758 H 351.296 -5.02709 -0.171173 0
M  V30 3759 H 350.996 -5.69338 1.45353 0
M  V30 3760 H 352.52 -6.07612 0.603282 0
M  V30 3761 H 353.934 -5.08524 2.64719 0
M  V30 3762 H 352.331 -4.92913 3.42282 0
M  V30 3763 H 353.401 -3.51819 3.33693 0
M  V30 3764 N 354.744 -0.972509 -1.24016 0
M  V30 3765 C 355.691 -0.505969 -2.25186 0
M  V30 3766 C 356.661 0.451009 -1.5986 0
M  V30 3767 O 357.846 0.360307 -1.87367 0
M  V30 3768 C 354.986 0.193089 -3.44559 0
M  V30 3769 C 354.099 -0.803222 -4.24467 0
M  V30 3770 C 353.234 -0.0797793 -5.3114 0
M  V30 3771 C 352.273 -1.06583 -6.02749 0
M  V30 3772 N 351.41 -0.372074 -7.01113 0
M  V30 3773 H 356.25 -1.37351 -2.64459 0
M  V30 3774 H 353.787 -0.688419 -1.29997 0
M  V30 3775 H 355.745 0.615125 -4.1264 0
M  V30 3776 H 354.375 1.02455 -3.06109 0
M  V30 3777 H 353.427 -1.34368 -3.55878 0
M  V30 3778 H 354.739 -1.55494 -4.73944 0
M  V30 3779 H 353.893 0.400015 -6.0538 0
M  V30 3780 H 352.632 0.704597 -4.82583 0
M  V30 3781 H 351.637 -1.55645 -5.27309 0
M  V30 3782 H 352.862 -1.85074 -6.53395 0
M  V30 3783 H 350.808 0.393238 -6.5482 0
M  V30 3784 H 350.725 -1.06258 -7.48495 0
M  V30 3785 H 351.993 0.0855932 -7.79453 0
M  V30 3786 O 356.261 1.3537 -0.880752 0
M  V30 3787 H 356.952 1.87543 -0.484504 0
M  V30 END ATOM
M  V30 BEGIN BOND
M  V30 END BOND
M  V30 END CTAB
M  END
$$$$
