drugbank_target|O14757 Serine/threonine-protein kinase Chk1 (DB05149; DB06486; DB06852; DB06876; DB07025; DB07034; DB07037; DB07038; DB07075; DB07078; DB07158; DB07213; DB07228; DB07243; DB07311; DB07314; DB07320; DB07336; DB07647; DB07648; DB07653; DB07654; DB07655; DB07959; DB08392; DB08393; DB08683; DB08774; DB08776; DB08777; DB08778; DB08779; DB08780; DB08781; DB12010)
 OpenBabel12092120313D

  0  0  0     0  0            999 V3000
M  V30 BEGIN CTAB
M  V30 COUNTS 7675 7763 0 0 0
M  V30 BEGIN ATOM
M  V30 1 H -0.908 1.98254 -0.117106 0
M  V30 2 N 0 1.576 0 0
M  V30 3 C 0.933 2.03868 1.02534 0
M  V30 4 C 1.911 0.928543 1.3348 0
M  V30 5 O 3.095 1.19667 1.45644 0
M  V30 6 C 0.222 2.43627 2.35294 0
M  V30 7 C -0.732 3.65373 2.2001 0
M  V30 8 S 0.101 5.13292 1.52614 0
M  V30 9 C 1.257 5.56322 2.86805 0
M  V30 10 H 1.49 2.90518 0.631377 0
M  V30 11 H -0.977 1.52953 0.210867 0
M  V30 12 H 0.981 2.67203 3.11629 0
M  V30 13 H -0.358 1.57376 2.7183 0
M  V30 14 H -1.165 3.90944 3.18086 0
M  V30 15 H -1.563 3.418 1.51819 0
M  V30 16 H 0.729 5.58782 3.83104 0
M  V30 17 H 1.672 6.56266 2.65933 0
M  V30 18 H 2.08 4.83886 2.90714 0
M  V30 19 N 1.4781 -0.272755 1.55222 0
M  V30 20 C 2.4411 -1.32041 1.87344 0
M  V30 21 C 3.4411 -1.42342 0.74803 0
M  V30 22 O 4.6311 -1.41488 1.0162 0
M  V30 23 C 1.7631 -2.70173 2.07893 0
M  V30 24 H 2.9561 -1.04789 2.80997 0
M  V30 25 H 0.5091 -0.51083 1.47717 0
M  V30 26 H 1.2441 -3.02605 1.16622 0
M  V30 27 H 1.0291 -2.64082 2.89833 0
M  V30 28 H 2.5191 -3.45869 2.34017 0
M  V30 29 N 2.9562 -1.48159 -0.537278 0
M  V30 30 C 4.2022 -1.56035 -1.29541 0
M  V30 31 C 4.5352 -0.230377 -1.92829 0
M  V30 32 O 3.8102 0.762952 -1.78911 0
M  V30 33 C 4.0932 -2.69323 -2.39034 0
M  V30 34 C 3.9462 -4.12002 -1.80485 0
M  V30 35 C 5.2652 -2.78408 -3.40847 0
M  V30 36 H 2.3842 -0.567992 -0.469632 0
M  V30 37 H 5.0262 -1.80302 -0.599277 0
M  V30 38 H 3.1762 -2.48763 -2.98412 0
M  V30 39 H 4.8482 -4.43981 -1.25215 0
M  V30 40 H 3.0912 -4.19344 -1.11055 0
M  V30 41 H 3.7622 -4.87077 -2.59731 0
M  V30 42 H 6.2382 -2.97012 -2.91416 0
M  V30 43 H 5.1142 -3.59416 -4.14863 0
M  V30 44 H 5.3752 -1.86269 -4.00944 0
M  V30 45 N 4.4343 0.785586 -1.36625 0
M  V30 46 C 5.8453 1.36101 -1.27803 0
M  V30 47 C 6.1963 1.96035 0.0804875 0
M  V30 48 O 5.3213 1.92834 0.982042 0
M  V30 49 C 5.9163 2.47442 -2.31426 0
M  V30 50 C 4.4753 3.00789 -2.26281 0
M  V30 51 C 3.6223 1.73896 -2.15999 0
M  V30 52 H 6.5733 0.586928 -1.47448 0
M  V30 53 H 6.5943 3.2656 -1.95291 0
M  V30 54 H 6.1063 2.03791 -3.30289 0
M  V30 55 H 4.2073 3.48851 -1.30896 0
M  V30 56 H 4.3203 3.57343 -3.19128 0
M  V30 57 H 2.6843 1.9628 -1.62316 0
M  V30 58 H 3.4673 1.32368 -3.16755 0
M  V30 59 N 5.9124 1.20967 1.01018 0
M  V30 60 C 7.1594 1.02374 1.74716 0
M  V30 61 C 7.4874 -0.443375 1.89379 0
M  V30 62 O 6.7424 -1.34535 1.42123 0
M  V30 63 C 7.0414 1.65997 3.16512 0
M  V30 64 C 6.7074 3.15831 3.2181 0
M  V30 65 C 5.3694 3.56719 3.22963 0
M  V30 66 C 7.7214 4.11816 3.19464 0
M  V30 67 C 5.0494 4.92107 3.19449 0
M  V30 68 C 7.4014 5.47158 3.17491 0
M  V30 69 C 6.0654 5.87451 3.16951 0
M  V30 70 H 5.3354 0.374614 0.639332 0
M  V30 71 H 7.9824 1.50485 1.18434 0
M  V30 72 H 6.2874 1.10166 3.75993 0
M  V30 73 H 7.9844 1.49119 3.72242 0
M  V30 74 H 4.5744 2.83263 3.21652 0
M  V30 75 H 8.7584 3.81257 3.17737 0
M  V30 76 H 4.0144 5.22579 3.17366 0
M  V30 77 H 8.1884 6.21274 3.14629 0
M  V30 78 H 5.8154 6.92329 3.13983 0
M  V30 79 N 7.3905 -1.2043 1.01659 0
M  V30 80 C 8.6365 -1.90079 0.706963 0
M  V30 81 C 8.9695 -1.78648 -0.761474 0
M  V30 82 O 8.2445 -1.17069 -1.55323 0
M  V30 83 C 8.5275 -3.41469 1.14327 0
M  V30 84 C 8.3805 -3.61833 2.67201 0
M  V30 85 C 9.6995 -4.34261 0.714529 0
M  V30 86 H 6.8185 -0.690254 0.2583 0
M  V30 87 H 9.4605 -1.41826 1.26433 0
M  V30 88 H 7.6105 -3.82696 0.669056 0
M  V30 89 H 9.2825 -3.2986 3.22475 0
M  V30 90 H 7.5255 -3.05304 3.08175 0
M  V30 91 H 8.1965 -4.67955 2.92783 0
M  V30 92 H 10.6725 -4.00682 1.12221 0
M  V30 93 H 9.5485 -5.38806 1.04784 0
M  V30 94 H 9.8095 -4.40431 -0.383799 0
M  V30 95 N 8.8686 -0.792821 -1.36206 0
M  V30 96 C 9.7786 -0.194808 -2.3379 0
M  V30 97 C 10.7946 0.654869 -1.61206 0
M  V30 98 O 11.9706 0.569856 -1.9317 0
M  V30 99 C 9.0356 0.657721 -3.40404 0
M  V30 100 C 8.0966 -0.210849 -4.28782 0
M  V30 101 C 7.3296 0.601086 -5.30304 0
M  V30 102 O 7.5526 1.83682 -5.40016 0
M  V30 103 O 6.4866 -0.000808277 -6.019 0
M  V30 104 H 10.3126 -1.00172 -2.86704 0
M  V30 105 H 7.8976 -0.554341 -1.38735 0
M  V30 106 H 9.7796 1.14375 -4.05581 0
M  V30 107 H 8.4546 1.44247 -2.89784 0
M  V30 108 H 7.3616 -0.743714 -3.66633 0
M  V30 109 H 8.6946 -0.959195 -4.82763 0
M  V30 110 N 10.3467 1.47872 -0.545128 0
M  V30 111 C 11.6237 1.9554 0.0485222 0
M  V30 112 C 12.0037 1.4876 1.49779 0
M  V30 113 O 11.3517 0.720925 2.16829 0
M  V30 114 C 11.5617 3.48898 -0.084417 0
M  V30 115 C 12.9097 4.24547 0.0671239 0
M  V30 116 O 13.9337 3.56198 -0.0113649 0
M  V30 117 O 12.7927 5.45999 0.233882 0
M  V30 118 H 9.8867 0.823957 0.0708773 0
M  V30 119 H 12.4327 1.58327 -0.610798 0
M  V30 120 H 11.2047 3.75714 -1.09337 0
M  V30 121 H 10.8277 3.92845 0.613066 0
M  V30 122 N 11.8248 0.280983 1.55075 0
M  V30 123 C 13.0708 -0.327573 2.00745 0
M  V30 124 C 13.4258 -1.53045 1.16598 0
M  V30 125 O 12.7188 -1.90221 0.229451 0
M  V30 126 C 12.9128 -0.754656 3.49342 0
M  V30 127 C 12.7418 0.40529 4.4787 0
M  V30 128 C 11.5118 0.890947 4.97383 0
M  V30 129 C 13.7098 1.24371 4.99035 0
M  V30 130 N 11.6918 2.01975 5.79724 0
M  V30 131 C 13.0628 2.22031 5.7888 0
M  V30 132 C 15.1178 1.27638 4.81262 0
M  V30 133 C 13.8208 3.22709 6.42846 0
M  V30 134 C 15.8468 2.27164 5.46031 0
M  V30 135 C 15.2088 3.23556 6.25692 0
M  V30 136 H 11.3078 -0.0848774 0.77738 0
M  V30 137 H 13.8918 0.406342 1.90413 0
M  V30 138 H 12.0628 -1.45778 3.60005 0
M  V30 139 H 13.7948 -1.34105 3.81835 0
M  V30 140 H 10.5498 0.469262 4.71269 0
M  V30 141 H 10.9738 2.58794 6.25584 0
M  V30 142 H 15.6158 0.544936 4.19274 0
M  V30 143 H 13.3338 3.96784 7.0398 0
M  V30 144 H 16.9198 2.30441 5.34217 0
M  V30 145 H 15.7998 3.99309 6.74924 0
M  V30 146 N 13.3029 -1.57598 0.00835791 0
M  V30 147 C 14.5799 -1.82172 -0.712235 0
M  V30 148 C 14.9599 -0.887873 -1.9152 0
M  V30 149 O 14.3079 0.06146 -2.28417 0
M  V30 150 C 14.5179 -3.30875 -1.11008 0
M  V30 151 C 15.8659 -3.96826 -1.51044 0
M  V30 152 O 16.8899 -3.35248 -1.20364 0
M  V30 153 O 15.7489 -5.05318 -2.08125 0
M  V30 154 H 12.8429 -0.750435 -0.347529 0
M  V30 155 H 15.3889 -1.69665 0.0344523 0
M  V30 156 H 14.1609 -3.90481 -0.252982 0
M  V30 157 H 13.7839 -3.48412 -1.9156 0
M  V30 158 N 14.781 0.264519 -1.55364 0
M  V30 159 C 15.711 1.33121 -1.91836 0
M  V30 160 C 16.692 1.51101 -0.781192 0
M  V30 161 O 17.877 1.64003 -1.04003 0
M  V30 162 C 15.007 2.68921 -2.19769 0
M  V30 163 C 13.961 2.65661 -3.35571 0
M  V30 164 C 13.287 4.05093 -3.49004 0
M  V30 165 C 14.587 2.24187 -4.71739 0
M  V30 166 H 16.281 1.02844 -2.81182 0
M  V30 167 H 13.827 0.493286 -1.35287 0
M  V30 168 H 15.78 3.43663 -2.43872 0
M  V30 169 H 14.504 3.00799 -1.27231 0
M  V30 170 H 13.163 1.93377 -3.1145 0
M  V30 171 H 12.811 4.34206 -2.53917 0
M  V30 172 H 12.511 4.03804 -4.26868 0
M  V30 173 H 14.035 4.81561 -3.75408 0
M  V30 174 H 15.449 2.88654 -4.9533 0
M  V30 175 H 13.846 2.34044 -5.52579 0
M  V30 176 H 14.916 1.19327 -4.69988 0
M  V30 177 N 16.2591 1.48442 0.529413 0
M  V30 178 C 17.5051 1.5672 1.28711 0
M  V30 179 C 17.8381 0.2406 1.92704 0
M  V30 180 O 17.1131 -0.753454 1.79313 0
M  V30 181 C 17.3961 2.70587 2.37603 0
M  V30 182 C 17.2491 4.12953 1.78297 0
M  V30 183 C 18.5681 2.80212 3.39366 0
M  V30 184 H 15.6871 0.570474 0.466613 0
M  V30 185 H 18.3291 1.80617 0.589706 0
M  V30 186 H 16.4791 2.50342 2.97088 0
M  V30 187 H 18.1511 4.44639 1.22858 0
M  V30 188 H 16.3941 4.19927 1.0883 0
M  V30 189 H 17.0651 4.88448 2.57144 0
M  V30 190 H 19.5411 2.98553 2.89836 0
M  V30 191 H 18.4171 3.61611 4.12951 0
M  V30 192 H 18.6781 1.88393 3.99951 0
M  V30 193 N 17.7372 -0.778329 1.37039 0
M  V30 194 C 18.6692 -1.90034 1.2814 0
M  V30 195 C 19.6822 -1.61585 0.198558 0
M  V30 196 O 20.8712 -1.72625 0.454175 0
M  V30 197 C 17.9712 -3.25108 0.956968 0
M  V30 198 C 17.1442 -3.81253 2.14394 0
M  V30 199 C 16.2032 -4.94789 1.79082 0
M  V30 200 O 15.2292 -5.10721 2.51301 0
M  V30 201 N 16.4312 -5.75878 0.731043 0
M  V30 202 H 19.1962 -1.98186 2.24816 0
M  V30 203 H 16.7572 -0.957129 1.30578 0
M  V30 204 H 18.7492 -3.9857 0.701701 0
M  V30 205 H 17.3192 -3.125 0.0789812 0
M  V30 206 H 16.5392 -2.99647 2.56135 0
M  V30 207 H 17.8272 -4.15495 2.93668 0
M  V30 208 H 17.2252 -5.65547 0.131618 0
M  V30 209 H 15.7822 -6.49596 0.535622 0
M  V30 210 N 19.2153 -1.21501 -1.00376 0
M  V30 211 C 20.4433 -1.059 -1.77744 0
M  V30 212 C 20.8583 0.391125 -1.84704 0
M  V30 213 O 20.2153 1.27133 -1.30933 0
M  V30 214 C 20.2663 -1.65111 -3.21591 0
M  V30 215 O 19.9873 -3.0445 -3.15027 0
M  V30 216 C 21.4883 -1.54637 -4.15454 0
M  V30 217 H 18.7083 -0.371825 -0.558558 0
M  V30 218 H 21.2523 -1.60865 -1.26264 0
M  V30 219 H 19.4073 -1.14235 -3.70175 0
M  V30 220 H 19.8213 -3.3278 -4.0541 0
M  V30 221 H 21.2953 -2.00808 -5.14179 0
M  V30 222 H 21.7723 -0.501022 -4.36333 0
M  V30 223 H 22.3783 -2.04767 -3.72761 0
M  V30 224 N 20.6934 1.19889 -1.02296 0
M  V30 225 C 21.6234 2.25141 -0.619174 0
M  V30 226 C 22.6044 1.66051 0.368915 0
M  V30 227 O 23.7894 1.92546 0.252941 0
M  V30 228 C 20.9194 3.4728 0.0368783 0
M  V30 229 C 19.8734 4.19005 -0.872865 0
M  V30 230 C 19.1994 5.34637 -0.0822402 0
M  V30 231 C 20.4994 4.74452 -2.18387 0
M  V30 232 H 22.1934 2.59171 -1.49903 0
M  V30 233 H 19.7394 1.24579 -0.722222 0
M  V30 234 H 21.6924 4.20098 0.330958 0
M  V30 235 H 20.4164 3.12433 0.95149 0
M  V30 236 H 19.0754 3.48061 -1.15105 0
M  V30 237 H 18.7234 4.96034 0.83422 0
M  V30 238 H 18.4234 5.83557 -0.688149 0
M  V30 239 H 19.9474 6.10255 0.205238 0
M  V30 240 H 21.3614 5.39055 -1.95172 0
M  V30 241 H 19.7584 5.33834 -2.74119 0
M  V30 242 H 20.8284 3.92844 -2.84257 0
M  V30 243 N 22.1715 0.800033 1.35784 0
M  V30 244 C 23.4195 0.376597 1.9856 0
M  V30 245 C 23.7405 -1.05812 1.63795 0
M  V30 246 O 23.0105 -1.73103 0.917171 0
M  V30 247 H 21.5905 0.136261 0.734467 0
M  V30 248 H 24.2525 1.02442 1.65806 0
M  V30 249 H 23.3485 0.477002 3.08433 0
M  V30 250 N 23.6496 -1.47581 0.552962 0
M  V30 251 C 24.5596 -2.33743 -0.200353 0
M  V30 252 C 25.5756 -1.47928 -0.916151 0
M  V30 253 O 26.7516 -1.80865 -0.885993 0
M  V30 254 C 23.8166 -3.24536 -1.21973 0
M  V30 255 C 22.8776 -4.26238 -0.511819 0
M  V30 256 C 22.1106 -5.12693 -1.48263 0
M  V30 257 O 22.3336 -5.01525 -2.71714 0
M  V30 258 O 21.2676 -5.93375 -1.00945 0
M  V30 259 H 25.0936 -2.9945 0.506304 0
M  V30 260 H 22.6786 -1.46071 0.313622 0
M  V30 261 H 24.5606 -3.80631 -1.80827 0
M  V30 262 H 23.2356 -2.61462 -1.90839 0
M  V30 263 H 22.1426 -3.73914 0.117799 0
M  V30 264 H 23.4756 -4.92014 0.135308 0
M  V30 265 N 25.1277 -0.289203 -1.54924 0
M  V30 266 C 26.3757 0.322879 -1.99504 0
M  V30 267 C 26.6967 1.55313 -1.1791 0
M  V30 268 O 25.9667 1.94001 -0.272097 0
M  V30 269 H 24.5467 0.122291 -0.736922 0
M  V30 270 H 27.2087 -0.397802 -1.90797 0
M  V30 271 H 26.3047 0.603061 -3.06218 0
M  V30 272 N 26.6058 1.57591 -0.0167156 0
M  V30 273 C 27.5688 2.08393 0.954204 0
M  V30 274 C 28.5688 0.996531 1.26198 0
M  V30 275 O 29.7588 1.25858 1.20438 0
M  V30 276 C 26.8908 2.5394 2.27436 0
M  V30 277 H 28.0838 2.95455 0.514451 0
M  V30 278 H 25.6368 1.54582 0.231089 0
M  V30 279 H 26.3718 1.70171 2.76066 0
M  V30 280 H 26.1568 3.33371 2.06412 0
M  V30 281 H 27.6468 2.93512 2.97053 0
M  V30 282 N 28.0839 -0.256276 1.55502 0
M  V30 283 C 29.3139 -1.00196 1.80677 0
M  V30 284 C 29.7219 -1.79805 0.588797 0
M  V30 285 O 29.0649 -1.78055 -0.451883 0
M  V30 286 C 29.1269 -1.99515 2.99055 0
M  V30 287 C 28.7909 -1.38688 4.35448 0
M  V30 288 C 29.7879 -0.794079 5.138 0
M  V30 289 C 27.4729 -1.40906 4.82132 0
M  V30 290 C 29.4669 -0.231562 6.36979 0
M  V30 291 C 27.1539 -0.842684 6.05262 0
M  V30 292 C 28.1519 -0.254953 6.82524 0
M  V30 293 O 27.8399 0.3027 8.0333 0
M  V30 294 H 27.5719 -0.300919 0.60533 0
M  V30 295 H 30.1259 -0.287307 2.03381 0
M  V30 296 H 28.3559 -2.74785 2.72084 0
M  V30 297 H 30.0449 -2.60349 3.11405 0
M  V30 298 H 30.8109 -0.769519 4.78856 0
M  V30 299 H 26.6899 -1.85591 4.21992 0
M  V30 300 H 30.2339 0.227816 6.97228 0
M  V30 301 H 26.1309 -0.86454 6.39684 0
M  V30 302 H 26.8989 0.193662 8.18271 0
M  V30 303 N 29.562 -1.4872 -0.521534 0
M  V30 304 C 30.81 -1.56857 -1.27437 0
M  V30 305 C 31.131 -0.247982 -1.93417 0
M  V30 306 O 30.401 0.731151 -1.81744 0
M  V30 307 H 28.981 -0.577885 -0.473347 0
M  V30 308 H 31.643 -1.85233 -0.606205 0
M  V30 309 H 30.739 -2.35402 -2.0492 0
M  V30 310 N 31.0401 0.771051 -1.3745 0
M  V30 311 C 31.9501 1.91538 -1.35464 0
M  V30 312 C 32.9661 1.72134 -0.254123 0
M  V30 313 O 34.1421 1.95358 -0.489626 0
M  V30 314 C 31.2071 3.26671 -1.16134 0
M  V30 315 C 30.2681 3.58723 -2.35831 0
M  V30 316 C 29.5011 4.87409 -2.17413 0
M  V30 317 O 29.7241 5.58506 -1.15876 0
M  V30 318 O 28.6581 5.18539 -3.05615 0
M  V30 319 H 32.4841 1.96165 -2.31847 0
M  V30 320 H 30.0691 0.9139 -1.18187 0
M  V30 321 H 31.9511 4.07499 -1.07345 0
M  V30 322 H 30.6261 3.22894 -0.228251 0
M  V30 323 H 29.5331 2.78127 -2.50192 0
M  V30 324 H 30.8661 3.67243 -3.27709 0
M  V30 325 N 32.5182 1.22032 0.997298 0
M  V30 326 C 33.7642 1.04376 1.73878 0
M  V30 327 C 34.0972 -0.420716 1.89588 0
M  V30 328 O 33.3722 -1.31202 1.43583 0
M  V30 329 C 33.6552 1.75047 3.14691 0
M  V30 330 C 33.5082 3.29062 3.06656 0
M  V30 331 C 34.8272 1.49928 4.13775 0
M  V30 332 H 31.9462 0.380578 0.631133 0
M  V30 333 H 34.5882 1.50312 1.16217 0
M  V30 334 H 32.7382 1.35996 3.63919 0
M  V30 335 H 34.4102 3.7753 2.65083 0
M  V30 336 H 32.6532 3.58967 2.43568 0
M  V30 337 H 33.3242 3.73683 4.06282 0
M  V30 338 H 35.8002 1.83842 3.73285 0
M  V30 339 H 34.6762 2.01878 5.10428 0
M  V30 340 H 34.9372 0.430929 4.39995 0
M  V30 341 N 33.9963 -1.19345 1.0293 0
M  V30 342 C 34.9283 -2.22036 0.56857 0
M  V30 343 C 35.9413 -1.58865 -0.355779 0
M  V30 344 O 37.1303 -1.77851 -0.152103 0
M  V30 345 C 34.2303 -3.38363 -0.190752 0
M  V30 346 C 33.4033 -4.31118 0.738643 0
M  V30 347 C 32.4623 -5.26194 0.0246497 0
M  V30 348 O 31.4883 -5.65461 0.651354 0
M  V30 349 N 32.6903 -5.66971 -1.24594 0
M  V30 350 H 35.4553 -2.6219 1.45177 0
M  V30 351 H 33.0163 -1.34015 0.908381 0
M  V30 352 H 35.0083 -3.98981 -0.677961 0
M  V30 353 H 33.5783 -2.96994 -0.975366 0
M  V30 354 H 32.7983 -3.68276 1.40593 0
M  V30 355 H 34.0863 -4.90001 1.37029 0
M  V30 356 H 33.4843 -5.37104 -1.77583 0
M  V30 357 H 32.0413 -6.2984 -1.67764 0
M  V30 358 N 35.4744 -0.807222 -1.35358 0
M  V30 359 C 36.4044 -0.232509 -2.3234 0
M  V30 360 C 37.3854 0.642386 -1.57504 0
M  V30 361 O 38.5704 0.572526 -1.85569 0
M  V30 362 C 35.7004 0.619238 -3.41735 0
M  V30 363 C 34.6544 -0.157215 -4.27711 0
M  V30 364 C 33.9804 0.816273 -5.28433 0
M  V30 365 C 35.2804 -1.35656 -5.04376 0
M  V30 366 H 36.9744 -1.04276 -2.80654 0
M  V30 367 H 34.5204 -0.50288 -1.34934 0
M  V30 368 H 36.4734 1.03137 -4.08584 0
M  V30 369 H 35.1974 1.46239 -2.92031 0
M  V30 370 H 33.8564 -0.550525 -3.62443 0
M  V30 371 H 33.5044 1.65494 -4.74996 0
M  V30 372 H 33.2044 0.301067 -5.86828 0
M  V30 373 H 34.7284 1.22659 -5.98153 0
M  V30 374 H 36.1424 -1.01927 -5.64166 0
M  V30 375 H 34.5394 -1.8063 -5.7227 0
M  V30 376 H 35.6094 -2.14288 -4.34981 0
M  V30 377 N 36.9525 1.47285 -0.560781 0
M  V30 378 C 37.9155 2.28535 0.174488 0
M  V30 379 C 38.9155 1.37153 0.839388 0
M  V30 380 O 40.1055 1.59748 0.694702 0
M  V30 381 C 37.2375 3.16934 1.25561 0
M  V30 382 H 38.4305 2.95012 -0.539262 0
M  V30 383 H 35.9835 1.53034 -0.317865 0
M  V30 384 H 36.7185 2.55157 2.00164 0
M  V30 385 H 36.5035 3.8419 0.783604 0
M  V30 386 H 37.9935 3.78143 1.77193 0
M  V30 387 N 38.4306 0.297415 1.54768 0
M  V30 388 C 39.6766 -0.313376 2.00364 0
M  V30 389 C 40.0096 -1.53815 1.18553 0
M  V30 390 O 39.2846 -1.92739 0.261103 0
M  V30 391 C 39.5676 -0.673525 3.53745 0
M  V30 392 C 39.4206 0.560133 4.46299 0
M  V30 393 C 40.7396 -1.50143 4.13697 0
M  V30 394 H 37.8586 -0.112428 0.728374 0
M  V30 395 H 40.5006 0.4088 1.8555 0
M  V30 396 H 38.6506 -1.28881 3.665 0
M  V30 397 H 40.3226 1.19863 4.45455 0
M  V30 398 H 38.5656 1.19405 4.17043 0
M  V30 399 H 39.2366 0.26405 5.51368 0
M  V30 400 H 41.7126 -0.981588 4.04356 0
M  V30 401 H 40.5886 -1.72221 5.21182 0
M  V30 402 H 40.8496 -2.48952 3.65343 0
M  V30 403 N 39.9087 -1.5758 0.0250728 0
M  V30 404 C 40.8567 -2.11125 -0.97617 0
M  V30 405 C 41.8507 -1.03689 -1.33959 0
M  V30 406 O 43.0567 -1.22128 -1.3223 0
M  V30 407 H 39.4317 -0.674468 -0.332561 0
M  V30 408 H 41.4027 -2.94194 -0.499223 0
M  V30 409 C 40.1517 -2.65017 -2.2508 0
M  V30 410 H 39.4747 -3.47333 -1.9799 0
M  V30 411 H 40.9147 -3.06133 -2.93357 0
M  V30 412 C 39.3737 -1.57574 -2.97779 0
M  V30 413 O 39.9037 -0.973203 -3.89733 0
M  V30 414 N 38.1097 -1.29716 -2.60043 0
M  V30 415 H 37.6567 -1.789 -1.85345 0
M  V30 416 H 37.6147 -0.58051 -3.08994 0
M  V30 417 N 41.3868 0.248026 -1.55636 0
M  V30 418 C 42.8028 0.596483 -1.48035 0
M  V30 419 C 43.0028 1.88386 -0.715039 0
M  V30 420 O 42.0588 2.51319 -0.243944 0
M  V30 421 C 43.3718 0.700258 -2.92433 0
M  V30 422 C 44.9198 0.792659 -3.02797 0
M  V30 423 C 45.3948 0.928005 -4.485 0
M  V30 424 N 46.8858 0.992903 -4.52433 0
M  V30 425 C 47.6208 1.11687 -5.62418 0
M  V30 426 N 47.1168 1.20645 -6.82214 0
M  V30 427 N 48.9098 1.14994 -5.50212 0
M  V30 428 H 41.0608 -0.597109 -2.03834 0
M  V30 429 H 43.3238 -0.205925 -0.925364 0
M  V30 430 H 43.0298 -0.175658 -3.51261 0
M  V30 431 H 42.9038 1.57255 -3.42857 0
M  V30 432 H 45.2908 1.65903 -2.4405 0
M  V30 433 H 45.3718 -0.104762 -2.55585 0
M  V30 434 H 45.0158 0.0661971 -5.07857 0
M  V30 435 H 44.9458 1.84045 -4.93391 0
M  V30 436 H 47.4368 0.935064 -3.66149 0
M  V30 437 H 47.7498 1.30008 -7.61786 0
M  V30 438 H 46.0948 1.17605 -6.84977 0
M  V30 439 H 49.2858 1.07643 -4.55555 0
M  V30 440 H 49.4588 1.24311 -6.35965 0
M  V30 441 N 42.8649 1.48995 0.513639 0
M  V30 442 C 44.1109 1.58076 1.27042 0
M  V30 443 C 44.4439 0.261026 1.92438 0
M  V30 444 O 43.7189 -0.734393 1.80103 0
M  V30 445 C 44.0019 2.73091 2.34719 0
M  V30 446 C 43.8549 4.14821 1.73907 0
M  V30 447 C 45.1739 2.83796 3.36375 0
M  V30 448 H 42.2929 0.575391 0.460536 0
M  V30 449 H 44.9349 1.81232 0.570516 0
M  V30 450 H 43.0849 2.53479 2.94416 0
M  V30 451 H 44.7569 4.45917 1.18135 0
M  V30 452 H 42.9999 4.21058 1.0437 0
M  V30 453 H 43.6709 4.91147 2.51949 0
M  V30 454 H 46.1469 3.01611 2.86653 0
M  V30 455 H 45.0229 3.65971 4.09093 0
M  V30 456 H 45.2839 1.92624 3.9793 0
M  V30 457 N 44.343 -0.763751 1.37857 0
M  V30 458 C 45.571 -1.55293 1.36718 0
M  V30 459 C 45.986 -1.88745 -0.0455434 0
M  V30 460 O 45.343 -1.52039 -1.00947 0
M  V30 461 C 45.394 -2.85831 2.2132 0
M  V30 462 O 45.115 -2.5381 3.57089 0
M  V30 463 C 46.616 -3.80023 2.28249 0
M  V30 464 H 43.836 -0.480841 0.468009 0
M  V30 465 H 46.38 -0.946009 1.81303 0
M  V30 466 H 44.535 -3.42926 1.80223 0
M  V30 467 H 44.949 -3.37459 4.01524 0
M  V30 468 H 46.423 -4.68599 2.91752 0
M  V30 469 H 46.9 -4.1973 1.2932 0
M  V30 470 H 47.506 -3.28855 2.69693 0
M  V30 471 N 45.8211 -1.22559 -0.990812 0
M  V30 472 C 46.7311 -1.01394 -2.11557 0
M  V30 473 C 47.7471 0.0383962 -1.73958 0
M  V30 474 O 48.9231 -0.154787 -2.00804 0
M  V30 475 C 45.9881 -0.596569 -3.41529 0
M  V30 476 C 45.0491 -1.72276 -3.93217 0
M  V30 477 C 44.2821 -1.32521 -5.16985 0
M  V30 478 O 44.5051 -0.204909 -5.70032 0
M  V30 479 O 43.4391 -2.14247 -5.62478 0
M  V30 480 H 47.2651 -1.95633 -2.32296 0
M  V30 481 H 44.8501 -1.01172 -1.0993 0
M  V30 482 H 46.7321 -0.374263 -4.19735 0
M  V30 483 H 45.4071 0.316939 -3.22145 0
M  V30 484 H 44.3141 -1.99961 -3.16174 0
M  V30 485 H 45.6471 -2.61421 -4.17037 0
M  V30 486 N 47.2992 1.18797 -1.03562 0
M  V30 487 C 48.2092 2.25913 -0.632505 0
M  V30 488 C 49.2252 1.70668 0.338882 0
M  V30 489 O 50.4012 2.00453 0.195076 0
M  V30 490 C 47.4662 3.467 0.00350942 0
M  V30 491 C 46.5272 4.17098 -1.01624 0
M  V30 492 C 45.7602 5.32119 -0.410478 0
M  V30 493 O 45.9832 5.64976 0.784725 0
M  V30 494 O 44.9172 5.9107 -1.13667 0
M  V30 495 H 48.7432 2.62648 -1.52478 0
M  V30 496 H 46.3282 1.25781 -0.806195 0
M  V30 497 H 48.2102 4.19878 0.35781 0
M  V30 498 H 46.8852 3.11798 0.869686 0
M  V30 499 H 45.7922 3.4601 -1.42224 0
M  V30 500 H 47.1252 4.55987 -1.85301 0
M  V30 501 N 48.7773 0.814389 1.34928 0
M  V30 502 C 49.7403 0.235759 2.27984 0
M  V30 503 C 50.7403 -0.581412 1.49921 0
M  V30 504 O 51.9303 -0.398758 1.69575 0
M  V30 505 C 49.0623 -0.670433 3.34242 0
M  V30 506 H 50.2553 1.05659 2.80671 0
M  V30 507 H 47.8083 0.585614 1.44915 0
M  V30 508 H 48.5433 -1.51466 2.86755 0
M  V30 509 H 48.3283 -0.0860822 3.92005 0
M  V30 510 H 49.8183 -1.06935 4.03676 0
M  V30 511 N 50.2554 -1.46986 0.568584 0
M  V30 512 C 51.5014 -2.02741 0.0488709 0
M  V30 513 C 51.8344 -1.44077 -1.30214 0
M  V30 514 O 51.1094 -0.600552 -1.84996 0
M  V30 515 C 51.3924 -3.60086 -0.032047 0
M  V30 516 C 51.2454 -4.29162 1.34686 0
M  V30 517 C 52.5644 -4.33838 -0.739798 0
M  V30 518 H 49.6834 -0.736749 0.0192338 0
M  V30 519 H 52.3254 -1.75289 0.733065 0
M  V30 520 H 50.4754 -3.83606 -0.61473 0
M  V30 521 H 52.1474 -4.16948 1.97362 0
M  V30 522 H 50.3904 -3.89073 1.91846 0
M  V30 523 H 51.0614 -5.37826 1.24285 0
M  V30 524 H 53.5374 -4.15378 -0.244939 0
M  V30 525 H 52.4134 -5.43537 -0.765406 0
M  V30 526 H 52.6744 -4.03875 -1.79827 0
M  V30 527 N 51.7335 -0.305618 -1.54608 0
M  V30 528 C 52.6965 0.555591 -2.22364 0
M  V30 529 C 53.6965 1.05768 -1.21119 0
M  V30 530 O 54.8865 0.952972 -1.45822 0
M  V30 531 C 52.0185 1.76974 -2.91364 0
M  V30 532 H 53.2115 -0.0364572 -2.99878 0
M  V30 533 H 50.7645 -0.0565007 -1.56198 0
M  V30 534 H 51.4995 2.40151 -2.17941 0
M  V30 535 H 51.2845 1.41732 -3.65588 0
M  V30 536 H 52.7745 2.38148 -3.43038 0
M  V30 537 N 53.2116 1.57565 -0.0334293 0
M  V30 538 C 54.4576 1.92262 0.645226 0
M  V30 539 C 54.7906 0.910543 1.71531 0
M  V30 540 O 54.0656 -0.066099 1.94388 0
M  V30 541 C 54.3486 3.37422 1.2577 0
M  V30 542 C 54.2016 4.49369 0.196891 0
M  V30 543 C 55.5206 3.82628 2.17449 0
M  V30 544 H 52.6396 0.699171 0.233085 0
M  V30 545 H 55.2816 1.89779 -0.0915694 0
M  V30 546 H 53.4316 3.39669 1.88566 0
M  V30 547 H 55.1036 4.59254 -0.433962 0
M  V30 548 H 53.3466 4.31168 -0.477137 0
M  V30 549 H 54.0176 5.47978 0.665124 0
M  V30 550 H 56.4936 3.82145 1.64634 0
M  V30 551 H 55.3696 4.84883 2.57254 0
M  V30 552 H 55.6306 3.18376 3.0674 0
M  V30 553 N 54.6897 -0.239769 1.55765 0
M  V30 554 C 55.6367 -1.29696 1.90913 0
M  V30 555 C 56.6067 -1.47478 0.764164 0
M  V30 556 O 57.7917 -1.61345 1.01845 0
M  V30 557 C 54.9317 -2.64598 2.21544 0
M  V30 558 C 54.0447 -2.54765 3.48882 0
M  V30 559 C 53.1797 -3.82069 3.69049 0
M  V30 560 C 52.2187 -3.66883 4.89963 0
M  V30 561 N 51.3557 -4.86094 5.06614 0
M  V30 562 H 56.1957 -0.990224 2.81067 0
M  V30 563 H 53.7327 -0.477684 1.39128 0
M  V30 564 H 55.6907 -3.43132 2.3731 0
M  V30 565 H 54.3207 -2.93405 1.34585 0
M  V30 566 H 53.3727 -1.67763 3.41409 0
M  V30 567 H 54.6847 -2.39457 4.37563 0
M  V30 568 H 53.8387 -4.69046 3.84812 0
M  V30 569 H 52.5777 -4.00282 2.78614 0
M  V30 570 H 51.5827 -2.78289 4.74168 0
M  V30 571 H 52.8077 -3.50157 5.81865 0
M  V30 572 H 50.7537 -5.04655 4.19117 0
M  V30 573 H 50.6707 -4.73443 5.89396 0
M  V30 574 H 51.9387 -5.74549 5.26795 0
M  V30 575 N 56.1678 -1.49265 -0.50573 0
M  V30 576 C 57.4168 -1.57761 -1.25675 0
M  V30 577 C 57.7298 -0.267371 -1.93764 0
M  V30 578 O 58.9358 -0.230827 -2.70517 0
M  V30 579 C 57.3918 -2.78332 -2.28165 0
M  V30 580 C 56.9998 -4.16096 -1.66037 0
M  V30 581 C 58.7438 -2.96155 -3.04125 0
M  V30 582 C 56.6508 -5.27895 -2.6661 0
M  V30 583 H 55.5808 -0.587391 -0.472745 0
M  V30 584 H 58.2318 -1.75644 -0.53118 0
M  V30 585 H 56.6138 -2.53934 -3.03865 0
M  V30 586 H 57.7878 -4.50612 -0.963622 0
M  V30 587 H 56.1028 -4.03591 -1.02484 0
M  V30 588 H 58.6998 -3.76849 -3.79327 0
M  V30 589 H 59.0428 -2.06534 -3.61455 0
M  V30 590 H 59.5758 -3.2057 -2.35541 0
M  V30 591 H 56.3148 -6.1956 -2.14068 0
M  V30 592 H 55.8348 -4.97839 -3.34539 0
M  V30 593 H 57.5138 -5.57031 -3.29129 0
M  V30 594 N 57.6459 0.756429 -1.3826 0
M  V30 595 C 58.8919 1.51772 -1.34511 0
M  V30 596 C 59.2249 1.94089 0.0656691 0
M  V30 597 O 58.4999 1.65221 1.02626 0
M  V30 598 C 58.7829 2.77226 -2.29821 0
M  V30 599 C 58.6359 2.41065 -3.79747 0
M  V30 600 C 59.9549 3.79236 -2.23312 0
M  V30 601 H 57.0739 0.550578 -0.489931 0
M  V30 602 H 59.7159 0.866607 -1.69086 0
M  V30 603 H 57.8659 3.32784 -2.00467 0
M  V30 604 H 59.5379 1.91303 -4.19763 0
M  V30 605 H 57.7809 1.7356 -3.97567 0
M  V30 606 H 58.4519 3.3081 -4.41892 0
M  V30 607 H 60.9279 3.3321 -2.49219 0
M  V30 608 H 59.8039 4.64714 -2.92116 0
M  V30 609 H 60.0649 4.24615 -1.23102 0
M  V30 610 N 59.124 1.23083 0.984299 0
M  V30 611 C 60.401 0.9689 1.69917 0
M  V30 612 C 60.781 -0.513604 2.04757 0
M  V30 613 O 60.129 -1.48383 1.73767 0
M  V30 614 C 60.339 1.87518 2.94343 0
M  V30 615 C 61.687 2.13636 3.6694 0
M  V30 616 O 62.711 1.85036 3.04368 0
M  V30 617 O 61.57 2.62119 4.79537 0
M  V30 618 H 58.664 0.365095 0.742048 0
M  V30 619 H 61.21 1.34107 1.03987 0
M  V30 620 H 59.982 2.87756 2.65164 0
M  V30 621 H 59.605 1.50514 3.6801 0
M  V30 622 N 60.6021 -1.18246 1.0419 0
M  V30 623 C 61.5351 -2.20746 0.578474 0
M  V30 624 C 62.5131 -1.57912 -0.387624 0
M  V30 625 O 63.6971 -1.86071 -0.301634 0
M  V30 626 C 60.8241 -3.38346 -0.154762 0
M  V30 627 C 59.8701 -4.19587 0.764782 0
M  V30 628 S 60.7031 -4.86014 2.24835 0
M  V30 629 C 61.8591 -6.07012 1.526 0
M  V30 630 H 62.0921 -2.59715 1.44691 0
M  V30 631 H 59.6251 -1.287 0.85297 0
M  V30 632 H 61.5831 -4.065 -0.571641 0
M  V30 633 H 60.2441 -2.97786 -0.999105 0
M  V30 634 H 59.4371 -5.03611 0.197976 0
M  V30 635 H 59.0391 -3.56818 1.12057 0
M  V30 636 H 61.3311 -6.72523 0.819733 0
M  V30 637 H 62.2741 -6.68202 2.34333 0
M  V30 638 H 62.6821 -5.55249 1.01779 0
M  V30 639 N 62.0802 -0.821533 -1.34494 0
M  V30 640 C 63.0272 -0.240397 -2.29545 0
M  V30 641 C 63.9972 0.634031 -1.53523 0
M  V30 642 O 65.1822 0.575966 -1.81899 0
M  V30 643 C 62.3222 0.592869 -3.39969 0
M  V30 644 C 61.4352 -0.30365 -4.30932 0
M  V30 645 C 60.5702 0.539049 -5.28458 0
M  V30 646 C 59.6092 -0.356942 -6.11058 0
M  V30 647 N 58.7462 0.446603 -7.00678 0
M  V30 648 H 63.5862 -1.05632 -2.7865 0
M  V30 649 H 61.1232 -0.532413 -1.37127 0
M  V30 650 H 63.0812 1.09129 -4.02675 0
M  V30 651 H 61.7112 1.37392 -2.92102 0
M  V30 652 H 60.7632 -0.920276 -3.691 0
M  V30 653 H 62.0752 -0.992661 -4.88823 0
M  V30 654 H 61.2292 1.102 -5.96608 0
M  V30 655 H 59.9682 1.26157 -4.71101 0
M  V30 656 H 58.9732 -0.932047 -5.41842 0
M  V30 657 H 60.1982 -1.07755 -6.70497 0
M  V30 658 H 58.1442 1.15282 -6.45791 0
M  V30 659 H 58.0612 -0.184048 -7.55776 0
M  V30 660 H 59.3292 0.992352 -7.73158 0
M  V30 661 N 63.5583 1.46682 -0.576371 0
M  V30 662 C 64.9743 1.57822 -0.237562 0
M  V30 663 C 65.1743 1.57237 1.26011 0
M  V30 664 O 64.2303 1.48596 2.04146 0
M  V30 665 C 65.5433 2.87499 -0.881168 0
M  V30 666 C 67.0913 3.01119 -0.85417 0
M  V30 667 C 67.5663 4.33524 -1.4772 0
M  V30 668 N 69.0573 4.40207 -1.44125 0
M  V30 669 C 69.7923 5.4126 -1.89276 0
M  V30 670 N 69.2883 6.49021 -2.42371 0
M  V30 671 N 71.0813 5.32422 -1.80231 0
M  V30 672 H 63.2323 1.45306 -1.54919 0
M  V30 673 H 65.4953 0.692733 -0.647167 0
M  V30 674 H 65.2013 2.9372 -1.93447 0
M  V30 675 H 65.0753 3.75224 -0.385592 0
M  V30 676 H 67.4623 2.94485 0.190491 0
M  V30 677 H 67.5433 2.14887 -1.3877 0
M  V30 678 H 67.1873 4.40916 -2.52103 0
M  V30 679 H 67.1173 5.1852 -0.918947 0
M  V30 680 H 69.6083 3.62931 -1.05307 0
M  V30 681 H 69.9213 7.2233 -2.74698 0
M  V30 682 H 68.2663 6.49858 -2.46393 0
M  V30 683 H 71.4573 4.47137 -1.38514 0
M  V30 684 H 71.6303 6.11034 -2.15735 0
M  V30 685 N 65.0364 0.313813 1.54444 0
M  V30 686 C 65.9994 -0.54379 2.22656 0
M  V30 687 C 66.9994 -1.05124 1.21678 0
M  V30 688 O 68.1894 -0.945225 1.46325 0
M  V30 689 C 65.3214 -1.75427 2.92298 0
M  V30 690 H 66.5144 0.0523599 2.99854 0
M  V30 691 H 64.0674 0.0647834 1.56166 0
M  V30 692 H 64.8024 -2.38991 2.19211 0
M  V30 693 H 64.5874 -1.39791 3.66334 0
M  V30 694 H 66.0774 -2.36325 3.44297 0
M  V30 695 N 66.5145 -1.57545 0.0417849 0
M  V30 696 C 67.7605 -1.92601 -0.635021 0
M  V30 697 C 68.0935 -0.919627 -1.71045 0
M  V30 698 O 67.3685 0.0557892 -1.9442 0
M  V30 699 C 67.6515 -3.38085 -1.23979 0
M  V30 700 C 67.5045 -4.49467 -0.173057 0
M  V30 701 C 68.8235 -3.83776 -2.15416 0
M  V30 702 H 65.9425 -0.700397 -0.229374 0
M  V30 703 H 68.5845 -1.89728 0.101633 0
M  V30 704 H 66.7345 -3.40664 -1.86762 0
M  V30 705 H 68.4065 -4.59018 0.458312 0
M  V30 706 H 66.6495 -4.30909 0.499996 0
M  V30 707 H 67.3205 -5.48323 -0.636054 0
M  V30 708 H 69.7965 -3.83013 -1.62605 0
M  V30 709 H 68.6725 -4.8624 -2.54679 0
M  V30 710 H 68.9335 -3.19998 -3.05047 0
M  V30 711 N 67.9926 0.231505 -1.5589 0
M  V30 712 C 69.2696 0.981096 -1.69215 0
M  V30 713 C 69.6496 2.02799 -0.586164 0
M  V30 714 O 68.9976 2.24823 0.408253 0
M  V30 715 C 69.2076 1.60054 -3.10135 0
M  V30 716 C 70.5556 2.09658 -3.69227 0
M  V30 717 O 71.5796 1.69967 -3.13033 0
M  V30 718 O 70.4386 2.8258 -4.67772 0
M  V30 719 H 67.5326 0.457653 -0.688827 0
M  V30 720 H 70.0786 0.224073 -1.68214 0
M  V30 721 H 68.8506 0.844105 -3.82087 0
M  V30 722 H 68.4736 2.42336 -3.15212 0
M  V30 723 N 69.4707 1.49531 0.497807 0
M  V30 724 C 70.7107 1.60799 1.26187 0
M  V30 725 C 71.0747 0.289627 1.89803 0
M  V30 726 O 72.2757 0.277512 2.67364 0
M  V30 727 C 70.5467 2.73729 2.29798 0
M  V30 728 S 72.1057 3.04968 3.155 0
M  V30 729 H 68.9237 0.567145 0.428798 0
M  V30 730 H 71.5257 1.87204 0.563477 0
M  V30 731 H 70.2297 3.68036 1.81597 0
M  V30 732 H 69.7607 2.49328 3.04301 0
M  V30 733 H 71.7757 2.46735 4.30507 0
M  V30 734 N 70.9488 -0.749086 1.3866 0
M  V30 735 C 72.3598 -1.32664 1.31366 0
M  V30 736 C 72.7108 -1.96179 -0.028484 0
M  V30 737 O 71.8358 -1.9537 -0.93057 0
M  V30 738 C 72.4308 -2.41219 2.37905 0
M  V30 739 C 70.9898 -2.94684 2.34176 0
M  V30 740 C 70.1368 -1.68108 2.20533 0
M  V30 741 H 73.0878 -0.547628 1.48952 0
M  V30 742 H 73.1088 -3.21268 2.0388 0
M  V30 743 H 72.6208 -1.94962 3.35576 0
M  V30 744 H 70.7218 -3.45258 1.401 0
M  V30 745 H 70.8348 -3.48757 3.2849 0
M  V30 746 H 69.1988 -1.91907 1.67463 0
M  V30 747 H 69.9818 -1.23923 3.20153 0
M  V30 748 N 72.4269 -1.23603 -0.977757 0
M  V30 749 C 73.3369 -1.03632 -2.1047 0
M  V30 750 C 74.3529 0.0199435 -1.73989 0
M  V30 751 O 75.5289 -0.176076 -2.00629 0
M  V30 752 C 72.5939 -0.63276 -3.40877 0
M  V30 753 C 71.6549 -1.76437 -3.91367 0
M  V30 754 C 70.8879 -1.37997 -5.15551 0
M  V30 755 O 71.1109 -0.265357 -5.69782 0
M  V30 756 O 70.0449 -2.20201 -5.60174 0
M  V30 757 H 73.8709 -1.98086 -2.30208 0
M  V30 758 H 71.4559 -1.02332 -1.08851 0
M  V30 759 H 73.3379 -0.418761 -4.19314 0
M  V30 760 H 72.0129 0.282754 -3.22463 0
M  V30 761 H 70.9199 -2.03304 -3.14036 0
M  V30 762 H 72.2529 -2.6583 -4.14241 0
M  V30 763 N 73.905 1.17692 -1.04816 0
M  V30 764 C 74.853 2.23632 -0.63966 0
M  V30 765 C 75.847 1.6601 0.337219 0
M  V30 766 O 77.053 1.78844 0.203693 0
M  V30 767 H 73.428 0.727949 -0.188665 0
M  V30 768 H 75.399 2.55387 -1.54337 0
M  V30 769 C 74.148 3.4769 -0.0264051 0
M  V30 770 H 73.471 3.92331 -0.769164 0
M  V30 771 H 74.911 4.23418 0.222098 0
M  V30 772 C 73.37 3.13807 1.22584 0
M  V30 773 O 73.9 3.28236 2.31569 0
M  V30 774 N 72.106 2.68065 1.12202 0
M  V30 775 H 71.653 2.56525 0.235133 0
M  V30 776 H 71.611 2.45767 1.96076 0
M  V30 777 N 75.3831 0.828654 1.34056 0
M  V30 778 C 76.6321 0.415828 1.97367 0
M  V30 779 C 76.9451 -1.02796 1.6641 0
M  V30 780 O 78.1511 -1.54497 2.23255 0
M  V30 781 C 76.6071 0.692601 3.53173 0
M  V30 782 C 76.2151 2.15038 3.93017 0
M  V30 783 C 77.9591 0.346222 4.23086 0
M  V30 784 C 75.8661 2.37174 5.41758 0
M  V30 785 H 74.7961 0.151755 0.738571 0
M  V30 786 H 77.4471 1.01581 1.52819 0
M  V30 787 H 75.8291 0.0223764 3.95994 0
M  V30 788 H 77.0031 2.86024 3.61285 0
M  V30 789 H 75.3181 2.45875 3.36057 0
M  V30 790 H 77.9151 0.48937 5.32456 0
M  V30 791 H 78.2581 -0.709842 4.10204 0
M  V30 792 H 78.7911 0.971258 3.85761 0
M  V30 793 H 75.5301 3.41308 5.59633 0
M  V30 794 H 75.0501 1.70738 5.74986 0
M  V30 795 H 76.7291 2.19818 6.08514 0
M  V30 796 N 76.8612 -1.46375 0.584142 0
M  V30 797 C 77.8082 -2.30323 -0.148286 0
M  V30 798 C 78.7782 -1.40703 -0.882713 0
M  V30 799 O 79.9632 -1.69651 -0.873099 0
M  V30 800 C 77.1032 -3.25196 -1.15507 0
M  V30 801 C 76.2162 -4.29915 -0.423943 0
M  V30 802 C 75.3512 -5.11914 -1.41838 0
M  V30 803 C 74.3902 -6.08381 -0.673736 0
M  V30 804 N 73.5272 -6.83242 -1.6163 0
M  V30 805 H 78.3672 -2.92427 0.573644 0
M  V30 806 H 75.9042 -1.44118 0.294703 0
M  V30 807 H 77.8622 -3.78646 -1.75166 0
M  V30 808 H 76.4922 -2.64898 -1.8447 0
M  V30 809 H 75.5442 -3.7931 0.287714 0
M  V30 810 H 76.8562 -4.98549 0.158128 0
M  V30 811 H 76.0102 -5.69648 -2.08773 0
M  V30 812 H 74.7492 -4.43243 -2.03438 0
M  V30 813 H 73.7542 -5.49799 0.00938483 0
M  V30 814 H 74.9792 -6.79071 -0.0631082 0
M  V30 815 H 72.9252 -6.1728 -2.22038 0
M  V30 816 H 72.8422 -7.48144 -1.08707 0
M  V30 817 H 74.1102 -7.45534 -2.27596 0
M  V30 818 N 78.3393 -0.321999 -1.54275 0
M  V30 819 C 79.2863 0.544664 -2.24281 0
M  V30 820 C 80.2563 1.1129 -1.23303 0
M  V30 821 O 81.4413 1.15354 -1.51981 0
M  V30 822 C 78.5813 1.70045 -3.00298 0
M  V30 823 C 77.6943 1.16159 -4.1609 0
M  V30 824 C 76.8293 2.28293 -4.79641 0
M  V30 825 C 75.8683 1.71648 -5.8754 0
M  V30 826 N 75.0053 2.77438 -6.44959 0
M  V30 827 H 79.8453 -0.0588907 -2.97942 0
M  V30 828 H 77.3823 -0.0408345 -1.47043 0
M  V30 829 H 79.3403 2.38054 -3.42616 0
M  V30 830 H 77.9703 2.27531 -2.28975 0
M  V30 831 H 77.0223 0.373092 -3.78566 0
M  V30 832 H 78.3343 0.707087 -4.93763 0
M  V30 833 H 77.4883 3.0421 -5.2492 0
M  V30 834 H 76.2273 2.77079 -4.01346 0
M  V30 835 H 75.2323 0.942282 -5.41665 0
M  V30 836 H 76.4573 1.23741 -6.67731 0
M  V30 837 H 74.4033 3.25519 -5.69538 0
M  V30 838 H 74.3203 2.36547 -7.1804 0
M  V30 839 H 75.5883 3.53189 -6.94894 0
M  V30 840 N 79.8174 1.5752 -0.0501392 0
M  V30 841 C 80.7274 2.14952 0.939827 0
M  V30 842 C 81.7434 1.10706 1.34239 0
M  V30 843 O 82.9194 1.42869 1.41952 0
M  V30 844 C 79.9844 2.68232 2.19665 0
M  V30 845 C 79.0454 3.87272 1.85253 0
M  V30 846 C 78.2784 4.38002 3.04943 0
M  V30 847 O 78.5014 3.87811 4.18281 0
M  V30 848 O 77.4354 5.29602 2.86017 0
M  V30 849 H 81.2614 2.9986 0.481392 0
M  V30 850 H 78.8464 1.4841 0.171699 0
M  V30 851 H 80.7284 3.02475 2.93406 0
M  V30 852 H 79.4034 1.86395 2.64648 0
M  V30 853 H 78.3104 3.5792 1.0883 0
M  V30 854 H 79.6434 4.70336 1.4507 0
M  V30 855 N 81.2955 -0.223234 1.56011 0
M  V30 856 C 82.5445 -0.945912 1.78144 0
M  V30 857 C 82.8575 -1.85567 0.618396 0
M  V30 858 O 84.0635 -2.61688 0.723318 0
M  V30 859 C 82.5195 -1.73216 3.15475 0
M  V30 860 C 82.1275 -0.868619 4.39499 0
M  V30 861 C 83.8715 -2.44615 3.46935 0
M  V30 862 C 81.7785 -1.65212 5.67855 0
M  V30 863 H 80.7085 -0.356929 0.664167 0
M  V30 864 H 83.3595 -0.199845 1.82409 0
M  V30 865 H 81.7415 -2.52107 3.05382 0
M  V30 866 H 82.9155 -0.120366 4.60643 0
M  V30 867 H 81.2305 -0.26683 4.15544 0
M  V30 868 H 83.8275 -3.03732 4.40058 0
M  V30 869 H 84.1705 -3.17417 2.69355 0
M  V30 870 H 84.7035 -1.72715 3.58349 0
M  V30 871 H 81.4425 -0.967407 6.48322 0
M  V30 872 H 80.9625 -2.37503 5.50774 0
M  V30 873 H 82.6415 -2.21322 6.07968 0
M  V30 874 N 82.7736 -1.49793 -0.48987 0
M  V30 875 C 84.0136 -1.61466 -1.25332 0
M  V30 876 C 84.3776 -0.299688 -1.89647 0
M  V30 877 O 85.5786 -0.291687 -2.67213 0
M  V30 878 C 83.8496 -2.74944 -2.28343 0
M  V30 879 S 85.4086 -3.06637 -3.13878 0
M  V30 880 H 82.2266 -0.569411 -0.425784 0
M  V30 881 H 84.8286 -1.875 -0.553541 0
M  V30 882 H 83.5326 -3.68994 -1.79643 0
M  V30 883 H 83.0636 -2.50938 -3.02975 0
M  V30 884 H 85.0786 -2.49015 -4.29192 0
M  V30 885 N 84.2517 0.741722 -1.39055 0
M  V30 886 C 85.5007 1.49656 -1.35225 0
M  V30 887 C 85.8137 1.95533 0.0512708 0
M  V30 888 O 87.0197 2.7067 0.212138 0
M  V30 889 C 85.4757 2.70389 -2.37525 0
M  V30 890 C 85.0837 2.31489 -3.83558 0
M  V30 891 C 86.8277 3.48236 -2.42759 0
M  V30 892 C 84.7347 3.48903 -4.77515 0
M  V30 893 H 83.6647 0.56197 -0.502699 0
M  V30 894 H 86.3157 0.809727 -1.64668 0
M  V30 895 H 84.6977 3.41113 -2.01142 0
M  V30 896 H 85.8717 1.68354 -4.28945 0
M  V30 897 H 84.1867 1.66749 -3.81554 0
M  V30 898 H 86.7837 4.35558 -3.1015 0
M  V30 899 H 87.1267 3.90229 -1.45008 0
M  V30 900 H 87.6597 2.84535 -2.78002 0
M  V30 901 H 84.3987 3.11966 -5.76504 0
M  V30 902 H 83.9187 4.11041 -4.36813 0
M  V30 903 H 85.5977 4.15328 -4.96096 0
M  V30 904 N 85.7298 1.2412 0.971189 0
M  V30 905 C 86.6778 1.02812 2.08644 0
M  V30 906 C 87.6718 -0.0358403 1.69362 0
M  V30 907 O 88.8778 0.118429 1.7961 0
M  V30 908 H 85.2528 0.315428 0.682649 0
M  V30 909 H 87.2238 1.97397 2.23779 0
M  V30 910 C 85.9728 0.645874 3.41649 0
M  V30 911 H 85.2958 1.45632 3.72332 0
M  V30 912 H 86.7358 0.536366 4.20594 0
M  V30 913 C 85.1948 -0.646713 3.30635 0
M  V30 914 O 85.7248 -1.69338 3.64263 0
M  V30 915 N 83.9308 -0.626115 2.83775 0
M  V30 916 H 83.4778 0.225988 2.56607 0
M  V30 917 H 83.4358 -1.49117 2.76788 0
M  V30 918 N 87.2079 -1.17134 1.05439 0
M  V30 919 C 88.1549 -2.21235 0.657539 0
M  V30 920 C 89.1249 -1.62551 -0.341543 0
M  V30 921 O 90.3099 -1.89379 -0.232393 0
M  V30 922 C 87.4499 -3.45076 0.0410575 0
M  V30 923 C 86.5629 -4.18042 1.08927 0
M  V30 924 C 85.6979 -5.29376 0.439848 0
M  V30 925 C 84.7369 -5.94132 1.4722 0
M  V30 926 N 83.8739 -6.96975 0.846756 0
M  V30 927 H 88.7139 -2.54534 1.54972 0
M  V30 928 H 86.2509 -1.25028 0.775006 0
M  V30 929 H 88.2089 -4.15862 -0.33383 0
M  V30 930 H 86.8389 -3.12353 -0.814568 0
M  V30 931 H 85.8909 -3.45945 1.58196 0
M  V30 932 H 87.2029 -4.62306 1.87282 0
M  V30 933 H 86.3569 -6.06699 0.0115125 0
M  V30 934 H 85.0959 -4.86251 -0.375656 0
M  V30 935 H 84.1009 -5.15538 1.91052 0
M  V30 936 H 85.3259 -6.39337 2.28965 0
M  V30 937 H 83.2719 -6.5598 0.0518075 0
M  V30 938 H 83.1889 -7.39565 1.5678 0
M  V30 939 H 84.4569 -7.78239 0.443277 0
M  V30 940 N 88.686 -0.835752 -1.33615 0
M  V30 941 C 89.619 -0.211815 -2.27215 0
M  V30 942 C 90.597 0.639249 -1.49507 0
M  V30 943 O 91.781 0.600193 -1.78689 0
M  V30 944 C 88.908 0.702893 -3.31326 0
M  V30 945 C 87.954 -0.0723049 -4.26439 0
M  V30 946 S 88.787 -1.42811 -5.16106 0
M  V30 947 C 89.943 -0.518613 -6.23748 0
M  V30 948 H 90.176 -1.00533 -2.79786 0
M  V30 949 H 87.709 -0.632336 -1.40858 0
M  V30 950 H 89.667 1.22505 -3.91794 0
M  V30 951 H 88.328 1.47004 -2.77576 0
M  V30 952 H 87.521 0.62359 -5.00127 0
M  V30 953 H 87.123 -0.525424 -3.70291 0
M  V30 954 H 89.415 0.284778 -6.76901 0
M  V30 955 H 90.358 -1.22556 -6.97413 0
M  V30 956 H 90.766 -0.101344 -5.64409 0
M  V30 957 N 90.1641 1.46063 -0.591896 0
M  V30 958 C 91.0941 2.33172 0.123673 0
M  V30 959 C 92.0751 1.45897 0.87453 0
M  V30 960 O 93.2601 1.74698 0.848181 0
M  V30 961 C 90.3901 3.28336 1.13194 0
M  V30 962 C 89.3441 4.25124 0.495324 0
M  V30 963 C 88.6701 5.09863 1.61071 0
M  V30 964 C 89.9701 5.19143 -0.573425 0
M  V30 965 H 91.6641 2.93252 -0.603646 0
M  V30 966 H 89.2101 1.41014 -0.291741 0
M  V30 967 H 91.1631 3.88137 1.64097 0
M  V30 968 H 89.8871 2.66383 1.88965 0
M  V30 969 H 88.5461 3.66599 0.00729452 0
M  V30 970 H 88.1941 4.44288 2.35832 0
M  V30 971 H 87.8941 5.75417 1.19035 0
M  V30 972 H 89.4181 5.72529 2.12233 0
M  V30 973 H 90.8321 5.73106 -0.1491 0
M  V30 974 H 89.2291 5.93089 -0.914636 0
M  V30 975 H 90.2991 4.62519 -1.45617 0
M  V30 976 N 91.6422 0.330177 1.54103 0
M  V30 977 C 92.5902 -0.548226 2.26047 0
M  V30 978 C 93.5842 -1.11309 1.27698 0
M  V30 979 O 94.7902 -1.06036 1.45452 0
M  V30 980 H 91.1652 -0.195456 0.726155 0
M  V30 981 H 93.1362 0.0807567 2.98291 0
M  V30 982 C 91.8852 -1.69415 3.03634 0
M  V30 983 H 91.2082 -1.26876 3.79134 0
M  V30 984 H 92.6482 -2.28423 3.5721 0
M  V30 985 C 91.1072 -2.61569 2.12328 0
M  V30 986 O 91.6372 -3.63462 1.7105 0
M  V30 987 N 89.8432 -2.29952 1.77681 0
M  V30 988 H 89.3902 -1.47134 2.11446 0
M  V30 989 H 89.3482 -2.91871 1.16869 0
M  V30 990 N 93.1203 -1.57491 0.0584922 0
M  V30 991 C 94.0703 -2.08474 -0.923188 0
M  V30 992 C 95.0543 -0.991479 -1.26722 0
M  V30 993 O 96.2463 -1.25473 -1.24842 0
M  V30 994 C 93.3753 -2.6392 -2.19548 0
M  V30 995 C 92.4613 -3.80227 -1.87852 0
M  V30 996 N 92.8523 -4.89714 -1.26546 0
M  V30 997 C 91.1503 -3.89271 -2.17679 0
M  V30 998 C 91.8513 -5.70689 -1.12644 0
M  V30 999 N 90.8273 -5.18531 -1.63176 0
M  V30 1000 H 94.6293 -2.90517 -0.444653 0
M  V30 1001 H 92.1433 -1.61745 -0.145764 0
M  V30 1002 H 94.1403 -2.98752 -2.9078 0
M  V30 1003 H 92.8003 -1.83318 -2.68001 0
M  V30 1004 H 93.8113 -5.09358 -0.936757 0
M  V30 1005 H 90.4883 -3.19623 -2.68602 0
M  V30 1006 H 91.8783 -6.6875 -0.6499 0
M  V30 1007 N 94.5984 0.214957 -1.56127 0
M  V30 1008 C 95.5084 1.28727 -1.96129 0
M  V30 1009 C 96.5244 1.50916 -0.866044 0
M  V30 1010 O 97.7004 1.63918 -1.17016 0
M  V30 1011 C 94.7654 2.61569 -2.27558 0
M  V30 1012 C 93.8264 2.47625 -3.50685 0
M  V30 1013 C 93.0594 3.74132 -3.80606 0
M  V30 1014 O 93.2824 4.77438 -3.12104 0
M  V30 1015 O 92.2164 3.70849 -4.74083 0
M  V30 1016 H 96.0424 0.977855 -2.87527 0
M  V30 1017 H 93.6274 0.418358 -1.43423 0
M  V30 1018 H 95.5094 3.40012 -2.48938 0
M  V30 1019 H 94.1844 2.92178 -1.39332 0
M  V30 1020 H 93.0914 1.67361 -3.34576 0
M  V30 1021 H 94.4244 2.21954 -4.39315 0
M  V30 1022 N 96.0765 1.50051 0.48192 0
M  V30 1023 C 97.0245 1.68635 1.60203 0
M  V30 1024 C 98.0185 0.552184 1.60148 0
M  V30 1025 O 99.2245 0.732377 1.64427 0
M  V30 1026 H 95.5995 0.532081 0.531407 0
M  V30 1027 H 97.5705 2.62616 1.41688 0
M  V30 1028 C 96.3195 1.78775 2.9822 0
M  V30 1029 H 95.6425 2.6543 2.98976 0
M  V30 1030 H 97.0825 1.95806 3.7608 0
M  V30 1031 C 95.5415 0.536849 3.32595 0
M  V30 1032 O 96.0715 -0.328897 4.00351 0
M  V30 1033 N 94.2775 0.394091 2.87915 0
M  V30 1034 H 93.8245 1.09962 2.32951 0
M  V30 1035 H 93.7825 -0.441737 3.11281 0
M  V30 1036 N 97.5546 -0.734337 1.39446 0
M  V30 1037 C 98.8006 -1.49613 1.36908 0
M  V30 1038 C 99.1336 -1.94169 -0.0347829 0
M  V30 1039 O 98.4086 -1.66833 -0.999847 0
M  V30 1040 C 98.6916 -2.73534 2.34203 0
M  V30 1041 C 98.5446 -2.34993 3.83534 0
M  V30 1042 C 99.8636 -3.75635 2.29317 0
M  V30 1043 H 96.9826 -0.542714 0.498629 0
M  V30 1044 H 99.6246 -0.839597 1.70443 0
M  V30 1045 H 97.7746 -3.29553 2.05736 0
M  V30 1046 H 99.4466 -1.84601 4.22753 0
M  V30 1047 H 97.6896 -1.67213 4.00278 0
M  V30 1048 H 98.3606 -3.23738 4.47099 0
M  V30 1049 H 100.837 -3.29203 2.54489 0
M  V30 1050 H 99.7126 -4.60008 2.99472 0
M  V30 1051 H 99.9736 -4.22603 1.29842 0
M  V30 1052 N 99.0327 -1.24633 -0.964593 0
M  V30 1053 C 100.279 -1.08949 -1.71049 0
M  V30 1054 C 100.612 0.370302 -1.90637 0
M  V30 1055 O 99.8867 1.27349 -1.47011 0
M  V30 1056 C 100.17 -1.83329 -3.0994 0
M  V30 1057 C 100.023 -3.37077 -2.97824 0
M  V30 1058 C 101.342 -1.60846 -4.09654 0
M  V30 1059 H 98.4607 -0.397178 -0.620821 0
M  V30 1060 H 101.103 -1.5334 -1.12191 0
M  V30 1061 H 99.2527 -1.45597 -3.60186 0
M  V30 1062 H 100.925 -3.84425 -2.5498 0
M  V30 1063 H 99.1677 -3.65298 -2.33965 0
M  V30 1064 H 99.8387 -3.84324 -3.96231 0
M  V30 1065 H 102.315 -1.93674 -3.68279 0
M  V30 1066 H 101.191 -2.1534 -5.04896 0
M  V30 1067 H 101.452 -0.547434 -4.38698 0
M  V30 1068 N 100.511 1.16574 -1.06058 0
M  V30 1069 C 101.458 2.20883 -0.669263 0
M  V30 1070 C 102.428 1.62729 0.332918 0
M  V30 1071 O 103.613 1.895 0.222346 0
M  V30 1072 C 100.753 3.45049 -0.0593572 0
M  V30 1073 C 99.8658 4.17458 -1.11143 0
M  V30 1074 C 99.0008 5.29135 -0.467916 0
M  V30 1075 C 98.0398 5.93343 -1.50369 0
M  V30 1076 N 97.1768 6.96516 -0.883706 0
M  V30 1077 H 102.017 2.53709 -1.5632 0
M  V30 1078 H 99.5538 1.24616 -0.781625 0
M  V30 1079 H 101.512 4.16033 0.311771 0
M  V30 1080 H 100.142 3.12781 0.797992 0
M  V30 1081 H 99.1938 3.45101 -1.60029 0
M  V30 1082 H 100.506 4.61307 -1.89731 0
M  V30 1083 H 99.6598 6.06684 -0.0436871 0
M  V30 1084 H 98.3988 4.86443 0.349864 0
M  V30 1085 H 97.4038 5.14517 -1.93784 0
M  V30 1086 H 98.6288 6.38114 -2.32352 0
M  V30 1087 H 96.5748 6.55943 -0.086595 0
M  V30 1088 H 96.4918 7.38723 -1.607 0
M  V30 1089 H 97.7598 7.77993 -0.484543 0
M  V30 1090 N 101.989 0.842826 1.3317 0
M  V30 1091 C 103.236 0.440447 1.97652 0
M  V30 1092 C 103.564 -1.00123 1.6675 0
M  V30 1093 O 102.819 -1.7155 0.941761 0
M  V30 1094 C 103.118 0.612607 3.52111 0
M  V30 1095 C 102.784 2.02297 4.02972 0
M  V30 1096 C 101.446 2.40874 4.16573 0
M  V30 1097 C 103.798 2.94402 4.30089 0
M  V30 1098 C 101.126 3.70852 4.54627 0
M  V30 1099 C 103.478 4.23865 4.69597 0
M  V30 1100 C 102.142 4.62392 4.81404 0
M  V30 1101 H 101.412 0.161171 0.72326 0
M  V30 1102 H 104.059 1.07061 1.58777 0
M  V30 1103 H 102.364 -0.100849 3.9167 0
M  V30 1104 H 104.061 0.2815 4.00011 0
M  V30 1105 H 100.651 1.71338 3.92863 0
M  V30 1106 H 104.835 2.65835 4.19101 0
M  V30 1107 H 100.091 4.00501 4.61962 0
M  V30 1108 H 104.265 4.95306 4.89536 0
M  V30 1109 H 101.892 5.63154 5.10648 0
M  V30 1110 N 103.467 -1.45747 0.599634 0
M  V30 1111 C 104.697 -2.06369 0.0977132 0
M  V30 1112 C 105.105 -1.44624 -1.21985 0
M  V30 1113 O 104.448 -0.551831 -1.75216 0
M  V30 1114 C 104.51 -3.59284 -0.124673 0
M  V30 1115 C 104.174 -4.43318 1.10987 0
M  V30 1116 C 105.171 -4.78796 2.02609 0
M  V30 1117 C 102.856 -4.84194 1.33647 0
M  V30 1118 C 104.85 -5.53997 3.15224 0
M  V30 1119 C 102.537 -5.5915 2.46565 0
M  V30 1120 C 103.535 -5.93968 3.37182 0
M  V30 1121 O 103.223 -6.67405 4.48136 0
M  V30 1122 H 102.955 -0.673122 0.0623153 0
M  V30 1123 H 105.509 -1.88104 0.824981 0
M  V30 1124 H 103.739 -3.75919 -0.906745 0
M  V30 1125 H 105.428 -4.01775 -0.577201 0
M  V30 1126 H 106.194 -4.47781 1.86325 0
M  V30 1127 H 102.073 -4.56534 0.64016 0
M  V30 1128 H 105.617 -5.81091 3.85978 0
M  V30 1129 H 101.514 -5.89579 2.62805 0
M  V30 1130 H 102.282 -6.85847 4.46717 0
M  V30 1131 N 104.945 -0.338344 -1.53925 0
M  V30 1132 C 106.193 0.259245 -2.0043 0
M  V30 1133 C 106.514 1.51484 -1.22791 0
M  V30 1134 O 105.784 1.93037 -0.33368 0
M  V30 1135 H 104.364 0.0987845 -0.740439 0
M  V30 1136 H 107.026 -0.458302 -1.89435 0
M  V30 1137 H 106.122 0.505334 -3.07982 0
M  V30 1138 N 106.423 1.57458 -0.0668435 0
M  V30 1139 C 107.373 2.0896 0.912119 0
M  V30 1140 C 108.357 0.998186 1.26195 0
M  V30 1141 O 109.549 1.26133 1.24175 0
M  V30 1142 C 106.678 2.6508 2.18145 0
M  V30 1143 C 105.764 3.81218 1.85832 0
M  V30 1144 N 106.155 4.90378 1.23948 0
M  V30 1145 C 104.453 3.9042 2.15612 0
M  V30 1146 C 105.154 5.71279 1.09616 0
M  V30 1147 N 104.13 5.19389 1.60423 0
M  V30 1148 H 107.932 2.90749 0.42924 0
M  V30 1149 H 105.446 1.6182 0.137184 0
M  V30 1150 H 107.443 3.0029 2.89192 0
M  V30 1151 H 106.103 1.84736 2.67025 0
M  V30 1152 H 107.114 5.09847 0.909731 0
M  V30 1153 H 103.791 3.21043 2.66903 0
M  V30 1154 H 105.181 6.69085 0.614425 0
M  V30 1155 N 107.901 -0.206675 1.56239 0
M  V30 1156 C 109.317 -0.557025 1.49564 0
M  V30 1157 C 109.517 -1.86424 0.764735 0
M  V30 1158 O 108.573 -2.50584 0.310491 0
M  V30 1159 C 109.886 -0.622478 2.94186 0
M  V30 1160 C 111.434 -0.712099 3.04792 0
M  V30 1161 C 111.909 -0.808767 4.50803 0
M  V30 1162 N 113.4 -0.8726 4.54907 0
M  V30 1163 C 114.135 -0.967365 5.65181 0
M  V30 1164 N 113.631 -1.02515 6.85173 0
M  V30 1165 N 115.424 -1.00366 5.53067 0
M  V30 1166 H 107.575 0.650943 2.02179 0
M  V30 1167 H 109.838 0.230387 0.919579 0
M  V30 1168 H 109.544 0.268727 3.50672 0
M  V30 1169 H 109.418 -1.4811 3.46905 0
M  V30 1170 H 111.805 -1.59374 2.48363 0
M  V30 1171 H 111.886 0.172489 2.55218 0
M  V30 1172 H 111.53 0.0684754 5.07854 0
M  V30 1173 H 111.46 -1.70899 4.98098 0
M  V30 1174 H 113.951 -0.837657 3.68499 0
M  V30 1175 H 114.264 -1.09765 7.64965 0
M  V30 1176 H 112.609 -0.994026 6.87855 0
M  V30 1177 H 115.8 -0.95527 4.58249 0
M  V30 1178 H 115.973 -1.07405 6.39037 0
M  V30 1179 N 109.379 -1.50304 -0.473955 0
M  V30 1180 C 110.795 -1.37667 -0.807466 0
M  V30 1181 C 110.995 -0.430555 -1.96846 0
M  V30 1182 O 110.051 0.127874 -2.52176 0
M  V30 1183 C 111.364 -2.78974 -1.12223 0
M  V30 1184 C 112.912 -2.87868 -1.22885 0
M  V30 1185 C 113.387 -4.30003 -1.57676 0
M  V30 1186 N 114.878 -4.3294 -1.64673 0
M  V30 1187 C 115.613 -5.3991 -1.93091 0
M  V30 1188 N 115.109 -6.57092 -2.1955 0
M  V30 1189 N 116.902 -5.27351 -1.94569 0
M  V30 1190 H 109.053 -2.10394 0.291212 0
M  V30 1191 H 111.316 -0.945575 0.0677609 0
M  V30 1192 H 111.022 -3.50031 -0.342229 0
M  V30 1193 H 110.896 -3.16038 -2.05913 0
M  V30 1194 H 113.283 -2.17032 -1.99953 0
M  V30 1195 H 113.364 -2.54352 -0.271814 0
M  V30 1196 H 113.008 -5.01375 -0.81149 0
M  V30 1197 H 112.938 -4.61004 -2.54525 0
M  V30 1198 H 115.429 -3.48441 -1.46277 0
M  V30 1199 H 115.742 -7.34425 -2.405 0
M  V30 1200 H 114.087 -6.60272 -2.16948 0
M  V30 1201 H 117.278 -4.34801 -1.73394 0
M  V30 1202 H 117.451 -6.10805 -2.16381 0
M  V30 1203 N 110.857 0.726932 -1.39834 0
M  V30 1204 C 111.767 1.87131 -1.41489 0
M  V30 1205 C 112.783 1.71239 -0.308757 0
M  V30 1206 O 113.959 1.93701 -0.551529 0
M  V30 1207 C 111.024 3.22811 -1.26468 0
M  V30 1208 C 110.085 3.51039 -2.47124 0
M  V30 1209 C 109.318 4.80245 -2.3281 0
M  V30 1210 O 109.541 5.54537 -1.33585 0
M  V30 1211 O 108.475 5.08554 -3.21957 0
M  V30 1212 H 112.301 1.8869 -2.3797 0
M  V30 1213 H 109.886 0.875837 -1.21035 0
M  V30 1214 H 111.768 4.03877 -1.20255 0
M  V30 1215 H 110.443 3.22005 -0.330862 0
M  V30 1216 H 109.35 2.70027 -2.58914 0
M  V30 1217 H 110.683 3.56632 -3.39227 0
M  V30 1218 N 112.336 1.25143 0.95797 0
M  V30 1219 C 113.584 1.09476 1.69881 0
M  V30 1220 C 113.905 -0.365502 1.91544 0
M  V30 1221 O 113.175 -1.25985 1.50015 0
M  V30 1222 H 111.755 0.402128 0.629525 0
M  V30 1223 H 114.417 1.57214 1.15194 0
M  V30 1224 H 113.513 1.60046 2.6794 0
M  V30 1225 N 113.814 -1.1601 1.06675 0
M  V30 1226 C 114.762 -2.22586 0.675157 0
M  V30 1227 C 115.756 -1.66525 -0.310766 0
M  V30 1228 O 116.962 -1.79145 -0.175215 0
M  V30 1229 H 113.337 -0.724855 0.200223 0
M  V30 1230 H 115.308 -2.52899 1.58381 0
M  V30 1231 C 114.057 -3.47604 0.0817162 0
M  V30 1232 H 113.38 -3.91058 0.831484 0
M  V30 1233 H 114.82 -4.23718 -0.154708 0
M  V30 1234 C 113.279 -3.15718 -1.17576 0
M  V30 1235 O 113.809 -3.31878 -2.26318 0
M  V30 1236 N 112.015 -2.69816 -1.07923 0
M  V30 1237 H 111.562 -2.56866 -0.194293 0
M  V30 1238 H 111.52 -2.48855 -1.92141 0
M  V30 1239 N 115.292 -0.849877 -1.32721 0
M  V30 1240 C 116.541 -0.447175 -1.96681 0
M  V30 1241 C 116.854 1.00135 -1.68025 0
M  V30 1242 O 118.06 1.50926 -2.25685 0
M  V30 1243 C 116.516 -0.7487 -3.52026 0
M  V30 1244 C 116.124 -2.21264 -3.89546 0
M  V30 1245 C 117.868 -0.413487 -4.22481 0
M  V30 1246 C 115.775 -2.45763 -5.37917 0
M  V30 1247 H 114.705 -0.163486 -0.736063 0
M  V30 1248 H 117.356 -1.03999 -1.51183 0
M  V30 1249 H 115.738 -0.0853727 -3.95908 0
M  V30 1250 H 116.912 -2.91736 -3.56689 0
M  V30 1251 H 115.227 -2.5119 -3.32103 0
M  V30 1252 H 117.824 -0.574017 -5.3161 0
M  V30 1253 H 118.167 0.644492 -4.11281 0
M  V30 1254 H 118.7 -1.03251 -3.84167 0
M  V30 1255 H 115.439 -3.50168 -5.54132 0
M  V30 1256 H 114.959 -1.79864 -5.72197 0
M  V30 1257 H 116.638 -2.29471 -6.0494 0
M  V30 1258 N 116.77 1.45427 -0.607355 0
M  V30 1259 C 117.702 2.2871 0.149752 0
M  V30 1260 C 118.715 1.39937 0.831958 0
M  V30 1261 O 119.904 1.64313 0.697385 0
M  V30 1262 C 117.004 3.15673 1.23304 0
M  V30 1263 C 116.177 4.32722 0.637996 0
M  V30 1264 C 115.236 5.00895 1.61215 0
M  V30 1265 O 114.262 5.57697 1.13854 0
M  V30 1266 N 115.464 5.00159 2.94655 0
M  V30 1267 H 118.229 2.94328 -0.564882 0
M  V30 1268 H 115.79 1.55612 -0.446823 0
M  V30 1269 H 117.782 3.58144 1.88454 0
M  V30 1270 H 116.352 2.51965 1.8502 0
M  V30 1271 H 115.572 3.93734 -0.191572 0
M  V30 1272 H 116.86 5.08321 0.220665 0
M  V30 1273 H 116.258 4.553 3.35735 0
M  V30 1274 H 114.815 5.46495 3.55228 0
M  V30 1275 N 118.248 0.346503 1.53744 0
M  V30 1276 C 119.478 -0.250047 2.05081 0
M  V30 1277 C 119.886 -1.44529 1.22098 0
M  V30 1278 O 119.229 -1.81992 0.249917 0
M  V30 1279 C 119.291 -0.725934 3.52094 0
M  V30 1280 C 118.955 0.350053 4.55657 0
M  V30 1281 C 119.952 1.19372 5.0601 0
M  V30 1282 C 117.637 0.504827 4.99757 0
M  V30 1283 C 119.631 2.17768 5.99046 0
M  V30 1284 C 117.318 1.49218 5.92602 0
M  V30 1285 C 118.316 2.32706 6.42135 0
M  V30 1286 O 118.004 3.2976 7.33153 0
M  V30 1287 H 117.736 -0.0515469 0.674032 0
M  V30 1288 H 120.29 0.497559 1.99282 0
M  V30 1289 H 118.52 -1.52483 3.55367 0
M  V30 1290 H 120.209 -1.24336 3.86388 0
M  V30 1291 H 120.975 1.08525 4.72702 0
M  V30 1292 H 116.854 -0.135178 4.60802 0
M  V30 1293 H 120.398 2.82971 6.37631 0
M  V30 1294 H 116.295 1.6012 6.25325 0
M  V30 1295 H 117.063 3.25265 7.51096 0
M  V30 1296 N 119.726 -1.57421 0.075193 0
M  V30 1297 C 120.656 -2.15942 -0.888324 0
M  V30 1298 C 121.637 -1.08737 -1.30806 0
M  V30 1299 O 122.822 -1.36787 -1.37851 0
M  V30 1300 C 119.952 -2.72379 -2.1547 0
M  V30 1301 C 118.906 -3.8478 -1.87425 0
M  V30 1302 C 118.232 -4.27834 -3.20721 0
M  V30 1303 C 119.532 -5.08869 -1.17684 0
M  V30 1304 H 121.226 -2.96705 -0.400799 0
M  V30 1305 H 118.772 -1.42723 -0.191342 0
M  V30 1306 H 120.725 -3.11965 -2.83295 0
M  V30 1307 H 119.449 -1.88841 -2.6647 0
M  V30 1308 H 118.108 -3.45703 -1.22004 0
M  V30 1309 H 117.756 -3.41214 -3.6957 0
M  V30 1310 H 117.456 -5.03605 -3.02746 0
M  V30 1311 H 118.98 -4.70039 -3.89738 0
M  V30 1312 H 120.394 -5.4575 -1.75584 0
M  V30 1313 H 118.791 -5.8994 -1.09956 0
M  V30 1314 H 119.861 -4.84648 -0.156453 0
M  V30 1315 N 121.204 0.198386 -1.56346 0
M  V30 1316 C 122.451 0.919286 -1.80431 0
M  V30 1317 C 122.779 1.83393 -0.647866 0
M  V30 1318 O 122.034 1.92236 0.366556 0
M  V30 1319 C 122.333 1.77031 -3.10475 0
M  V30 1320 C 121.999 1.00693 -4.39513 0
M  V30 1321 C 120.661 0.796145 -4.74568 0
M  V30 1322 C 123.013 0.469559 -5.19081 0
M  V30 1323 C 120.341 0.0364588 -5.86689 0
M  V30 1324 C 122.693 -0.2769 -6.31994 0
M  V30 1325 C 121.357 -0.49873 -6.65634 0
M  V30 1326 H 120.627 0.336391 -0.660244 0
M  V30 1327 H 123.274 0.185872 -1.90596 0
M  V30 1328 H 121.579 2.5723 -2.95533 0
M  V30 1329 H 123.276 2.33065 -3.26315 0
M  V30 1330 H 119.866 1.18122 -4.12001 0
M  V30 1331 H 124.05 0.619816 -4.92414 0
M  V30 1332 H 119.306 -0.145412 -6.11227 0
M  V30 1333 H 123.48 -0.700684 -6.92866 0
M  V30 1334 H 121.107 -1.0893 -7.52355 0
M  V30 1335 N 122.682 1.50554 0.465978 0
M  V30 1336 C 123.612 1.72722 1.57128 0
M  V30 1337 C 124.593 0.576294 1.6004 0
M  V30 1338 O 125.778 0.81598 1.76225 0
M  V30 1339 C 122.908 1.82605 2.95419 0
M  V30 1340 C 121.862 2.97835 3.07373 0
M  V30 1341 C 121.188 2.92867 4.47363 0
M  V30 1342 C 122.488 4.38265 2.84114 0
M  V30 1343 H 124.182 2.65267 1.38829 0
M  V30 1344 H 121.728 1.2765 0.666441 0
M  V30 1345 H 123.681 1.96698 3.72677 0
M  V30 1346 H 122.405 0.866858 3.14886 0
M  V30 1347 H 121.064 2.83401 2.3255 0
M  V30 1348 H 120.712 1.94783 4.63755 0
M  V30 1349 H 120.412 3.70227 4.56296 0
M  V30 1350 H 121.936 3.09015 5.26633 0
M  V30 1351 H 123.35 4.53198 3.51118 0
M  V30 1352 H 121.747 5.17115 3.04487 0
M  V30 1353 H 122.817 4.50281 1.7993 0
M  V30 1354 N 124.16 -0.719506 1.40217 0
M  V30 1355 C 125.07 -1.86378 1.42479 0
M  V30 1356 C 126.086 -1.71073 0.317834 0
M  V30 1357 O 127.262 -1.93406 0.561794 0
M  V30 1358 C 124.327 -3.22136 1.28178 0
M  V30 1359 C 123.388 -3.49723 2.48982 0
M  V30 1360 C 122.621 -4.79004 2.35353 0
M  V30 1361 O 122.844 -5.53821 1.36524 0
M  V30 1362 O 121.778 -5.06839 3.2465 0
M  V30 1363 H 125.604 -1.87425 2.38968 0
M  V30 1364 H 123.189 -0.869405 1.21498 0
M  V30 1365 H 125.071 -4.03234 1.22395 0
M  V30 1366 H 123.746 -3.21825 0.347934 0
M  V30 1367 H 122.653 -2.6865 2.60342 0
M  V30 1368 H 123.986 -3.54828 3.41113 0
M  V30 1369 N 125.638 -1.25649 -0.95132 0
M  V30 1370 C 126.868 -1.13179 -1.72841 0
M  V30 1371 C 127.276 0.316827 -1.86528 0
M  V30 1372 O 126.619 1.22948 -1.3649 0
M  V30 1373 C 126.681 -1.71644 -3.15878 0
M  V30 1374 C 126.345 -3.20667 -3.25609 0
M  V30 1375 C 127.342 -4.17616 -3.09666 0
M  V30 1376 C 125.027 -3.6094 -3.49324 0
M  V30 1377 C 127.021 -5.52817 -3.17289 0
M  V30 1378 C 124.708 -4.96278 -3.56584 0
M  V30 1379 C 125.706 -5.92025 -3.40581 0
M  V30 1380 O 125.394 -7.24899 -3.47528 0
M  V30 1381 H 125.126 -0.395389 -0.54831 0
M  V30 1382 H 127.68 -1.66566 -1.20187 0
M  V30 1383 H 125.91 -1.12707 -3.69911 0
M  V30 1384 H 127.599 -1.54225 -3.75459 0
M  V30 1385 H 128.365 -3.87842 -2.91211 0
M  V30 1386 H 124.244 -2.86907 -3.6084 0
M  V30 1387 H 127.788 -6.2753 -3.04716 0
M  V30 1388 H 123.685 -5.25716 -3.74556 0
M  V30 1389 H 124.453 -7.33039 -3.64138 0
M  V30 1390 N 127.117 1.15442 -1.07289 0
M  V30 1391 C 128.357 1.8788 -0.805012 0
M  V30 1392 C 128.721 1.80413 0.656907 0
M  V30 1393 O 129.922 2.47874 1.0398 0
M  V30 1394 C 128.193 3.3298 -1.29843 0
M  V30 1395 S 129.752 4.23158 -1.16114 0
M  V30 1396 H 126.57 0.64839 -0.291739 0
M  V30 1397 H 129.172 1.39285 -1.37186 0
M  V30 1398 H 127.876 3.35958 -2.35712 0
M  V30 1399 H 127.407 3.86629 -0.726767 0
M  V30 1400 H 129.422 4.96103 -0.0982778 0
M  V30 1401 N 128.595 0.856903 1.32268 0
M  V30 1402 C 129.82 0.474569 2.01897 0
M  V30 1403 C 130.245 -0.921766 1.63967 0
M  V30 1404 O 129.603 -1.60589 0.84148 0
M  V30 1405 C 129.651 0.623799 3.55164 0
M  V30 1406 O 128.755 -0.342459 4.10976 0
M  V30 1407 H 128.096 0.190422 0.63611 0
M  V30 1408 H 130.626 1.15672 1.68764 0
M  V30 1409 H 130.636 0.512169 4.04773 0
M  V30 1410 H 129.311 1.64202 3.82113 0
M  V30 1411 H 127.888 -0.18688 3.72431 0
M  V30 1412 N 130.073 -1.45103 0.615059 0
M  V30 1413 C 131.321 -2.01784 0.112955 0
M  V30 1414 C 131.642 -1.48504 -1.26378 0
M  V30 1415 O 130.912 -0.682245 -1.83636 0
M  V30 1416 H 129.492 -0.745993 0.0387668 0
M  V30 1417 H 132.154 -1.77808 0.798141 0
M  V30 1418 H 131.25 -3.12025 0.0684069 0
M  V30 1419 N 131.551 -0.354651 -1.53558 0
M  V30 1420 C 132.799 0.237972 -2.00694 0
M  V30 1421 C 133.12 1.50173 -1.24391 0
M  V30 1422 O 132.39 1.92673 -0.354135 0
M  V30 1423 H 130.97 0.0909256 -0.741446 0
M  V30 1424 H 133.632 -0.478368 -1.88938 0
M  V30 1425 H 132.728 0.47264 -3.085 0
M  V30 1426 N 133.029 1.57378 -0.0835403 0
M  V30 1427 C 133.939 2.16897 0.894021 0
M  V30 1428 C 134.955 1.13528 1.31861 0
M  V30 1429 O 136.131 1.45848 1.3889 0
M  V30 1430 C 133.196 2.72831 2.13925 0
M  V30 1431 C 132.257 3.91115 1.76997 0
M  V30 1432 C 131.49 4.44371 2.95584 0
M  V30 1433 O 131.713 3.96596 4.09961 0
M  V30 1434 O 130.647 5.35549 2.74719 0
M  V30 1435 H 134.473 3.00814 0.417679 0
M  V30 1436 H 132.058 1.48741 0.140181 0
M  V30 1437 H 133.94 3.0863 2.86924 0
M  V30 1438 H 132.615 1.91967 2.60635 0
M  V30 1439 H 131.522 3.60148 1.01214 0
M  V30 1440 H 132.855 4.73307 1.3506 0
M  V30 1441 N 134.507 -0.190092 1.56449 0
M  V30 1442 C 135.437 -1.23816 1.97969 0
M  V30 1443 C 136.418 -1.47201 0.852395 0
M  V30 1444 O 137.603 -1.58854 1.1171 0
M  V30 1445 C 134.733 -2.5813 2.3235 0
M  V30 1446 C 133.687 -2.49348 3.47864 0
M  V30 1447 C 133.013 -3.8798 3.67934 0
M  V30 1448 C 134.313 -2.01424 4.81898 0
M  V30 1449 H 136.007 -0.89311 2.85769 0
M  V30 1450 H 133.553 -0.428177 1.37487 0
M  V30 1451 H 135.506 -3.31637 2.59991 0
M  V30 1452 H 134.23 -2.94386 1.41438 0
M  V30 1453 H 132.889 -1.78297 3.20321 0
M  V30 1454 H 132.537 -4.21597 2.74344 0
M  V30 1455 H 132.237 -3.82978 4.45648 0
M  V30 1456 H 133.761 -4.63101 3.97957 0
M  V30 1457 H 135.175 -2.64693 5.08538 0
M  V30 1458 H 133.572 -2.07413 5.63116 0
M  V30 1459 H 134.642 -0.967677 4.75146 0
M  V30 1460 N 135.985 -1.50799 -0.457987 0
M  V30 1461 C 137.232 -1.62442 -1.20908 0
M  V30 1462 C 137.56 -0.330865 -1.91665 0
M  V30 1463 O 136.815 0.68401 -1.83357 0
M  V30 1464 C 137.114 -2.76358 -2.2663 0
M  V30 1465 C 136.78 -4.16378 -1.73033 0
M  V30 1466 C 135.442 -4.54473 -1.58138 0
M  V30 1467 C 137.794 -5.03836 -1.33413 0
M  V30 1468 C 135.122 -5.77754 -1.02065 0
M  V30 1469 C 137.474 -6.27676 -0.78778 0
M  V30 1470 C 136.138 -6.64562 -0.625561 0
M  V30 1471 H 135.408 -0.594417 -0.442435 0
M  V30 1472 H 138.055 -1.84772 -0.503136 0
M  V30 1473 H 136.36 -2.48167 -3.03184 0
M  V30 1474 H 138.057 -2.82568 -2.84528 0
M  V30 1475 H 134.647 -3.86331 -1.85598 0
M  V30 1476 H 138.831 -4.75026 -1.4375 0
M  V30 1477 H 134.087 -6.04997 -0.882547 0
M  V30 1478 H 138.261 -6.94797 -0.472177 0
M  V30 1479 H 135.888 -7.59965 -0.188926 0
M  V30 1480 N 137.463 0.71206 -1.40597 0
M  V30 1481 C 138.74 1.46536 -1.29563 0
M  V30 1482 C 139.12 2.10931 0.0844217 0
M  V30 1483 O 138.468 2.00418 1.0975 0
M  V30 1484 C 138.678 2.49821 -2.43701 0
M  V30 1485 C 140.026 3.15551 -2.841 0
M  V30 1486 O 141.05 2.60142 -2.4332 0
M  V30 1487 O 139.909 4.15867 -3.54566 0
M  V30 1488 H 137.003 0.651801 -0.509004 0
M  V30 1489 H 139.549 0.743935 -1.52524 0
M  V30 1490 H 138.321 2.00778 -3.35863 0
M  V30 1491 H 137.944 3.29495 -2.22528 0
M  V30 1492 N 138.941 1.26152 0.944643 0
M  V30 1493 C 140.357 1.03189 1.21754 0
M  V30 1494 C 140.557 -0.245112 2.00004 0
M  V30 1495 O 139.613 -0.955176 2.33736 0
M  V30 1496 C 140.926 2.26119 1.98219 0
M  V30 1497 C 142.474 2.30984 2.11224 0
M  V30 1498 C 142.949 3.53597 2.91089 0
M  V30 1499 N 144.44 3.54053 2.98664 0
M  V30 1500 C 145.175 4.45593 3.60881 0
M  V30 1501 N 144.671 5.47416 4.24626 0
M  V30 1502 N 146.464 4.33252 3.58119 0
M  V30 1503 H 138.615 2.08177 0.421437 0
M  V30 1504 H 140.878 0.914723 0.248969 0
M  V30 1505 H 140.584 3.18984 1.48128 0
M  V30 1506 H 140.458 2.3009 2.98895 0
M  V30 1507 H 142.845 1.38635 2.60508 0
M  V30 1508 H 142.926 2.31026 1.09821 0
M  V30 1509 H 142.57 4.46273 2.42493 0
M  V30 1510 H 142.5 3.50802 3.92741 0
M  V30 1511 H 144.991 2.80403 2.53343 0
M  V30 1512 H 145.304 6.13459 4.69987 0
M  V30 1513 H 143.649 5.51278 4.23223 0
M  V30 1514 H 146.84 3.52924 3.0751 0
M  V30 1515 H 147.013 5.04786 4.06319 0
M  V30 1516 N 140.419 -1.14872 1.07899 0
M  V30 1517 C 141.668 -1.85135 0.800499 0
M  V30 1518 C 141.981 -1.83547 -0.676014 0
M  V30 1519 O 143.187 -2.49548 -1.06948 0
M  V30 1520 C 141.643 -3.3231 1.38197 0
M  V30 1521 C 141.251 -3.42329 2.8899 0
M  V30 1522 C 142.995 -4.0772 1.18174 0
M  V30 1523 C 140.902 -4.83684 3.403 0
M  V30 1524 H 139.832 -0.693563 0.29578 0
M  V30 1525 H 142.483 -1.29532 1.29976 0
M  V30 1526 H 140.865 -3.87618 0.810431 0
M  V30 1527 H 142.039 -2.97097 3.52236 0
M  V30 1528 H 140.354 -2.80369 3.07867 0
M  V30 1529 H 142.951 -5.12049 1.5398 0
M  V30 1530 H 143.294 -4.16124 0.12117 0
M  V30 1531 H 143.827 -3.58696 1.71994 0
M  V30 1532 H 140.566 -4.80465 4.45907 0
M  V30 1533 H 140.086 -5.29474 2.81811 0
M  V30 1534 H 141.765 -5.52558 3.36584 0
M  V30 1535 N 141.898 -0.863906 -1.31812 0
M  V30 1536 C 142.808 -0.318461 -2.32428 0
M  V30 1537 C 143.824 0.568496 -1.64451 0
M  V30 1538 O 145 0.46666 -1.95919 0
M  V30 1539 C 142.065 0.476355 -3.43412 0
M  V30 1540 C 141.126 -0.43784 -4.27061 0
M  V30 1541 C 140.359 0.319138 -5.32745 0
M  V30 1542 O 140.582 1.54799 -5.48993 0
M  V30 1543 O 139.516 -0.319861 -6.01049 0
M  V30 1544 H 143.342 -1.15229 -2.80991 0
M  V30 1545 H 140.927 -0.627103 -1.35602 0
M  V30 1546 H 142.809 0.927156 -4.11074 0
M  V30 1547 H 141.484 1.28683 -2.97022 0
M  V30 1548 H 140.391 -0.937013 -3.62175 0
M  V30 1549 H 141.724 -1.21375 -4.77 0
M  V30 1550 N 143.376 1.44774 -0.622745 0
M  V30 1551 C 144.787 1.85546 -0.207226 0
M  V30 1552 C 145.138 1.52093 1.23944 0
M  V30 1553 O 144.263 0.95492 1.94191 0
M  V30 1554 C 144.858 3.36781 -0.369313 0
M  V30 1555 C 143.417 3.76399 -0.00836847 0
M  V30 1556 C 142.564 2.68664 -0.686651 0
M  V30 1557 H 145.515 1.3536 -0.828454 0
M  V30 1558 H 145.536 3.78453 0.394162 0
M  V30 1559 H 145.048 3.61098 -1.42231 0
M  V30 1560 H 143.149 3.57698 1.04322 0
M  V30 1561 H 143.262 4.7732 -0.412584 0
M  V30 1562 H 141.626 2.54404 -0.122777 0
M  V30 1563 H 142.409 2.95815 -1.74208 0
M  V30 1564 N 144.854 0.36279 1.53368 0
M  V30 1565 C 146.131 -0.284021 1.93527 0
M  V30 1566 C 146.511 -1.66628 1.29608 0
M  V30 1567 O 145.859 -2.23942 0.45413 0
M  V30 1568 C 146.069 -0.337028 3.47369 0
M  V30 1569 C 147.417 -0.578708 4.20638 0
M  V30 1570 O 148.441 -0.418352 3.53735 0
M  V30 1571 O 147.3 -0.89074 5.39192 0
M  V30 1572 H 144.394 -0.169743 0.809393 0
M  V30 1573 H 146.94 0.41537 1.64538 0
M  V30 1574 H 145.712 0.632217 3.86159 0
M  V30 1575 H 145.335 -1.08243 3.82582 0
M  V30 1576 N 146.332 -1.57332 0.0918853 0
M  V30 1577 C 147.581 -1.93412 -0.572249 0
M  V30 1578 C 147.894 -0.975515 -1.69538 0
M  V30 1579 O 149.1 -1.22991 -2.42045 0
M  V30 1580 C 147.556 -3.43648 -1.0693 0
M  V30 1581 C 147.164 -4.47994 0.0239049 0
M  V30 1582 C 148.908 -3.88695 -1.70635 0
M  V30 1583 C 146.815 -5.89381 -0.488319 0
M  V30 1584 H 145.745 -0.721939 -0.217532 0
M  V30 1585 H 148.396 -1.82735 0.167369 0
M  V30 1586 H 146.778 -3.49466 -1.8625 0
M  V30 1587 H 147.952 -4.53815 0.799277 0
M  V30 1588 H 146.267 -4.12536 0.565946 0
M  V30 1589 H 148.864 -4.91725 -2.10025 0
M  V30 1590 H 149.207 -3.27166 -2.57426 0
M  V30 1591 H 149.74 -3.85564 -0.979023 0
M  V30 1592 H 146.479 -6.54602 0.342906 0
M  V30 1593 H 145.999 -5.87037 -1.23077 0
M  V30 1594 H 147.678 -6.39863 -0.958317 0
M  V30 1595 N 147.81 0.181792 -1.56548 0
M  V30 1596 C 149.058 0.89832 -1.81038 0
M  V30 1597 C 149.379 1.83232 -0.667164 0
M  V30 1598 O 148.649 1.93372 0.313673 0
M  V30 1599 H 147.229 0.33471 -0.667816 0
M  V30 1600 H 149.891 0.184116 -1.94028 0
M  V30 1601 H 148.987 1.4815 -2.74696 0
M  V30 1602 N 149.288 1.51039 0.449983 0
M  V30 1603 C 150.221 1.66105 1.56474 0
M  V30 1604 C 151.199 0.508776 1.54435 0
M  V30 1605 O 152.383 0.731005 1.73749 0
M  V30 1606 C 149.51 1.66304 2.9506 0
M  V30 1607 C 148.556 2.87346 3.15174 0
M  V30 1608 S 149.389 4.4835 2.92818 0
M  V30 1609 C 150.545 4.51274 4.33708 0
M  V30 1610 H 150.778 2.60397 1.43459 0
M  V30 1611 H 148.311 1.40565 0.638805 0
M  V30 1612 H 150.269 1.67103 3.74949 0
M  V30 1613 H 148.93 0.732108 3.05449 0
M  V30 1614 H 148.123 2.83849 4.16468 0
M  V30 1615 H 147.725 2.84223 2.43091 0
M  V30 1616 H 150.017 4.26136 5.26701 0
M  V30 1617 H 150.96 5.53017 4.42242 0
M  V30 1618 H 151.368 3.80738 4.16772 0
M  V30 1619 N 150.766 -0.704594 1.40972 0
M  V30 1620 C 152.177 -1.28418 1.3552 0
M  V30 1621 C 152.528 -1.96171 0.0339434 0
M  V30 1622 O 151.653 -1.98231 -0.867944 0
M  V30 1623 C 152.248 -2.33528 2.45459 0
M  V30 1624 C 150.807 -2.87085 2.43433 0
M  V30 1625 C 149.954 -1.61007 2.2577 0
M  V30 1626 H 152.905 -0.499963 1.50619 0
M  V30 1627 H 152.926 -3.14619 2.13998 0
M  V30 1628 H 152.438 -1.84187 3.41609 0
M  V30 1629 H 150.539 -3.40626 1.51013 0
M  V30 1630 H 150.652 -3.3813 3.39419 0
M  V30 1631 H 149.016 -1.86482 1.73483 0
M  V30 1632 H 149.799 -1.13675 3.23933 0
M  V30 1633 N 152.244 -1.26651 -0.937939 0
M  V30 1634 C 153.154 -1.10276 -2.07066 0
M  V30 1635 C 154.17 -0.0354197 -1.73964 0
M  V30 1636 O 155.346 -0.239816 -1.99967 0
M  V30 1637 C 152.411 -0.740887 -3.38691 0
M  V30 1638 C 151.472 -1.88799 -3.85556 0
M  V30 1639 C 150.705 -1.54329 -5.10899 0
M  V30 1640 O 150.928 -0.446494 -5.6865 0
M  V30 1641 O 149.862 -2.37911 -5.52885 0
M  V30 1642 H 153.688 -2.05309 -2.23789 0
M  V30 1643 H 151.273 -1.05743 -1.0554 0
M  V30 1644 H 153.155 -0.55195 -4.1777 0
M  V30 1645 H 151.83 0.180022 -3.23199 0
M  V30 1646 H 150.737 -2.13191 -3.07409 0
M  V30 1647 H 152.07 -2.78874 -4.05574 0
M  V30 1648 N 153.722 1.14298 -1.08507 0
M  V30 1649 C 155.133 1.66926 -0.836227 0
M  V30 1650 C 155.484 1.85576 0.63686 0
M  V30 1651 O 154.609 1.56767 1.49175 0
M  V30 1652 C 155.204 3.03219 -1.51142 0
M  V30 1653 C 153.763 3.52876 -1.30979 0
M  V30 1654 C 152.91 2.2833 -1.57356 0
M  V30 1655 H 155.861 0.983491 -1.24552 0
M  V30 1656 H 155.882 3.68726 -0.939211 0
M  V30 1657 H 155.394 2.89612 -2.58353 0
M  V30 1658 H 153.495 3.71703 -0.258429 0
M  V30 1659 H 153.608 4.33586 -2.03814 0
M  V30 1660 H 151.972 2.34454 -0.995164 0
M  V30 1661 H 152.755 2.17298 -2.65775 0
M  V30 1662 N 155.201 0.870884 1.31352 0
M  V30 1663 C 156.478 0.402907 1.91405 0
M  V30 1664 C 156.858 -1.11512 1.79244 0
M  V30 1665 O 156.206 -1.94411 1.2007 0
M  V30 1666 C 156.416 0.885301 3.37585 0
M  V30 1667 C 157.764 0.911971 4.14691 0
M  V30 1668 O 158.788 0.831016 3.46371 0
M  V30 1669 O 157.647 1.02927 5.3672 0
M  V30 1670 H 154.741 0.120698 0.818145 0
M  V30 1671 H 157.287 0.958857 1.40014 0
M  V30 1672 H 156.059 1.92889 3.40455 0
M  V30 1673 H 155.682 0.307714 3.96407 0
M  V30 1674 N 156.679 -1.44442 0.630414 0
M  V30 1675 C 157.642 -2.29107 -0.0652523 0
M  V30 1676 C 158.642 -1.41002 -0.772995 0
M  V30 1677 O 159.832 -1.62881 -0.617692 0
M  V30 1678 C 156.964 -3.22564 -1.10296 0
M  V30 1679 H 158.157 -2.92103 0.679401 0
M  V30 1680 H 155.71 -1.51343 0.390517 0
M  V30 1681 H 156.445 -2.64416 -1.87762 0
M  V30 1682 H 156.23 -3.87491 -0.59941 0
M  V30 1683 H 157.72 -3.86167 -1.5895 0
M  V30 1684 N 158.157 -0.370918 -1.53173 0
M  V30 1685 C 159.089 0.507823 -2.23503 0
M  V30 1686 C 160.102 1.04182 -1.251 0
M  V30 1687 O 161.291 0.947286 -1.5129 0
M  V30 1688 C 158.391 1.71447 -2.92334 0
M  V30 1689 C 157.564 1.31105 -4.17289 0
M  V30 1690 C 156.623 2.38035 -4.69282 0
M  V30 1691 O 155.649 2.00204 -5.32829 0
M  V30 1692 N 156.851 3.69697 -4.47554 0
M  V30 1693 H 159.616 -0.0946382 -2.99551 0
M  V30 1694 H 157.177 -0.196358 -1.60705 0
M  V30 1695 H 159.169 2.42469 -3.24023 0
M  V30 1696 H 157.739 2.22368 -2.19707 0
M  V30 1697 H 156.959 0.430462 -3.91843 0
M  V30 1698 H 158.247 1.0179 -4.98514 0
M  V30 1699 H 157.645 4.03205 -3.9679 0
M  V30 1700 H 156.202 4.36807 -4.8378 0
M  V30 1701 N 159.635 1.57281 -0.100228 0
M  V30 1702 C 161.051 1.57527 0.256416 0
M  V30 1703 C 161.251 1.11173 1.68056 0
M  V30 1704 O 160.307 0.79053 2.39806 0
M  V30 1705 C 161.62 3.00673 0.0401747 0
M  V30 1706 C 163.168 3.12815 0.107528 0
M  V30 1707 C 163.643 4.57929 -0.0807834 0
M  V30 1708 N 165.134 4.63193 -0.0261207 0
M  V30 1709 C 165.869 5.73212 -0.146999 0
M  V30 1710 N 165.365 6.92047 -0.322999 0
M  V30 1711 N 167.158 5.62031 -0.0879044 0
M  V30 1712 H 159.309 1.85718 -1.03065 0
M  V30 1713 H 161.572 0.857446 -0.404339 0
M  V30 1714 H 161.278 3.38804 -0.943649 0
M  V30 1715 H 161.152 3.69042 0.780262 0
M  V30 1716 H 163.539 2.74554 1.08186 0
M  V30 1717 H 163.62 2.47028 -0.664134 0
M  V30 1718 H 163.264 4.96886 -1.05201 0
M  V30 1719 H 163.194 5.21783 0.710635 0
M  V30 1720 H 165.685 3.77748 0.107161 0
M  V30 1721 H 165.998 7.7173 -0.406608 0
M  V30 1722 H 164.343 6.94074 -0.358733 0
M  V30 1723 H 167.534 4.68075 0.048498 0
M  V30 1724 H 167.707 6.47734 -0.185557 0
M  V30 1725 N 161.113 -0.173488 1.56642 0
M  V30 1726 C 162.36 -0.890465 1.81871 0
M  V30 1727 C 162.688 -1.82339 0.67696 0
M  V30 1728 O 161.943 -1.92795 -0.335926 0
M  V30 1729 C 162.242 -1.72069 3.13252 0
M  V30 1730 C 161.908 -0.936878 4.41059 0
M  V30 1731 C 160.57 -0.720545 4.75775 0
M  V30 1732 C 162.922 -0.386919 5.19762 0
M  V30 1733 C 160.25 0.0568829 5.86672 0
M  V30 1734 C 162.602 0.37741 6.31473 0
M  V30 1735 C 161.266 0.604563 6.64757 0
M  V30 1736 H 160.536 -0.325844 0.665512 0
M  V30 1737 H 163.183 -0.155527 1.90867 0
M  V30 1738 H 161.488 -2.52496 2.99588 0
M  V30 1739 H 163.185 -2.27844 3.29982 0
M  V30 1740 H 159.775 -1.11553 4.13828 0
M  V30 1741 H 163.959 -0.541398 4.93338 0
M  V30 1742 H 159.215 0.242635 6.10918 0
M  V30 1743 H 163.389 0.810825 6.91664 0
M  V30 1744 H 161.016 1.20885 7.50527 0
M  V30 1745 N 162.591 -1.51276 -0.441967 0
M  V30 1746 C 163.838 -1.63715 -1.19179 0
M  V30 1747 C 164.166 -0.351175 -1.91303 0
M  V30 1748 O 163.421 0.664524 -1.84072 0
M  V30 1749 C 163.72 -2.78746 -2.23686 0
M  V30 1750 C 163.386 -4.18189 -1.68607 0
M  V30 1751 C 162.048 -4.56125 -1.53308 0
M  V30 1752 C 164.4 -5.05222 -1.28062 0
M  V30 1753 C 161.728 -5.78804 -0.959317 0
M  V30 1754 C 164.08 -6.28476 -0.721162 0
M  V30 1755 C 162.744 -6.65188 -0.55504 0
M  V30 1756 H 162.014 -0.599076 -0.436106 0
M  V30 1757 H 164.661 -1.85296 -0.48351 0
M  V30 1758 H 162.966 -2.51369 -3.00535 0
M  V30 1759 H 164.663 -2.8557 -2.81515 0
M  V30 1760 H 161.253 -3.88277 -1.8149 0
M  V30 1761 H 165.437 -4.76524 -1.38704 0
M  V30 1762 H 160.693 -6.05899 -0.81833 0
M  V30 1763 H 164.867 -6.95259 -0.398458 0
M  V30 1764 H 162.494 -7.60123 -0.108311 0
M  V30 1765 N 164.069 0.697108 -1.41344 0
M  V30 1766 C 165.019 1.80313 -1.39539 0
M  V30 1767 C 166.003 1.58618 -0.270001 0
M  V30 1768 O 167.195 1.69477 -0.510551 0
M  V30 1769 C 164.324 3.18606 -1.27848 0
M  V30 1770 C 163.41 3.46001 -2.45244 0
M  V30 1771 N 163.801 3.44103 -3.70711 0
M  V30 1772 C 162.099 3.76542 -2.39023 0
M  V30 1773 C 162.8 3.7036 -4.48563 0
M  V30 1774 N 161.776 3.90027 -3.78655 0
M  V30 1775 H 165.578 1.77207 -2.34468 0
M  V30 1776 H 163.092 0.897031 -1.35378 0
M  V30 1777 H 165.089 3.97833 -1.24637 0
M  V30 1778 H 163.749 3.22925 -0.339032 0
M  V30 1779 H 164.76 3.2452 -4.03618 0
M  V30 1780 H 161.437 3.88241 -1.53542 0
M  V30 1781 H 162.827 3.75042 -5.57488 0
M  V30 1782 N 165.547 1.27147 0.931209 0
M  V30 1783 C 166.479 1.05364 2.03546 0
M  V30 1784 C 167.492 0.0108438 1.62796 0
M  V30 1785 O 168.681 0.25202 1.76712 0
M  V30 1786 C 165.781 0.575566 3.33977 0
M  V30 1787 C 164.954 1.68985 4.03439 0
M  V30 1788 C 164.013 1.20813 5.12143 0
M  V30 1789 O 163.039 1.90712 5.363 0
M  V30 1790 N 164.241 0.0618851 5.80467 0
M  V30 1791 H 167.006 2.00454 2.22796 0
M  V30 1792 H 164.567 1.18666 1.10136 0
M  V30 1793 H 166.559 0.237264 4.04004 0
M  V30 1794 H 165.129 -0.282016 3.11325 0
M  V30 1795 H 164.349 2.19861 3.27192 0
M  V30 1796 H 165.637 2.4378 4.46597 0
M  V30 1797 H 165.035 -0.521621 5.6329 0
M  V30 1798 H 163.592 -0.217264 6.51438 0
M  V30 1799 N 167.025 -1.13721 1.09112 0
M  V30 1800 C 167.955 -2.21148 0.749385 0
M  V30 1801 C 168.936 -1.6792 -0.271475 0
M  V30 1802 O 170.121 -1.93693 -0.140251 0
M  V30 1803 C 167.251 -3.46905 0.165659 0
M  V30 1804 C 166.205 -4.13203 1.11567 0
M  V30 1805 C 165.531 -5.33248 0.393809 0
M  V30 1806 C 166.831 -4.60912 2.45678 0
M  V30 1807 H 168.525 -2.4999 1.64758 0
M  V30 1808 H 166.071 -1.20156 0.793626 0
M  V30 1809 H 168.024 -4.21313 -0.085466 0
M  V30 1810 H 166.748 -3.17449 -0.767714 0
M  V30 1811 H 165.407 -3.40758 1.35202 0
M  V30 1812 H 165.055 -5.00054 -0.543599 0
M  V30 1813 H 164.755 -5.78552 1.02721 0
M  V30 1814 H 166.279 -6.10413 0.150908 0
M  V30 1815 H 167.693 -5.26759 2.26269 0
M  V30 1816 H 166.09 -5.16944 3.04776 0
M  V30 1817 H 167.16 -3.75603 3.06677 0
M  V30 1818 N 168.503 -0.877838 -1.30888 0
M  V30 1819 C 169.436 -0.283995 -2.26426 0
M  V30 1820 C 170.414 0.591361 -1.51465 0
M  V30 1821 O 171.598 0.54304 -1.80509 0
M  V30 1822 C 168.725 0.597129 -3.33395 0
M  V30 1823 C 167.771 -0.207937 -4.25993 0
M  V30 1824 S 168.604 -1.59158 -5.11301 0
M  V30 1825 C 169.76 -0.716791 -6.21782 0
M  V30 1826 H 169.993 -1.09383 -2.76446 0
M  V30 1827 H 167.526 -0.676828 -1.38775 0
M  V30 1828 H 169.484 1.09978 -3.95493 0
M  V30 1829 H 168.145 1.38099 -2.82113 0
M  V30 1830 H 167.338 0.464163 -5.01858 0
M  V30 1831 H 166.94 -0.642963 -3.68432 0
M  V30 1832 H 169.232 0.0692833 -6.77465 0
M  V30 1833 H 170.175 -1.44682 -6.93161 0
M  V30 1834 H 170.583 -0.280855 -5.63801 0
M  V30 1835 N 169.982 1.44106 -0.638065 0
M  V30 1836 C 170.945 2.29138 0.0531013 0
M  V30 1837 C 171.945 1.41409 0.765506 0
M  V30 1838 O 173.135 1.63206 0.609046 0
M  V30 1839 C 170.267 3.23144 1.08584 0
M  V30 1840 H 171.46 2.91739 -0.694883 0
M  V30 1841 H 169.013 1.51134 -0.398538 0
M  V30 1842 H 169.748 2.65408 1.86357 0
M  V30 1843 H 169.533 3.87804 0.578852 0
M  V30 1844 H 171.023 3.87004 1.56899 0
M  V30 1845 N 171.46 0.379036 1.52974 0
M  V30 1846 C 172.708 -0.206014 2.01047 0
M  V30 1847 C 173.029 -1.48175 1.26765 0
M  V30 1848 O 172.299 -1.92085 0.384743 0
M  V30 1849 H 170.879 -0.0791184 0.742798 0
M  V30 1850 H 173.541 0.508366 1.88153 0
M  V30 1851 H 172.637 -0.423501 3.09213 0
M  V30 1852 N 172.938 -1.57226 0.108567 0
M  V30 1853 C 174.184 -1.95121 -0.552761 0
M  V30 1854 C 174.517 -0.991345 -1.66991 0
M  V30 1855 O 173.792 -0.0267211 -1.94482 0
M  V30 1856 C 174.075 -3.43039 -1.09528 0
M  V30 1857 C 173.928 -4.49797 0.0177332 0
M  V30 1858 C 175.247 -3.92567 -1.98945 0
M  V30 1859 H 172.366 -0.709496 -0.199461 0
M  V30 1860 H 175.008 -1.89126 0.182011 0
M  V30 1861 H 173.158 -3.48279 -1.72146 0
M  V30 1862 H 174.83 -4.56661 0.652584 0
M  V30 1863 H 173.073 -4.284 0.682309 0
M  V30 1864 H 173.744 -5.50528 -0.402919 0
M  V30 1865 H 176.22 -3.89565 -1.46214 0
M  V30 1866 H 175.096 -4.96605 -2.33827 0
M  V30 1867 H 175.357 -3.32648 -2.91201 0
M  V30 1868 N 174.416 0.165178 -1.56732 0
M  V30 1869 C 175.662 0.882112 -1.82611 0
M  V30 1870 C 175.995 1.81628 -0.687378 0
M  V30 1871 O 175.27 1.92009 0.310267 0
M  V30 1872 C 175.553 1.67245 -3.18906 0
M  V30 1873 C 175.406 0.760987 -4.43316 0
M  V30 1874 C 176.725 2.63884 -3.52212 0
M  V30 1875 H 173.844 0.319242 -0.664269 0
M  V30 1876 H 176.486 0.148052 -1.89422 0
M  V30 1877 H 174.636 2.29824 -3.1323 0
M  V30 1878 H 176.308 0.147596 -4.61064 0
M  V30 1879 H 174.551 0.0694102 -4.33744 0
M  V30 1880 H 175.222 1.34962 -5.35247 0
M  V30 1881 H 177.698 2.11429 -3.58381 0
M  V30 1882 H 176.574 3.16245 -4.48643 0
M  V30 1883 H 176.835 3.44377 -2.77231 0
M  V30 1884 N 175.894 1.51508 0.433938 0
M  V30 1885 C 177.124 1.67914 1.20369 0
M  V30 1886 C 177.532 0.377461 1.85397 0
M  V30 1887 O 176.875 -0.654255 1.71654 0
M  V30 1888 C 176.937 2.74045 2.32679 0
M  V30 1889 C 176.601 4.16543 1.87991 0
M  V30 1890 C 177.598 5.01211 1.38145 0
M  V30 1891 C 175.283 4.6266 1.95579 0
M  V30 1892 C 177.277 6.30056 0.964774 0
M  V30 1893 C 174.964 5.91501 1.53523 0
M  V30 1894 C 175.962 6.75027 1.04055 0
M  V30 1895 O 175.65 8.01459 0.625964 0
M  V30 1896 H 175.382 0.566578 0.368735 0
M  V30 1897 H 177.936 1.98709 0.51999 0
M  V30 1898 H 176.166 2.38572 3.04336 0
M  V30 1899 H 177.855 2.79295 2.94532 0
M  V30 1900 H 178.621 4.66783 1.31675 0
M  V30 1901 H 174.5 3.97767 2.33029 0
M  V30 1902 H 178.044 6.95202 0.57796 0
M  V30 1903 H 173.941 6.25442 1.59665 0
M  V30 1904 H 174.709 8.15043 0.751509 0
M  V30 1905 N 177.372 -0.689602 1.41712 0
M  V30 1906 C 178.302 -1.81577 1.46806 0
M  V30 1907 C 179.283 -1.66945 0.326105 0
M  V30 1908 O 180.468 -1.86588 0.538377 0
M  V30 1909 C 177.598 -3.19762 1.35535 0
M  V30 1910 C 176.552 -3.49107 2.47605 0
M  V30 1911 C 175.878 -4.86711 2.21397 0
M  V30 1912 C 177.178 -3.47483 3.89939 0
M  V30 1913 H 178.872 -1.7757 2.41058 0
M  V30 1914 H 176.418 -0.852887 1.16025 0
M  V30 1915 H 178.371 -3.98263 1.3771 0
M  V30 1916 H 177.095 -3.24409 0.377708 0
M  V30 1917 H 175.754 -2.72959 2.44722 0
M  V30 1918 H 175.402 -4.8799 1.21961 0
M  V30 1919 H 175.102 -5.0731 2.96497 0
M  V30 1920 H 176.626 -5.67515 2.25297 0
M  V30 1921 H 178.04 -4.1598 3.94505 0
M  V30 1922 H 176.437 -3.79615 4.64771 0
M  V30 1923 H 177.507 -2.46341 4.17665 0
M  V30 1924 N 178.85 -1.27639 -0.924453 0
M  V30 1925 C 179.8 -1.07295 -2.01176 0
M  V30 1926 C 180.784 5.77352e-05 -1.609 0
M  V30 1927 O 181.976 -0.218855 -1.75642 0
M  V30 1928 C 179.105 -0.725592 -3.35544 0
M  V30 1929 C 178.191 -1.83691 -3.82254 0
M  V30 1930 N 178.582 -3.07697 -4.01443 0
M  V30 1931 C 176.88 -1.72433 -4.11319 0
M  V30 1932 C 177.581 -3.80037 -4.40394 0
M  V30 1933 N 176.557 -3.0782 -4.48049 0
M  V30 1934 H 180.359 -2.01399 -2.14046 0
M  V30 1935 H 177.873 -1.18401 -1.11153 0
M  V30 1936 H 179.87 -0.560959 -4.13109 0
M  V30 1937 H 178.53 0.207782 -3.24034 0
M  V30 1938 H 179.541 -3.43424 -3.8766 0
M  V30 1939 H 176.218 -0.862005 -4.08504 0
M  V30 1940 H 177.608 -4.86632 -4.63291 0
M  V30 1941 N 180.328 1.1314 -1.09713 0
M  V30 1942 C 181.576 1.84119 -0.833338 0
M  V30 1943 C 181.897 1.84097 0.642904 0
M  V30 1944 O 181.167 1.29881 1.46655 0
M  V30 1945 H 179.747 0.681766 -0.305293 0
M  V30 1946 H 182.409 1.37038 -1.38588 0
M  V30 1947 H 181.505 2.88543 -1.18951 0
M  V30 1948 N 181.806 0.884767 1.30421 0
M  V30 1949 C 183.055 0.499164 1.95426 0
M  V30 1950 C 183.368 -0.95645 1.70621 0
M  V30 1951 O 184.574 -1.44889 2.29607 0
M  V30 1952 C 183.03 0.84177 3.49917 0
M  V30 1953 C 182.638 2.31514 3.83543 0
M  V30 1954 C 184.382 0.525355 4.21237 0
M  V30 1955 C 182.289 2.59939 5.31212 0
M  V30 1956 H 181.219 0.182944 0.73147 0
M  V30 1957 H 183.87 1.07971 1.48373 0
M  V30 1958 H 182.252 0.190311 3.95542 0
M  V30 1959 H 183.426 3.0109 3.48829 0
M  V30 1960 H 181.741 2.59907 3.25326 0
M  V30 1961 H 184.338 0.714762 5.29901 0
M  V30 1962 H 184.681 -0.535222 4.12845 0
M  V30 1963 H 185.214 1.134 3.81294 0
M  V30 1964 H 181.953 3.64736 5.44654 0
M  V30 1965 H 181.473 1.94972 5.67227 0
M  V30 1966 H 183.152 2.45429 5.98643 0
M  V30 1967 N 183.284 -1.43765 0.645699 0
M  V30 1968 C 184.532 -2.01499 0.155731 0
M  V30 1969 C 184.853 -1.51151 -1.232 0
M  V30 1970 O 184.123 -0.721044 -1.82148 0
M  V30 1971 H 182.703 -0.745003 0.0545817 0
M  V30 1972 H 185.365 -1.76075 0.835677 0
M  V30 1973 H 184.461 -3.1181 0.134577 0
M  V30 1974 N 184.763 -0.387143 -1.52771 0
M  V30 1975 C 186.012 0.19697 -2.00736 0
M  V30 1976 C 186.325 1.48082 -1.27793 0
M  V30 1977 O 187.531 2.14485 -1.66458 0
M  V30 1978 C 185.987 0.401568 -3.57653 0
M  V30 1979 C 185.595 -0.868907 -4.39493 0
M  V30 1980 C 187.339 0.942164 -4.13912 0
M  V30 1981 C 185.246 -0.632705 -5.88006 0
M  V30 1982 H 184.176 0.0773827 -0.750019 0
M  V30 1983 H 186.827 -0.50921 -1.76293 0
M  V30 1984 H 185.209 1.16954 -3.78335 0
M  V30 1985 H 186.383 -1.64133 -4.30577 0
M  V30 1986 H 184.698 -1.33429 -3.94443 0
M  V30 1987 H 187.295 1.13455 -5.22525 0
M  V30 1988 H 187.638 1.9106 -3.69867 0
M  V30 1989 H 188.171 0.233814 -3.97112 0
M  V30 1990 H 184.91 -1.57208 -6.36369 0
M  V30 1991 H 184.43 0.100825 -5.99715 0
M  V30 1992 H 186.109 -0.26642 -6.46451 0
M  V30 1993 N 186.241 1.57166 -0.116904 0
M  V30 1994 C 187.469 1.99473 0.549383 0
M  V30 1995 C 187.884 0.996541 1.60357 0
M  V30 1996 O 187.241 -0.0108731 1.82497 0
M  V30 1997 C 187.292 3.41788 1.17741 0
M  V30 1998 O 187.013 4.37788 0.165362 0
M  V30 1999 C 188.514 3.99216 1.92722 0
M  V30 2000 H 185.734 0.655009 0.145616 0
M  V30 2001 H 188.278 2.03494 -0.202625 0
M  V30 2002 H 186.433 3.38713 1.88021 0
M  V30 2003 H 186.847 5.20806 0.621403 0
M  V30 2004 H 188.321 5.00882 2.31995 0
M  V30 2005 H 188.798 3.3824 2.80161 0
M  V30 2006 H 189.404 4.0583 1.27209 0
M  V30 2007 N 187.719 -0.156864 1.56817 0
M  V30 2008 C 188.669 -1.19891 1.93934 0
M  V30 2009 C 189.653 -1.39061 0.809372 0
M  V30 2010 O 190.845 -1.40789 1.07273 0
M  V30 2011 C 187.974 -2.53493 2.31508 0
M  V30 2012 C 187.06 -2.37957 3.51052 0
M  V30 2013 N 187.451 -1.92158 4.67877 0
M  V30 2014 C 185.749 -2.68739 3.55943 0
M  V30 2015 C 186.45 -1.8943 5.49992 0
M  V30 2016 N 185.426 -2.32375 4.91429 0
M  V30 2017 H 189.228 -0.836746 2.81737 0
M  V30 2018 H 186.742 -0.365012 1.58245 0
M  V30 2019 H 188.739 -3.28811 2.56299 0
M  V30 2020 H 187.399 -2.905 1.45051 0
M  V30 2021 H 188.41 -1.62274 4.91821 0
M  V30 2022 H 185.087 -3.09687 2.80001 0
M  V30 2023 H 186.477 -1.55596 6.53636 0
M  V30 2024 N 189.197 -1.51736 -0.425897 0
M  V30 2025 C 190.613 -1.40166 -0.76326 0
M  V30 2026 C 190.813 -0.492962 -1.95377 0
M  V30 2027 O 189.869 0.0475815 -2.52455 0
M  V30 2028 C 191.182 -2.82403 -1.03291 0
M  V30 2029 C 192.73 -2.91632 -1.13665 0
M  V30 2030 C 193.205 -4.34801 -1.43916 0
M  V30 2031 N 194.696 -4.3796 -1.50816 0
M  V30 2032 C 195.431 -5.4578 -1.75817 0
M  V30 2033 N 194.927 -6.63744 -1.98534 0
M  V30 2034 N 196.72 -5.33274 -1.77694 0
M  V30 2035 H 188.871 -2.09361 0.358 0
M  V30 2036 H 191.134 -0.942941 0.0978094 0
M  V30 2037 H 190.84 -3.50943 -0.230696 0
M  V30 2038 H 190.714 -3.22428 -1.95754 0
M  V30 2039 H 193.101 -2.23284 -1.92947 0
M  V30 2040 H 193.182 -2.55088 -0.190756 0
M  V30 2041 H 192.826 -5.03703 -0.65157 0
M  V30 2042 H 192.756 -4.68868 -2.39729 0
M  V30 2043 H 195.247 -3.52919 -1.35118 0
M  V30 2044 H 195.56 -7.41704 -2.17013 0
M  V30 2045 H 193.905 -6.66839 -1.95832 0
M  V30 2046 H 197.096 -4.40098 -1.59473 0
M  V30 2047 H 197.269 -6.1738 -1.9684 0
M  V30 2048 N 190.675 0.682077 -1.42076 0
M  V30 2049 C 191.952 1.43755 -1.32642 0
M  V30 2050 C 192.332 2.11063 0.0396611 0
M  V30 2051 O 191.68 2.02701 1.05474 0
M  V30 2052 C 191.89 2.44596 -2.48946 0
M  V30 2053 C 193.238 3.09454 -2.9073 0
M  V30 2054 O 194.262 2.54922 -2.48783 0
M  V30 2055 O 193.121 4.08253 -3.63307 0
M  V30 2056 H 190.215 0.640857 -0.522715 0
M  V30 2057 H 192.761 0.711415 -1.54068 0
M  V30 2058 H 191.533 1.93609 -3.40046 0
M  V30 2059 H 191.156 3.24701 -2.29467 0
M  V30 2060 N 192.153 1.28127 0.917671 0
M  V30 2061 C 193.402 1.14432 1.66097 0
M  V30 2062 C 193.715 -0.307247 1.93172 0
M  V30 2063 O 194.921 -0.565259 2.65551 0
M  V30 2064 C 193.377 2.00015 2.99202 0
M  V30 2065 C 192.985 3.49889 2.79789 0
M  V30 2066 C 194.729 1.94996 3.77064 0
M  V30 2067 C 192.636 4.27636 4.08511 0
M  V30 2068 H 191.566 0.424662 0.62304 0
M  V30 2069 H 194.217 1.52628 1.01868 0
M  V30 2070 H 192.599 1.54672 3.64544 0
M  V30 2071 H 193.773 4.03162 2.23152 0
M  V30 2072 H 192.088 3.56392 2.15345 0
M  V30 2073 H 194.685 2.50354 4.72469 0
M  V30 2074 H 195.028 0.925819 4.05875 0
M  V30 2075 H 195.561 2.38287 3.18534 0
M  V30 2076 H 192.3 5.30615 3.84874 0
M  V30 2077 H 191.82 3.79137 4.64774 0
M  V30 2078 H 193.499 4.37346 4.76799 0
M  V30 2079 N 193.631 -1.12557 1.10312 0
M  V30 2080 C 194.578 -2.18247 0.750781 0
M  V30 2081 C 195.548 -1.63853 -0.272293 0
M  V30 2082 O 196.733 -1.90195 -0.151862 0
M  V30 2083 C 193.873 -3.44591 0.187379 0
M  V30 2084 C 192.986 -4.13046 1.2656 0
M  V30 2085 C 192.121 -5.27034 0.663978 0
M  V30 2086 C 191.16 -5.87353 1.72287 0
M  V30 2087 N 190.297 -6.92757 1.1416 0
M  V30 2088 H 195.137 -2.47732 1.65628 0
M  V30 2089 H 192.674 -1.21629 0.827337 0
M  V30 2090 H 194.632 -4.16904 -0.157148 0
M  V30 2091 H 193.262 -3.15527 -0.681355 0
M  V30 2092 H 192.314 -3.38924 1.72727 0
M  V30 2093 H 193.626 -4.53947 2.06721 0
M  V30 2094 H 192.78 -6.06104 0.268824 0
M  V30 2095 H 191.519 -4.87407 -0.169082 0
M  V30 2096 H 190.524 -5.06971 2.12746 0
M  V30 2097 H 191.749 -6.29051 2.55875 0
M  V30 2098 H 189.695 -6.5517 0.329984 0
M  V30 2099 H 189.612 -7.3225 1.88007 0
M  V30 2100 H 190.88 -7.75658 0.772956 0
M  V30 2101 N 195.109 -0.891671 -1.2995 0
M  V30 2102 C 196.52 -0.563104 -1.78006 0
M  V30 2103 C 196.871 0.920978 -1.73241 0
M  V30 2104 O 195.996 1.71987 -1.31337 0
M  V30 2105 C 196.591 -1.01539 -3.23226 0
M  V30 2106 C 195.15 -0.738124 -3.69092 0
M  V30 2107 C 194.297 -1.19461 -2.50249 0
M  V30 2108 H 197.248 -1.07522 -1.16725 0
M  V30 2109 H 197.269 -0.347217 -3.78912 0
M  V30 2110 H 196.781 -2.09555 -3.26662 0
M  V30 2111 H 194.882 0.329766 -3.71138 0
M  V30 2112 H 194.995 -1.33037 -4.60259 0
M  V30 2113 H 193.359 -0.613787 -2.47194 0
M  V30 2114 H 194.142 -2.28265 -2.56417 0
M  V30 2115 N 196.587 1.43421 -0.653314 0
M  V30 2116 C 197.497 2.34568 0.0388565 0
M  V30 2117 C 198.513 1.53888 0.81207 0
M  V30 2118 O 199.689 1.86539 0.759294 0
M  V30 2119 C 196.754 3.32167 0.993269 0
M  V30 2120 C 195.815 4.28751 0.216977 0
M  V30 2121 C 195.048 5.21688 1.12593 0
M  V30 2122 O 195.271 5.19052 2.36519 0
M  V30 2123 O 194.205 5.98919 0.598284 0
M  V30 2124 H 198.031 2.95251 -0.711386 0
M  V30 2125 H 195.616 1.43564 -0.413502 0
M  V30 2126 H 197.498 3.92183 1.54176 0
M  V30 2127 H 196.173 2.73987 1.72374 0
M  V30 2128 H 195.08 3.72215 -0.375101 0
M  V30 2129 H 196.413 4.89913 -0.473924 0
M  V30 2130 N 198.065 0.39524 1.52563 0
M  V30 2131 C 199.013 -0.451859 2.28169 0
M  V30 2132 C 200.007 -1.05792 1.32304 0
M  V30 2133 O 201.213 -0.997718 1.49818 0
M  V30 2134 H 197.588 -0.164481 0.733792 0
M  V30 2135 H 199.559 0.207199 2.9768 0
M  V30 2136 C 198.308 -1.56385 3.10546 0
M  V30 2137 H 197.631 -1.10682 3.84174 0
M  V30 2138 H 199.071 -2.13067 3.66577 0
M  V30 2139 C 197.53 -2.52328 2.23231 0
M  V30 2140 O 198.06 -3.5588 1.86312 0
M  V30 2141 N 196.266 -2.22209 1.87274 0
M  V30 2142 H 195.813 -1.38033 2.17496 0
M  V30 2143 H 195.771 -2.86652 1.29143 0
M  V30 2144 N 199.544 -1.57102 0.125237 0
M  V30 2145 C 200.474 -2.18659 -0.819174 0
M  V30 2146 C 201.455 -1.12843 -1.27281 0
M  V30 2147 O 202.64 -1.41104 -1.33429 0
M  V30 2148 C 199.77 -2.79096 -2.06695 0
M  V30 2149 C 198.724 -3.90548 -1.75088 0
M  V30 2150 C 198.05 -4.37821 -3.06948 0
M  V30 2151 C 199.35 -5.12356 -1.01435 0
M  V30 2152 H 201.044 -2.9783 -0.306202 0
M  V30 2153 H 198.59 -1.4326 -0.145839 0
M  V30 2154 H 200.543 -3.2082 -2.73226 0
M  V30 2155 H 199.267 -1.97223 -2.60328 0
M  V30 2156 H 197.926 -3.49409 -1.10944 0
M  V30 2157 H 197.574 -3.52799 -3.58527 0
M  V30 2158 H 197.274 -5.12982 -2.86571 0
M  V30 2159 H 198.798 -4.822 -3.74587 0
M  V30 2160 H 200.212 -5.5106 -1.58132 0
M  V30 2161 H 198.609 -5.9314 -0.911319 0
M  V30 2162 H 199.679 -4.849 -0.00218681 0
M  V30 2163 N 201.022 0.148545 -1.56898 0
M  V30 2164 C 201.952 1.18524 -2.01182 0
M  V30 2165 C 202.933 1.4489 -0.891123 0
M  V30 2166 O 204.118 1.55836 -1.15882 0
M  V30 2167 C 201.248 2.51879 -2.39112 0
M  V30 2168 C 200.202 2.40038 -3.54353 0
M  V30 2169 C 199.528 3.78089 -3.78091 0
M  V30 2170 C 200.828 1.88577 -4.87069 0
M  V30 2171 H 202.522 0.817029 -2.88036 0
M  V30 2172 H 200.068 0.391575 -1.38574 0
M  V30 2173 H 202.021 3.24627 -2.68692 0
M  V30 2174 H 200.745 2.90532 -1.49193 0
M  V30 2175 H 199.404 1.69742 -3.24936 0
M  V30 2176 H 199.052 4.14175 -2.85426 0
M  V30 2177 H 198.752 3.71028 -4.55645 0
M  V30 2178 H 200.276 4.52387 -4.10095 0
M  V30 2179 H 201.69 2.51117 -5.15377 0
M  V30 2180 H 200.087 1.9241 -5.68417 0
M  V30 2181 H 201.157 0.84136 -4.77545 0
M  V30 2182 N 202.5 1.5196 0.417844 0
M  V30 2183 C 203.43 1.77634 1.51554 0
M  V30 2184 C 204.411 0.626918 1.58126 0
M  V30 2185 O 205.596 0.871632 1.7354 0
M  V30 2186 C 202.726 1.91911 2.8946 0
M  V30 2187 C 201.68 3.07463 2.97743 0
M  V30 2188 C 201.006 3.06951 4.37819 0
M  V30 2189 C 202.306 4.47082 2.70027 0
M  V30 2190 H 204 2.6955 1.3032 0
M  V30 2191 H 201.546 1.29706 0.625492 0
M  V30 2192 H 203.499 2.08455 3.6623 0
M  V30 2193 H 202.223 0.966598 3.11969 0
M  V30 2194 H 200.882 2.90656 2.23416 0
M  V30 2195 H 200.53 2.09438 4.57323 0
M  V30 2196 H 200.23 3.84556 4.44286 0
M  V30 2197 H 201.754 3.25613 5.16535 0
M  V30 2198 H 203.168 4.6414 3.36522 0
M  V30 2199 H 201.565 5.2654 2.87881 0
M  V30 2200 H 202.635 4.55777 1.65514 0
M  V30 2201 N 203.978 -0.674533 1.42435 0
M  V30 2202 C 205.255 -1.4305 1.33402 0
M  V30 2203 C 205.635 -2.11081 -0.0284674 0
M  V30 2204 O 204.983 -2.03257 -1.04397 0
M  V30 2205 C 205.193 -2.43272 2.50239 0
M  V30 2206 C 206.541 -3.07907 2.92367 0
M  V30 2207 O 207.565 -2.53599 2.50132 0
M  V30 2208 O 206.424 -4.0632 3.65467 0
M  V30 2209 H 203.518 -0.638076 0.526106 0
M  V30 2210 H 206.064 -0.703235 1.54443 0
M  V30 2211 H 204.836 -1.91803 3.41068 0
M  V30 2212 H 204.459 -3.23479 2.31186 0
M  V30 2213 N 205.456 -1.28612 -0.910864 0
M  V30 2214 C 206.366 -1.14643 -2.0468 0
M  V30 2215 C 207.382 -0.0723121 -1.7385 0
M  V30 2216 O 208.558 -0.282178 -1.99413 0
M  V30 2217 C 205.623 -0.812561 -3.37044 0
M  V30 2218 C 204.684 -1.96935 -3.81465 0
M  V30 2219 C 203.917 -1.65131 -5.07511 0
M  V30 2220 O 204.14 -0.567013 -5.67575 0
M  V30 2221 O 203.074 -2.49585 -5.47714 0
M  V30 2222 H 206.9 -2.1001 -2.19384 0
M  V30 2223 H 204.485 -1.07958 -1.03274 0
M  V30 2224 H 206.367 -0.640441 -4.16505 0
M  V30 2225 H 205.042 0.111426 -3.23508 0
M  V30 2226 H 203.949 -2.19664 -3.02818 0
M  V30 2227 H 205.282 -2.87414 -3.99567 0
M  V30 2228 N 206.934 1.1197 -1.10907 0
M  V30 2229 C 208.35 1.35591 -0.841852 0
M  V30 2230 C 208.55 1.94233 0.536246 0
M  V30 2231 O 207.606 2.1717 1.28816 0
M  V30 2232 C 208.919 2.29284 -1.94549 0
M  V30 2233 C 210.467 2.42862 -1.97451 0
M  V30 2234 C 210.942 3.39873 -3.07002 0
M  V30 2235 N 212.433 3.47433 -3.06341 0
M  V30 2236 C 213.168 4.22421 -3.87748 0
M  V30 2237 N 212.664 5.00432 -4.79103 0
M  V30 2238 N 214.457 4.17876 -3.75946 0
M  V30 2239 H 206.608 0.722664 -1.99728 0
M  V30 2240 H 208.871 0.380635 -0.868229 0
M  V30 2241 H 208.577 1.93378 -2.93765 0
M  V30 2242 H 208.451 3.29452 -1.83688 0
M  V30 2243 H 210.838 2.78046 -0.988645 0
M  V30 2244 H 210.919 1.42566 -2.12388 0
M  V30 2245 H 210.563 3.05417 -4.05811 0
M  V30 2246 H 210.493 4.40011 -2.89306 0
M  V30 2247 H 212.984 2.91784 -2.40147 0
M  V30 2248 H 213.297 5.55002 -5.37766 0
M  V30 2249 H 211.642 4.99612 -4.83128 0
M  V30 2250 H 214.833 3.56016 -3.03924 0
M  V30 2251 H 215.006 4.76061 -4.39624 0
M  V30 2252 N 208.412 0.89855 1.29475 0
M  V30 2253 C 209.689 0.443416 1.90508 0
M  V30 2254 C 210.069 -1.07685 1.81569 0
M  V30 2255 O 209.417 -1.9182 1.24166 0
M  V30 2256 C 209.627 0.956708 3.35631 0
M  V30 2257 C 210.975 0.999728 4.12663 0
M  V30 2258 O 211.999 0.904299 3.4453 0
M  V30 2259 O 210.858 1.14289 5.34416 0
M  V30 2260 H 207.952 0.138025 0.815401 0
M  V30 2261 H 210.498 0.98834 1.37949 0
M  V30 2262 H 209.27 2.00067 3.36287 0
M  V30 2263 H 208.893 0.391728 3.95666 0
M  V30 2264 N 209.89 -1.43072 0.660911 0
M  V30 2265 C 210.838 -2.32569 -0.0378199 0
M  V30 2266 C 211.832 -1.49046 -0.805092 0
M  V30 2267 O 213.038 -1.65206 -0.714624 0
M  V30 2268 H 209.413 -0.75136 -0.031019 0
M  V30 2269 H 211.384 -2.89216 0.734609 0
M  V30 2270 C 210.133 -3.33453 -0.985124 0
M  V30 2271 H 209.456 -3.97752 -0.404147 0
M  V30 2272 H 210.896 -3.98691 -1.44297 0
M  V30 2273 C 209.355 -2.64642 -2.08486 0
M  V30 2274 O 209.885 -2.46776 -3.16961 0
M  V30 2275 N 208.091 -2.23891 -1.8526 0
M  V30 2276 H 207.638 -2.38621 -0.970449 0
M  V30 2277 H 207.596 -1.78181 -2.59034 0
M  V30 2278 N 211.368 -0.403325 -1.52352 0
M  V30 2279 C 212.298 0.416205 -2.29761 0
M  V30 2280 C 213.279 1.05123 -1.33728 0
M  V30 2281 O 214.464 1.06134 -1.62632 0
M  V30 2282 C 211.594 1.53624 -3.11475 0
M  V30 2283 C 210.548 1.02653 -4.15507 0
M  V30 2284 C 209.874 2.23971 -4.85532 0
M  V30 2285 C 211.174 0.08463 -5.22231 0
M  V30 2286 H 212.868 -0.229701 -2.98518 0
M  V30 2287 H 210.414 -0.111913 -1.43564 0
M  V30 2288 H 212.367 2.1165 -3.64393 0
M  V30 2289 H 211.091 2.20994 -2.40477 0
M  V30 2290 H 209.75 0.46871 -3.63591 0
M  V30 2291 H 209.398 2.89883 -4.11068 0
M  V30 2292 H 209.098 1.90521 -5.55856 0
M  V30 2293 H 210.622 2.82614 -5.41259 0
M  V30 2294 H 212.036 0.573509 -5.70424 0
M  V30 2295 H 210.433 -0.160783 -5.99885 0
M  V30 2296 H 211.503 -0.86237 -4.7717 0
M  V30 2297 N 212.846 1.57033 -0.133567 0
M  V30 2298 C 213.793 2.16074 0.811208 0
M  V30 2299 C 214.763 1.08979 1.2535 0
M  V30 2300 O 215.948 1.36958 1.32843 0
M  V30 2301 C 213.088 2.77595 2.05024 0
M  V30 2302 C 212.201 3.99042 1.65498 0
M  V30 2303 C 211.336 4.48603 2.84479 0
M  V30 2304 C 210.375 5.62547 2.41262 0
M  V30 2305 N 209.512 6.06787 3.53206 0
M  V30 2306 H 214.352 2.96477 0.300906 0
M  V30 2307 H 211.889 1.46462 0.136822 0
M  V30 2308 H 213.847 3.11402 2.77642 0
M  V30 2309 H 212.477 1.99859 2.53488 0
M  V30 2310 H 211.529 3.71302 0.826981 0
M  V30 2311 H 212.841 4.81629 1.29748 0
M  V30 2312 H 211.995 4.84395 3.65303 0
M  V30 2313 H 210.734 3.64995 3.23465 0
M  V30 2314 H 209.739 5.26345 1.58874 0
M  V30 2315 H 210.964 6.47931 2.03377 0
M  V30 2316 H 208.91 5.26117 3.91838 0
M  V30 2317 H 208.827 6.84266 3.21427 0
M  V30 2318 H 210.095 6.4722 4.34427 0
M  V30 2319 N 214.325 -0.140222 1.56975 0
M  V30 2320 C 215.574 -0.850152 1.82908 0
M  V30 2321 C 215.887 -1.82028 0.715892 0
M  V30 2322 O 217.093 -2.57485 0.861016 0
M  V30 2323 C 215.549 -1.5625 3.24213 0
M  V30 2324 C 215.157 -0.63443 4.43485 0
M  V30 2325 C 216.901 -2.25881 3.59413 0
M  V30 2326 C 214.808 -1.34879 5.75814 0
M  V30 2327 H 213.738 -0.321221 0.682153 0
M  V30 2328 H 216.389 -0.102874 1.83211 0
M  V30 2329 H 214.771 -2.35565 3.18316 0
M  V30 2330 H 215.945 0.12398 4.60633 0
M  V30 2331 H 214.26 -0.0461836 4.16374 0
M  V30 2332 H 216.857 -2.79978 4.5554 0
M  V30 2333 H 217.2 -3.02693 2.85802 0
M  V30 2334 H 217.733 -1.53477 3.67001 0
M  V30 2335 H 214.472 -0.622385 6.52539 0
M  V30 2336 H 213.992 -2.07974 5.6259 0
M  V30 2337 H 215.671 -1.88784 6.18845 0
M  V30 2338 N 215.803 -1.52179 -0.40978 0
M  V30 2339 C 217.028 -1.70347 -1.18308 0
M  V30 2340 C 217.453 -0.411887 -1.83535 0
M  V30 2341 O 216.811 0.630587 -1.6998 0
M  V30 2342 C 216.859 -2.83977 -2.22238 0
M  V30 2343 O 215.963 -2.495 -3.28365 0
M  V30 2344 H 215.304 -0.567103 -0.345384 0
M  V30 2345 H 217.834 -1.98879 -0.480445 0
M  V30 2346 H 217.844 -3.0887 -2.66577 0
M  V30 2347 H 216.519 -3.77685 -1.74146 0
M  V30 2348 H 215.096 -2.35277 -2.89308 0
M  V30 2349 N 217.281 0.66697 -1.42791 0
M  V30 2350 C 218.558 1.4234 -1.34159 0
M  V30 2351 C 218.938 2.11093 0.0172729 0
M  V30 2352 O 218.286 2.03808 1.03318 0
M  V30 2353 C 218.496 2.41942 -2.51526 0
M  V30 2354 C 219.844 3.06353 -2.93995 0
M  V30 2355 O 220.868 2.52269 -2.51473 0
M  V30 2356 O 219.727 4.04376 -3.67617 0
M  V30 2357 H 216.821 0.635277 -0.529483 0
M  V30 2358 H 219.367 0.695034 -1.54814 0
M  V30 2359 H 218.139 1.89991 -3.42081 0
M  V30 2360 H 217.762 3.22249 -2.32898 0
M  V30 2361 N 218.759 1.29093 0.90403 0
M  V30 2362 C 220.006 1.16813 1.65411 0
M  V30 2363 C 220.334 -0.28128 1.92455 0
M  V30 2364 O 219.589 -1.22006 1.53013 0
M  V30 2365 C 219.888 1.92224 3.01305 0
M  V30 2366 C 219.554 3.41968 2.93885 0
M  V30 2367 C 218.216 3.82807 2.91569 0
M  V30 2368 C 220.568 4.37409 2.83413 0
M  V30 2369 C 217.896 5.1741 2.76594 0
M  V30 2370 C 220.248 5.72097 2.69977 0
M  V30 2371 C 218.912 6.12199 2.66024 0
M  V30 2372 H 218.182 0.42745 0.605283 0
M  V30 2373 H 220.829 1.59981 1.05254 0
M  V30 2374 H 219.134 1.41635 3.65304 0
M  V30 2375 H 220.831 1.80131 3.58265 0
M  V30 2376 H 217.421 3.09504 2.96488 0
M  V30 2377 H 221.605 4.06813 2.84283 0
M  V30 2378 H 216.861 5.47596 2.71935 0
M  V30 2379 H 221.035 6.45704 2.60844 0
M  V30 2380 H 218.662 7.16448 2.54178 0
M  V30 2381 N 220.237 -1.11381 1.11499 0
M  V30 2382 C 221.485 -1.8277 0.862524 0
M  V30 2383 C 221.806 -1.85097 -0.613534 0
M  V30 2384 O 221.076 -1.32198 -1.4457 0
M  V30 2385 H 219.656 -0.676823 0.316101 0
M  V30 2386 H 222.318 -1.34816 1.4075 0
M  V30 2387 H 221.414 -2.86614 1.23527 0
M  V30 2388 N 221.715 -0.905404 -1.28997 0
M  V30 2389 C 222.645 -0.404212 -2.29975 0
M  V30 2390 C 223.626 0.523784 -1.61835 0
M  V30 2391 O 224.811 0.433298 -1.89304 0
M  V30 2392 C 221.941 0.364042 -3.45387 0
M  V30 2393 C 220.895 -0.474048 -4.25367 0
M  V30 2394 C 220.221 0.422045 -5.33032 0
M  V30 2395 C 221.521 -1.72696 -4.92923 0
M  V30 2396 H 223.215 -1.24807 -2.72146 0
M  V30 2397 H 220.761 -0.601585 -1.30832 0
M  V30 2398 H 222.714 0.725447 -4.15109 0
M  V30 2399 H 221.438 1.24174 -3.02074 0
M  V30 2400 H 220.097 -0.81786 -3.57361 0
M  V30 2401 H 219.745 1.29804 -4.85963 0
M  V30 2402 H 219.445 -0.135057 -5.87445 0
M  V30 2403 H 220.969 0.779517 -6.05604 0
M  V30 2404 H 222.383 -1.43495 -5.55051 0
M  V30 2405 H 220.78 -2.22582 -5.57295 0
M  V30 2406 H 221.85 -2.45964 -4.17887 0
M  V30 2407 N 223.193 1.4272 -0.668489 0
M  V30 2408 C 224.156 2.292 0.00448567 0
M  V30 2409 C 225.156 1.43001 0.735339 0
M  V30 2410 O 226.346 1.64461 0.57429 0
M  V30 2411 C 223.478 3.25375 1.01705 0
M  V30 2412 H 224.671 2.90199 -0.756608 0
M  V30 2413 H 222.224 1.50254 -0.430506 0
M  V30 2414 H 222.959 2.69301 1.80686 0
M  V30 2415 H 222.744 3.88944 0.496463 0
M  V30 2416 H 224.234 3.90245 1.48655 0
M  V30 2417 N 224.671 0.411399 1.52136 0
M  V30 2418 C 225.899 -0.163076 2.06256 0
M  V30 2419 C 226.314 -1.3867 1.28125 0
M  V30 2420 O 225.671 -1.79423 0.333721 0
M  V30 2421 C 225.722 -0.511252 3.57867 0
M  V30 2422 O 225.443 0.66378 4.33042 0
M  V30 2423 C 226.944 -1.13921 4.28412 0
M  V30 2424 H 224.164 -0.0193897 0.67072 0
M  V30 2425 H 226.708 0.583007 1.96013 0
M  V30 2426 H 224.863 -1.20723 3.6811 0
M  V30 2427 H 225.277 0.372601 5.23175 0
M  V30 2428 H 226.751 -1.33302 5.35663 0
M  V30 2429 H 227.228 -2.11296 3.85033 0
M  V30 2430 H 227.834 -0.483373 4.22544 0
M  V30 2431 N 226.149 -1.5696 0.141893 0
M  V30 2432 C 227.395 -1.9625 -0.511248 0
M  V30 2433 C 227.728 -1.02654 -1.64851 0
M  V30 2434 O 227.003 -0.0679676 -1.94381 0
M  V30 2435 C 227.286 -3.45285 -1.02227 0
M  V30 2436 C 227.139 -4.49658 0.113138 0
M  V30 2437 C 228.458 -3.96698 -1.90574 0
M  V30 2438 H 225.577 -0.713567 -0.184367 0
M  V30 2439 H 228.219 -1.88698 0.222087 0
M  V30 2440 H 226.369 -3.51852 -1.64719 0
M  V30 2441 H 228.041 -4.55174 0.749302 0
M  V30 2442 H 226.284 -4.26857 0.773026 0
M  V30 2443 H 226.955 -5.51258 -0.286053 0
M  V30 2444 H 229.431 -3.92578 -1.37918 0
M  V30 2445 H 228.307 -5.01453 -2.2324 0
M  V30 2446 H 228.568 -3.3875 -2.84079 0
M  V30 2447 N 227.627 0.131896 -1.57047 0
M  V30 2448 C 228.874 0.841932 -1.84168 0
M  V30 2449 C 229.202 1.8048 -0.725066 0
M  V30 2450 O 228.457 1.93618 0.284692 0
M  V30 2451 C 228.756 1.63703 -3.17704 0
M  V30 2452 C 228.422 0.81961 -4.43388 0
M  V30 2453 C 227.084 0.594148 -4.77518 0
M  V30 2454 C 229.436 0.248977 -5.20605 0
M  V30 2455 C 226.764 -0.212409 -5.86315 0
M  V30 2456 C 229.116 -0.544701 -6.30251 0
M  V30 2457 C 227.78 -0.780599 -6.6292 0
M  V30 2458 H 227.05 0.308085 -0.673917 0
M  V30 2459 H 229.697 0.104867 -1.91213 0
M  V30 2460 H 228.002 2.44464 -3.06177 0
M  V30 2461 H 229.699 2.19015 -3.35907 0
M  V30 2462 H 226.289 1.00542 -4.16641 0
M  V30 2463 H 230.473 0.410408 -4.946 0
M  V30 2464 H 225.729 -0.404524 -6.1006 0
M  V30 2465 H 229.903 -0.993922 -6.89271 0
M  V30 2466 H 227.53 -1.40742 -7.47058 0
M  V30 2467 N 229.106 1.52395 0.401703 0
M  V30 2468 C 230.522 1.41363 0.740864 0
M  V30 2469 C 230.722 0.523982 1.94568 0
M  V30 2470 O 229.778 -0.00741204 2.52499 0
M  V30 2471 C 231.091 2.84011 0.987847 0
M  V30 2472 C 232.639 2.93404 1.09011 0
M  V30 2473 C 233.114 4.37036 1.3698 0
M  V30 2474 N 234.605 4.40304 1.43829 0
M  V30 2475 C 235.34 5.48508 1.67112 0
M  V30 2476 N 234.836 6.66819 1.87949 0
M  V30 2477 N 236.629 5.36034 1.69187 0
M  V30 2478 H 228.78 2.08765 -0.391262 0
M  V30 2479 H 231.043 0.941265 -0.112798 0
M  V30 2480 H 230.749 3.51265 0.174835 0
M  V30 2481 H 230.623 3.25502 1.906 0
M  V30 2482 H 233.01 2.26325 1.8937 0
M  V30 2483 H 233.091 2.55359 0.15015 0
M  V30 2484 H 232.735 5.04676 0.571353 0
M  V30 2485 H 232.665 4.72623 2.3224 0
M  V30 2486 H 235.156 3.55024 1.29486 0
M  V30 2487 H 235.469 7.45063 2.05185 0
M  V30 2488 H 233.814 6.6987 1.85199 0
M  V30 2489 H 237.005 4.42579 1.52451 0
M  V30 2490 H 237.178 6.20434 1.86993 0
M  V30 2491 N 230.584 -0.659388 1.43143 0
M  V30 2492 C 231.814 -1.44513 1.47646 0
M  V30 2493 C 232.222 -1.88981 0.0910095 0
M  V30 2494 O 231.565 -1.59702 -0.907789 0
M  V30 2495 C 231.627 -2.71663 2.35456 0
M  V30 2496 C 231.291 -2.49175 3.83094 0
M  V30 2497 C 232.288 -2.1279 4.74359 0
M  V30 2498 C 229.973 -2.63691 4.27519 0
M  V30 2499 C 231.967 -1.9121 6.08044 0
M  V30 2500 C 229.654 -2.41726 5.61259 0
M  V30 2501 C 230.652 -2.0554 6.51339 0
M  V30 2502 O 230.34 -1.838 7.82606 0
M  V30 2503 H 230.072 -0.45064 0.503884 0
M  V30 2504 H 232.626 -0.816248 1.88485 0
M  V30 2505 H 230.856 -3.37089 1.89493 0
M  V30 2506 H 232.545 -3.33595 2.31235 0
M  V30 2507 H 233.311 -2.01157 4.41317 0
M  V30 2508 H 229.19 -2.90832 3.57684 0
M  V30 2509 H 232.734 -1.62889 6.78316 0
M  V30 2510 H 228.631 -2.52959 5.9387 0
M  V30 2511 H 229.399 -1.98275 7.94122 0
M  V30 2512 N 232.062 -1.29571 -0.897171 0
M  V30 2513 C 233.01 -1.14802 -2.02295 0
M  V30 2514 C 234.004 -0.0629637 -1.69283 0
M  V30 2515 O 235.21 -0.222945 -1.78614 0
M  V30 2516 H 231.585 -0.354692 -0.663097 0
M  V30 2517 H 233.556 -2.10108 -2.11889 0
M  V30 2518 C 232.305 -0.843966 -3.37302 0
M  V30 2519 H 231.628 -1.67093 -3.63208 0
M  V30 2520 H 233.068 -0.780672 -4.16751 0
M  V30 2521 C 231.527 0.452843 -3.33843 0
M  V30 2522 O 232.057 1.47813 -3.73516 0
M  V30 2523 N 230.263 0.459601 -2.86943 0
M  V30 2524 H 229.81 -0.375213 -2.54853 0
M  V30 2525 H 229.768 1.32726 -2.85011 0
M  V30 2526 N 233.54 1.10788 -1.12088 0
M  V30 2527 C 234.488 2.19111 -0.780587 0
M  V30 2528 C 235.482 1.67818 0.230961 0
M  V30 2529 O 236.688 1.79777 0.0895427 0
M  V30 2530 H 233.063 0.714477 -0.234578 0
M  V30 2531 H 235.034 2.45055 -1.70266 0
M  V30 2532 C 233.783 3.46818 -0.24747 0
M  V30 2533 H 233.106 3.86646 -1.01712 0
M  V30 2534 H 234.546 4.23973 -0.0476291 0
M  V30 2535 C 233.005 3.20968 1.02378 0
M  V30 2536 O 233.535 3.42298 2.10226 0
M  V30 2537 N 231.741 2.74658 0.949271 0
M  V30 2538 H 231.288 2.57501 0.0715173 0
M  V30 2539 H 231.246 2.57739 1.80049 0
M  V30 2540 N 235.018 0.912232 1.28515 0
M  V30 2541 C 236.434 0.610159 1.47476 0
M  V30 2542 C 236.634 -0.844955 1.82928 0
M  V30 2543 O 235.69 -1.62416 1.93332 0
M  V30 2544 C 237.003 1.54675 2.57868 0
M  V30 2545 C 238.551 1.55331 2.71738 0
M  V30 2546 C 239.026 2.47649 3.85272 0
M  V30 2547 N 240.517 2.45767 3.92623 0
M  V30 2548 C 241.252 3.13896 4.79851 0
M  V30 2549 N 240.748 3.9135 5.71679 0
M  V30 2550 N 242.541 3.02991 4.73448 0
M  V30 2551 H 234.692 1.85318 1.03783 0
M  V30 2552 H 236.955 0.794777 0.516753 0
M  V30 2553 H 236.661 2.5841 2.38574 0
M  V30 2554 H 236.535 1.27671 3.54937 0
M  V30 2555 H 238.922 0.52335 2.90422 0
M  V30 2556 H 239.003 1.86378 1.75205 0
M  V30 2557 H 238.647 3.50745 3.67342 0
M  V30 2558 H 238.577 2.13904 4.81199 0
M  V30 2559 H 241.068 1.89503 3.26951 0
M  V30 2560 H 241.381 4.40359 6.35062 0
M  V30 2561 H 239.726 3.95455 5.71524 0
M  V30 2562 H 242.917 2.41987 4.007 0
M  V30 2563 H 243.09 3.5636 5.41213 0
M  V30 2564 N 236.496 -1.42363 0.676048 0
M  V30 2565 C 237.406 -2.346 -0.00153389 0
M  V30 2566 C 238.422 -1.5516 -0.787485 0
M  V30 2567 O 239.598 -1.87723 -0.729521 0
M  V30 2568 C 236.663 -3.33705 -0.940298 0
M  V30 2569 C 235.724 -4.29042 -0.148739 0
M  V30 2570 C 234.957 -5.23413 -1.04279 0
M  V30 2571 O 235.18 -5.22749 -2.28232 0
M  V30 2572 O 234.114 -5.99795 -0.502925 0
M  V30 2573 H 237.94 -2.94082 0.758268 0
M  V30 2574 H 235.525 -1.42888 0.436289 0
M  V30 2575 H 237.407 -3.94586 -1.47917 0
M  V30 2576 H 236.082 -2.76695 -1.67993 0
M  V30 2577 H 234.989 -3.71571 0.43427 0
M  V30 2578 H 236.322 -4.89097 0.551805 0
M  V30 2579 N 237.974 -0.419461 -1.51915 0
M  V30 2580 C 239.39 -0.0708431 -1.59443 0
M  V30 2581 C 239.59 1.41796 -1.43164 0
M  V30 2582 O 238.646 2.18596 -1.26381 0
M  V30 2583 C 239.959 -0.574991 -2.95151 0
M  V30 2584 C 241.507 -0.533867 -3.08413 0
M  V30 2585 C 241.982 -1.01469 -4.46618 0
M  V30 2586 N 243.473 -0.971939 -4.52888 0
M  V30 2587 C 244.208 -1.31505 -5.58116 0
M  V30 2588 N 243.704 -1.73014 -6.70849 0
M  V30 2589 N 245.497 -1.23436 -5.48379 0
M  V30 2590 H 237.648 -1.38836 -1.60743 0
M  V30 2591 H 239.911 -0.570998 -0.756747 0
M  V30 2592 H 239.617 -1.61597 -3.12377 0
M  V30 2593 H 239.491 0.00979777 -3.77199 0
M  V30 2594 H 241.878 0.498086 -2.90866 0
M  V30 2595 H 241.959 -1.15484 -2.28248 0
M  V30 2596 H 241.603 -2.04502 -4.6491 0
M  V30 2597 H 241.533 -0.370433 -5.25295 0
M  V30 2598 H 244.024 -0.666893 -3.71969 0
M  V30 2599 H 244.337 -1.97479 -7.47143 0
M  V30 2600 H 242.682 -1.76926 -6.72103 0
M  V30 2601 H 245.873 -0.908869 -4.59192 0
M  V30 2602 H 246.046 -1.50506 -6.30279 0
M  V30 2603 N 239.452 1.56882 -0.150215 0
M  V30 2604 C 240.382 2.19935 0.784284 0
M  V30 2605 C 241.363 1.14854 1.25469 0
M  V30 2606 O 242.548 1.43209 1.31168 0
M  V30 2607 C 239.678 2.82349 2.02229 0
M  V30 2608 C 238.632 3.93285 1.68853 0
M  V30 2609 C 237.958 4.42649 2.99944 0
M  V30 2610 C 239.258 5.13904 0.932714 0
M  V30 2611 H 240.952 2.9828 0.258781 0
M  V30 2612 H 238.498 1.43473 0.123029 0
M  V30 2613 H 240.451 3.25126 2.68088 0
M  V30 2614 H 239.175 2.0134 2.57157 0
M  V30 2615 H 237.834 3.5113 1.05371 0
M  V30 2616 H 237.482 3.58458 3.52869 0
M  V30 2617 H 237.182 5.17476 2.78374 0
M  V30 2618 H 238.706 4.88099 3.66868 0
M  V30 2619 H 240.12 5.53506 1.49345 0
M  V30 2620 H 238.517 5.94515 0.81684 0
M  V30 2621 H 239.587 4.84842 -0.0749568 0
M  V30 2622 N 240.93 -0.123565 1.57115 0
M  V30 2623 C 241.86 -1.15309 2.03042 0
M  V30 2624 C 242.841 -1.43454 0.914061 0
M  V30 2625 O 244.026 -1.53973 1.18347 0
M  V30 2626 C 241.156 -2.48043 2.43089 0
M  V30 2627 C 240.11 -2.3437 3.58127 0
M  V30 2628 C 239.436 -3.72026 3.84059 0
M  V30 2629 C 240.736 -1.80804 4.90007 0
M  V30 2630 H 242.43 -0.771102 2.893 0
M  V30 2631 H 239.976 -0.369479 1.39179 0
M  V30 2632 H 241.929 -3.20311 2.73823 0
M  V30 2633 H 240.653 -2.88122 1.53796 0
M  V30 2634 H 239.312 -1.64551 3.27595 0
M  V30 2635 H 238.96 -4.09582 2.91979 0
M  V30 2636 H 238.66 -3.63732 4.6149 0
M  V30 2637 H 240.184 -4.45806 4.1724 0
M  V30 2638 H 241.598 -2.42886 5.19307 0
M  V30 2639 H 239.995 -1.83343 5.71407 0
M  V30 2640 H 241.065 -0.76528 4.78823 0
M  V30 2641 N 242.408 -1.52605 -0.393616 0
M  V30 2642 C 243.356 -1.77688 -1.50099 0
M  V30 2643 C 244.35 -0.644615 -1.56656 0
M  V30 2644 O 245.556 -0.826997 -1.59877 0
M  V30 2645 H 241.931 -0.562159 -0.499481 0
M  V30 2646 H 243.902 -2.7043 -1.26135 0
M  V30 2647 C 242.651 -1.95858 -2.87289 0
M  V30 2648 H 241.974 -2.8241 -2.82992 0
M  V30 2649 H 243.414 -2.174 -3.64024 0
M  V30 2650 C 241.873 -0.729848 -3.28899 0
M  V30 2651 O 242.403 0.0949217 -4.01588 0
M  V30 2652 N 240.609 -0.561283 -2.85128 0
M  V30 2653 H 240.156 -1.23357 -2.26143 0
M  V30 2654 H 240.114 0.2595 -3.13327 0
M  V30 2655 N 243.887 0.651787 -1.4349 0
M  V30 2656 C 244.834 1.76462 -1.4876 0
M  V30 2657 C 245.804 1.62641 -0.337189 0
M  V30 2658 O 246.989 1.82864 -0.544544 0
M  V30 2659 C 244.129 3.14623 -1.41796 0
M  V30 2660 C 243.242 3.39568 -2.67053 0
M  V30 2661 C 242.377 4.67585 -2.52068 0
M  V30 2662 C 241.416 4.85639 -3.72587 0
M  V30 2663 N 240.553 6.04915 -3.56402 0
M  V30 2664 H 245.393 1.71293 -2.43849 0
M  V30 2665 H 242.93 0.835889 -1.21043 0
M  V30 2666 H 244.888 3.94496 -1.35753 0
M  V30 2667 H 243.518 3.18859 -0.50288 0
M  V30 2668 H 242.57 2.53783 -2.8337 0
M  V30 2669 H 243.882 3.48795 -3.56572 0
M  V30 2670 H 243.036 5.55586 -2.4374 0
M  V30 2671 H 241.775 4.60681 -1.60075 0
M  V30 2672 H 240.78 3.96073 -3.81321 0
M  V30 2673 H 242.005 4.94372 -4.65589 0
M  V30 2674 H 239.951 5.9914 -2.67146 0
M  V30 2675 H 239.868 6.15106 -4.39524 0
M  V30 2676 H 241.136 6.95533 -3.51929 0
M  V30 2677 N 245.365 1.30045 0.890287 0
M  V30 2678 C 246.298 1.10301 1.99772 0
M  V30 2679 C 247.276 0.0121631 1.62595 0
M  V30 2680 O 248.46 0.16469 1.87779 0
M  V30 2681 C 245.587 0.681125 3.31781 0
M  V30 2682 C 244.633 1.77206 3.87944 0
M  V30 2683 S 245.466 3.37335 4.15891 0
M  V30 2684 C 246.622 2.97036 5.50927 0
M  V30 2685 H 246.855 2.04057 2.16213 0
M  V30 2686 H 244.388 1.14299 1.03804 0
M  V30 2687 H 246.346 0.444439 4.08087 0
M  V30 2688 H 245.007 -0.236981 3.13205 0
M  V30 2689 H 244.2 1.42903 4.83316 0
M  V30 2690 H 243.802 1.96275 3.18358 0
M  V30 2691 H 246.094 2.44666 6.31779 0
M  V30 2692 H 247.037 3.91296 5.90164 0
M  V30 2693 H 247.445 2.35057 5.13233 0
M  V30 2694 N 246.843 -1.10192 1.12674 0
M  V30 2695 C 248.083 -1.83825 0.893736 0
M  V30 2696 C 248.447 -1.83341 -0.570082 0
M  V30 2697 O 249.648 -2.52553 -0.920354 0
M  V30 2698 C 247.919 -3.26405 1.45582 0
M  V30 2699 S 249.478 -4.17136 1.36171 0
M  V30 2700 H 246.296 -0.633732 0.322342 0
M  V30 2701 H 248.898 -1.32581 1.43675 0
M  V30 2702 H 247.602 -3.24329 2.51473 0
M  V30 2703 H 247.133 -3.82721 0.910405 0
M  V30 2704 H 249.148 -4.95069 0.334863 0
M  V30 2705 N 248.321 -0.919034 -1.28029 0
M  V30 2706 C 249.569 -0.553838 -1.94363 0
M  V30 2707 C 249.89 0.906357 -1.72656 0
M  V30 2708 O 249.16 1.64143 -1.0693 0
M  V30 2709 H 247.74 -0.201834 -0.719216 0
M  V30 2710 H 250.402 -1.16954 -1.55909 0
M  V30 2711 H 249.498 -0.752758 -3.02886 0
M  V30 2712 N 249.799 1.42003 -0.683588 0
M  V30 2713 C 251.027 2.05746 -0.218182 0
M  V30 2714 C 251.442 1.51396 1.12804 0
M  V30 2715 O 250.799 0.657303 1.70252 0
M  V30 2716 C 250.85 3.61171 -0.154131 0
M  V30 2717 O 250.571 4.13508 -1.44716 0
M  V30 2718 C 252.072 4.42042 0.333713 0
M  V30 2719 H 249.292 0.662888 -0.10402 0
M  V30 2720 H 251.836 1.81987 -0.9328 0
M  V30 2721 H 249.991 3.84012 0.511231 0
M  V30 2722 H 250.405 5.07453 -1.32632 0
M  V30 2723 H 251.879 5.51028 0.327423 0
M  V30 2724 H 252.356 4.17269 1.37053 0
M  V30 2725 H 252.962 4.24239 -0.300222 0
M  V30 2726 N 251.277 0.427512 1.51691 0
M  V30 2727 C 252.207 -0.3796 2.30394 0
M  V30 2728 C 253.188 -1.02982 1.35384 0
M  V30 2729 O 254.373 -1.03534 1.643 0
M  V30 2730 C 251.503 -1.48649 3.1388 0
M  V30 2731 C 250.457 -0.960294 4.17088 0
M  V30 2732 C 249.783 -2.16219 4.89033 0
M  V30 2733 C 251.083 -0.00153679 5.223 0
M  V30 2734 H 252.777 0.277164 2.98114 0
M  V30 2735 H 250.323 0.134739 1.43368 0
M  V30 2736 H 252.276 -2.05826 3.67714 0
M  V30 2737 H 251 -2.1714 2.43962 0
M  V30 2738 H 249.659 -0.410806 3.64291 0
M  V30 2739 H 249.307 -2.83307 4.15628 0
M  V30 2740 H 249.007 -1.81654 5.58816 0
M  V30 2741 H 250.531 -2.73968 5.45687 0
M  V30 2742 H 251.945 -0.482687 5.71264 0
M  V30 2743 H 250.342 0.256199 5.99553 0
M  V30 2744 H 251.412 0.938174 4.75738 0
M  V30 2745 N 252.755 -1.56801 0.158532 0
M  V30 2746 C 254.166 -1.83189 -0.360366 0
M  V30 2747 C 254.517 -1.07778 -1.63946 0
M  V30 2748 O 253.642 -0.326718 -2.13919 0
M  V30 2749 C 254.237 -3.32297 -0.660595 0
M  V30 2750 C 252.796 -3.59227 -1.12398 0
M  V30 2751 C 251.943 -2.76877 -0.153097 0
M  V30 2752 H 254.894 -1.54008 0.383031 0
M  V30 2753 H 254.915 -3.4908 -1.51405 0
M  V30 2754 H 254.427 -3.87156 0.270527 0
M  V30 2755 H 252.528 -3.09766 -2.07064 0
M  V30 2756 H 252.641 -4.67632 -1.04197 0
M  V30 2757 H 251.005 -2.46319 -0.647983 0
M  V30 2758 H 251.788 -3.34511 0.77182 0
M  V30 2759 N 254.233 0.115231 -1.57178 0
M  V30 2760 C 255.463 0.835224 -1.88964 0
M  V30 2761 C 255.871 1.73774 -0.74829 0
M  V30 2762 O 255.214 1.81401 0.289739 0
M  V30 2763 C 255.276 1.7178 -3.15804 0
M  V30 2764 C 254.94 0.989198 -4.46166 0
M  V30 2765 C 255.937 0.328263 -5.18863 0
M  V30 2766 C 253.622 0.969256 -4.9286 0
M  V30 2767 C 255.616 -0.342873 -6.36477 0
M  V30 2768 C 253.303 0.294324 -6.10391 0
M  V30 2769 C 254.301 -0.360582 -6.82048 0
M  V30 2770 O 253.989 -1.02474 -7.97342 0
M  V30 2771 H 253.721 0.245197 -0.629964 0
M  V30 2772 H 256.275 0.10303 -2.05141 0
M  V30 2773 H 254.505 2.49173 -2.95719 0
M  V30 2774 H 256.194 2.31255 -3.33581 0
M  V30 2775 H 256.96 0.335263 -4.8384 0
M  V30 2776 H 252.839 1.46844 -4.36987 0
M  V30 2777 H 256.383 -0.854629 -6.92345 0
M  V30 2778 H 252.28 0.285099 -6.4487 0
M  V30 2779 H 253.048 -0.929594 -8.13204 0
M  V30 2780 N 255.711 1.52812 0.385517 0
M  V30 2781 C 256.957 1.68275 1.13188 0
M  V30 2782 C 257.29 0.423179 1.89533 0
M  V30 2783 O 256.565 -0.579113 1.85679 0
M  V30 2784 C 256.848 2.92001 2.1073 0
M  V30 2785 C 256.701 4.28067 1.38125 0
M  V30 2786 C 258.02 3.11283 3.11113 0
M  V30 2787 H 255.139 0.612352 0.410115 0
M  V30 2788 H 257.781 1.85415 0.414869 0
M  V30 2789 H 255.931 2.77519 2.71874 0
M  V30 2790 H 257.603 4.54324 0.799187 0
M  V30 2791 H 255.846 4.28388 0.683092 0
M  V30 2792 H 256.517 5.10733 2.09417 0
M  V30 2793 H 258.993 3.2482 2.6006 0
M  V30 2794 H 257.869 3.99325 3.76605 0
M  V30 2795 H 258.13 2.25656 3.80173 0
M  V30 2796 N 257.189 -0.644168 1.43834 0
M  V30 2797 C 258.152 -1.73857 1.49353 0
M  V30 2798 C 259.152 -1.56315 0.377112 0
M  V30 2799 O 260.342 -1.62048 0.639226 0
M  V30 2800 C 257.474 -3.12819 1.35488 0
M  V30 2801 H 258.667 -1.70342 2.46827 0
M  V30 2802 H 256.22 -0.856652 1.30733 0
M  V30 2803 H 256.955 -3.2194 0.390569 0
M  V30 2804 H 256.74 -3.26958 2.16428 0
M  V30 2805 H 258.23 -3.92606 1.42302 0
M  V30 2806 N 258.668 -1.30515 -0.883378 0
M  V30 2807 C 260.079 -1.17509 -1.45081 0
M  V30 2808 C 260.43 0.223605 -1.94922 0
M  V30 2809 O 259.555 1.12041 -1.85137 0
M  V30 2810 C 260.15 -2.12715 -2.63701 0
M  V30 2811 C 258.709 -2.03682 -3.16529 0
M  V30 2812 C 257.856 -2.02706 -1.89224 0
M  V30 2813 H 260.807 -1.42762 -0.693165 0
M  V30 2814 H 260.828 -1.70891 -3.39965 0
M  V30 2815 H 260.34 -3.14505 -2.27395 0
M  V30 2816 H 258.441 -1.05039 -3.57488 0
M  V30 2817 H 258.554 -2.92146 -3.7972 0
M  V30 2818 H 256.918 -1.4753 -2.07622 0
M  V30 2819 H 257.701 -3.06229 -1.55174 0
M  V30 2820 N 260.146 1.09593 -1.13257 0
M  V30 2821 C 261.056 2.19739 -0.821691 0
M  V30 2822 C 262.072 1.72926 0.19302 0
M  V30 2823 O 263.248 2.01385 0.0244895 0
M  V30 2824 C 260.313 3.45482 -0.290333 0
M  V30 2825 C 259.374 4.06985 -1.36607 0
M  V30 2826 C 258.607 5.26726 -0.859975 0
M  V30 2827 O 258.83 5.69594 0.303082 0
M  V30 2828 O 257.764 5.7931 -1.63351 0
M  V30 2829 H 261.59 2.48781 -1.74189 0
M  V30 2830 H 259.175 1.18496 -0.909894 0
M  V30 2831 H 261.057 4.214 0.000674022 0
M  V30 2832 H 259.732 3.18047 0.602306 0
M  V30 2833 H 258.639 3.32712 -1.71037 0
M  V30 2834 H 259.972 4.38643 -2.23279 0
M  V30 2835 N 261.624 0.925811 1.2754 0
M  V30 2836 C 262.554 0.440748 2.29303 0
M  V30 2837 C 263.535 -0.497971 1.62648 0
M  V30 2838 O 264.72 -0.403126 1.8997 0
M  V30 2839 C 261.85 -0.309048 3.45922 0
M  V30 2840 C 260.804 0.54166 4.24559 0
M  V30 2841 C 260.13 -0.337191 5.33636 0
M  V30 2842 C 261.43 1.80516 4.90114 0
M  V30 2843 H 263.124 1.29121 2.70126 0
M  V30 2844 H 260.67 0.622323 1.29858 0
M  V30 2845 H 262.623 -0.659315 4.1621 0
M  V30 2846 H 261.347 -1.19352 3.04011 0
M  V30 2847 H 260.006 0.874609 3.56014 0
M  V30 2848 H 259.654 -1.22056 4.87966 0
M  V30 2849 H 259.354 0.228497 5.87156 0
M  V30 2850 H 260.878 -0.683072 6.06767 0
M  V30 2851 H 262.292 1.52307 5.52698 0
M  V30 2852 H 260.689 2.3142 5.53683 0
M  V30 2853 H 261.759 2.52581 4.13921 0
M  V30 2854 N 263.102 -1.41638 0.69111 0
M  V30 2855 C 264.032 -2.3347 0.037248 0
M  V30 2856 C 265.013 -1.51575 -0.771947 0
M  V30 2857 O 266.198 -1.80126 -0.72582 0
M  V30 2858 C 263.328 -3.35354 -0.903064 0
M  V30 2859 C 262.282 -4.27526 -0.201288 0
M  V30 2860 C 261.608 -5.19747 -1.25565 0
M  V30 2861 C 262.908 -5.13959 0.929689 0
M  V30 2862 H 264.602 -2.88397 0.804227 0
M  V30 2863 H 262.148 -1.38669 0.388189 0
M  V30 2864 H 264.101 -3.98519 -1.36969 0
M  V30 2865 H 262.825 -2.78767 -1.70166 0
M  V30 2866 H 261.484 -3.65779 0.245265 0
M  V30 2867 H 261.132 -4.59479 -2.04666 0
M  V30 2868 H 260.832 -5.8225 -0.791128 0
M  V30 2869 H 262.356 -5.85789 -1.72288 0
M  V30 2870 H 263.77 -5.70718 0.543546 0
M  V30 2871 H 262.167 -5.85379 1.32103 0
M  V30 2872 H 263.237 -4.51389 1.77133 0
M  V30 2873 N 264.58 -0.43555 -1.51462 0
M  V30 2874 C 265.527 0.376797 -2.27703 0
M  V30 2875 C 266.497 1.01838 -1.31219 0
M  V30 2876 O 267.682 1.03762 -1.60119 0
M  V30 2877 C 264.822 1.47301 -3.12084 0
M  V30 2878 C 263.935 0.849744 -4.2356 0
M  V30 2879 C 263.07 1.92086 -4.95254 0
M  V30 2880 C 262.109 1.27593 -5.98654 0
M  V30 2881 N 261.246 2.28833 -6.63762 0
M  V30 2882 H 266.086 -0.279734 -2.96684 0
M  V30 2883 H 263.623 -0.149795 -1.46335 0
M  V30 2884 H 265.581 2.11984 -3.59331 0
M  V30 2885 H 264.211 2.0992 -2.45221 0
M  V30 2886 H 263.263 0.0912529 -3.80291 0
M  V30 2887 H 264.575 0.338878 -4.97648 0
M  V30 2888 H 263.729 2.64435 -5.46039 0
M  V30 2889 H 262.468 2.46545 -4.20793 0
M  V30 2890 H 261.473 0.537893 -5.47162 0
M  V30 2891 H 262.698 0.738693 -6.7507 0
M  V30 2892 H 260.644 2.82375 -5.92115 0
M  V30 2893 H 260.561 1.82632 -7.33608 0
M  V30 2894 H 261.829 3.00671 -7.19178 0
M  V30 2895 N 266.058 1.56714 -0.166846 0
M  V30 2896 C 267.474 1.58473 0.189372 0
M  V30 2897 C 267.674 1.18201 1.63189 0
M  V30 2898 O 266.73 0.891528 2.36237 0
M  V30 2899 C 268.043 3.00573 -0.0873872 0
M  V30 2900 C 269.591 3.1299 -0.0252443 0
M  V30 2901 C 270.066 4.57174 -0.274934 0
M  V30 2902 N 271.557 4.62665 -0.222553 0
M  V30 2903 C 272.292 5.72072 -0.389985 0
M  V30 2904 N 271.788 6.90054 -0.616229 0
M  V30 2905 N 273.581 5.61153 -0.326202 0
M  V30 2906 H 265.732 1.8118 -1.10849 0
M  V30 2907 H 267.995 0.839525 -0.440342 0
M  V30 2908 H 267.701 3.34497 -1.0865 0
M  V30 2909 H 267.575 3.72019 0.623037 0
M  V30 2910 H 269.962 2.78895 0.96444 0
M  V30 2911 H 270.043 2.43989 -0.768309 0
M  V30 2912 H 269.687 4.91976 -1.26181 0
M  V30 2913 H 269.617 5.24328 0.48869 0
M  V30 2914 H 272.108 3.77863 -0.0531512 0
M  V30 2915 H 272.421 7.69311 -0.733559 0
M  V30 2916 H 270.766 6.91927 -0.652791 0
M  V30 2917 H 273.957 4.67859 -0.150072 0
M  V30 2918 H 274.13 6.46364 -0.460116 0
M  V30 2919 N 267.536 -0.106894 1.57237 0
M  V30 2920 C 268.952 -0.46078 1.52804 0
M  V30 2921 C 269.152 -1.81184 0.881746 0
M  V30 2922 O 268.208 -2.48102 0.469224 0
M  V30 2923 C 269.521 -0.434127 2.9755 0
M  V30 2924 C 271.069 -0.516821 3.08704 0
M  V30 2925 C 271.544 -0.520436 4.55033 0
M  V30 2926 N 273.035 -0.58153 4.59535 0
M  V30 2927 C 273.77 -0.605973 5.70189 0
M  V30 2928 N 273.266 -0.587331 6.90306 0
M  V30 2929 N 275.059 -0.649895 5.5833 0
M  V30 2930 H 267.21 0.778203 1.9763 0
M  V30 2931 H 269.473 0.288403 0.903066 0
M  V30 2932 H 269.179 0.491197 3.48253 0
M  V30 2933 H 269.053 -1.25748 3.55622 0
M  V30 2934 H 271.44 -1.43256 2.57995 0
M  V30 2935 H 271.521 0.334449 2.53604 0
M  V30 2936 H 271.165 0.391313 5.0639 0
M  V30 2937 H 271.095 -1.38876 5.07958 0
M  V30 2938 H 273.586 -0.60161 3.73081 0
M  V30 2939 H 273.899 -0.60894 7.70397 0
M  V30 2940 H 272.244 -0.554564 6.92784 0
M  V30 2941 H 275.435 -0.661907 4.63397 0
M  V30 2942 H 275.608 -0.665476 6.44574 0
M  V30 2943 N 269.014 -1.53014 -0.377408 0
M  V30 2944 C 269.924 -1.81557 -1.48574 0
M  V30 2945 C 270.94 -0.703102 -1.59162 0
M  V30 2946 O 272.116 -0.99192 -1.75279 0
M  V30 2947 C 269.181 -1.9889 -2.83978 0
M  V30 2948 C 268.242 -3.22801 -2.83016 0
M  V30 2949 C 267.475 -3.39298 -4.11962 0
M  V30 2950 O 267.698 -2.60345 -5.0752 0
M  V30 2951 O 266.632 -4.32604 -4.18494 0
M  V30 2952 H 270.458 -2.75695 -1.27382 0
M  V30 2953 H 268.043 -1.38248 -0.566373 0
M  V30 2954 H 269.925 -2.11931 -3.6423 0
M  V30 2955 H 268.6 -1.07942 -3.05172 0
M  V30 2956 H 267.507 -3.15193 -2.01505 0
M  V30 2957 H 268.84 -4.13632 -2.66775 0
M  V30 2958 N 270.492 0.636531 -1.44174 0
M  V30 2959 C 271.739 1.39619 -1.46672 0
M  V30 2960 C 272.067 1.94257 -0.0972691 0
M  V30 2961 O 271.322 1.73768 0.900175 0
M  V30 2962 C 271.621 2.58309 -2.47005 0
M  V30 2963 C 271.287 2.21992 -3.92467 0
M  V30 2964 C 269.949 2.118 -4.32081 0
M  V30 2965 C 272.301 1.9321 -4.84065 0
M  V30 2966 C 269.629 1.71007 -5.61225 0
M  V30 2967 C 271.981 1.53911 -6.13591 0
M  V30 2968 C 270.645 1.42257 -6.52165 0
M  V30 2969 H 269.915 0.510902 -0.536712 0
M  V30 2970 H 272.562 0.722328 -1.77355 0
M  V30 2971 H 270.867 3.30903 -2.09786 0
M  V30 2972 H 272.564 3.16533 -2.46186 0
M  V30 2973 H 269.154 2.30841 -3.61124 0
M  V30 2974 H 273.338 1.99997 -4.54219 0
M  V30 2975 H 268.594 1.60583 -5.89935 0
M  V30 2976 H 272.768 1.30677 -6.8403 0
M  V30 2977 H 270.395 1.10419 -7.52138 0
M  V30 2978 N 271.97 1.30982 0.876444 0
M  V30 2979 C 272.92 1.14688 1.97055 0
M  V30 2980 C 273.904 0.0596593 1.60789 0
M  V30 2981 O 275.096 0.283892 1.74708 0
M  V30 2982 C 272.225 0.849627 3.3262 0
M  V30 2983 C 271.311 1.97752 3.75173 0
M  V30 2984 N 271.702 3.22384 3.89746 0
M  V30 2985 C 270 1.8758 4.04635 0
M  V30 2986 C 270.701 3.96121 4.25985 0
M  V30 2987 N 269.677 3.24237 4.36315 0
M  V30 2988 H 273.479 2.09204 2.06424 0
M  V30 2989 H 270.993 1.22445 1.06682 0
M  V30 2990 H 272.99 0.713895 4.10742 0
M  V30 2991 H 271.65 -0.087376 3.24582 0
M  V30 2992 H 272.661 3.57575 3.74647 0
M  V30 2993 H 269.338 1.01303 4.05024 0
M  V30 2994 H 270.728 5.03491 4.44911 0
M  V30 2995 N 273.449 -1.08991 1.13837 0
M  V30 2996 C 274.412 -2.13925 0.822715 0
M  V30 2997 C 275.412 -1.599 -0.1699 0
M  V30 2998 O 276.602 -1.74104 0.0577251 0
M  V30 2999 C 273.734 -3.40155 0.225318 0
M  V30 3000 H 274.927 -2.43358 1.75262 0
M  V30 3001 H 272.48 -1.24603 0.943594 0
M  V30 3002 H 273.215 -3.16352 -0.713594 0
M  V30 3003 H 273 -3.80661 0.940193 0
M  V30 3004 H 274.49 -4.17594 0.0214784 0
M  V30 3005 N 274.927 -0.932562 -1.27047 0
M  V30 3006 C 275.837 -0.441219 -2.30414 0
M  V30 3007 C 276.853 0.480525 -1.67233 0
M  V30 3008 O 278.029 0.362151 -1.98117 0
M  V30 3009 C 275.094 0.293651 -3.45454 0
M  V30 3010 C 274.155 -0.663601 -4.2414 0
M  V30 3011 C 273.388 0.0362932 -5.33688 0
M  V30 3012 O 273.611 1.2548 -5.56427 0
M  V30 3013 O 272.545 -0.638015 -5.98509 0
M  V30 3014 H 276.371 -1.29962 -2.74488 0
M  V30 3015 H 273.956 -0.6981 -1.32087 0
M  V30 3016 H 275.838 0.707951 -4.15411 0
M  V30 3017 H 274.513 1.12758 -3.03426 0
M  V30 3018 H 273.42 -1.12768 -3.56699 0
M  V30 3019 H 274.753 -1.46489 -4.69896 0
M  V30 3020 N 276.405 1.4127 -0.698611 0
M  V30 3021 C 277.816 1.84187 -0.305289 0
M  V30 3022 C 278.167 1.58449 1.15708 0
M  V30 3023 O 277.292 1.05651 1.88856 0
M  V30 3024 C 277.887 3.3435 -0.547314 0
M  V30 3025 C 276.446 3.75826 -0.207878 0
M  V30 3026 C 275.593 2.64647 -0.828099 0
M  V30 3027 H 278.544 1.30778 -0.89904 0
M  V30 3028 H 278.565 3.8001 0.192998 0
M  V30 3029 H 278.077 3.53051 -1.61172 0
M  V30 3030 H 276.178 3.62725 0.852143 0
M  V30 3031 H 276.291 4.74462 -0.665021 0
M  V30 3032 H 274.655 2.53395 -0.257458 0
M  V30 3033 H 275.438 2.86165 -1.89643 0
M  V30 3034 N 277.883 0.443576 1.51229 0
M  V30 3035 C 279.129 -0.120975 2.02439 0
M  V30 3036 C 279.462 -1.41815 1.32674 0
M  V30 3037 O 278.737 -1.89373 0.443622 0
M  V30 3038 C 279.02 -0.333291 3.58554 0
M  V30 3039 C 278.873 0.982968 4.38928 0
M  V30 3040 C 280.192 -1.10028 4.26124 0
M  V30 3041 H 277.311 -0.0424923 0.735774 0
M  V30 3042 H 279.953 0.583794 1.80809 0
M  V30 3043 H 278.103 -0.933614 3.77115 0
M  V30 3044 H 279.775 1.61775 4.32003 0
M  V30 3045 H 278.018 1.58611 4.03763 0
M  V30 3046 H 278.689 0.788379 5.46341 0
M  V30 3047 H 281.165 -0.591711 4.11871 0
M  V30 3048 H 280.041 -1.21761 5.35225 0
M  V30 3049 H 280.302 -2.12996 3.87408 0
M  V30 3050 N 279.361 -1.56624 0.175154 0
M  V30 3051 C 280.638 -1.88688 -0.515373 0
M  V30 3052 C 281.018 -1.08564 -1.81044 0
M  V30 3053 O 280.366 -0.180703 -2.27784 0
M  V30 3054 C 280.576 -3.40768 -0.753552 0
M  V30 3055 C 281.924 -4.10587 -1.08184 0
M  V30 3056 O 282.948 -3.46106 -0.841961 0
M  V30 3057 O 281.807 -5.24512 -1.53459 0
M  V30 3058 H 278.901 -0.78301 -0.26613 0
M  V30 3059 H 281.447 -1.68347 0.213877 0
M  V30 3060 H 280.219 -3.90965 0.161829 0
M  V30 3061 H 279.842 -3.66733 -1.53598 0
M  V30 3062 N 280.839 0.0985539 -1.57292 0
M  V30 3063 C 282.085 0.803867 -1.86188 0
M  V30 3064 C 282.418 1.78549 -0.763794 0
M  V30 3065 O 281.693 1.93153 0.22855 0
M  V30 3066 C 281.976 1.53568 -3.25713 0
M  V30 3067 C 281.829 0.572277 -4.46145 0
M  V30 3068 C 283.148 2.48708 -3.63087 0
M  V30 3069 H 280.267 0.290781 -0.677211 0
M  V30 3070 H 282.909 0.0675783 -1.8988 0
M  V30 3071 H 281.059 2.16332 -3.22696 0
M  V30 3072 H 282.731 -0.0480894 -4.61275 0
M  V30 3073 H 280.974 -0.114618 -4.33649 0
M  V30 3074 H 281.645 1.12139 -5.40489 0
M  V30 3075 H 284.121 1.96039 -3.67026 0
M  V30 3076 H 282.997 2.96932 -4.61652 0
M  V30 3077 H 283.258 3.32309 -2.91588 0
M  V30 3078 N 282.317 1.53212 0.369288 0
M  V30 3079 C 283.563 1.70413 1.11046 0
M  V30 3080 C 283.918 0.448509 1.87099 0
M  V30 3081 O 283.211 -0.558382 1.83283 0
M  V30 3082 C 283.405 2.89101 2.10132 0
M  V30 3083 C 283.234 4.26084 1.43814 0
M  V30 3084 C 282.004 4.90994 1.19384 0
M  V30 3085 C 284.202 5.06754 0.877802 0
M  V30 3086 N 282.184 6.11911 0.49377 0
M  V30 3087 C 283.555 6.1924 0.306891 0
M  V30 3088 C 285.61 4.91814 0.776129 0
M  V30 3089 C 284.313 7.1842 -0.355774 0
M  V30 3090 C 286.339 5.91263 0.127252 0
M  V30 3091 C 285.701 7.03069 -0.432801 0
M  V30 3092 H 281.8 0.676872 0.391623 0
M  V30 3093 H 284.384 1.90603 0.397334 0
M  V30 3094 H 282.555 2.70456 2.78761 0
M  V30 3095 H 284.287 2.95142 2.76899 0
M  V30 3096 H 281.042 4.50074 1.47413 0
M  V30 3097 H 281.466 6.76813 0.159207 0
M  V30 3098 H 286.108 4.05564 1.19489 0
M  V30 3099 H 283.826 8.04264 -0.786499 0
M  V30 3100 H 287.412 5.81779 0.0495613 0
M  V30 3101 H 286.292 7.78702 -0.926958 0
M  V30 3102 N 283.795 -0.628877 1.44509 0
M  V30 3103 C 285.02 -1.42048 1.5112 0
M  V30 3104 C 285.445 -1.87594 0.137818 0
M  V30 3105 O 284.803 -1.58873 -0.873437 0
M  V30 3106 C 284.851 -2.61541 2.48251 0
M  V30 3107 O 283.955 -3.61453 1.98559 0
M  V30 3108 H 283.296 -0.424942 0.510216 0
M  V30 3109 H 285.826 -0.767374 1.89664 0
M  V30 3110 H 285.836 -3.09057 2.66361 0
M  V30 3111 H 284.511 -2.27736 3.48007 0
M  V30 3112 H 283.088 -3.20731 1.90227 0
M  V30 3113 N 285.273 -1.31445 -0.869486 0
M  V30 3114 C 286.513 -1.22458 -1.63656 0
M  V30 3115 C 286.877 0.213846 -1.90805 0
M  V30 3116 O 288.078 0.427212 -2.65383 0
M  V30 3117 C 286.349 -2.04564 -2.93067 0
M  V30 3118 S 287.908 -2.12445 -3.83944 0
M  V30 3119 H 284.726 -0.436145 -0.561514 0
M  V30 3120 H 287.328 -1.66114 -1.03085 0
M  V30 3121 H 286.032 -3.0816 -2.71045 0
M  V30 3122 H 285.563 -1.6163 -3.58663 0
M  V30 3123 H 287.578 -1.26312 -4.79854 0
M  V30 3124 N 286.751 1.08385 -1.14413 0
M  V30 3125 C 287.999 1.80419 -0.910679 0
M  V30 3126 C 288.32 1.86658 0.564243 0
M  V30 3127 O 287.59 1.35985 1.41014 0
M  V30 3128 H 286.17 0.668204 -0.333934 0
M  V30 3129 H 288.832 1.31037 -1.44275 0
M  V30 3130 H 287.928 2.83238 -1.31082 0
M  V30 3131 N 288.23 0.939286 1.26551 0
M  V30 3132 C 289.479 0.581601 1.93133 0
M  V30 3133 C 289.792 -0.883224 1.74524 0
M  V30 3134 O 290.998 -1.3502 2.35546 0
M  V30 3135 C 289.454 0.989425 3.46032 0
M  V30 3136 C 289.062 2.47573 3.73379 0
M  V30 3137 C 290.806 0.703544 4.18629 0
M  V30 3138 C 288.713 2.82235 5.19709 0
M  V30 3139 H 287.643 0.213803 0.723052 0
M  V30 3140 H 290.294 1.14167 1.4366 0
M  V30 3141 H 288.676 0.357902 3.94379 0
M  V30 3142 H 289.85 3.15614 3.35744 0
M  V30 3143 H 288.165 2.73471 3.1401 0
M  V30 3144 H 290.762 0.938869 5.26393 0
M  V30 3145 H 291.105 -0.359639 4.14744 0
M  V30 3146 H 291.638 1.2947 3.76141 0
M  V30 3147 H 288.377 3.87509 5.28694 0
M  V30 3148 H 287.897 2.18854 5.58447 0
M  V30 3149 H 289.576 2.70599 5.87695 0
M  V30 3150 N 289.708 -1.40897 0.706093 0
M  V30 3151 C 290.954 -2.01352 0.241889 0
M  V30 3152 C 291.287 -1.55832 -1.15888 0
M  V30 3153 O 290.562 -0.774145 -1.7843 0
M  V30 3154 C 290.845 -3.58752 0.311311 0
M  V30 3155 C 290.698 -4.1437 1.74978 0
M  V30 3156 C 292.017 -4.38914 -0.322922 0
M  V30 3157 H 289.136 -0.731562 0.0893687 0
M  V30 3158 H 291.778 -1.67504 0.896802 0
M  V30 3159 H 289.928 -3.87718 -0.246302 0
M  V30 3160 H 291.6 -3.96239 2.36205 0
M  V30 3161 H 289.843 -3.69016 2.28057 0
M  V30 3162 H 290.514 -5.23532 1.74981 0
M  V30 3163 H 292.99 -4.15822 0.152089 0
M  V30 3164 H 291.866 -5.48358 -0.243855 0
M  V30 3165 H 292.127 -4.19176 -1.40513 0
M  V30 3166 N 291.186 -0.45159 -1.50991 0
M  V30 3167 C 292.116 0.342898 -2.30969 0
M  V30 3168 C 293.097 1.00815 -1.37005 0
M  V30 3169 O 294.282 1.00907 -1.65926 0
M  V30 3170 C 291.412 1.43637 -3.16205 0
M  V30 3171 C 290.366 0.893818 -4.18563 0
M  V30 3172 C 289.692 2.08411 -4.92411 0
M  V30 3173 C 290.992 -0.0815568 -5.22236 0
M  V30 3174 H 292.686 -0.324556 -2.97636 0
M  V30 3175 H 290.232 -0.157531 -1.43136 0
M  V30 3176 H 292.185 1.9995 -3.70942 0
M  V30 3177 H 290.909 2.13232 -2.47386 0
M  V30 3178 H 289.568 0.352798 -3.64898 0
M  V30 3179 H 289.216 2.76658 -4.20082 0
M  V30 3180 H 288.916 1.72741 -5.61636 0
M  V30 3181 H 290.44 2.65251 -5.49976 0
M  V30 3182 H 291.854 0.391742 -5.7196 0
M  V30 3183 H 290.251 -0.351551 -5.99069 0
M  V30 3184 H 291.321 -1.01374 -4.74185 0
M  V30 3185 N 292.664 1.56529 -0.183458 0
M  V30 3186 C 293.892 2.01623 0.464285 0
M  V30 3187 C 294.307 1.06366 1.55986 0
M  V30 3188 O 293.664 0.0665398 1.82379 0
M  V30 3189 C 293.715 3.46475 1.03139 0
M  V30 3190 O 293.436 4.38095 -0.0204675 0
M  V30 3191 C 294.937 4.0703 1.75617 0
M  V30 3192 H 292.157 0.660596 0.117704 0
M  V30 3193 H 294.701 2.02451 -0.288751 0
M  V30 3194 H 292.856 3.46383 1.73486 0
M  V30 3195 H 293.27 5.22973 0.399952 0
M  V30 3196 H 294.744 5.10271 2.10542 0
M  V30 3197 H 295.221 3.49819 2.65563 0
M  V30 3198 H 295.827 4.1086 1.09882 0
M  V30 3199 N 294.142 -0.090211 1.57342 0
M  V30 3200 C 295.105 -1.09335 2.01441 0
M  V30 3201 C 296.105 -1.32666 0.908641 0
M  V30 3202 O 297.295 -1.28697 1.174 0
M  V30 3203 C 294.427 -2.44136 2.3793 0
M  V30 3204 H 295.62 -0.713662 2.91285 0
M  V30 3205 H 293.173 -0.335404 1.52659 0
M  V30 3206 H 293.908 -2.86972 1.51055 0
M  V30 3207 H 293.693 -2.28548 3.18603 0
M  V30 3208 H 295.183 -3.16277 2.72688 0
M  V30 3209 N 295.62 -1.53406 -0.361157 0
M  V30 3210 C 296.553 -1.74946 -1.46524 0
M  V30 3211 C 297.531 -0.59795 -1.51206 0
M  V30 3212 O 298.715 -0.831062 -1.69191 0
M  V30 3213 C 295.842 -1.83224 -2.84863 0
M  V30 3214 C 294.888 -3.05233 -2.97885 0
M  V30 3215 S 295.721 -4.6466 -2.66179 0
M  V30 3216 C 296.877 -4.75793 -4.06659 0
M  V30 3217 H 297.11 -2.68319 -1.28033 0
M  V30 3218 H 294.643 -1.44051 -0.555764 0
M  V30 3219 H 296.601 -1.88679 -3.64569 0
M  V30 3220 H 295.262 -0.908948 -3.00661 0
M  V30 3221 H 294.455 -3.07648 -3.9921 0
M  V30 3222 H 294.057 -2.97913 -2.26106 0
M  V30 3223 H 296.349 -4.5612 -5.0096 0
M  V30 3224 H 297.292 -5.7786 -4.09247 0
M  V30 3225 H 297.7 -4.04389 -3.93865 0
M  V30 3226 N 297.098 0.621204 -1.44841 0
M  V30 3227 C 298.028 1.74366 -1.55303 0
M  V30 3228 C 299.009 1.65199 -0.405385 0
M  V30 3229 O 300.194 1.83807 -0.626787 0
M  V30 3230 C 297.324 3.12931 -1.50637 0
M  V30 3231 C 296.278 3.36896 -2.63979 0
M  V30 3232 C 295.604 4.75594 -2.44366 0
M  V30 3233 C 296.904 3.28483 -4.06074 0
M  V30 3234 H 298.598 1.65867 -2.49256 0
M  V30 3235 H 296.144 0.796558 -1.19962 0
M  V30 3236 H 298.097 3.9124 -1.56555 0
M  V30 3237 H 296.821 3.22237 -0.532057 0
M  V30 3238 H 295.48 2.60972 -2.57467 0
M  V30 3239 H 295.128 4.81616 -1.45105 0
M  V30 3240 H 294.828 4.92586 -3.20364 0
M  V30 3241 H 296.352 5.5612 -2.52117 0
M  V30 3242 H 297.766 3.96684 -4.13902 0
M  V30 3243 H 296.163 3.57008 -4.82354 0
M  V30 3244 H 297.233 2.26133 -4.28943 0
M  V30 3245 N 298.576 1.31904 0.862503 0
M  V30 3246 C 299.539 1.20131 1.95195 0
M  V30 3247 C 300.539 0.126409 1.60302 0
M  V30 3248 O 301.729 0.376234 1.70089 0
M  V30 3249 C 298.861 0.845691 3.30244 0
M  V30 3250 H 300.054 2.16943 2.07064 0
M  V30 3251 H 297.607 1.15622 1.05172 0
M  V30 3252 H 298.342 -0.120957 3.24074 0
M  V30 3253 H 298.127 1.62276 3.56944 0
M  V30 3254 H 299.617 0.787418 4.10109 0
M  V30 3255 N 300.054 -1.07777 1.14986 0
M  V30 3256 C 301.302 -1.79934 0.920235 0
M  V30 3257 C 301.623 -1.86955 -0.554336 0
M  V30 3258 O 300.893 -1.36731 -1.40291 0
M  V30 3259 H 299.473 -0.666424 0.337473 0
M  V30 3260 H 302.135 -1.3027 1.44968 0
M  V30 3261 H 301.231 -2.82539 1.32583 0
M  V30 3262 N 301.532 -0.945985 -1.26051 0
M  V30 3263 C 302.442 -0.465633 -2.29933 0
M  V30 3264 C 303.458 0.462761 -1.67733 0
M  V30 3265 O 304.634 0.341118 -1.9849 0
M  V30 3266 C 301.699 0.256994 -3.45746 0
M  V30 3267 C 300.76 -0.708549 -4.23412 0
M  V30 3268 C 299.993 -0.0203135 -5.33696 0
M  V30 3269 O 300.216 1.19571 -5.57726 0
M  V30 3270 O 299.15 -0.701459 -5.97799 0
M  V30 3271 H 302.976 -1.32866 -2.73094 0
M  V30 3272 H 300.561 -0.712071 -1.31339 0
M  V30 3273 H 302.443 0.663852 -4.16138 0
M  V30 3274 H 301.118 1.09533 -3.04605 0
M  V30 3275 H 300.025 -1.16545 -3.55483 0
M  V30 3276 H 301.358 -1.51465 -4.68315 0
M  V30 3277 N 303.011 1.40521 -0.713556 0
M  V30 3278 C 303.941 2.33381 -0.0743864 0
M  V30 3279 C 304.922 1.52784 0.747735 0
M  V30 3280 O 306.107 1.81258 0.697071 0
M  V30 3281 C 303.237 3.36748 0.849598 0
M  V30 3282 C 302.191 4.27793 0.133247 0
M  V30 3283 C 301.517 5.21679 1.17281 0
M  V30 3284 C 302.817 5.12415 -1.01134 0
M  V30 3285 H 304.511 2.87081 -0.850007 0
M  V30 3286 H 302.057 1.38034 -0.410201 0
M  V30 3287 H 304.01 4.00648 1.30612 0
M  V30 3288 H 302.734 2.81439 1.65709 0
M  V30 3289 H 301.393 3.65342 -0.303426 0
M  V30 3290 H 301.041 4.62677 1.9733 0
M  V30 3291 H 300.741 5.83435 0.698397 0
M  V30 3292 H 302.265 5.88456 1.62947 0
M  V30 3293 H 303.679 5.69781 -0.634274 0
M  V30 3294 H 302.076 5.83203 -1.41399 0
M  V30 3295 H 303.146 4.48514 -1.84292 0
M  V30 3296 N 304.489 0.459591 1.5075 0
M  V30 3297 C 305.9 0.00171547 1.867 0
M  V30 3298 C 306.251 -1.39934 1.37525 0
M  V30 3299 O 305.376 -2.03523 0.735349 0
M  V30 3300 C 305.971 -0.00366298 3.388 0
M  V30 3301 C 304.53 -0.406026 3.74204 0
M  V30 3302 C 303.677 0.38673 2.7459 0
M  V30 3303 H 306.628 0.674413 1.43657 0
M  V30 3304 H 306.649 -0.808371 3.71814 0
M  V30 3305 H 306.161 1.01617 3.74561 0
M  V30 3306 H 304.262 -1.43063 3.4404 0
M  V30 3307 H 304.375 -0.115362 4.78961 0
M  V30 3308 H 302.739 -0.158019 2.54209 0
M  V30 3309 H 303.522 1.40585 3.13194 0
M  V30 3310 N 305.967 -1.56429 0.191757 0
M  V30 3311 C 307.213 -1.98541 -0.441943 0
M  V30 3312 C 307.568 -1.07646 -1.59468 0
M  V30 3313 O 306.861 -0.120191 -1.91223 0
M  V30 3314 C 307.055 -3.44449 -0.953384 0
M  V30 3315 C 306.884 -4.49456 0.148262 0
M  V30 3316 C 305.654 -5.01668 0.604781 0
M  V30 3317 C 307.852 -5.05336 0.95602 0
M  V30 3318 N 305.834 -5.90334 1.6846 0
M  V30 3319 C 307.205 -5.9064 1.88531 0
M  V30 3320 C 309.26 -4.87779 0.998811 0
M  V30 3321 C 307.963 -6.60264 2.85383 0
M  V30 3322 C 309.989 -5.58139 1.95537 0
M  V30 3323 C 309.351 -6.43187 2.8721 0
M  V30 3324 H 305.45 -0.771247 -0.129236 0
M  V30 3325 H 308.034 -1.92426 0.296682 0
M  V30 3326 H 306.205 -3.5107 -1.66146 0
M  V30 3327 H 307.937 -3.73533 -1.55741 0
M  V30 3328 H 304.692 -4.73183 0.198736 0
M  V30 3329 H 305.116 -6.39371 2.22561 0
M  V30 3330 H 309.758 -4.21705 0.304048 0
M  V30 3331 H 307.476 -7.25538 3.55837 0
M  V30 3332 H 311.062 -5.46532 1.99484 0
M  V30 3333 H 309.942 -6.96674 3.60022 0
M  V30 3334 N 307.445 0.0818655 -1.57387 0
M  V30 3335 C 308.722 0.815343 -1.77796 0
M  V30 3336 C 309.102 1.96289 -0.77679 0
M  V30 3337 O 308.45 2.27691 0.192106 0
M  V30 3338 C 308.66 1.29765 -3.23978 0
M  V30 3339 C 310.008 1.7351 -3.8753 0
M  V30 3340 O 311.032 1.39356 -3.27808 0
M  V30 3341 O 309.891 2.36708 -4.92576 0
M  V30 3342 H 306.985 0.389914 -0.729312 0
M  V30 3343 H 309.531 0.0627213 -1.69584 0
M  V30 3344 H 308.303 0.47608 -3.88393 0
M  V30 3345 H 307.926 2.11189 -3.36875 0
M  V30 3346 N 308.923 1.53595 0.353017 0
M  V30 3347 C 309.855 1.77219 1.45348 0
M  V30 3348 C 310.868 0.65324 1.49119 0
M  V30 3349 O 312.057 0.929775 1.52373 0
M  V30 3350 C 309.157 1.84841 2.84055 0
M  V30 3351 C 308.33 3.14649 3.03833 0
M  V30 3352 C 307.389 3.13351 4.22727 0
M  V30 3353 O 306.415 3.87107 4.17297 0
M  V30 3354 N 307.617 2.35052 5.30783 0
M  V30 3355 H 310.382 2.72178 1.25457 0
M  V30 3356 H 307.943 1.52528 0.542833 0
M  V30 3357 H 309.935 1.81435 3.61751 0
M  V30 3358 H 308.505 0.971114 2.97133 0
M  V30 3359 H 307.725 3.31256 2.13689 0
M  V30 3360 H 309.013 4.00411 3.13925 0
M  V30 3361 H 308.411 1.74663 5.38061 0
M  V30 3362 H 306.968 2.37453 6.07009 0
M  V30 3363 N 310.401 -0.613514 1.45168 0
M  V30 3364 C 311.812 -1.19539 1.43413 0
M  V30 3365 C 312.163 -1.95558 0.158632 0
M  V30 3366 O 311.288 -2.0335 -0.740119 0
M  V30 3367 C 311.883 -2.17445 2.59813 0
M  V30 3368 C 310.442 -2.71022 2.61197 0
M  V30 3369 C 309.589 -1.46323 2.35552 0
M  V30 3370 H 312.54 -0.403163 1.53494 0
M  V30 3371 H 312.561 -3.00373 2.33574 0
M  V30 3372 H 312.073 -1.62089 3.52631 0
M  V30 3373 H 310.174 -3.30332 1.7237 0
M  V30 3374 H 310.287 -3.15859 3.60236 0
M  V30 3375 H 308.651 -1.75072 1.84992 0
M  V30 3376 H 309.434 -0.92844 3.30507 0
M  V30 3377 N 311.879 -1.3236 -0.855495 0
M  V30 3378 C 313.104 -1.2601 -1.64731 0
M  V30 3379 C 313.529 0.169068 -1.87339 0
M  V30 3380 O 312.887 1.12016 -1.42556 0
M  V30 3381 C 312.935 -2.02417 -2.98429 0
M  V30 3382 O 312.039 -1.3714 -3.8893 0
M  V30 3383 H 311.38 -0.434325 -0.502253 0
M  V30 3384 H 313.91 -1.74661 -1.06558 0
M  V30 3385 H 313.92 -2.12559 -3.48257 0
M  V30 3386 H 312.595 -3.06343 -2.81295 0
M  V30 3387 H 311.172 -1.3554 -3.47395 0
M  V30 3388 N 313.357 1.07166 -1.15556 0
M  V30 3389 C 314.634 1.76546 -0.842069 0
M  V30 3390 C 315.014 2.00453 0.661939 0
M  V30 3391 O 314.362 1.62452 1.60691 0
M  V30 3392 C 314.572 3.07266 -1.65495 0
M  V30 3393 C 315.92 3.81578 -1.86234 0
M  V30 3394 O 316.944 3.17083 -1.62287 0
M  V30 3395 O 315.803 4.97419 -2.26355 0
M  V30 3396 H 312.897 0.766756 -0.309862 0
M  V30 3397 H 315.443 1.13514 -1.26145 0
M  V30 3398 H 314.215 2.85494 -2.67598 0
M  V30 3399 H 313.838 3.7803 -1.23203 0
M  V30 3400 N 314.835 0.952656 1.25548 0
M  V30 3401 C 316.06 0.623025 1.97821 0
M  V30 3402 C 316.485 -0.7976 1.70352 0
M  V30 3403 O 315.843 -1.53905 0.958283 0
M  V30 3404 C 315.891 0.885532 3.49558 0
M  V30 3405 O 314.995 -0.0366641 4.12384 0
M  V30 3406 H 314.336 0.237082 0.620232 0
M  V30 3407 H 316.866 1.27871 1.59719 0
M  V30 3408 H 316.876 0.811009 3.99858 0
M  V30 3409 H 315.551 1.92094 3.6888 0
M  V30 3410 H 314.128 0.0898954 3.72792 0
M  V30 3411 N 316.313 -1.40141 0.720998 0
M  V30 3412 C 317.553 -2.02644 0.267335 0
M  V30 3413 C 317.917 -1.55948 -1.12001 0
M  V30 3414 O 319.118 -2.10552 -1.67097 0
M  V30 3415 C 317.389 -3.55679 0.350281 0
M  V30 3416 S 318.948 -4.38793 -0.0256004 0
M  V30 3417 H 315.766 -0.703105 0.105664 0
M  V30 3418 H 318.368 -1.71175 0.944416 0
M  V30 3419 H 317.072 -3.87157 1.36153 0
M  V30 3420 H 316.603 -3.91883 -0.345096 0
M  V30 3421 H 318.618 -4.803 -1.24604 0
M  V30 3422 N 317.792 -0.46758 -1.50504 0
M  V30 3423 C 318.724 0.364655 -2.26281 0
M  V30 3424 C 319.737 0.960151 -1.31472 0
M  V30 3425 O 320.926 0.849153 -1.57008 0
M  V30 3426 C 318.026 1.52509 -3.02645 0
M  V30 3427 C 317.199 1.04302 -4.24782 0
M  V30 3428 C 316.258 2.07709 -4.8347 0
M  V30 3429 O 315.284 1.65913 -5.44483 0
M  V30 3430 N 316.486 3.40485 -4.70159 0
M  V30 3431 H 319.251 -0.28495 -2.98342 0
M  V30 3432 H 316.812 -0.298163 -1.59131 0
M  V30 3433 H 318.804 2.21371 -3.38787 0
M  V30 3434 H 317.374 2.07945 -2.33404 0
M  V30 3435 H 316.594 0.180393 -3.93787 0
M  V30 3436 H 317.882 0.698798 -5.03978 0
M  V30 3437 H 317.28 3.77155 -4.21629 0
M  V30 3438 H 315.837 4.05156 -5.1058 0
M  V30 3439 N 319.27 1.56325 -0.20005 0
M  V30 3440 C 320.18 2.22931 0.730668 0
M  V30 3441 C 321.196 1.22997 1.23076 0
M  V30 3442 O 322.372 1.55748 1.27689 0
M  V30 3443 C 319.437 2.87948 1.93098 0
M  V30 3444 C 318.498 4.03166 1.47497 0
M  V30 3445 C 317.731 4.65073 2.61807 0
M  V30 3446 O 317.954 4.25913 3.79413 0
M  V30 3447 O 316.888 5.54452 2.34237 0
M  V30 3448 H 320.714 3.03084 0.193391 0
M  V30 3449 H 318.299 1.49371 0.0294621 0
M  V30 3450 H 320.181 3.29063 2.6324 0
M  V30 3451 H 318.856 2.10771 2.45677 0
M  V30 3452 H 317.763 3.66664 0.742201 0
M  V30 3453 H 319.096 4.82022 0.995796 0
M  V30 3454 N 320.748 -0.0735177 1.57428 0
M  V30 3455 C 321.978 -0.78483 1.91112 0
M  V30 3456 C 322.386 -1.71729 0.7941 0
M  V30 3457 O 321.729 -1.82105 -0.241542 0
M  V30 3458 C 321.791 -1.63346 3.20247 0
M  V30 3459 C 321.455 -0.870557 4.48632 0
M  V30 3460 C 322.452 -0.19058 5.19551 0
M  V30 3461 C 320.137 -0.838242 4.95256 0
M  V30 3462 C 322.131 0.511503 6.35344 0
M  V30 3463 C 319.818 -0.132386 6.10957 0
M  V30 3464 C 320.816 0.541288 6.80852 0
M  V30 3465 O 320.504 1.23578 7.94345 0
M  V30 3466 H 320.236 -0.228408 0.636244 0
M  V30 3467 H 322.79 -0.0486039 2.05342 0
M  V30 3468 H 321.02 -2.41245 3.02222 0
M  V30 3469 H 322.709 -2.22329 3.39595 0
M  V30 3470 H 323.475 -0.206864 4.84559 0
M  V30 3471 H 319.354 -1.35206 4.40727 0
M  V30 3472 H 322.898 1.03789 6.89836 0
M  V30 3473 H 318.795 -0.114023 6.45399 0
M  V30 3474 H 319.563 1.14487 8.10454 0
M  V30 3475 N 322.226 -1.5378 -0.344866 0
M  V30 3476 C 323.451 -1.75211 -1.10977 0
M  V30 3477 C 323.876 -0.48936 -1.81623 0
M  V30 3478 O 323.234 0.557925 -1.72502 0
M  V30 3479 C 323.282 -2.93147 -2.09993 0
M  V30 3480 O 322.386 -2.63203 -3.17487 0
M  V30 3481 H 321.727 -0.581241 -0.321021 0
M  V30 3482 H 324.257 -2.00738 -0.395661 0
M  V30 3483 H 324.267 -3.19898 -2.53237 0
M  V30 3484 H 322.942 -3.84731 -1.5797 0
M  V30 3485 H 321.519 -2.47336 -2.79069 0
M  V30 3486 N 323.704 0.605807 -1.45491 0
M  V30 3487 C 324.981 1.36522 -1.40075 0
M  V30 3488 C 325.361 2.10976 -0.0722744 0
M  V30 3489 O 324.709 2.08007 0.945808 0
M  V30 3490 C 324.919 2.31056 -2.61561 0
M  V30 3491 C 326.267 2.93608 -3.06724 0
M  V30 3492 O 327.291 2.41376 -2.61946 0
M  V30 3493 O 326.15 3.88421 -3.84437 0
M  V30 3494 H 323.244 0.612248 -0.555951 0
M  V30 3495 H 325.79 0.628747 -1.57623 0
M  V30 3496 H 324.562 1.75311 -3.49831 0
M  V30 3497 H 324.185 3.12081 -2.46356 0
M  V30 3498 N 325.182 1.32811 0.848464 0
M  V30 3499 C 326.428 1.24917 1.60522 0
M  V30 3500 C 326.783 -0.185761 1.91501 0
M  V30 3501 O 326.076 -1.12524 1.55077 0
M  V30 3502 C 326.27 2.04831 2.92881 0
M  V30 3503 C 326.099 3.55949 2.74828 0
M  V30 3504 C 324.869 4.25277 2.72887 0
M  V30 3505 C 327.067 4.50476 2.48145 0
M  V30 3506 N 325.049 5.62408 2.46111 0
M  V30 3507 C 326.42 5.75427 2.30832 0
M  V30 3508 C 328.475 4.39665 2.33664 0
M  V30 3509 C 327.178 6.90789 2.00508 0
M  V30 3510 C 329.204 5.54833 2.04731 0
M  V30 3511 C 328.566 6.78787 1.88223 0
M  V30 3512 H 324.665 0.512279 0.590842 0
M  V30 3513 H 327.249 1.67246 0.996839 0
M  V30 3514 H 325.42 1.64837 3.51686 0
M  V30 3515 H 327.152 1.88782 3.57971 0
M  V30 3516 H 323.907 3.77456 2.86049 0
M  V30 3517 H 324.331 6.3467 2.35634 0
M  V30 3518 H 328.973 3.44477 2.45144 0
M  V30 3519 H 326.691 7.85984 1.87765 0
M  V30 3520 H 330.277 5.48398 1.94295 0
M  V30 3521 H 329.157 7.66396 1.66155 0
M  V30 3522 N 326.66 -1.06551 1.16123 0
M  V30 3523 C 327.607 -2.13961 0.865414 0
M  V30 3524 C 328.577 -1.65066 -0.185055 0
M  V30 3525 O 329.762 -1.90732 -0.05083 0
M  V30 3526 C 326.902 -3.43113 0.369776 0
M  V30 3527 C 326.015 -4.05756 1.48276 0
M  V30 3528 C 325.15 -5.22773 0.942414 0
M  V30 3529 C 324.189 -5.77395 2.03179 0
M  V30 3530 N 323.326 -6.85731 1.50721 0
M  V30 3531 H 328.166 -2.38605 1.78527 0
M  V30 3532 H 325.703 -1.17072 0.890646 0
M  V30 3533 H 327.661 -4.17151 0.0640643 0
M  V30 3534 H 326.291 -3.18695 -0.513143 0
M  V30 3535 H 325.343 -3.29292 1.9045 0
M  V30 3536 H 326.655 -4.42351 2.30493 0
M  V30 3537 H 325.809 -6.03827 0.589729 0
M  V30 3538 H 324.548 -4.87618 0.0895191 0
M  V30 3539 H 323.553 -4.94981 2.3932 0
M  V30 3540 H 324.778 -6.14603 2.8886 0
M  V30 3541 H 322.724 -6.52499 0.676811 0
M  V30 3542 H 322.641 -7.21254 2.26557 0
M  V30 3543 H 323.909 -7.7047 1.18303 0
M  V30 3544 N 328.138 -0.959301 -1.25041 0
M  V30 3545 C 329.048 -0.489994 -2.29426 0
M  V30 3546 C 330.064 0.444944 -1.68215 0
M  V30 3547 O 331.24 0.320046 -1.98841 0
M  V30 3548 C 328.305 0.220309 -3.45999 0
M  V30 3549 C 327.366 -0.753418 -4.22637 0
M  V30 3550 C 326.599 -0.076918 -5.33645 0
M  V30 3551 O 326.822 1.13649 -5.58963 0
M  V30 3552 O 325.756 -0.764824 -5.97021 0
M  V30 3553 H 329.582 -1.35755 -2.71669 0
M  V30 3554 H 327.167 -0.725961 -1.30576 0
M  V30 3555 H 329.049 0.619677 -4.16819 0
M  V30 3556 H 327.724 1.06296 -3.0575 0
M  V30 3557 H 326.631 -1.20308 -3.54227 0
M  V30 3558 H 327.964 -1.56423 -4.66683 0
M  V30 3559 N 329.616 1.39756 -0.72842 0
M  V30 3560 C 330.563 2.30647 -0.0841519 0
M  V30 3561 C 331.533 1.48869 0.7367 0
M  V30 3562 O 332.718 1.77574 0.698015 0
M  V30 3563 C 329.858 3.35165 0.822091 0
M  V30 3564 C 328.971 4.31999 -0.0106663 0
M  V30 3565 C 328.106 5.23585 0.896241 0
M  V30 3566 C 327.145 6.12072 0.0583381 0
M  V30 3567 N 326.282 6.96035 0.920818 0
M  V30 3568 H 331.122 2.85173 -0.864891 0
M  V30 3569 H 328.659 1.40422 -0.438179 0
M  V30 3570 H 330.617 3.94345 1.36189 0
M  V30 3571 H 329.247 2.8211 1.56888 0
M  V30 3572 H 328.299 3.74492 -0.66781 0
M  V30 3573 H 329.611 4.9443 -0.658825 0
M  V30 3574 H 328.765 5.87759 1.50412 0
M  V30 3575 H 327.504 4.61459 1.57819 0
M  V30 3576 H 326.509 5.46916 -0.562389 0
M  V30 3577 H 327.734 6.76261 -0.6203 0
M  V30 3578 H 325.68 6.36485 1.58818 0
M  V30 3579 H 325.597 7.55284 0.32899 0
M  V30 3580 H 326.865 7.64646 1.51447 0
M  V30 3581 N 331.094 0.475555 1.50254 0
M  V30 3582 C 332.041 -0.316293 2.28622 0
M  V30 3583 C 333.011 -0.983227 1.33873 0
M  V30 3584 O 334.196 -0.994805 1.62814 0
M  V30 3585 C 331.336 -1.38975 3.1588 0
M  V30 3586 C 330.449 -0.737146 4.25664 0
M  V30 3587 C 329.584 -1.78887 5.00173 0
M  V30 3588 C 328.623 -1.11676 6.01826 0
M  V30 3589 N 327.76 -2.11154 6.69596 0
M  V30 3590 H 332.6 0.358297 2.95838 0
M  V30 3591 H 330.137 0.188541 1.45887 0
M  V30 3592 H 332.095 -2.02383 3.64825 0
M  V30 3593 H 330.725 -2.03344 2.50701 0
M  V30 3594 H 329.777 0.0096065 3.80399 0
M  V30 3595 H 331.089 -0.206816 4.98371 0
M  V30 3596 H 330.243 -2.49865 5.52859 0
M  V30 3597 H 328.982 -2.35302 4.27182 0
M  V30 3598 H 327.987 -0.392633 5.48396 0
M  V30 3599 H 329.212 -0.55945 6.76792 0
M  V30 3600 H 327.158 -2.66577 5.99394 0
M  V30 3601 H 327.075 -1.63118 7.38193 0
M  V30 3602 H 328.343 -2.81497 7.26897 0
M  V30 3603 N 332.573 -1.56217 0.208337 0
M  V30 3604 C 333.801 -2.02337 -0.43215 0
M  V30 3605 C 334.216 -1.08834 -1.54275 0
M  V30 3606 O 333.573 -0.0955462 -1.8225 0
M  V30 3607 C 333.624 -3.48072 -0.976138 0
M  V30 3608 O 333.345 -4.38007 0.0901621 0
M  V30 3609 C 334.846 -4.09773 -1.69119 0
M  V30 3610 H 332.066 -0.662385 -0.10718 0
M  V30 3611 H 334.61 -2.01966 0.320923 0
M  V30 3612 H 332.765 -3.49099 -1.67954 0
M  V30 3613 H 333.179 -5.23543 -0.316701 0
M  V30 3614 H 334.653 -5.13556 -2.02397 0
M  V30 3615 H 335.13 -3.53999 -2.59964 0
M  V30 3616 H 335.736 -4.12556 -1.03332 0
M  V30 3617 N 334.051 0.0651679 -1.57465 0
M  V30 3618 C 335.281 0.774683 -1.91526 0
M  V30 3619 C 335.689 1.71305 -0.803196 0
M  V30 3620 O 335.032 1.82231 0.231881 0
M  V30 3621 C 335.094 1.61645 -3.21109 0
M  V30 3622 C 334.758 0.846753 -4.49087 0
M  V30 3623 C 335.755 0.163024 -5.19644 0
M  V30 3624 C 333.44 0.811966 -4.95694 0
M  V30 3625 C 335.434 -0.54519 -6.35064 0
M  V30 3626 C 333.121 0.0999836 -6.11018 0
M  V30 3627 C 334.119 -0.577388 -6.80555 0
M  V30 3628 O 333.807 -1.27789 -7.93678 0
M  V30 3629 H 333.539 0.225031 -0.637446 0
M  V30 3630 H 336.093 0.0377134 -2.05365 0
M  V30 3631 H 334.323 2.39638 -3.03497 0
M  V30 3632 H 336.012 2.20525 -3.40769 0
M  V30 3633 H 336.778 0.181163 -4.84662 0
M  V30 3634 H 332.657 1.32867 -4.41438 0
M  V30 3635 H 336.201 -1.07446 -6.89276 0
M  V30 3636 H 332.098 0.0797945 -6.45451 0
M  V30 3637 H 332.866 -1.18784 -8.09835 0
M  V30 3638 N 335.529 1.53961 0.336706 0
M  V30 3639 C 336.459 1.85417 1.41925 0
M  V30 3640 C 337.44 0.709856 1.5458 0
M  V30 3641 O 338.625 0.962396 1.68676 0
M  V30 3642 C 335.755 2.06985 2.78881 0
M  V30 3643 C 334.709 3.22813 2.81026 0
M  V30 3644 C 334.035 3.29727 4.20932 0
M  V30 3645 C 335.335 4.60767 2.45949 0
M  V30 3646 H 337.029 2.76079 1.15848 0
M  V30 3647 H 334.575 1.32839 0.555859 0
M  V30 3648 H 336.528 2.27575 3.54665 0
M  V30 3649 H 335.252 1.13061 3.06406 0
M  V30 3650 H 333.911 3.0209 2.07695 0
M  V30 3651 H 333.559 2.33385 4.45579 0
M  V30 3652 H 333.259 4.07566 4.23277 0
M  V30 3653 H 334.783 3.52536 4.98549 0
M  V30 3654 H 336.197 4.81325 3.11446 0
M  V30 3655 H 334.594 5.4106 2.59566 0
M  V30 3656 H 335.664 4.6391 1.41122 0
M  V30 3657 N 337.007 -0.598083 1.45811 0
M  V30 3658 C 337.955 -1.72932 1.55555 0
M  V30 3659 C 338.949 -1.63984 0.424921 0
M  V30 3660 O 340.155 -1.69663 0.601205 0
M  V30 3661 H 336.53 -0.571489 0.488779 0
M  V30 3662 H 338.501 -1.61842 2.50699 0
M  V30 3663 C 337.25 -3.11318 1.54843 0
M  V30 3664 H 336.573 -3.18867 2.41172 0
M  V30 3665 H 338.013 -3.90274 1.65717 0
M  V30 3666 C 336.472 -3.3578 0.274427 0
M  V30 3667 O 337.002 -3.9654 -0.641778 0
M  V30 3668 N 335.208 -2.90119 0.167139 0
M  V30 3669 H 334.755 -2.40855 0.913596 0
M  V30 3670 H 334.713 -3.0686 -0.684435 0
M  V30 3671 N 338.485 -1.33259 -0.841409 0
M  V30 3672 C 339.896 -1.22066 -1.41269 0
M  V30 3673 C 340.247 0.161479 -1.95534 0
M  V30 3674 O 339.372 1.06094 -1.88608 0
M  V30 3675 C 339.967 -2.20996 -2.568 0
M  V30 3676 C 338.526 -2.13649 -3.09888 0
M  V30 3677 C 337.673 -2.08623 -1.82679 0
M  V30 3678 H 340.624 -1.44895 -0.647395 0
M  V30 3679 H 340.645 -1.81621 -3.34356 0
M  V30 3680 H 340.157 -3.2158 -2.17274 0
M  V30 3681 H 338.258 -1.16359 -3.53965 0
M  V30 3682 H 338.371 -3.04079 -3.70234 0
M  V30 3683 H 336.735 -1.54061 -2.02824 0
M  V30 3684 H 337.518 -3.1101 -1.45353 0
M  V30 3685 N 339.963 1.05934 -1.16686 0
M  V30 3686 C 341.209 1.79211 -0.962023 0
M  V30 3687 C 341.564 1.85667 0.504545 0
M  V30 3688 O 340.857 1.33991 1.36956 0
M  V30 3689 C 341.051 3.23105 -1.52767 0
M  V30 3690 C 340.88 3.30673 -3.04771 0
M  V30 3691 C 339.65 3.40395 -3.73442 0
M  V30 3692 C 341.848 3.20234 -4.02436 0
M  V30 3693 N 339.83 3.37015 -5.13122 0
M  V30 3694 C 341.201 3.24138 -5.28521 0
M  V30 3695 C 343.256 3.04143 -3.9421 0
M  V30 3696 C 341.959 3.13607 -6.47336 0
M  V30 3697 C 343.985 2.94951 -5.12599 0
M  V30 3698 C 343.347 2.99481 -6.37566 0
M  V30 3699 H 339.446 0.668442 -0.405844 0
M  V30 3700 H 342.03 1.26341 -1.48142 0
M  V30 3701 H 340.201 3.74364 -1.03471 0
M  V30 3702 H 341.933 3.84579 -1.26021 0
M  V30 3703 H 338.688 3.45344 -3.2409 0
M  V30 3704 H 339.112 3.38815 -5.86117 0
M  V30 3705 H 343.754 2.99484 -2.98445 0
M  V30 3706 H 341.472 3.17022 -7.43319 0
M  V30 3707 H 345.058 2.83583 -5.08008 0
M  V30 3708 H 343.938 2.92431 -7.27636 0
M  V30 3709 N 341.441 0.965919 1.2453 0
M  V30 3710 C 342.388 0.49402 2.25451 0
M  V30 3711 C 343.358 -0.45948 1.59618 0
M  V30 3712 O 344.543 -0.370238 1.87173 0
M  V30 3713 C 341.683 -0.211359 3.44452 0
M  V30 3714 C 340.796 0.7807 4.24887 0
M  V30 3715 C 339.931 0.0516105 5.31175 0
M  V30 3716 C 338.97 1.03385 6.03306 0
M  V30 3717 N 338.107 0.334887 7.01301 0
M  V30 3718 H 342.947 1.35946 2.65184 0
M  V30 3719 H 340.484 0.681515 1.3036 0
M  V30 3720 H 342.442 -0.637 4.12308 0
M  V30 3721 H 341.072 -1.04077 3.05562 0
M  V30 3722 H 340.124 1.32479 3.56586 0
M  V30 3723 H 341.436 1.52978 4.74762 0
M  V30 3724 H 340.59 -0.432114 6.05159 0
M  V30 3725 H 339.329 -0.730179 4.82203 0
M  V30 3726 H 338.334 1.52847 5.28127 0
M  V30 3727 H 339.559 1.81606 6.54367 0
M  V30 3728 H 337.505 -0.427959 6.54603 0
M  V30 3729 H 337.422 1.02287 7.49048 0
M  V30 3730 H 338.69 -0.126928 7.79397 0
M  V30 3731 N 342.919 -1.39368 0.735821 0
M  V30 3732 C 343.866 -2.30599 0.0963825 0
M  V30 3733 C 344.836 -1.49257 -0.728794 0
M  V30 3734 O 346.021 -1.77941 -0.688588 0
M  V30 3735 C 343.161 -3.35596 -0.804305 0
M  V30 3736 C 342.274 -4.31987 0.0335761 0
M  V30 3737 C 341.409 -5.24053 -0.868461 0
M  V30 3738 C 340.448 -6.12095 -0.0258776 0
M  V30 3739 N 339.585 -6.96514 -0.883893 0
M  V30 3740 H 344.425 -2.8471 0.880002 0
M  V30 3741 H 341.962 -1.40188 0.445619 0
M  V30 3742 H 343.92 -3.95062 -1.34096 0
M  V30 3743 H 342.55 -2.82938 -1.55389 0
M  V30 3744 H 341.602 -3.74133 0.68766 0
M  V30 3745 H 342.914 -4.94074 0.685036 0
M  V30 3746 H 342.068 -5.88549 -1.47293 0
M  V30 3747 H 340.807 -4.62289 -1.5537 0
M  V30 3748 H 339.812 -5.4661 0.591386 0
M  V30 3749 H 341.037 -6.75923 0.656156 0
M  V30 3750 H 338.983 -6.37318 -1.55441 0
M  V30 3751 H 338.9 -7.55448 -0.288931 0
M  V30 3752 H 340.168 -7.65439 -1.4739 0
M  V30 3753 N 344.397 -0.483516 -1.5 0
M  V30 3754 C 345.646 0.0689102 -2.01582 0
M  V30 3755 C 345.959 1.39655 -1.36952 0
M  V30 3756 O 347.165 2.03465 -1.79762 0
M  V30 3757 C 345.621 0.173302 -3.59483 0
M  V30 3758 C 345.229 -1.14665 -4.33077 0
M  V30 3759 C 346.973 0.677024 -4.19066 0
M  V30 3760 C 344.88 -1.00537 -5.82792 0
M  V30 3761 H 343.81 0.0295277 -0.753422 0
M  V30 3762 H 346.461 -0.620295 -1.72698 0
M  V30 3763 H 344.843 0.926569 -3.85007 0
M  V30 3764 H 346.017 -1.91184 -4.19268 0
M  V30 3765 H 344.332 -1.58244 -3.85159 0
M  V30 3766 H 346.929 0.799952 -5.28682 0
M  V30 3767 H 347.272 1.67151 -3.81269 0
M  V30 3768 H 347.805 -0.0192083 -3.97795 0
M  V30 3769 H 344.544 -1.9736 -6.25083 0
M  V30 3770 H 344.064 -0.280776 -5.99142 0
M  V30 3771 H 345.743 -0.677 -6.43448 0
M  V30 3772 N 345.875 1.56104 -0.216619 0
M  V30 3773 C 347.152 1.89988 0.465165 0
M  V30 3774 C 347.532 1.13326 1.78102 0
M  V30 3775 O 346.88 0.241033 2.27225 0
M  V30 3776 C 347.09 3.42646 0.662939 0
M  V30 3777 C 348.438 4.13311 0.972602 0
M  V30 3778 O 349.462 3.48217 0.749901 0
M  V30 3779 O 348.321 5.28396 1.39499 0
M  V30 3780 H 345.415 0.78979 0.245276 0
M  V30 3781 H 347.961 1.67721 -0.258436 0
M  V30 3782 H 346.733 3.90399 -0.26543 0
M  V30 3783 H 346.356 3.70677 1.43821 0
M  V30 3784 N 347.353 -0.0568162 1.57498 0
M  V30 3785 C 348.578 -0.769402 1.92601 0
M  V30 3786 C 349.003 -1.69559 0.814336 0
M  V30 3787 O 348.361 -1.79811 -0.231903 0
M  V30 3788 C 348.409 -1.52634 3.26704 0
M  V30 3789 O 347.513 -2.63797 3.16994 0
M  V30 3790 H 346.854 -0.208909 0.63028 0
M  V30 3791 H 349.384 -0.0205798 2.0459 0
M  V30 3792 H 349.394 -1.90234 3.60936 0
M  V30 3793 H 348.069 -0.846875 4.07186 0
M  V30 3794 H 346.646 -2.28943 2.94346 0
M  V30 3795 N 348.832 -1.54138 -0.328536 0
M  V30 3796 C 349.795 -1.82462 -1.38709 0
M  V30 3797 C 350.795 -0.696229 -1.44946 0
M  V30 3798 O 351.985 -0.964535 -1.4506 0
M  V30 3799 C 349.117 -1.98018 -2.77492 0
M  V30 3800 H 350.31 -2.77037 -1.14851 0
M  V30 3801 H 347.863 -1.45779 -0.563751 0
M  V30 3802 H 348.598 -1.05637 -3.06613 0
M  V30 3803 H 348.383 -2.80124 -2.74359 0
M  V30 3804 H 349.873 -2.21396 -3.54081 0
M  V30 3805 N 350.31 0.590341 -1.46126 0
M  V30 3806 C 351.721 1.17243 -1.45296 0
M  V30 3807 C 352.072 1.95281 -0.189723 0
M  V30 3808 O 351.197 2.04502 0.707674 0
M  V30 3809 C 351.792 2.13284 -2.6324 0
M  V30 3810 C 350.351 2.66832 -2.65476 0
M  V30 3811 C 349.498 1.42557 -2.3785 0
M  V30 3812 H 352.449 0.378692 -1.54116 0
M  V30 3813 H 352.47 2.96619 -2.38323 0
M  V30 3814 H 351.982 1.56459 -3.55165 0
M  V30 3815 H 350.083 3.27548 -1.77603 0
M  V30 3816 H 350.196 3.10088 -3.65215 0
M  V30 3817 H 348.56 1.72107 -1.87753 0
M  V30 3818 H 349.343 0.875741 -3.31942 0
M  V30 3819 N 351.788 1.33704 0.83433 0
M  V30 3820 C 352.718 1.26967 1.95963 0
M  V30 3821 C 353.699 0.149337 1.69443 0
M  V30 3822 O 354.884 0.339852 1.91203 0
M  V30 3823 C 352.014 1.01275 3.32206 0
M  V30 3824 C 350.968 2.09652 3.73136 0
M  V30 3825 C 350.294 1.69166 5.07235 0
M  V30 3826 C 351.594 3.51372 3.86439 0
M  V30 3827 H 353.288 2.2112 2.01857 0
M  V30 3828 H 350.834 1.06447 0.969793 0
M  V30 3829 H 352.787 0.952106 4.10503 0
M  V30 3830 H 351.511 0.0356203 3.26581 0
M  V30 3831 H 350.17 2.14766 2.97104 0
M  V30 3832 H 349.818 0.701437 4.98085 0
M  V30 3833 H 349.518 2.41694 5.35591 0
M  V30 3834 H 351.042 1.64576 5.88003 0
M  V30 3835 H 352.456 3.48734 4.55036 0
M  V30 3836 H 350.853 4.22425 4.26236 0
M  V30 3837 H 351.923 3.89546 2.88759 0
M  V30 3838 N 353.266 -1.05314 1.17247 0
M  V30 3839 C 354.229 -2.112 0.890357 0
M  V30 3840 C 355.229 -1.60359 -0.118943 0
M  V30 3841 O 356.419 -1.73833 0.113086 0
M  V30 3842 C 353.551 -3.39266 0.333422 0
M  V30 3843 H 354.744 -2.37659 1.82916 0
M  V30 3844 H 352.297 -1.21538 0.982758 0
M  V30 3845 H 353.032 -3.18462 -0.612587 0
M  V30 3846 H 352.817 -3.77477 1.06082 0
M  V30 3847 H 354.307 -4.17315 0.154322 0
M  V30 3848 N 354.744 -0.972509 -1.24016 0
M  V30 3849 C 355.674 -0.525548 -2.27509 0
M  V30 3850 C 356.655 0.437262 -1.64384 0
M  V30 3851 O 357.84 0.332343 -1.91335 0
M  V30 3852 C 354.97 0.180448 -3.46831 0
M  V30 3853 C 353.924 -0.698859 -4.22256 0
M  V30 3854 C 353.25 0.138903 -5.3452 0
M  V30 3855 C 354.55 -1.98582 -4.83076 0
M  V30 3856 H 356.244 -1.39058 -2.65148 0
M  V30 3857 H 353.79 -0.67009 -1.27459 0
M  V30 3858 H 355.743 0.504387 -4.18371 0
M  V30 3859 H 354.467 1.07987 -3.08231 0
M  V30 3860 H 353.126 -1.00614 -3.52523 0
M  V30 3861 H 352.774 1.03862 -4.9216 0
M  V30 3862 H 352.474 -0.446259 -5.85903 0
M  V30 3863 H 353.998 0.457404 -6.08884 0
M  V30 3864 H 355.412 -1.72715 -5.46665 0
M  V30 3865 H 353.809 -2.5181 -5.44713 0
M  V30 3866 H 354.879 -2.67769 -4.04262 0
M  V30 3867 N 356.222 1.38976 -0.743202 0
M  V30 3868 C 357.152 2.33171 -0.123873 0
M  V30 3869 C 358.133 1.54336 0.71516 0
M  V30 3870 O 359.318 1.82696 0.658467 0
M  V30 3871 C 356.448 3.38474 0.777978 0
M  V30 3872 C 355.402 4.27979 0.0424758 0
M  V30 3873 C 354.728 5.2405 1.06189 0
M  V30 3874 C 356.028 5.10155 -1.1198 0
M  V30 3875 H 357.722 2.85213 -0.910709 0
M  V30 3876 H 355.268 1.37133 -0.439388 0
M  V30 3877 H 357.221 4.03328 1.22084 0
M  V30 3878 H 355.945 2.84891 1.59702 0
M  V30 3879 H 354.604 3.64616 -0.380853 0
M  V30 3880 H 354.252 4.66758 1.87472 0
M  V30 3881 H 353.952 5.84785 0.574485 0
M  V30 3882 H 355.476 5.9178 1.50428 0
M  V30 3883 H 356.89 5.68307 -0.75499 0
M  V30 3884 H 355.287 5.80073 -1.53738 0
M  V30 3885 H 356.357 4.44504 -1.93764 0
M  V30 3886 N 357.7 0.491464 1.49741 0
M  V30 3887 C 358.65 -0.311086 2.25868 0
M  V30 3888 C 359.634 -0.943857 1.30308 0
M  V30 3889 O 360.826 -0.853035 1.55088 0
M  V30 3890 C 357.955 -1.38059 3.14316 0
M  V30 3891 C 357.041 -0.754541 4.17334 0
M  V30 3892 N 357.432 0.137216 5.05614 0
M  V30 3893 C 355.73 -1.01621 4.34269 0
M  V30 3894 C 356.431 0.494614 5.79593 0
M  V30 3895 N 355.407 -0.135169 5.43432 0
M  V30 3896 H 359.209 0.37555 2.91491 0
M  V30 3897 H 356.723 0.306917 1.59473 0
M  V30 3898 H 358.72 -1.96891 3.67477 0
M  V30 3899 H 357.38 -2.06901 2.50244 0
M  V30 3900 H 358.391 0.50741 5.15408 0
M  V30 3901 H 355.068 -1.69808 3.81407 0
M  V30 3902 H 356.458 1.2236 6.60665 0
M  V30 3903 N 359.178 -1.55987 0.224894 0
M  V30 3904 C 360.125 -2.20436 -0.68385 0
M  V30 3905 C 361.095 -1.16102 -1.18783 0
M  V30 3906 O 362.28 -1.4447 -1.24632 0
M  V30 3907 C 359.42 -2.89076 -1.88491 0
M  V30 3908 C 358.533 -4.08012 -1.41951 0
M  V30 3909 C 357.668 -4.64426 -2.5784 0
M  V30 3910 C 356.707 -5.75656 -2.08053 0
M  V30 3911 N 355.844 -6.26347 -3.17227 0
M  V30 3912 H 360.684 -2.97727 -0.12754 0
M  V30 3913 H 358.221 -1.47011 -0.0511978 0
M  V30 3914 H 360.179 -3.27059 -2.59014 0
M  V30 3915 H 358.809 -2.14298 -2.41405 0
M  V30 3916 H 357.861 -3.75492 -0.609095 0
M  V30 3917 H 359.173 -4.88375 -1.01447 0
M  V30 3918 H 358.327 -5.04869 -3.3644 0
M  V30 3919 H 357.066 -3.83233 -3.01635 0
M  V30 3920 H 356.071 -5.34712 -1.27916 0
M  V30 3921 H 357.296 -6.58686 -1.65255 0
M  V30 3922 H 355.242 -5.48067 -3.60497 0
M  V30 3923 H 355.159 -7.01843 -2.80986 0
M  V30 3924 H 356.427 -6.71447 -3.95953 0
M  V30 3925 N 360.656 0.0484629 -1.57525 0
M  V30 3926 C 361.905 0.742065 -1.87553 0
M  V30 3927 C 362.218 1.77545 -0.820802 0
M  V30 3928 O 363.424 2.52027 -1.00967 0
M  V30 3929 C 361.88 1.37081 -3.32771 0
M  V30 3930 C 361.488 0.374786 -4.4643 0
M  V30 3931 C 363.232 2.04542 -3.71972 0
M  V30 3932 C 361.139 1.01077 -5.82698 0
M  V30 3933 H 360.069 0.280903 -0.699721 0
M  V30 3934 H 362.72 -0.00411877 -1.835 0
M  V30 3935 H 361.102 2.16605 -3.31509 0
M  V30 3936 H 362.276 -0.392331 -4.59127 0
M  V30 3937 H 360.591 -0.196653 -4.15935 0
M  V30 3938 H 363.188 2.52943 -4.71088 0
M  V30 3939 H 363.531 2.85515 -3.02964 0
M  V30 3940 H 364.064 1.31819 -3.75325 0
M  V30 3941 H 360.803 0.240878 -6.55057 0
M  V30 3942 H 360.323 1.74819 -5.73758 0
M  V30 3943 H 362.002 1.52383 -6.28799 0
M  V30 3944 N 362.134 1.5431 0.320358 0
M  V30 3945 C 363.064 1.86912 1.3995 0
M  V30 3946 C 364.045 0.726211 1.53819 0
M  V30 3947 O 365.23 0.980233 1.67646 0
M  V30 3948 C 362.36 2.09932 2.7667 0
M  V30 3949 C 361.314 3.25776 2.77586 0
M  V30 3950 C 360.64 3.34173 4.17412 0
M  V30 3951 C 361.94 4.6335 2.41048 0
M  V30 3952 H 363.634 2.77292 1.12914 0
M  V30 3953 H 361.18 1.33421 0.541738 0
M  V30 3954 H 363.133 2.31324 3.52232 0
M  V30 3955 H 361.857 1.16304 3.0519 0
M  V30 3956 H 360.516 3.04276 2.04479 0
M  V30 3957 H 360.164 2.38098 4.43078 0
M  V30 3958 H 359.864 4.12033 4.18931 0
M  V30 3959 H 361.388 3.57803 4.94782 0
M  V30 3960 H 362.802 4.84602 3.06324 0
M  V30 3961 H 361.199 5.43782 2.53813 0
M  V30 3962 H 362.269 4.65381 1.36193 0
M  V30 3963 N 363.613 -0.582584 1.46437 0
M  V30 3964 C 364.859 -1.34278 1.51978 0
M  V30 3965 C 365.192 -1.93446 0.170973 0
M  V30 3966 O 364.467 -1.76481 -0.817608 0
M  V30 3967 C 364.75 -2.47203 2.61845 0
M  V30 3968 C 364.603 -1.93069 4.06257 0
M  V30 3969 C 365.922 -3.49247 2.67795 0
M  V30 3970 H 363.041 -0.486876 0.553282 0
M  V30 3971 H 365.683 -0.654437 1.78374 0
M  V30 3972 H 363.833 -3.0592 2.39469 0
M  V30 3973 H 365.505 -1.38808 4.3992 0
M  V30 3974 H 363.748 -1.23898 4.1573 0
M  V30 3975 H 364.419 -2.74586 4.7886 0
M  V30 3976 H 366.895 -3.00411 2.8791 0
M  V30 3977 H 365.771 -4.25719 3.46489 0
M  V30 3978 H 366.032 -4.06482 1.73852 0
M  V30 3979 N 365.091 -1.34144 -0.827227 0
M  V30 3980 C 366.001 -1.27428 -1.96975 0
M  V30 3981 C 367.017 -0.182728 -1.73038 0
M  V30 3982 O 368.193 -0.408426 -1.97215 0
M  V30 3983 C 365.258 -1.02526 -3.31194 0
M  V30 3984 C 364.319 -2.20796 -3.68168 0
M  V30 3985 C 363.552 -1.97073 -4.95982 0
M  V30 3986 O 363.775 -0.926822 -5.6282 0
M  V30 3987 O 362.709 -2.83912 -5.30733 0
M  V30 3988 H 366.535 -2.23537 -2.05584 0
M  V30 3989 H 364.12 -1.14307 -0.961989 0
M  V30 3990 H 366.002 -0.904026 -4.11589 0
M  V30 3991 H 364.677 -0.0945389 -3.23562 0
M  V30 3992 H 363.584 -2.38477 -2.88235 0
M  V30 3993 H 364.917 -3.12243 -3.8048 0
M  V30 3994 N 366.569 1.04691 -1.17803 0
M  V30 3995 C 367.517 2.14665 -0.895635 0
M  V30 3996 C 368.511 1.68806 0.141679 0
M  V30 3997 O 369.717 1.79999 -0.00587914 0
M  V30 3998 H 366.092 0.701038 -0.272121 0
M  V30 3999 H 368.063 2.35685 -1.83017 0
M  V30 4000 C 366.812 3.45019 -0.430962 0
M  V30 4001 H 366.135 3.8071 -1.22064 0
M  V30 4002 H 367.575 4.23125 -0.272301 0
M  V30 4003 C 366.034 3.25943 0.852207 0
M  V30 4004 O 366.564 3.5296 1.91786 0
M  V30 4005 N 364.77 2.79304 0.802346 0
M  V30 4006 H 364.317 2.57518 -0.0650788 0
M  V30 4007 H 364.275 2.66921 1.66134 0
M  V30 4008 N 368.047 0.979072 1.23499 0
M  V30 4009 C 369.458 0.684391 1.73704 0
M  V30 4010 C 369.809 -0.799448 1.79174 0
M  V30 4011 O 368.934 -1.62531 1.42873 0
M  V30 4012 C 369.529 1.23564 3.15464 0
M  V30 4013 C 368.088 0.99063 3.6313 0
M  V30 4014 C 367.235 1.36416 2.41425 0
M  V30 4015 H 370.186 1.15307 1.09041 0
M  V30 4016 H 370.207 0.607417 3.7562 0
M  V30 4017 H 369.719 2.31561 3.1145 0
M  V30 4018 H 367.82 -0.0733136 3.72528 0
M  V30 4019 H 367.933 1.64427 4.5 0
M  V30 4020 H 366.297 0.782616 2.42378 0
M  V30 4021 H 367.08 2.45387 2.40083 0
M  V30 4022 N 369.525 -1.3858 0.750561 0
M  V30 4023 C 370.75 -2.04997 0.314812 0
M  V30 4024 C 371.175 -1.56235 -1.04749 0
M  V30 4025 O 370.533 -0.712981 -1.66692 0
M  V30 4026 C 370.581 -3.58961 0.343415 0
M  V30 4027 O 369.685 -4.07025 -0.663628 0
M  V30 4028 H 369.026 -0.649081 0.139962 0
M  V30 4029 H 371.556 -1.77313 1.02084 0
M  V30 4030 H 371.566 -4.07542 0.193233 0
M  V30 4031 H 370.241 -3.93811 1.33738 0
M  V30 4032 H 368.818 -3.6982 -0.478307 0
M  V30 4033 N 371.003 -0.499398 -1.49478 0
M  V30 4034 C 371.966 0.268838 -2.27618 0
M  V30 4035 C 372.966 0.895383 -1.33565 0
M  V30 4036 O 374.156 0.760164 -1.56739 0
M  V30 4037 C 371.288 1.38559 -3.11471 0
M  V30 4038 H 372.481 -0.416812 -2.96989 0
M  V30 4039 H 370.034 -0.254313 -1.54217 0
M  V30 4040 H 370.769 2.10544 -2.46661 0
M  V30 4041 H 370.554 0.941797 -3.80621 0
M  V30 4042 H 372.044 1.92678 -3.70493 0
M  V30 4043 N 372.481 1.55866 -0.233164 0
M  V30 4044 C 373.897 1.59133 0.121988 0
M  V30 4045 C 374.097 1.25016 1.58029 0
M  V30 4046 O 373.153 0.990922 2.32243 0
M  V30 4047 C 374.466 2.99932 -0.214792 0
M  V30 4048 C 376.014 3.12601 -0.157971 0
M  V30 4049 C 376.489 4.55597 -0.46859 0
M  V30 4050 N 377.98 4.61305 -0.418585 0
M  V30 4051 C 378.715 5.69903 -0.63227 0
M  V30 4052 N 378.211 6.86819 -0.90835 0
M  V30 4053 N 380.004 5.59264 -0.563913 0
M  V30 4054 H 372.155 1.76315 -1.18434 0
M  V30 4055 H 374.418 0.820093 -0.475553 0
M  V30 4056 H 374.124 3.29588 -1.22739 0
M  V30 4057 H 373.998 3.74327 0.464691 0
M  V30 4058 H 376.385 2.82735 0.845283 0
M  V30 4059 H 376.466 2.40511 -0.871102 0
M  V30 4060 H 376.11 4.86182 -1.46934 0
M  V30 4061 H 376.04 5.25928 0.265865 0
M  V30 4062 H 378.531 3.77297 -0.213368 0
M  V30 4063 H 378.844 7.65507 -1.05919 0
M  V30 4064 H 377.189 6.88536 -0.945673 0
M  V30 4065 H 380.38 4.66802 -0.348372 0
M  V30 4066 H 380.553 6.43831 -0.733847 0
M  V30 4067 N 373.959 -0.0401083 1.57549 0
M  V30 4068 C 375.208 -0.732108 1.87944 0
M  V30 4069 C 375.521 -1.77107 0.830206 0
M  V30 4070 O 376.727 -2.51488 1.02302 0
M  V30 4071 C 375.183 -1.35315 3.33494 0
M  V30 4072 C 374.791 -0.351105 4.46622 0
M  V30 4073 C 376.535 -2.02566 3.73051 0
M  V30 4074 C 374.442 -0.979859 5.83226 0
M  V30 4075 H 373.372 -0.277188 0.701201 0
M  V30 4076 H 376.023 0.0138501 1.83495 0
M  V30 4077 H 374.405 -2.14844 3.32653 0
M  V30 4078 H 375.579 0.416674 4.58912 0
M  V30 4079 H 373.894 0.218708 4.15825 0
M  V30 4080 H 376.491 -2.50441 4.72423 0
M  V30 4081 H 376.834 -2.83904 3.04474 0
M  V30 4082 H 377.367 -1.29827 3.76018 0
M  V30 4083 H 374.106 -0.206135 6.55176 0
M  V30 4084 H 373.626 -1.71774 5.74677 0
M  V30 4085 H 375.305 -1.49046 6.29599 0
M  V30 4086 N 375.437 -1.54477 -0.31217 0
M  V30 4087 C 376.665 -1.77205 -1.068 0
M  V30 4088 C 377.08 -0.526114 -1.81321 0
M  V30 4089 O 376.437 0.503647 -1.75413 0
M  V30 4090 C 376.488 -2.97253 -2.05725 0
M  V30 4091 O 376.209 -4.1703 -1.34228 0
M  V30 4092 C 377.71 -3.32281 -2.93435 0
M  V30 4093 H 374.93 -0.591287 -0.317208 0
M  V30 4094 H 377.474 -2.01398 -0.354834 0
M  V30 4095 H 375.629 -2.753 -2.72559 0
M  V30 4096 H 376.043 -4.84636 -2.00571 0
M  V30 4097 H 377.517 -4.19551 -3.58721 0
M  V30 4098 H 377.994 -2.49945 -3.61143 0
M  V30 4099 H 378.6 -3.56353 -2.32147 0
M  V30 4100 N 376.915 0.57481 -1.46744 0
M  V30 4101 C 378.164 1.32898 -1.51727 0
M  V30 4102 C 378.477 1.948 -0.176692 0
M  V30 4103 O 379.683 2.71299 -0.104385 0
M  V30 4104 C 378.139 2.40901 -2.67385 0
M  V30 4105 C 377.747 1.85266 -4.07898 0
M  V30 4106 C 379.491 3.17609 -2.81646 0
M  V30 4107 C 377.398 2.90945 -5.14883 0
M  V30 4108 H 376.328 0.499631 -0.564699 0
M  V30 4109 H 378.979 0.612536 -1.72975 0
M  V30 4110 H 377.361 3.15379 -2.39483 0
M  V30 4111 H 378.535 1.17278 -4.45626 0
M  V30 4112 H 376.85 1.21199 -3.98371 0
M  V30 4113 H 379.447 3.96493 -3.58744 0
M  V30 4114 H 379.79 3.70696 -1.89448 0
M  V30 4115 H 380.323 2.50239 -3.09233 0
M  V30 4116 H 377.062 2.42736 -6.089 0
M  V30 4117 H 376.582 3.57398 -4.81691 0
M  V30 4118 H 378.261 3.54755 -5.41071 0
M  V30 4119 N 378.394 1.34581 0.820102 0
M  V30 4120 C 379.805 1.24298 1.39309 0
M  V30 4121 C 380.156 -0.130351 1.95767 0
M  V30 4122 O 379.281 -1.0308 1.90272 0
M  V30 4123 C 379.876 2.25054 2.53251 0
M  V30 4124 C 378.435 2.18552 3.0645 0
M  V30 4125 C 377.582 2.11503 1.79337 0
M  V30 4126 H 380.533 1.45906 0.624262 0
M  V30 4127 H 380.554 1.86917 3.31425 0
M  V30 4128 H 380.066 3.24996 2.1213 0
M  V30 4129 H 378.167 1.21976 3.52069 0
M  V30 4130 H 378.28 3.0993 3.65349 0
M  V30 4131 H 376.644 1.57268 2.00347 0
M  V30 4132 H 377.427 3.13284 1.40386 0
M  V30 4133 N 379.872 -1.04064 1.18357 0
M  V30 4134 C 381.149 -1.74252 0.888581 0
M  V30 4135 C 381.529 -2.02138 -0.60856 0
M  V30 4136 O 380.877 -1.66656 -1.56327 0
M  V30 4137 C 381.087 -3.0277 1.73584 0
M  V30 4138 C 382.435 -3.76506 1.96286 0
M  V30 4139 O 383.459 -3.12668 1.70637 0
M  V30 4140 O 382.318 -4.91243 2.39464 0
M  V30 4141 H 379.412 -0.758271 0.330082 0
M  V30 4142 H 381.958 -1.1013 1.2911 0
M  V30 4143 H 380.73 -2.78299 2.75073 0
M  V30 4144 H 380.353 -3.74631 1.33183 0
M  V30 4145 N 381.35 -0.985608 -1.22978 0
M  V30 4146 C 382.599 -0.652881 -1.90841 0
M  V30 4147 C 382.912 0.817842 -1.77681 0
M  V30 4148 O 384.118 1.26185 -2.40395 0
M  V30 4149 C 382.574 -1.11717 -3.42122 0
M  V30 4150 C 382.182 -2.6126 -3.63933 0
M  V30 4151 C 383.926 -0.85843 -4.1573 0
M  V30 4152 C 381.833 -3.0133 -5.08876 0
M  V30 4153 H 380.763 -0.240491 -0.714619 0
M  V30 4154 H 383.414 -1.1942 -1.39324 0
M  V30 4155 H 381.796 -0.504027 -3.92779 0
M  V30 4156 H 382.97 -3.27858 -3.23799 0
M  V30 4157 H 381.285 -2.84937 -3.03644 0
M  V30 4158 H 383.882 -1.13359 -5.22546 0
M  V30 4159 H 384.225 0.205461 -4.15793 0
M  V30 4160 H 384.758 -1.43341 -3.71077 0
M  V30 4161 H 381.497 -4.06864 -5.13947 0
M  V30 4162 H 381.017 -2.3943 -5.49939 0
M  V30 4163 H 382.696 -2.92224 -5.77247 0
M  V30 4164 N 382.828 1.3818 -0.7579 0
M  V30 4165 C 383.775 2.30416 -0.133057 0
M  V30 4166 C 384.745 1.50398 0.704957 0
M  V30 4167 O 385.93 1.79014 0.660192 0
M  V30 4168 C 383.07 3.36834 0.750813 0
M  V30 4169 C 382.183 4.31879 -0.102297 0
M  V30 4170 C 381.318 5.25368 0.784979 0
M  V30 4171 C 380.357 6.12058 -0.0715046 0
M  V30 4172 N 379.494 6.97832 0.772972 0
M  V30 4173 H 384.334 2.83274 -0.925186 0
M  V30 4174 H 381.871 1.39461 -0.467866 0
M  V30 4175 H 383.829 3.97145 1.27794 0
M  V30 4176 H 382.459 2.85374 1.50868 0
M  V30 4177 H 381.511 3.72991 -0.747095 0
M  V30 4178 H 382.823 4.92921 -0.763552 0
M  V30 4179 H 381.977 5.90818 1.37911 0
M  V30 4180 H 380.716 4.64703 1.47996 0
M  V30 4181 H 379.721 5.456 -0.678272 0
M  V30 4182 H 380.946 6.74793 -0.763606 0
M  V30 4183 H 378.892 6.3971 1.45282 0
M  V30 4184 H 378.809 7.55812 0.168709 0
M  V30 4185 H 380.077 7.67687 1.35194 0
M  V30 4186 N 384.306 0.507319 1.49211 0
M  V30 4187 C 385.253 -0.267728 2.29242 0
M  V30 4188 C 386.223 -0.954609 1.35928 0
M  V30 4189 O 387.408 -0.960046 1.64887 0
M  V30 4190 C 384.548 -1.32243 3.18756 0
M  V30 4191 C 383.661 -0.64669 4.27132 0
M  V30 4192 C 382.796 -1.68238 5.03855 0
M  V30 4193 C 381.835 -0.98885 6.0406 0
M  V30 4194 N 380.972 -1.96903 6.73924 0
M  V30 4195 H 385.812 0.420968 2.95012 0
M  V30 4196 H 383.349 0.219443 1.45454 0
M  V30 4197 H 385.307 -1.94599 3.69036 0
M  V30 4198 H 383.937 -1.97981 2.54958 0
M  V30 4199 H 382.989 0.0902926 3.80293 0
M  V30 4200 H 384.301 -0.101058 4.98698 0
M  V30 4201 H 383.455 -2.38081 5.58034 0
M  V30 4202 H 382.194 -2.26187 4.32077 0
M  V30 4203 H 381.199 -0.276222 5.49106 0
M  V30 4204 H 382.424 -0.415767 6.77826 0
M  V30 4205 H 380.37 -2.53803 6.04913 0
M  V30 4206 H 380.287 -1.47423 7.41487 0
M  V30 4207 H 381.555 -2.66015 7.32705 0
M  V30 4208 N 385.784 -1.5574 0.241426 0
M  V30 4209 C 387.061 -1.90704 -0.434881 0
M  V30 4210 C 387.441 -1.16145 -1.76277 0
M  V30 4211 O 386.789 -0.277152 -2.26813 0
M  V30 4212 C 386.999 -3.43657 -0.608343 0
M  V30 4213 C 388.347 -4.14806 -0.906725 0
M  V30 4214 O 389.371 -3.49366 -0.694408 0
M  V30 4215 O 388.23 -5.30548 -1.31075 0
M  V30 4216 H 385.324 -0.793592 -0.23268 0
M  V30 4217 H 387.87 -1.67288 0.285086 0
M  V30 4218 H 386.642 -3.89927 0.327505 0
M  V30 4219 H 386.265 -3.72918 -1.37906 0
M  V30 4220 N 387.262 0.0317525 -1.57568 0
M  V30 4221 C 388.678 0.38735 -1.54828 0
M  V30 4222 C 388.878 1.7677 -0.967187 0
M  V30 4223 O 387.934 2.45581 -0.587063 0
M  V30 4224 C 389.247 0.291667 -2.99282 0
M  V30 4225 C 390.795 0.368946 -3.10818 0
M  V30 4226 C 391.27 0.302741 -4.56998 0
M  V30 4227 N 392.761 0.361617 -4.61786 0
M  V30 4228 C 393.496 0.333238 -5.72431 0
M  V30 4229 N 392.992 0.257308 -6.92322 0
M  V30 4230 N 394.785 0.382769 -5.60795 0
M  V30 4231 H 386.936 -0.871609 -1.93692 0
M  V30 4232 H 389.199 -0.331161 -0.888277 0
M  V30 4233 H 388.905 -0.656794 -3.45513 0
M  V30 4234 H 388.779 1.08638 -3.61217 0
M  V30 4235 H 391.166 1.30784 -2.64536 0
M  V30 4236 H 391.247 -0.455066 -2.5172 0
M  V30 4237 H 390.891 -0.632473 -5.03947 0
M  V30 4238 H 390.821 1.14482 -5.14005 0
M  V30 4239 H 393.312 0.422923 -3.75526 0
M  V30 4240 H 393.625 0.24068 -7.72425 0
M  V30 4241 H 391.97 0.223396 -6.94641 0
M  V30 4242 H 395.161 0.44006 -4.66027 0
M  V30 4243 H 395.334 0.357184 -6.47015 0
M  V30 4244 N 388.74 1.54641 0.303973 0
M  V30 4245 C 389.986 1.74969 1.03718 0
M  V30 4246 C 390.341 0.527461 1.85029 0
M  V30 4247 O 389.634 -0.480143 1.85486 0
M  V30 4248 C 389.828 2.97753 1.97681 0
M  V30 4249 C 389.657 4.318 1.25613 0
M  V30 4250 C 388.427 4.95616 0.984518 0
M  V30 4251 C 390.625 5.10021 0.662081 0
M  V30 4252 N 388.607 6.13455 0.233794 0
M  V30 4253 C 389.978 6.19984 0.0439736 0
M  V30 4254 C 392.033 4.94663 0.566835 0
M  V30 4255 C 390.736 7.16264 -0.66016 0
M  V30 4256 C 392.762 5.91271 -0.123637 0
M  V30 4257 C 392.124 7.00601 -0.730608 0
M  V30 4258 H 388.223 0.692873 0.362562 0
M  V30 4259 H 390.807 1.92116 0.316135 0
M  V30 4260 H 388.978 2.82036 2.6704 0
M  V30 4261 H 390.71 3.06621 2.64132 0
M  V30 4262 H 387.465 4.55921 1.28191 0
M  V30 4263 H 387.889 6.76879 -0.127996 0
M  V30 4264 H 392.531 4.10267 1.02181 0
M  V30 4265 H 390.249 8.00204 -1.12691 0
M  V30 4266 H 393.835 5.81466 -0.197236 0
M  V30 4267 H 392.715 7.7407 -1.2564 0
M  V30 4268 N 390.218 -0.567019 1.47046 0
M  V30 4269 C 391.448 -1.34831 1.56538 0
M  V30 4270 C 391.856 -1.8802 0.21101 0
M  V30 4271 O 391.199 -1.65152 -0.804387 0
M  V30 4272 C 391.261 -2.56139 2.52256 0
M  V30 4273 C 390.925 -2.24307 3.98165 0
M  V30 4274 C 391.922 -1.82192 4.86931 0
M  V30 4275 C 389.607 -2.35968 4.43423 0
M  V30 4276 C 391.601 -1.52153 6.18973 0
M  V30 4277 C 389.288 -2.05542 5.75496 0
M  V30 4278 C 390.286 -1.63701 6.63092 0
M  V30 4279 O 389.974 -1.33657 7.92711 0
M  V30 4280 H 389.706 -0.417683 0.531523 0
M  V30 4281 H 392.26 -0.694726 1.93294 0
M  V30 4282 H 390.49 -3.24356 2.10548 0
M  V30 4283 H 392.179 -3.18214 2.51982 0
M  V30 4284 H 392.945 -1.72684 4.53217 0
M  V30 4285 H 388.824 -2.67495 3.75456 0
M  V30 4286 H 392.368 -1.19421 6.87302 0
M  V30 4287 H 388.265 -2.14679 6.08755 0
M  V30 4288 H 389.033 -1.4737 8.05124 0
M  V30 4289 N 391.696 -1.35014 -0.812953 0
M  V30 4290 C 392.644 -1.27435 -1.94585 0
M  V30 4291 C 393.638 -0.170494 -1.6854 0
M  V30 4292 O 394.844 -0.336085 -1.76835 0
M  V30 4293 H 391.219 -0.396144 -0.639198 0
M  V30 4294 H 393.19 -2.23158 -1.98098 0
M  V30 4295 C 391.939 -1.05677 -3.31252 0
M  V30 4296 H 391.262 -1.89853 -3.51846 0
M  V30 4297 H 392.702 -1.04413 -4.10943 0
M  V30 4298 C 391.161 0.239615 -3.36047 0
M  V30 4299 O 391.691 1.23759 -3.8216 0
M  V30 4300 N 389.897 0.276186 -2.89285 0
M  V30 4301 H 389.444 -0.53653 -2.51951 0
M  V30 4302 H 389.402 1.14332 -2.92875 0
M  V30 4303 N 393.175 1.03435 -1.18907 0
M  V30 4304 C 394.122 2.11591 -0.921837 0
M  V30 4305 C 395.092 1.65499 0.141226 0
M  V30 4306 O 396.277 1.908 0.000242829 0
M  V30 4307 C 393.417 3.42012 -0.460616 0
M  V30 4308 C 392.53 4.01682 -1.58982 0
M  V30 4309 C 391.665 5.20091 -1.08069 0
M  V30 4310 C 390.704 5.71805 -2.18416 0
M  V30 4311 N 389.841 6.81494 -1.68849 0
M  V30 4312 H 394.681 2.33787 -1.8479 0
M  V30 4313 H 392.218 1.1467 -0.921373 0
M  V30 4314 H 394.176 4.16834 -0.174642 0
M  V30 4315 H 392.806 3.19944 0.428467 0
M  V30 4316 H 391.858 3.24127 -1.99113 0
M  V30 4317 H 393.17 4.36084 -2.4214 0
M  V30 4318 H 392.324 6.02051 -0.749615 0
M  V30 4319 H 391.063 4.87209 -0.218771 0
M  V30 4320 H 390.068 4.88461 -2.5236 0
M  V30 4321 H 391.293 6.06728 -3.05054 0
M  V30 4322 H 389.239 6.50475 -0.849572 0
M  V30 4323 H 389.156 7.14994 -2.45601 0
M  V30 4324 H 390.424 7.67063 -1.38689 0
M  V30 4325 N 394.653 0.992116 1.22453 0
M  V30 4326 C 396.064 0.702776 1.72968 0
M  V30 4327 C 396.415 -0.780399 1.80012 0
M  V30 4328 O 395.54 -1.61007 1.44589 0
M  V30 4329 C 396.135 1.26903 3.14135 0
M  V30 4330 C 394.694 1.02909 3.62059 0
M  V30 4331 C 393.841 1.38969 2.39964 0
M  V30 4332 H 396.792 1.16457 1.07812 0
M  V30 4333 H 396.813 0.647223 3.74955 0
M  V30 4334 H 396.325 2.34851 3.08977 0
M  V30 4335 H 394.426 -0.0337979 3.72585 0
M  V30 4336 H 394.539 1.69191 4.48231 0
M  V30 4337 H 392.903 0.808279 2.41535 0
M  V30 4338 H 393.686 2.4792 2.37467 0
M  V30 4339 N 396.131 -1.37776 0.765217 0
M  V30 4340 C 397.061 -2.32945 0.160953 0
M  V30 4341 C 398.042 -1.55454 -0.690516 0
M  V30 4342 O 399.227 -1.83721 -0.629318 0
M  V30 4343 C 396.357 -3.39669 -0.724031 0
M  V30 4344 C 395.311 -4.27992 0.0256173 0
M  V30 4345 C 394.637 -5.25673 -0.978383 0
M  V30 4346 C 395.937 -5.08309 1.20082 0
M  V30 4347 H 397.631 -2.83728 0.955969 0
M  V30 4348 H 395.177 -1.36416 0.461149 0
M  V30 4349 H 397.13 -4.05219 -1.15652 0
M  V30 4350 H 395.854 -2.87396 -1.5515 0
M  V30 4351 H 394.513 -3.63964 0.438812 0
M  V30 4352 H 394.161 -4.69682 -1.80022 0
M  V30 4353 H 393.861 -5.85625 -0.481378 0
M  V30 4354 H 395.385 -5.94098 -1.40995 0
M  V30 4355 H 396.799 -5.67034 0.845307 0
M  V30 4356 H 395.196 -5.77554 1.62947 0
M  V30 4357 H 396.266 -4.41365 2.00811 0
M  V30 4358 N 397.609 -0.515225 -1.4894 0
M  V30 4359 C 398.556 0.255567 -2.29381 0
M  V30 4360 C 399.526 0.947387 -1.36432 0
M  V30 4361 O 400.711 0.951288 -1.65394 0
M  V30 4362 C 397.851 1.30551 -3.19453 0
M  V30 4363 C 396.964 0.624029 -4.27469 0
M  V30 4364 C 396.099 1.65563 -5.0474 0
M  V30 4365 C 395.138 0.956802 -6.04576 0
M  V30 4366 N 394.275 1.93326 -6.74959 0
M  V30 4367 H 399.115 -0.436607 -2.94784 0
M  V30 4368 H 396.652 -0.227154 -1.45336 0
M  V30 4369 H 398.61 1.92639 -3.70062 0
M  V30 4370 H 397.24 1.96626 -2.56004 0
M  V30 4371 H 396.292 -0.110459 -3.8024 0
M  V30 4372 H 397.604 0.0746092 -4.98744 0
M  V30 4373 H 396.758 2.35119 -5.59289 0
M  V30 4374 H 395.497 2.23893 -4.3327 0
M  V30 4375 H 394.502 0.247097 -5.49244 0
M  V30 4376 H 395.727 0.379814 -6.78037 0
M  V30 4377 H 393.673 2.50591 -6.06251 0
M  V30 4378 H 393.59 1.43489 -7.42258 0
M  V30 4379 H 394.858 2.62126 -7.34105 0
M  V30 4380 N 399.087 1.5561 -0.249682 0
M  V30 4381 C 400.034 2.21496 0.648694 0
M  V30 4382 C 401.004 1.17977 1.16921 0
M  V30 4383 O 402.189 1.46434 1.22318 0
M  V30 4384 C 399.329 2.92039 1.83868 0
M  V30 4385 C 398.442 4.10219 1.35442 0
M  V30 4386 C 397.577 4.6847 2.50419 0
M  V30 4387 C 396.616 5.78893 1.98869 0
M  V30 4388 N 395.753 6.31315 3.07223 0
M  V30 4389 H 400.593 2.97892 0.0801582 0
M  V30 4390 H 398.13 1.47074 0.0278031 0
M  V30 4391 H 400.088 3.31138 2.53778 0
M  V30 4392 H 398.718 2.18111 2.37965 0
M  V30 4393 H 397.77 3.76413 0.54928 0
M  V30 4394 H 399.082 4.89927 0.936649 0
M  V30 4395 H 398.236 5.10158 3.28366 0
M  V30 4396 H 396.975 3.87984 2.95499 0
M  V30 4397 H 395.98 5.3668 1.19393 0
M  V30 4398 H 397.205 6.61232 1.54755 0
M  V30 4399 H 395.151 5.53733 3.51732 0
M  V30 4400 H 395.068 7.06224 2.69784 0
M  V30 4401 H 396.336 6.77662 3.8522 0
M  V30 4402 N 400.565 -0.0233959 1.57583 0
M  V30 4403 C 401.813 -0.711654 1.89156 0
M  V30 4404 C 402.134 -1.75591 0.848096 0
M  V30 4405 O 401.404 -1.95547 -0.117566 0
M  V30 4406 H 399.984 -0.265835 0.698098 0
M  V30 4407 H 402.646 0.0119948 1.94896 0
M  V30 4408 H 401.742 -1.19766 2.88206 0
M  V30 4409 N 402.043 -1.548 -0.295768 0
M  V30 4410 C 403.006 -1.85363 -1.34808 0
M  V30 4411 C 404.006 -0.726817 -1.43436 0
M  V30 4412 O 405.196 -0.995088 -1.42981 0
M  V30 4413 C 402.328 -2.03859 -2.73229 0
M  V30 4414 H 403.521 -2.7941 -1.08949 0
M  V30 4415 H 401.074 -1.46942 -0.532702 0
M  V30 4416 H 401.809 -1.12117 -3.04303 0
M  V30 4417 H 401.594 -2.8588 -2.68356 0
M  V30 4418 H 403.084 -2.28857 -3.49305 0
M  V30 4419 N 403.521 0.559213 -1.47345 0
M  V30 4420 C 404.468 1.66645 -1.59682 0
M  V30 4421 C 405.438 1.60168 -0.43994 0
M  V30 4422 O 406.623 1.79031 -0.659736 0
M  V30 4423 C 403.763 3.04969 -1.61518 0
M  V30 4424 C 402.876 3.21897 -2.88108 0
M  V30 4425 C 402.011 4.50608 -2.81294 0
M  V30 4426 C 401.05 4.60961 -4.02717 0
M  V30 4427 N 400.187 5.81024 -3.94151 0
M  V30 4428 H 405.027 1.55439 -2.54249 0
M  V30 4429 H 402.564 0.757219 -1.26113 0
M  V30 4430 H 404.522 3.85064 -1.60566 0
M  V30 4431 H 403.152 3.15015 -0.704645 0
M  V30 4432 H 402.204 2.35248 -2.98936 0
M  V30 4433 H 403.516 3.25412 -3.78032 0
M  V30 4434 H 402.67 5.3896 -2.7858 0
M  V30 4435 H 401.409 4.49568 -1.89049 0
M  V30 4436 H 400.414 3.71021 -4.05738 0
M  V30 4437 H 401.639 4.63761 -4.96087 0
M  V30 4438 H 399.585 5.80938 -3.04708 0
M  V30 4439 H 399.502 5.85909 -4.77752 0
M  V30 4440 H 400.77 6.71744 -3.9545 0
M  V30 4441 N 404.999 1.35443 0.805782 0
M  V30 4442 C 406.415 1.15499 1.10146 0
M  V30 4443 C 406.615 -0.0319975 2.01475 0
M  V30 4444 O 405.671 -0.70236 2.42535 0
M  V30 4445 C 406.984 2.45833 1.73166 0
M  V30 4446 C 408.532 2.52047 1.85583 0
M  V30 4447 C 409.007 3.82427 2.52019 0
M  V30 4448 N 410.498 3.83682 2.59504 0
M  V30 4449 C 411.233 4.81294 3.11679 0
M  V30 4450 N 410.729 5.89294 3.64287 0
M  V30 4451 N 412.522 4.6873 3.1024 0
M  V30 4452 H 404.673 2.11469 0.198678 0
M  V30 4453 H 406.936 0.93594 0.150731 0
M  V30 4454 H 406.642 3.32874 1.13526 0
M  V30 4455 H 406.516 2.6044 2.72857 0
M  V30 4456 H 408.903 1.65435 2.44367 0
M  V30 4457 H 408.984 2.41354 0.847455 0
M  V30 4458 H 408.628 4.69437 1.93885 0
M  V30 4459 H 408.558 3.90409 3.53395 0
M  V30 4460 H 411.049 3.05648 2.22234 0
M  V30 4461 H 411.362 6.59768 4.02401 0
M  V30 4462 H 409.707 5.92985 3.62483 0
M  V30 4463 H 412.898 3.83496 2.68419 0
M  V30 4464 H 413.071 5.44965 3.50596 0
M  V30 4465 N 406.477 -1.02803 1.19454 0
M  V30 4466 C 407.888 -1.57667 0.999899 0
M  V30 4467 C 408.239 -1.91041 -0.446956 0
M  V30 4468 O 407.364 -1.70978 -1.32648 0
M  V30 4469 C 407.959 -2.86477 1.80877 0
M  V30 4470 C 406.518 -3.37911 1.65811 0
M  V30 4471 C 405.665 -2.11343 1.79526 0
M  V30 4472 H 408.616 -0.853214 1.33813 0
M  V30 4473 H 408.637 -3.57408 1.30536 0
M  V30 4474 H 408.149 -2.62155 2.86175 0
M  V30 4475 H 406.25 -3.67218 0.63102 0
M  V30 4476 H 406.363 -4.10885 2.46395 0
M  V30 4477 H 404.727 -2.23254 1.22596 0
M  V30 4478 H 405.51 -1.89461 2.86285 0
M  V30 4479 N 407.956 -0.998596 -1.21925 0
M  V30 4480 C 409.372 -0.710303 -1.42923 0
M  V30 4481 C 409.572 0.716933 -1.88314 0
M  V30 4482 O 408.628 1.48712 -2.04062 0
M  V30 4483 C 409.941 -1.72072 -2.466 0
M  V30 4484 C 411.489 -1.73681 -2.60392 0
M  V30 4485 C 411.964 -2.73601 -3.67296 0
M  V30 4486 N 413.455 -2.7223 -3.7476 0
M  V30 4487 C 414.19 -3.46206 -4.57087 0
M  V30 4488 N 413.686 -4.29802 -5.43362 0
M  V30 4489 N 415.479 -3.34886 -4.51451 0
M  V30 4490 H 407.63 -1.92028 -0.9077 0
M  V30 4491 H 409.893 -0.828487 -0.460775 0
M  V30 4492 H 409.599 -2.74231 -2.20206 0
M  V30 4493 H 409.473 -1.51818 -3.45299 0
M  V30 4494 H 411.86 -0.722173 -2.86127 0
M  V30 4495 H 411.941 -1.98005 -1.61949 0
M  V30 4496 H 411.585 -3.75217 -3.42307 0
M  V30 4497 H 411.515 -2.46545 -4.65321 0
M  V30 4498 H 414.006 -2.11576 -3.1312 0
M  V30 4499 H 414.319 -4.83061 -6.03218 0
M  V30 4500 H 412.664 -4.33887 -5.42925 0
M  V30 4501 H 415.855 -2.69015 -3.83078 0
M  V30 4502 H 416.028 -3.92796 -5.15379 0
M  V30 4503 N 409.434 1.37368 -0.772513 0
M  V30 4504 C 410.68 1.99969 -0.337681 0
M  V30 4505 C 411.013 1.61184 1.08321 0
M  V30 4506 O 410.288 0.858395 1.74533 0
M  V30 4507 C 410.571 3.56858 -0.482121 0
M  V30 4508 C 410.424 4.0555 -1.94549 0
M  V30 4509 C 411.743 4.39955 0.113143 0
M  V30 4510 H 408.862 0.726464 -0.124171 0
M  V30 4511 H 411.504 1.63034 -0.975699 0
M  V30 4512 H 409.654 3.88452 0.0610361 0
M  V30 4513 H 411.326 3.84518 -2.54841 0
M  V30 4514 H 409.569 3.57715 -2.45403 0
M  V30 4515 H 410.24 5.14587 -1.9976 0
M  V30 4516 H 412.716 4.14623 -0.35031 0
M  V30 4517 H 411.592 5.48897 -0.0180514 0
M  V30 4518 H 411.853 4.25403 1.20354 0
M  V30 4519 N 410.912 0.523116 1.48665 0
M  V30 4520 C 412.14 -0.0096312 2.06898 0
M  V30 4521 C 412.555 -1.28784 1.38059 0
M  V30 4522 O 411.912 -1.76453 0.465893 0
M  V30 4523 C 411.963 -0.244386 3.60673 0
M  V30 4524 O 411.684 0.983172 4.26925 0
M  V30 4525 C 413.185 -0.818289 4.35682 0
M  V30 4526 H 410.405 0.0304161 0.67031 0
M  V30 4527 H 412.949 0.726799 1.91149 0
M  V30 4528 H 411.104 -0.930847 3.76051 0
M  V30 4529 H 411.518 0.759653 5.1897 0
M  V30 4530 H 412.992 -0.93201 5.44075 0
M  V30 4531 H 413.469 -1.82153 3.99646 0
M  V30 4532 H 414.075 -0.168609 4.24966 0
M  V30 4533 N 412.39 -1.55475 0.257931 0
M  V30 4534 C 413.615 -2.04064 -0.370488 0
M  V30 4535 C 414.04 -1.13565 -1.49948 0
M  V30 4536 O 413.398 -0.130781 -1.80828 0
M  V30 4537 C 413.446 -3.50554 -0.845237 0
M  V30 4538 O 412.55 -3.63173 -1.95394 0
M  V30 4539 H 411.891 -0.659257 -0.0792243 0
M  V30 4540 H 414.421 -2.00903 0.387212 0
M  V30 4541 H 414.431 -3.91588 -1.14555 0
M  V30 4542 H 413.106 -4.15896 -0.0191259 0
M  V30 4543 H 411.683 -3.34039 -1.65748 0
M  V30 4544 N 413.868 0.0150385 -1.57593 0
M  V30 4545 C 415.116 0.701613 -1.8953 0
M  V30 4546 C 415.437 1.75139 -0.857396 0
M  V30 4547 O 414.707 1.95607 0.107194 0
M  V30 4548 H 413.287 0.26213 -0.699498 0
M  V30 4549 H 415.949 -0.0223304 -1.94887 0
M  V30 4550 H 415.045 1.18236 -2.88837 0
M  V30 4551 N 415.346 1.54954 0.287554 0
M  V30 4552 C 416.594 1.74528 1.01904 0
M  V30 4553 C 416.915 0.541349 1.87335 0
M  V30 4554 O 416.185 -0.444108 1.908 0
M  V30 4555 H 414.765 0.643576 0.379235 0
M  V30 4556 H 417.427 1.92333 0.315294 0
M  V30 4557 H 416.523 2.64015 1.6644 0
M  V30 4558 N 416.824 -0.551391 1.4764 0
M  V30 4559 C 418.07 -1.31024 1.54792 0
M  V30 4560 C 418.403 -1.9304 0.211967 0
M  V30 4561 O 417.678 -1.78175 -0.77999 0
M  V30 4562 C 417.961 -2.41593 2.67029 0
M  V30 4563 C 417.814 -1.84408 4.10261 0
M  V30 4564 C 419.133 -3.43488 2.75143 0
M  V30 4565 H 416.252 -0.475031 0.563485 0
M  V30 4566 H 418.894 -0.616454 1.79722 0
M  V30 4567 H 417.044 -3.00772 2.45904 0
M  V30 4568 H 418.716 -1.29445 4.42766 0
M  V30 4569 H 416.959 -1.15051 4.18265 0
M  V30 4570 H 417.63 -2.64367 4.84576 0
M  V30 4571 H 420.106 -2.94236 2.94218 0
M  V30 4572 H 418.982 -4.18274 3.55441 0
M  V30 4573 H 419.243 -4.02703 1.82435 0
M  V30 4574 N 418.302 -1.35869 -0.798587 0
M  V30 4575 C 419.527 -1.32883 -1.59238 0
M  V30 4576 C 419.952 0.0894587 -1.87887 0
M  V30 4577 O 419.31 1.05869 -1.47178 0
M  V30 4578 C 419.358 -2.14892 -2.89575 0
M  V30 4579 O 418.462 -1.53512 -3.82763 0
M  V30 4580 H 417.803 -0.455236 -0.48338 0
M  V30 4581 H 420.333 -1.79024 -0.990539 0
M  V30 4582 H 420.343 -2.27139 -3.38928 0
M  V30 4583 H 419.018 -3.17998 -2.68049 0
M  V30 4584 H 417.595 -1.50153 -3.41334 0
M  V30 4585 N 419.78 1.02168 -1.19998 0
M  V30 4586 C 420.69 2.14069 -0.959774 0
M  V30 4587 C 421.706 1.73804 0.082655 0
M  V30 4588 O 422.882 2.01133 -0.103633 0
M  V30 4589 C 419.947 3.42936 -0.509459 0
M  V30 4590 C 419.008 3.97474 -1.62213 0
M  V30 4591 C 418.241 5.2019 -1.19321 0
M  V30 4592 O 418.464 5.70369 -0.0597726 0
M  V30 4593 O 417.398 5.67749 -1.99863 0
M  V30 4594 H 421.224 2.37199 -1.89658 0
M  V30 4595 H 418.809 1.12469 -0.983411 0
M  V30 4596 H 420.691 4.20551 -0.267322 0
M  V30 4597 H 419.366 3.21234 0.398821 0
M  V30 4598 H 418.273 3.21161 -1.9185 0
M  V30 4599 H 419.606 4.23555 -2.50723 0
M  V30 4600 N 421.258 1.00505 1.21394 0
M  V30 4601 C 422.483 0.706367 1.95001 0
M  V30 4602 C 422.908 -0.72463 1.73582 0
M  V30 4603 O 422.266 -1.49702 1.0227 0
M  V30 4604 C 422.314 1.03299 3.45487 0
M  V30 4605 O 421.418 0.138275 4.12168 0
M  V30 4606 H 420.759 0.263175 0.609619 0
M  V30 4607 H 423.289 1.34531 1.54151 0
M  V30 4608 H 423.299 0.979872 3.96059 0
M  V30 4609 H 421.974 2.07567 3.60401 0
M  V30 4610 H 420.551 0.247928 3.72075 0
M  V30 4611 N 422.737 -1.36956 0.779787 0
M  V30 4612 C 424.148 -1.82094 0.412156 0
M  V30 4613 C 424.499 -1.64926 -1.06273 0
M  V30 4614 O 423.624 -1.16483 -1.82375 0
M  V30 4615 C 424.219 -3.3059 0.741319 0
M  V30 4616 C 422.778 -3.73974 0.426641 0
M  V30 4617 C 421.925 -2.59368 0.980987 0
M  V30 4618 H 424.876 -1.25314 0.973758 0
M  V30 4619 H 424.897 -3.80489 0.028887 0
M  V30 4620 H 424.409 -3.43054 1.81482 0
M  V30 4621 H 422.51 -3.67076 -0.639215 0
M  V30 4622 H 422.623 -4.69778 0.940515 0
M  V30 4623 H 420.987 -2.51463 0.404757 0
M  V30 4624 H 421.77 -2.74621 2.06005 0
M  V30 4625 N 424.215 -0.530993 -1.48385 0
M  V30 4626 C 425.44 0.000729535 -2.074 0
M  V30 4627 C 425.865 1.27298 -1.3848 0
M  V30 4628 O 425.223 1.75599 -0.451081 0
M  V30 4629 C 425.271 0.206697 -3.60007 0
M  V30 4630 O 424.375 1.27514 -3.92191 0
M  V30 4631 H 423.716 -0.039583 -0.662819 0
M  V30 4632 H 426.246 -0.739194 -1.9078 0
M  V30 4633 H 426.256 0.42904 -4.05738 0
M  V30 4634 H 424.931 -0.722675 -4.09573 0
M  V30 4635 H 423.508 1.03537 -3.58238 0
M  V30 4636 N 425.693 1.55336 -0.266172 0
M  V30 4637 C 426.941 1.99003 0.35246 0
M  V30 4638 C 427.262 1.15591 1.57047 0
M  V30 4639 O 426.532 0.243268 1.94384 0
M  V30 4640 H 425.112 0.735025 0.133217 0
M  V30 4641 H 427.774 1.91367 -0.369434 0
M  V30 4642 H 426.87 3.05289 0.648453 0
M  V30 4643 N 427.171 -0.0066808 1.57599 0
M  V30 4644 C 428.418 -0.69292 1.90276 0
M  V30 4645 C 428.746 -1.74148 0.866192 0
M  V30 4646 O 428.001 -1.95268 -0.129933 0
M  V30 4647 C 428.3 -1.37939 3.29708 0
M  V30 4648 C 427.966 -0.464679 4.48499 0
M  V30 4649 C 426.628 -0.212809 4.80729 0
M  V30 4650 C 428.98 0.16551 5.20937 0
M  V30 4651 C 426.308 0.677653 5.82773 0
M  V30 4652 C 428.66 1.04381 6.23929 0
M  V30 4653 C 427.324 1.30492 6.54621 0
M  V30 4654 H 426.594 -0.253558 0.696268 0
M  V30 4655 H 429.241 0.0474123 1.91441 0
M  V30 4656 H 427.546 -2.1936 3.24636 0
M  V30 4657 H 429.243 -1.9163 3.52249 0
M  V30 4658 H 425.833 -0.671153 4.23313 0
M  V30 4659 H 430.017 -0.0160756 4.96297 0
M  V30 4660 H 425.273 0.88803 6.04917 0
M  V30 4661 H 429.447 1.53851 6.79193 0
M  V30 4662 H 427.074 1.99662 7.33512 0
M  V30 4663 N 428.649 -1.55105 -0.279332 0
M  V30 4664 C 429.874 -1.7976 -1.03446 0
M  V30 4665 C 430.299 -0.565952 -1.79384 0
M  V30 4666 O 429.657 0.484259 -1.74713 0
M  V30 4667 C 429.705 -3.0179 -1.97371 0
M  V30 4668 O 428.809 -2.76432 -3.06038 0
M  V30 4669 H 428.15 -0.594334 -0.29608 0
M  V30 4670 H 430.68 -2.02235 -0.310165 0
M  V30 4671 H 430.69 -3.30351 -2.39441 0
M  V30 4672 H 429.365 -3.91085 -1.4151 0
M  V30 4673 H 427.942 -2.58949 -2.68328 0
M  V30 4674 N 430.127 0.543554 -1.4793 0
M  V30 4675 C 431.074 1.64942 -1.6144 0
M  V30 4676 C 432.044 1.59692 -0.456903 0
M  V30 4677 O 433.229 1.78321 -0.678688 0
M  V30 4678 C 430.369 3.03238 -1.64744 0
M  V30 4679 C 429.482 3.18823 -2.91506 0
M  V30 4680 C 428.617 4.47599 -2.86057 0
M  V30 4681 C 427.656 4.56664 -4.07584 0
M  V30 4682 N 426.793 5.76811 -4.00292 0
M  V30 4683 H 431.633 1.52733 -2.55884 0
M  V30 4684 H 429.17 0.7438 -1.2691 0
M  V30 4685 H 431.128 3.83339 -1.64641 0
M  V30 4686 H 429.758 3.1425 -0.738017 0
M  V30 4687 H 428.81 2.32064 -3.01414 0
M  V30 4688 H 430.122 3.21384 -3.81463 0
M  V30 4689 H 429.276 5.35975 -2.84281 0
M  V30 4690 H 428.015 4.47538 -1.93807 0
M  V30 4691 H 427.02 3.66697 -4.09651 0
M  V30 4692 H 428.245 4.58474 -5.00978 0
M  V30 4693 H 426.191 5.77673 -3.10853 0
M  V30 4694 H 426.108 5.80808 -4.8394 0
M  V30 4695 H 427.376 6.67512 -4.02553 0
M  V30 4696 N 431.605 1.3629 0.791371 0
M  V30 4697 C 432.555 1.26988 1.89362 0
M  V30 4698 C 433.539 0.161795 1.60084 0
M  V30 4699 O 434.731 0.394426 1.72549 0
M  V30 4700 C 431.86 1.05944 3.26544 0
M  V30 4701 C 430.946 2.21211 3.61838 0
M  V30 4702 N 431.337 3.46518 3.68455 0
M  V30 4703 C 429.635 2.12933 3.91887 0
M  V30 4704 C 430.336 4.2241 3.99931 0
M  V30 4705 N 429.312 3.51329 4.14812 0
M  V30 4706 H 433.114 2.21908 1.92702 0
M  V30 4707 H 430.628 1.28982 0.986787 0
M  V30 4708 H 432.625 0.973666 4.05371 0
M  V30 4709 H 431.285 0.119223 3.24481 0
M  V30 4710 H 432.296 3.80677 3.51148 0
M  V30 4711 H 428.973 1.26855 3.97761 0
M  V30 4712 H 430.363 5.30767 4.1199 0
M  V30 4713 N 433.083 -1.0153 1.20538 0
M  V30 4714 C 434.332 -1.74558 1.01057 0
M  V30 4715 C 434.645 -1.90168 -0.457756 0
M  V30 4716 O 435.851 -2.60301 -0.771722 0
M  V30 4717 C 434.307 -3.13963 1.75941 0
M  V30 4718 C 433.915 -3.06361 3.26875 0
M  V30 4719 C 435.659 -3.91191 1.64832 0
M  V30 4720 C 433.566 -4.40782 3.94291 0
M  V30 4721 H 432.496 -0.654417 0.374505 0
M  V30 4722 H 435.147 -1.13521 1.44171 0
M  V30 4723 H 433.529 -3.75549 1.25614 0
M  V30 4724 H 434.703 -2.54074 3.84425 0
M  V30 4725 H 433.018 -2.42625 3.38411 0
M  V30 4726 H 435.615 -4.90644 2.12539 0
M  V30 4727 H 435.958 -4.11884 0.604745 0
M  V30 4728 H 436.491 -3.36236 2.12579 0
M  V30 4729 H 433.23 -4.25292 4.98805 0
M  V30 4730 H 432.75 -4.9307 3.41529 0
M  V30 4731 H 434.429 -5.09621 3.98617 0
M  V30 4732 N 434.561 -1.01147 -1.20859 0
M  V30 4733 C 435.493 -0.535546 -2.22855 0
M  V30 4734 C 436.506 0.379323 -1.58319 0
M  V30 4735 O 437.695 0.178489 -1.77605 0
M  V30 4736 C 434.795 0.240962 -3.38042 0
M  V30 4737 C 433.968 -0.674562 -4.32167 0
M  V30 4738 C 433.027 0.053467 -5.26173 0
M  V30 4739 O 432.053 -0.567339 -5.66366 0
M  V30 4740 N 433.255 1.32997 -5.65059 0
M  V30 4741 H 436.02 -1.41268 -2.64317 0
M  V30 4742 H 433.581 -0.888386 -1.35349 0
M  V30 4743 H 435.573 0.737115 -3.97931 0
M  V30 4744 H 434.143 1.01935 -2.95513 0
M  V30 4745 H 433.363 -1.35111 -3.70322 0
M  V30 4746 H 434.651 -1.2974 -4.91981 0
M  V30 4747 H 434.049 1.85536 -5.34409 0
M  V30 4748 H 432.606 1.77095 -6.2728 0
M  V30 4749 N 436.039 1.36541 -0.78704 0
M  V30 4750 C 437.264 2.0409 -0.369053 0
M  V30 4751 C 437.689 1.58957 1.00569 0
M  V30 4752 O 437.047 0.756926 1.64743 0
M  V30 4753 C 437.095 3.57924 -0.438466 0
M  V30 4754 O 436.199 4.08642 0.555479 0
M  V30 4755 H 435.54 0.645142 -0.157122 0
M  V30 4756 H 438.07 1.74545 -1.06749 0
M  V30 4757 H 438.08 4.06887 -0.301218 0
M  V30 4758 H 436.755 3.90127 -1.44132 0
M  V30 4759 H 435.332 3.70958 0.380088 0
M  V30 4760 N 437.518 0.538854 1.48102 0
M  V30 4761 C 438.466 -0.232325 2.31437 0
M  V30 4762 C 439.46 -0.927004 1.41785 0
M  V30 4763 O 440.666 -0.850378 1.58646 0
M  V30 4764 H 437.041 -0.0937916 0.746128 0
M  V30 4765 H 439.012 0.489986 2.9435 0
M  V30 4766 C 437.761 -1.26074 3.24038 0
M  V30 4767 H 437.084 -0.735609 3.92974 0
M  V30 4768 H 438.524 -1.77157 3.85216 0
M  V30 4769 C 436.983 -2.29902 2.46265 0
M  V30 4770 O 437.513 -3.36502 2.19384 0
M  V30 4771 N 435.719 -2.03348 2.07601 0
M  V30 4772 H 435.266 -1.16675 2.29662 0
M  V30 4773 H 435.224 -2.73038 1.55877 0
M  V30 4774 N 438.996 -1.55193 0.274407 0
M  V30 4775 C 439.926 -2.25471 -0.607032 0
M  V30 4776 C 440.907 -1.24461 -1.15946 0
M  V30 4777 O 442.092 -1.53179 -1.19373 0
M  V30 4778 C 439.222 -2.97526 -1.79153 0
M  V30 4779 C 438.176 -4.05459 -1.37067 0
M  V30 4780 C 437.502 -4.65084 -2.6382 0
M  V30 4781 C 438.802 -5.19691 -0.521389 0
M  V30 4782 H 440.496 -2.99393 -0.0209343 0
M  V30 4783 H 438.042 -1.43997 -0.00862866 0
M  V30 4784 H 439.995 -3.45402 -2.41404 0
M  V30 4785 H 438.719 -2.21138 -2.40344 0
M  V30 4786 H 437.378 -3.58393 -0.771355 0
M  V30 4787 H 437.026 -3.85365 -3.23268 0
M  V30 4788 H 436.726 -5.37961 -2.36372 0
M  V30 4789 H 438.25 -5.15708 -3.26921 0
M  V30 4790 H 439.664 -5.63623 -1.04889 0
M  V30 4791 H 438.061 -5.99126 -0.341825 0
M  V30 4792 H 439.131 -4.82713 0.46 0
M  V30 4793 N 440.474 -0.00167713 -1.576 0
M  V30 4794 C 441.751 0.719951 -1.81868 0
M  V30 4795 C 442.131 1.91895 -0.879747 0
M  V30 4796 O 441.479 2.28389 0.0711423 0
M  V30 4797 C 441.689 1.12409 -3.30402 0
M  V30 4798 C 443.037 1.52724 -3.96182 0
M  V30 4799 O 444.061 1.21784 -3.34734 0
M  V30 4800 O 442.92 2.10265 -5.04431 0
M  V30 4801 H 440.014 0.350707 -0.748955 0
M  V30 4802 H 442.56 -0.0272597 -1.69678 0
M  V30 4803 H 441.332 0.269532 -3.90371 0
M  V30 4804 H 440.955 1.93035 -3.47596 0
M  V30 4805 N 441.952 1.55251 0.271103 0
M  V30 4806 C 443.199 1.75946 1.00245 0
M  V30 4807 C 443.527 0.561611 1.86215 0
M  V30 4808 O 442.782 -0.455832 1.90317 0
M  V30 4809 C 443.081 3.01879 1.91321 0
M  V30 4810 C 442.747 4.34337 1.21086 0
M  V30 4811 C 441.409 4.70338 1.01666 0
M  V30 4812 C 443.761 5.16325 0.71119 0
M  V30 4813 C 441.089 5.8588 0.310099 0
M  V30 4814 C 443.441 6.32597 0.0182157 0
M  V30 4815 C 442.105 6.67236 -0.18768 0
M  V30 4816 H 441.375 0.643833 0.366824 0
M  V30 4817 H 444.022 1.89521 0.27458 0
M  V30 4818 H 442.327 2.83212 2.70736 0
M  V30 4819 H 444.024 3.15088 2.48033 0
M  V30 4820 H 440.614 4.06043 1.37213 0
M  V30 4821 H 444.798 4.88987 0.848844 0
M  V30 4822 H 440.054 6.1124 0.139873 0
M  V30 4823 H 444.228 6.9538 -0.376711 0
M  V30 4824 H 441.855 7.56618 -0.73715 0
M  V30 4825 N 443.43 -0.535701 1.48216 0
M  V30 4826 C 444.655 -1.32149 1.59848 0
M  V30 4827 C 445.08 -1.86338 0.256842 0
M  V30 4828 O 444.438 -1.64107 -0.770632 0
M  V30 4829 C 444.486 -2.45224 2.64381 0
M  V30 4830 O 443.59 -3.48093 2.21144 0
M  V30 4831 H 442.931 -0.391634 0.536208 0
M  V30 4832 H 445.461 -0.645202 1.94161 0
M  V30 4833 H 445.471 -2.91491 2.85476 0
M  V30 4834 H 444.146 -2.05143 3.61786 0
M  V30 4835 H 442.723 -3.07984 2.10239 0
M  V30 4836 N 444.908 -1.36708 -0.784132 0
M  V30 4837 C 446.319 -1.27947 -1.35965 0
M  V30 4838 C 446.67 0.0784013 -1.96043 0
M  V30 4839 O 445.795 0.979989 -1.92938 0
M  V30 4840 C 446.39 -2.31689 -2.47195 0
M  V30 4841 C 444.949 -2.26601 -3.00548 0
M  V30 4842 C 444.096 -2.16184 -1.73666 0
M  V30 4843 H 447.047 -1.4751 -0.585358 0
M  V30 4844 H 447.068 -1.95638 -3.26352 0
M  V30 4845 H 446.58 -3.30506 -2.03439 0
M  V30 4846 H 444.681 -1.31268 -3.48711 0
M  V30 4847 H 444.794 -3.19508 -3.57004 0
M  V30 4848 H 443.158 -1.62524 -1.96107 0
M  V30 4849 H 443.941 -3.16896 -1.32031 0
M  V30 4850 N 446.386 1.0089 -1.21074 0
M  V30 4851 C 447.632 1.74866 -1.02712 0
M  V30 4852 C 447.965 1.89178 0.438787 0
M  V30 4853 O 447.24 1.42325 1.32567 0
M  V30 4854 C 447.523 3.16347 -1.72036 0
M  V30 4855 C 447.376 3.09782 -3.26121 0
M  V30 4856 C 448.695 4.15187 -1.45973 0
M  V30 4857 H 445.814 0.634736 -0.374539 0
M  V30 4858 H 448.456 1.17646 -1.49196 0
M  V30 4859 H 446.606 3.65201 -1.32517 0
M  V30 4860 H 448.278 2.68673 -3.74983 0
M  V30 4861 H 446.521 2.46982 -3.56626 0
M  V30 4862 H 447.192 4.09829 -3.6979 0
M  V30 4863 H 449.668 3.75022 -1.80272 0
M  V30 4864 H 448.544 5.12331 -1.96999 0
M  V30 4865 H 448.805 4.40386 -0.388924 0
M  V30 4866 N 447.864 1.01787 1.20321 0
M  V30 4867 C 448.812 0.58254 2.25187 0
M  V30 4868 C 449.806 -0.379359 1.65098 0
M  V30 4869 O 451.012 -0.249142 1.78267 0
M  V30 4870 H 447.387 0.170078 0.732514 0
M  V30 4871 H 449.358 1.47788 2.59232 0
M  V30 4872 C 448.107 -0.0620885 3.47645 0
M  V30 4873 H 447.43 0.669069 3.94162 0
M  V30 4874 H 448.87 -0.329784 4.22716 0
M  V30 4875 C 447.329 -1.3053 3.10586 0
M  V30 4876 O 447.859 -2.39848 3.22236 0
M  V30 4877 N 446.065 -1.18988 2.65123 0
M  V30 4878 H 445.612 -0.300341 2.55843 0
M  V30 4879 H 445.57 -2.02267 2.40698 0
M  V30 4880 N 449.342 -1.36122 0.79427 0
M  V30 4881 C 450.567 -2.03891 0.379871 0
M  V30 4882 C 450.992 -1.59488 -0.997251 0
M  V30 4883 O 450.35 -0.765652 -1.64339 0
M  V30 4884 C 450.398 -3.57687 0.457442 0
M  V30 4885 O 449.502 -4.08931 -0.5338 0
M  V30 4886 H 448.843 -0.6443 0.160541 0
M  V30 4887 H 451.373 -1.73976 1.07673 0
M  V30 4888 H 451.383 -4.06721 0.322792 0
M  V30 4889 H 450.058 -3.89357 1.46199 0
M  V30 4890 H 448.635 -3.71154 -0.360409 0
M  V30 4891 N 450.82 -0.546701 -1.47814 0
M  V30 4892 C 451.783 0.196287 -2.28358 0
M  V30 4893 C 452.783 0.852437 -1.36346 0
M  V30 4894 O 453.973 0.709913 -1.59078 0
M  V30 4895 C 451.105 1.28579 -3.15722 0
M  V30 4896 H 452.298 -0.511086 -2.95513 0
M  V30 4897 H 449.851 -0.303248 -1.5333 0
M  V30 4898 H 450.586 2.0259 -2.53235 0
M  V30 4899 H 450.371 0.820229 -3.83425 0
M  V30 4900 H 451.861 1.80793 -3.76435 0
M  V30 4901 N 452.299 1.55045 -0.282633 0
M  V30 4902 C 453.524 2.04628 0.337977 0
M  V30 4903 C 453.949 1.15937 1.48123 0
M  V30 4904 O 453.307 0.159532 1.80597 0
M  V30 4905 C 453.355 3.51854 0.78936 0
M  V30 4906 O 452.459 3.66236 1.89592 0
M  V30 4907 H 451.8 0.660434 0.0687261 0
M  V30 4908 H 454.33 2.00261 -0.419124 0
M  V30 4909 H 454.34 3.93361 1.08311 0
M  V30 4910 H 453.015 4.15873 -0.0470419 0
M  V30 4911 H 451.592 3.36633 1.60413 0
M  V30 4912 N 453.777 0.010035 1.57597 0
M  V30 4913 C 455.002 -0.687021 1.95691 0
M  V30 4914 C 455.427 -1.65952 0.885519 0
M  V30 4915 O 454.785 -1.80633 -0.15543 0
M  V30 4916 C 454.833 -1.3864 3.32884 0
M  V30 4917 O 453.937 -2.50115 3.27897 0
M  V30 4918 H 453.278 -0.181989 0.638573 0
M  V30 4919 H 455.808 0.0662122 2.04493 0
M  V30 4920 H 455.818 -1.74754 3.6868 0
M  V30 4921 H 454.493 -0.673411 4.10412 0
M  V30 4922 H 453.07 -2.16253 3.03791 0
M  V30 4923 N 455.255 -1.55392 -0.262866 0
M  V30 4924 C 456.165 -1.92077 -1.34698 0
M  V30 4925 C 457.181 -0.819227 -1.53508 0
M  V30 4926 O 458.357 -1.11921 -1.67439 0
M  V30 4927 C 455.422 -2.19407 -2.68443 0
M  V30 4928 C 454.483 -3.42905 -2.58292 0
M  V30 4929 C 453.716 -3.68921 -3.85659 0
M  V30 4930 O 453.939 -2.97275 -4.8681 0
M  V30 4931 O 452.873 -4.62455 -3.85252 0
M  V30 4932 H 456.699 -2.84384 -1.06581 0
M  V30 4933 H 454.284 -1.42069 -0.462264 0
M  V30 4934 H 456.166 -2.38365 -3.47506 0
M  V30 4935 H 454.841 -1.30282 -2.96325 0
M  V30 4936 H 453.748 -3.29272 -1.7757 0
M  V30 4937 H 455.081 -4.32282 -2.35358 0
M  V30 4938 N 456.733 0.527833 -1.48498 0
M  V30 4939 C 457.643 1.65907 -1.65867 0
M  V30 4940 C 458.659 1.6537 -0.541192 0
M  V30 4941 O 459.835 1.84282 -0.812534 0
M  V30 4942 C 456.9 3.02364 -1.69637 0
M  V30 4943 C 455.961 3.1374 -2.93028 0
M  V30 4944 C 455.194 4.43688 -2.96609 0
M  V30 4945 O 455.417 5.30913 -2.08538 0
M  V30 4946 O 454.351 4.59475 -3.88802 0
M  V30 4947 H 458.177 1.5419 -2.61647 0
M  V30 4948 H 455.762 0.701163 -1.31924 0
M  V30 4949 H 457.644 3.83515 -1.74625 0
M  V30 4950 H 456.319 3.14401 -0.770312 0
M  V30 4951 H 455.226 2.31877 -2.93571 0
M  V30 4952 H 456.559 3.06621 -3.85026 0
M  V30 4953 N 458.211 1.37122 0.776871 0
M  V30 4954 C 459.159 1.32549 1.91138 0
M  V30 4955 C 460.153 0.215119 1.68029 0
M  V30 4956 O 461.359 0.382852 1.75881 0
M  V30 4957 H 457.734 0.412952 0.62847 0
M  V30 4958 H 459.705 2.28332 1.92112 0
M  V30 4959 C 458.454 1.14422 3.28333 0
M  V30 4960 H 457.777 1.99115 3.46689 0
M  V30 4961 H 459.217 1.15272 4.0803 0
M  V30 4962 C 457.676 -0.150434 3.36564 0
M  V30 4963 O 458.206 -1.13584 3.85307 0
M  V30 4964 N 456.412 -0.19939 2.89915 0
M  V30 4965 H 455.959 0.603142 2.5044 0
M  V30 4966 H 455.917 -1.06526 2.95803 0
M  V30 4967 N 459.689 -1.00246 1.21608 0
M  V30 4968 C 460.935 -1.74319 1.03638 0
M  V30 4969 C 461.268 -1.89408 -0.428749 0
M  V30 4970 O 460.543 -1.43026 -1.3181 0
M  V30 4971 C 460.826 -3.15431 1.73711 0
M  V30 4972 C 460.679 -3.08049 3.27759 0
M  V30 4973 C 461.998 -4.14407 1.48173 0
M  V30 4974 H 459.117 -0.632741 0.377899 0
M  V30 4975 H 461.759 -1.16853 1.49818 0
M  V30 4976 H 459.909 -3.64493 1.34452 0
M  V30 4977 H 461.581 -2.66681 3.76403 0
M  V30 4978 H 459.824 -2.45088 3.57931 0
M  V30 4979 H 460.495 -4.07862 3.71958 0
M  V30 4980 H 462.971 -3.74061 1.82258 0
M  V30 4981 H 461.847 -5.11279 1.99713 0
M  V30 4982 H 462.108 -4.40174 0.412273 0
M  V30 4983 N 461.167 -1.02423 -1.1978 0
M  V30 4984 C 462.114 -0.601023 -2.22837 0
M  V30 4985 C 463.084 0.382801 -1.61629 0
M  V30 4986 O 464.269 0.280514 -1.88727 0
M  V30 4987 C 461.409 0.0467755 -3.45068 0
M  V30 4988 C 460.522 -0.98253 -4.20678 0
M  V30 4989 C 459.657 -0.304982 -5.30324 0
M  V30 4990 C 458.696 -1.32052 -5.97686 0
M  V30 4991 N 457.833 -0.669105 -6.98904 0
M  V30 4992 H 462.673 -1.48444 -2.58396 0
M  V30 4993 H 460.21 -0.742936 -1.2696 0
M  V30 4994 H 462.168 0.439556 -4.14878 0
M  V30 4995 H 460.798 0.893796 -3.10179 0
M  V30 4996 H 459.85 -1.49341 -3.49859 0
M  V30 4997 H 461.162 -1.75455 -4.66923 0
M  V30 4998 H 460.316 0.142893 -6.06532 0
M  V30 4999 H 459.055 0.499283 -4.85138 0
M  V30 5000 H 458.06 -1.7787 -5.20233 0
M  V30 5001 H 459.285 -2.1262 -6.44957 0
M  V30 5002 H 457.231 0.115152 -6.55899 0
M  V30 5003 H 457.148 -1.37908 -7.43315 0
M  V30 5004 H 458.416 -0.245076 -7.79115 0
M  V30 5005 N 462.645 1.35699 -0.801477 0
M  V30 5006 C 463.875 2.02862 -0.3912 0
M  V30 5007 C 464.283 1.60552 1.00099 0
M  V30 5008 O 463.626 0.796215 1.65548 0
M  V30 5009 C 463.688 3.57386 -0.389299 0
M  V30 5010 C 463.352 4.22943 -1.73113 0
M  V30 5011 C 464.349 4.44984 -2.68859 0
M  V30 5012 C 462.034 4.60167 -2.01373 0
M  V30 5013 C 464.028 5.03345 -3.91053 0
M  V30 5014 C 461.715 5.18243 -3.23832 0
M  V30 5015 C 462.713 5.39773 -4.1849 0
M  V30 5016 O 462.401 5.96626 -5.38788 0
M  V30 5017 H 462.133 0.657341 -0.157732 0
M  V30 5018 H 464.687 1.74407 -1.08496 0
M  V30 5019 H 462.917 3.85011 0.361031 0
M  V30 5020 H 464.606 4.059 -0.0020365 0
M  V30 5021 H 465.372 4.1661 -2.48316 0
M  V30 5022 H 461.251 4.42726 -1.28508 0
M  V30 5023 H 464.795 5.20065 -4.64949 0
M  V30 5024 H 460.692 5.46044 -3.44248 0
M  V30 5025 H 461.46 6.15082 -5.40015 0
M  V30 5026 N 464.123 0.554532 1.47522 0
M  V30 5027 C 465.348 0.0322661 2.07375 0
M  V30 5028 C 465.773 -1.25079 1.40488 0
M  V30 5029 O 465.131 -1.74859 0.47896 0
M  V30 5030 C 465.179 -0.149397 3.6029 0
M  V30 5031 O 464.283 -1.21259 3.9417 0
M  V30 5032 H 463.624 0.0501228 0.662106 0
M  V30 5033 H 466.154 0.769452 1.8958 0
M  V30 5034 H 466.164 -0.364437 4.06369 0
M  V30 5035 H 464.839 0.787743 4.08372 0
M  V30 5036 H 463.416 -0.97825 3.5984 0
M  V30 5037 N 465.601 -1.54893 0.290851 0
M  V30 5038 C 466.826 -2.04804 -0.32712 0
M  V30 5039 C 467.251 -1.16721 -1.47506 0
M  V30 5040 O 466.609 -0.169107 -1.8051 0
M  V30 5041 C 466.657 -3.52268 -0.770689 0
M  V30 5042 O 465.761 -3.67236 -1.87647 0
M  V30 5043 H 465.102 -0.660789 -0.0652227 0
M  V30 5044 H 467.632 -2.00036 0.429739 0
M  V30 5045 H 467.642 -3.9393 -1.06223 0
M  V30 5046 H 466.317 -4.15843 0.069096 0
M  V30 5047 H 464.894 -3.37479 -1.58626 0
M  V30 5048 N 467.08 -0.0183926 -1.57589 0
M  V30 5049 C 468.305 0.676634 -1.96052 0
M  V30 5050 C 468.73 1.6548 -0.894307 0
M  V30 5051 O 468.088 1.80712 0.145849 0
M  V30 5052 C 468.136 1.36872 -3.33614 0
M  V30 5053 O 467.24 2.48372 -3.29219 0
M  V30 5054 H 466.581 0.1786 -0.63953 0
M  V30 5055 H 469.111 -0.077056 -2.04455 0
M  V30 5056 H 469.121 1.72797 -3.69601 0
M  V30 5057 H 467.796 0.651636 -4.10763 0
M  V30 5058 H 466.373 2.14639 -3.04934 0
M  V30 5059 N 468.558 1.5553 0.254621 0
M  V30 5060 C 469.49 1.86104 1.33783 0
M  V30 5061 C 470.503 0.746752 1.44663 0
M  V30 5062 O 471.692 1.0248 1.46151 0
M  V30 5063 C 468.792 2.02532 2.71724 0
M  V30 5064 C 467.965 3.33335 2.83208 0
M  V30 5065 C 467.024 3.396 4.01943 0
M  V30 5066 O 466.05 4.12862 3.91834 0
M  V30 5067 N 467.252 2.68332 5.1476 0
M  V30 5068 H 470.017 2.79605 1.07893 0
M  V30 5069 H 467.578 1.55672 0.444732 0
M  V30 5070 H 469.57 2.04074 3.4948 0
M  V30 5071 H 468.14 1.15811 2.90356 0
M  V30 5072 H 467.36 3.44176 1.92189 0
M  V30 5073 H 468.648 4.19565 2.87824 0
M  V30 5074 H 468.046 2.08528 5.25864 0
M  V30 5075 H 466.603 2.75575 5.90679 0
M  V30 5076 N 470.036 -0.519951 1.48776 0
M  V30 5077 C 471.447 -1.10177 1.50725 0
M  V30 5078 C 471.798 -1.94153 0.282678 0
M  V30 5079 O 470.923 -2.07645 -0.609298 0
M  V30 5080 C 471.518 -2.00482 2.73116 0
M  V30 5081 C 470.077 -2.53862 2.77905 0
M  V30 5082 C 469.224 -1.31047 2.44381 0
M  V30 5083 H 472.175 -0.30473 1.55747 0
M  V30 5084 H 472.196 -2.8491 2.52203 0
M  V30 5085 H 471.708 -1.39335 3.62225 0
M  V30 5086 H 469.809 -3.18702 1.93029 0
M  V30 5087 H 469.922 -2.9231 3.79594 0
M  V30 5088 H 468.286 -1.62953 1.95751 0
M  V30 5089 H 469.069 -0.71637 3.35743 0
M  V30 5090 N 471.514 -1.37532 -0.769588 0
M  V30 5091 C 472.424 -1.35668 -1.91393 0
M  V30 5092 C 473.44 -0.255954 -1.72107 0
M  V30 5093 O 474.616 -0.491704 -1.95305 0
M  V30 5094 C 471.681 -1.16481 -3.26547 0
M  V30 5095 C 470.742 -2.36212 -3.58472 0
M  V30 5096 C 469.975 -2.17932 -4.87177 0
M  V30 5097 O 470.198 -1.1647 -5.58382 0
M  V30 5098 O 469.132 -3.06167 -5.18214 0
M  V30 5099 H 472.958 -2.32055 -1.95918 0
M  V30 5100 H 470.543 -1.18284 -0.912641 0
M  V30 5101 H 472.425 -1.07778 -4.07384 0
M  V30 5102 H 471.1 -0.231687 -3.2287 0
M  V30 5103 H 470.007 -2.50488 -2.77861 0
M  V30 5104 H 471.34 -3.281 -3.66894 0
M  V30 5105 N 472.992 0.995999 -1.22138 0
M  V30 5106 C 474.403 1.54961 -1.04135 0
M  V30 5107 C 474.754 1.92159 0.396147 0
M  V30 5108 O 473.879 1.74435 1.28069 0
M  V30 5109 C 474.474 2.81581 -1.88408 0
M  V30 5110 C 473.033 3.33396 -1.74712 0
M  V30 5111 C 472.18 2.06509 -1.85066 0
M  V30 5112 H 475.131 0.817436 -1.36028 0
M  V30 5113 H 475.152 3.53822 -1.39966 0
M  V30 5114 H 474.664 2.54476 -2.93025 0
M  V30 5115 H 472.765 3.65416 -0.728159 0
M  V30 5116 H 472.878 4.04208 -2.57202 0
M  V30 5117 H 471.242 2.19925 -1.28472 0
M  V30 5118 H 472.025 1.81804 -2.91208 0
M  V30 5119 N 474.47 1.03057 1.19235 0
M  V30 5120 C 475.886 0.747947 1.40989 0
M  V30 5121 C 476.086 -0.666752 1.90149 0
M  V30 5122 O 475.142 -1.43249 2.07933 0
M  V30 5123 C 476.455 1.7855 2.41951 0
M  V30 5124 C 478.003 1.80524 2.55695 0
M  V30 5125 C 478.478 2.83243 3.59913 0
M  V30 5126 N 479.969 2.8207 3.67411 0
M  V30 5127 C 480.704 3.58204 4.47747 0
M  V30 5128 N 480.2 4.44057 5.31775 0
M  V30 5129 N 481.993 3.46738 4.42413 0
M  V30 5130 H 474.144 1.94367 0.856468 0
M  V30 5131 H 476.407 0.840412 0.438647 0
M  V30 5132 H 476.113 2.79973 2.12857 0
M  V30 5133 H 475.987 1.6092 3.41152 0
M  V30 5134 H 478.374 0.79778 2.84112 0
M  V30 5135 H 478.455 2.02229 1.56643 0
M  V30 5136 H 478.099 3.84161 3.32239 0
M  V30 5137 H 478.029 2.58795 4.5862 0
M  V30 5138 H 480.52 2.19803 3.074 0
M  V30 5139 H 480.833 4.98884 5.90199 0
M  V30 5140 H 479.178 4.48129 5.3123 0
M  V30 5141 H 482.369 2.79077 3.75811 0
M  V30 5142 H 482.542 4.06322 5.04783 0
M  V30 5143 N 475.948 -1.35272 0.808662 0
M  V30 5144 C 477.176 -2.02946 0.402537 0
M  V30 5145 C 477.591 -1.60937 -0.987147 0
M  V30 5146 O 476.948 -0.807917 -1.63643 0
M  V30 5147 C 476.999 -3.58317 0.47868 0
M  V30 5148 O 476.72 -3.98799 1.81358 0
M  V30 5149 C 478.221 -4.43251 0.0656281 0
M  V30 5150 H 475.441 -0.650831 0.163279 0
M  V30 5151 H 477.985 -1.72849 1.09286 0
M  V30 5152 H 476.14 -3.87055 -0.163415 0
M  V30 5153 H 476.554 -4.93451 1.77781 0
M  V30 5154 H 478.028 -5.51738 0.170017 0
M  V30 5155 H 478.505 -4.27913 -0.989278 0
M  V30 5156 H 479.111 -4.19813 0.68096 0
M  V30 5157 N 477.426 -0.562348 -1.47226 0
M  V30 5158 C 478.674 -0.0401371 -2.0206 0
M  V30 5159 C 478.995 1.3165 -1.43852 0
M  V30 5160 O 478.265 1.85976 -0.615599 0
M  V30 5161 H 476.845 -0.0118479 -0.746906 0
M  V30 5162 H 479.507 -0.73352 -1.8057 0
M  V30 5163 H 478.603 0.0441254 -3.12069 0
M  V30 5164 N 478.904 1.54736 -0.299062 0
M  V30 5165 C 479.834 2.26409 0.571085 0
M  V30 5166 C 480.815 1.2629 1.13951 0
M  V30 5167 O 482 1.55059 1.16921 0
M  V30 5168 C 479.13 3.00338 1.74396 0
M  V30 5169 C 478.084 4.07588 1.30599 0
M  V30 5170 C 477.41 4.69222 2.56387 0
M  V30 5171 C 478.71 5.20455 0.438645 0
M  V30 5172 H 480.404 2.99388 -0.0266991 0
M  V30 5173 H 477.95 1.43993 -0.0142812 0
M  V30 5174 H 479.903 3.49198 2.35878 0
M  V30 5175 H 478.627 2.24934 2.36796 0
M  V30 5176 H 477.286 3.59575 0.71424 0
M  V30 5177 H 476.934 3.9046 3.17097 0
M  V30 5178 H 476.634 5.41653 2.27784 0
M  V30 5179 H 478.158 5.20844 3.18675 0
M  V30 5180 H 479.572 5.65221 0.959085 0
M  V30 5181 H 477.969 5.99594 0.246466 0
M  V30 5182 H 479.039 4.8192 -0.536738 0
M  V30 5183 N 480.382 0.0267497 1.57577 0
M  V30 5184 C 481.607 -0.666227 1.96408 0
M  V30 5185 C 482.032 -1.65004 0.903071 0
M  V30 5186 O 481.39 -1.80787 -0.136263 0
M  V30 5187 C 481.438 -1.35101 3.34335 0
M  V30 5188 O 480.542 -2.46623 3.30531 0
M  V30 5189 H 479.883 -0.175206 0.640468 0
M  V30 5190 H 482.413 0.0878977 2.04411 0
M  V30 5191 H 482.423 -1.70834 3.70513 0
M  V30 5192 H 481.098 -0.629844 4.11103 0
M  V30 5193 H 479.675 -2.13019 3.06068 0
M  V30 5194 N 481.861 -1.55662 -0.24637 0
M  V30 5195 C 482.791 -1.93377 -1.30873 0
M  V30 5196 C 483.772 -0.798773 -1.50179 0
M  V30 5197 O 484.957 -1.0591 -1.62778 0
M  V30 5198 C 482.087 -2.22893 -2.66338 0
M  V30 5199 C 481.041 -3.38649 -2.61727 0
M  V30 5200 C 480.367 -3.53708 -4.00992 0
M  V30 5201 C 481.667 -4.74323 -2.18666 0
M  V30 5202 H 483.361 -2.82363 -0.995552 0
M  V30 5203 H 480.907 -1.35854 -0.477464 0
M  V30 5204 H 482.86 -2.47866 -3.40794 0
M  V30 5205 H 481.584 -1.30733 -2.99293 0
M  V30 5206 H 480.243 -3.13685 -1.89729 0
M  V30 5207 H 479.891 -2.58967 -4.31214 0
M  V30 5208 H 479.591 -4.31551 -3.98795 0
M  V30 5209 H 481.115 -3.81003 -4.77147 0
M  V30 5210 H 482.529 -4.98665 -2.82854 0
M  V30 5211 H 480.926 -5.55273 -2.27579 0
M  V30 5212 H 481.996 -4.71349 -1.13834 0
M  V30 5213 N 483.339 0.512053 -1.4905 0
M  V30 5214 C 484.585 1.26613 -1.59187 0
M  V30 5215 C 484.94 1.90494 -0.270163 0
M  V30 5216 O 484.233 1.77204 0.728648 0
M  V30 5217 C 484.427 2.36446 -2.68008 0
M  V30 5218 C 484.256 1.83334 -4.10632 0
M  V30 5219 C 483.026 1.65131 -4.77556 0
M  V30 5220 C 485.224 1.35153 -4.96224 0
M  V30 5221 N 483.206 1.06833 -6.04533 0
M  V30 5222 C 484.577 0.889186 -6.13591 0
M  V30 5223 C 486.632 1.23623 -4.82309 0
M  V30 5224 C 485.335 0.322953 -7.18575 0
M  V30 5225 C 487.361 0.683978 -5.87431 0
M  V30 5226 C 486.723 0.2318 -7.04018 0
M  V30 5227 H 482.822 0.453678 -0.636946 0
M  V30 5228 H 485.406 0.575217 -1.86009 0
M  V30 5229 H 483.577 3.03012 -2.42978 0
M  V30 5230 H 485.309 3.03485 -2.67729 0
M  V30 5231 H 482.064 1.89178 -4.34176 0
M  V30 5232 H 482.488 0.796425 -6.72299 0
M  V30 5233 H 487.13 1.57184 -3.92496 0
M  V30 5234 H 484.848 -0.024943 -8.08096 0
M  V30 5235 H 488.434 0.597694 -5.78722 0
M  V30 5236 H 487.314 -0.188869 -7.83973 0
M  V30 5237 N 484.817 1.37938 0.762283 0
M  V30 5238 C 486.094 1.24196 1.51112 0
M  V30 5239 C 486.474 -0.160409 2.1049 0
M  V30 5240 O 485.822 -1.16904 1.96331 0
M  V30 5241 C 486.032 2.34537 2.58445 0
M  V30 5242 C 487.38 2.7254 3.25588 0
M  V30 5243 O 488.404 2.33783 2.68745 0
M  V30 5244 O 487.263 3.39343 4.28379 0
M  V30 5245 H 484.357 0.485175 0.669727 0
M  V30 5246 H 486.903 1.49743 0.798438 0
M  V30 5247 H 485.675 3.28406 2.12756 0
M  V30 5248 H 485.298 2.10505 3.37303 0
M  V30 5249 N 486.295 -0.989507 1.22664 0
M  V30 5250 C 487.523 -1.76496 1.07967 0
M  V30 5251 C 487.938 -1.85148 -0.369543 0
M  V30 5252 O 487.295 -1.32408 -1.25596 0
M  V30 5253 C 487.346 -3.19642 1.68853 0
M  V30 5254 O 487.067 -3.11453 3.08105 0
M  V30 5255 C 488.568 -4.13621 1.59475 0
M  V30 5256 H 485.788 -0.55418 0.378319 0
M  V30 5257 H 488.332 -1.24378 1.62328 0
M  V30 5258 H 486.487 -3.68816 1.18547 0
M  V30 5259 H 486.901 -4.01499 3.37489 0
M  V30 5260 H 488.375 -5.11801 2.06795 0
M  V30 5261 H 488.852 -4.35718 0.55191 0
M  V30 5262 H 489.458 -3.70346 2.09103 0
M  V30 5263 N 487.773 -1.03688 -1.18687 0
M  V30 5264 C 488.998 -0.757819 -1.93059 0
M  V30 5265 C 489.423 0.678353 -1.75442 0
M  V30 5266 O 488.781 1.46938 -1.06203 0
M  V30 5267 C 488.829 -1.12423 -3.42627 0
M  V30 5268 O 487.933 -0.247505 -4.11657 0
M  V30 5269 H 487.274 -0.279245 -0.602427 0
M  V30 5270 H 489.804 -1.3857 -1.5053 0
M  V30 5271 H 489.814 -1.08454 -3.93322 0
M  V30 5272 H 488.489 -2.17049 -3.54771 0
M  V30 5273 H 487.066 -0.34649 -3.71287 0
M  V30 5274 N 489.251 1.34841 -0.815825 0
M  V30 5275 C 490.662 1.80937 -0.46029 0
M  V30 5276 C 491.013 1.67685 1.01863 0
M  V30 5277 O 490.138 1.21277 1.79223 0
M  V30 5278 C 490.733 3.28509 -0.828708 0
M  V30 5279 C 489.292 3.72712 -0.525644 0
M  V30 5280 C 488.439 2.56676 -1.04941 0
M  V30 5281 H 491.39 1.22688 -1.00664 0
M  V30 5282 H 491.411 3.80279 -0.129757 0
M  V30 5283 H 490.923 3.38122 -1.90513 0
M  V30 5284 H 489.024 3.68642 0.541666 0
M  V30 5285 H 489.137 4.67119 -1.06474 0
M  V30 5286 H 487.501 2.50302 -0.471286 0
M  V30 5287 H 488.284 2.69063 -2.13214 0
M  V30 5288 N 490.729 0.570148 1.46925 0
M  V30 5289 C 491.954 0.0542592 2.07329 0
M  V30 5290 C 492.379 -1.23582 1.41806 0
M  V30 5291 O 491.737 -1.74341 0.497479 0
M  V30 5292 C 491.785 -0.111175 3.60429 0
M  V30 5293 O 490.889 -1.17071 3.95434 0
M  V30 5294 H 490.23 0.0571425 0.661537 0
M  V30 5295 H 492.76 0.789516 1.88753 0
M  V30 5296 H 492.77 -0.321315 4.06733 0
M  V30 5297 H 491.445 0.831012 4.07513 0
M  V30 5298 H 490.022 -0.940029 3.60857 0
M  V30 5299 N 492.207 -1.54576 0.307264 0
M  V30 5300 C 493.437 -2.04378 -0.302158 0
M  V30 5301 C 493.845 -1.18381 -1.47589 0
M  V30 5302 O 493.188 -0.20352 -1.82569 0
M  V30 5303 C 493.25 -3.50133 -0.815305 0
M  V30 5304 C 492.914 -4.56401 0.233977 0
M  V30 5305 C 493.911 -5.08884 1.06456 0
M  V30 5306 C 491.596 -5.0088 0.377478 0
M  V30 5307 C 493.59 -6.04394 2.02452 0
M  V30 5308 C 491.277 -5.96208 1.34088 0
M  V30 5309 C 492.275 -6.47849 2.16288 0
M  V30 5310 O 491.963 -7.41308 3.10994 0
M  V30 5311 H 491.695 -0.672502 -0.0686839 0
M  V30 5312 H 494.249 -2.00484 0.446682 0
M  V30 5313 H 492.479 -3.51371 -1.61478 0
M  V30 5314 H 494.168 -3.83098 -1.34129 0
M  V30 5315 H 494.934 -4.75311 0.964596 0
M  V30 5316 H 490.813 -4.60309 -0.252405 0
M  V30 5317 H 494.357 -6.44626 2.66652 0
M  V30 5318 H 490.254 -6.29198 1.44154 0
M  V30 5319 H 491.022 -7.5913 3.06045 0
M  V30 5320 N 493.685 -0.035106 -1.57561 0
M  V30 5321 C 494.934 0.641604 -1.91223 0
M  V30 5322 C 495.247 1.72944 -0.913761 0
M  V30 5323 O 496.453 2.46321 -1.14185 0
M  V30 5324 C 494.909 1.19249 -3.3957 0
M  V30 5325 C 494.517 0.137616 -4.47789 0
M  V30 5326 C 496.261 1.84537 -3.82291 0
M  V30 5327 C 494.168 0.700478 -5.87237 0
M  V30 5328 H 493.098 0.243417 -0.713627 0
M  V30 5329 H 495.749 -0.101382 -1.8322 0
M  V30 5330 H 494.131 1.98728 -3.42525 0
M  V30 5331 H 495.305 -0.635153 -4.56402 0
M  V30 5332 H 493.62 -0.416855 -4.14308 0
M  V30 5333 H 496.217 2.27616 -4.83834 0
M  V30 5334 H 496.56 2.69054 -3.17672 0
M  V30 5335 H 497.093 1.11739 -3.81784 0
M  V30 5336 H 493.832 -0.106693 -6.55413 0
M  V30 5337 H 493.352 1.4416 -5.82218 0
M  V30 5338 H 495.031 1.18837 -6.35993 0
M  V30 5339 N 495.163 1.55791 0.238111 0
M  V30 5340 C 496.44 1.68798 0.98826 0
M  V30 5341 C 496.82 0.577562 2.03045 0
M  V30 5342 O 496.168 -0.41778 2.24648 0
M  V30 5343 C 496.378 3.09454 1.61367 0
M  V30 5344 C 497.726 3.68335 2.11221 0
M  V30 5345 O 498.75 3.1231 1.71292 0
M  V30 5346 O 497.609 4.6657 2.84561 0
M  V30 5347 H 494.703 0.686881 0.460568 0
M  V30 5348 H 497.249 1.68118 0.231202 0
M  V30 5349 H 496.021 3.81726 0.860295 0
M  V30 5350 H 495.644 3.14182 2.4367 0
M  V30 5351 N 496.642 -0.504142 1.49319 0
M  V30 5352 C 497.589 -1.60603 1.65756 0
M  V30 5353 C 498.559 -1.58425 0.499082 0
M  V30 5354 O 499.744 -1.76459 0.725728 0
M  V30 5355 C 496.884 -2.98764 1.72726 0
M  V30 5356 C 495.997 -3.10982 2.99857 0
M  V30 5357 C 495.132 -4.39857 2.97824 0
M  V30 5358 C 494.171 -4.45697 4.19548 0
M  V30 5359 N 493.308 -5.65995 4.15444 0
M  V30 5360 H 498.148 -1.45895 2.59843 0
M  V30 5361 H 495.685 -0.709891 1.28837 0
M  V30 5362 H 497.643 -3.78839 1.74747 0
M  V30 5363 H 496.273 -3.12183 0.821075 0
M  V30 5364 H 495.325 -2.23991 3.07461 0
M  V30 5365 H 496.637 -3.11157 3.89849 0
M  V30 5366 H 495.791 -5.2825 2.98391 0
M  V30 5367 H 494.53 -4.42242 2.05604 0
M  V30 5368 H 493.535 -3.55707 4.19229 0
M  V30 5369 H 494.76 -4.4503 5.12957 0
M  V30 5370 H 492.706 -5.69229 3.26059 0
M  V30 5371 H 492.623 -5.67773 4.99169 0
M  V30 5372 H 493.891 -6.56604 4.20109 0
M  V30 5373 N 498.12 -1.38341 -0.754957 0
M  V30 5374 C 499.05 -1.38176 -1.88227 0
M  V30 5375 C 500.031 -0.247873 -1.68284 0
M  V30 5376 O 501.216 -0.45075 -1.88896 0
M  V30 5377 C 498.346 -1.20471 -3.25736 0
M  V30 5378 C 497.3 -2.3105 -3.60278 0
M  V30 5379 C 496.626 -1.98452 -4.96509 0
M  V30 5380 C 497.926 -3.73305 -3.65295 0
M  V30 5381 H 499.62 -2.32512 -1.88622 0
M  V30 5382 H 497.166 -1.1192 -0.906082 0
M  V30 5383 H 499.119 -1.18982 -4.04254 0
M  V30 5384 H 497.843 -0.225965 -3.25817 0
M  V30 5385 H 496.502 -2.31723 -2.84078 0
M  V30 5386 H 496.15 -0.990641 -4.93148 0
M  V30 5387 H 495.85 -2.7251 -5.20588 0
M  V30 5388 H 497.374 -1.98578 -5.77407 0
M  V30 5389 H 498.788 -3.7467 -4.3393 0
M  V30 5390 H 497.185 -4.46557 -4.00883 0
M  V30 5391 H 498.255 -4.05719 -2.65556 0
M  V30 5392 N 499.598 0.982988 -1.23187 0
M  V30 5393 C 500.844 1.72648 -1.06398 0
M  V30 5394 C 501.177 1.90066 0.398561 0
M  V30 5395 O 500.452 1.45105 1.29518 0
M  V30 5396 C 500.735 3.12627 -1.78707 0
M  V30 5397 C 500.588 3.02795 -3.32618 0
M  V30 5398 C 501.907 4.11997 -1.54747 0
M  V30 5399 H 499.026 0.626649 -0.387918 0
M  V30 5400 H 501.668 1.14455 -1.51658 0
M  V30 5401 H 499.818 3.62308 -1.40234 0
M  V30 5402 H 501.49 2.60659 -3.80598 0
M  V30 5403 H 499.733 2.39362 -3.61785 0
M  V30 5404 H 500.404 4.01893 -3.78399 0
M  V30 5405 H 502.88 3.71114 -1.88186 0
M  V30 5406 H 501.756 5.08037 -2.07821 0
M  V30 5407 H 502.017 4.39462 -0.482249 0
M  V30 5408 N 501.076 1.04316 1.18135 0
M  V30 5409 C 502.008 0.594444 2.21357 0
M  V30 5410 C 503.021 -0.337215 1.59269 0
M  V30 5411 O 504.21 -0.131337 1.78016 0
M  V30 5412 C 501.31 -0.151251 3.38562 0
M  V30 5413 C 500.483 0.788907 4.30227 0
M  V30 5414 C 499.542 0.0860572 5.2613 0
M  V30 5415 O 498.568 0.717302 5.64662 0
M  V30 5416 N 499.77 -1.17969 5.68387 0
M  V30 5417 H 502.535 1.48227 2.60478 0
M  V30 5418 H 500.096 0.92396 1.32946 0
M  V30 5419 H 502.088 -0.631352 3.99745 0
M  V30 5420 H 500.658 -0.940639 2.98112 0
M  V30 5421 H 499.878 1.44882 3.6661 0
M  V30 5422 H 501.166 1.42738 4.88368 0
M  V30 5423 H 500.564 -1.71302 5.3914 0
M  V30 5424 H 499.121 -1.60402 6.31755 0
M  V30 5425 N 502.554 -1.34406 0.822964 0
M  V30 5426 C 503.802 -1.97892 0.410245 0
M  V30 5427 C 504.123 -1.65567 -1.03017 0
M  V30 5428 O 503.393 -0.94642 -1.71522 0
M  V30 5429 H 501.973 -0.732049 0.148707 0
M  V30 5430 H 504.635 -1.64043 1.05242 0
M  V30 5431 H 503.731 -3.07579 0.529284 0
M  V30 5432 N 504.032 -0.577932 -1.46621 0
M  V30 5433 C 505.281 -0.0594281 -2.01612 0
M  V30 5434 C 505.594 1.30663 -1.45556 0
M  V30 5435 O 506.8 1.91621 -1.92337 0
M  V30 5436 C 505.256 -0.0556666 -3.59857 0
M  V30 5437 C 504.864 -1.41975 -4.24908 0
M  V30 5438 C 506.608 0.409143 -4.22524 0
M  V30 5439 C 504.515 -1.37397 -5.75218 0
M  V30 5440 H 503.445 -0.0184469 -0.753774 0
M  V30 5441 H 506.096 -0.728869 -1.68404 0
M  V30 5442 H 504.478 0.679843 -3.90121 0
M  V30 5443 H 505.652 -2.17461 -4.0626 0
M  V30 5444 H 503.967 -1.82419 -3.74316 0
M  V30 5445 H 506.564 0.46211 -5.32699 0
M  V30 5446 H 506.907 1.42565 -3.91128 0
M  V30 5447 H 507.44 -0.272152 -3.96868 0
M  V30 5448 H 504.179 -2.36714 -6.11267 0
M  V30 5449 H 503.699 -0.661239 -5.96144 0
M  V30 5450 H 505.378 -1.08484 -6.3784 0
M  V30 5451 N 505.51 1.54411 -0.315457 0
M  V30 5452 C 506.735 2.05299 0.294496 0
M  V30 5453 C 507.16 1.19052 1.4563 0
M  V30 5454 O 506.518 0.197804 1.80218 0
M  V30 5455 C 506.566 3.5345 0.714549 0
M  V30 5456 O 505.67 3.70175 1.81781 0
M  V30 5457 H 505.011 0.661743 0.0547019 0
M  V30 5458 H 507.541 1.99327 -0.461508 0
M  V30 5459 H 507.551 3.9557 0.999426 0
M  V30 5460 H 506.226 4.1568 -0.135244 0
M  V30 5461 H 504.803 3.3996 1.53236 0
M  V30 5462 N 506.988 0.0434614 1.5754 0
M  V30 5463 C 508.235 -0.632035 1.92384 0
M  V30 5464 C 508.563 -1.71304 0.921157 0
M  V30 5465 O 507.818 -1.95583 -0.067744 0
M  V30 5466 C 508.117 -1.2738 3.3393 0
M  V30 5467 C 507.783 -0.321757 4.49751 0
M  V30 5468 C 506.445 -0.0597611 4.81163 0
M  V30 5469 C 508.797 0.331158 5.20147 0
M  V30 5470 C 506.125 0.862715 5.80322 0
M  V30 5471 C 508.477 1.24178 6.20292 0
M  V30 5472 C 507.141 1.51252 6.50138 0
M  V30 5473 H 506.411 -0.231278 0.703983 0
M  V30 5474 H 509.058 0.108294 1.91194 0
M  V30 5475 H 507.363 -2.08921 3.3145 0
M  V30 5476 H 509.06 -1.80326 3.58167 0
M  V30 5477 H 505.65 -0.53614 4.25233 0
M  V30 5478 H 509.834 0.141826 4.96097 0
M  V30 5479 H 505.09 1.08003 6.01785 0
M  V30 5480 H 509.264 1.75381 6.73954 0
M  V30 5481 H 506.891 2.22897 7.26788 0
M  V30 5482 N 508.466 -1.55915 -0.229846 0
M  V30 5483 C 509.691 -1.8296 -0.976743 0
M  V30 5484 C 510.116 -0.622735 -1.77493 0
M  V30 5485 O 509.474 0.428431 -1.76165 0
M  V30 5486 C 509.522 -3.07916 -1.8767 0
M  V30 5487 O 508.626 -2.86028 -2.97088 0
M  V30 5488 H 507.967 -0.603453 -0.277021 0
M  V30 5489 H 510.497 -2.0312 -0.245669 0
M  V30 5490 H 510.507 -3.37802 -2.2881 0
M  V30 5491 H 509.182 -3.95389 -1.28996 0
M  V30 5492 H 507.759 -2.67355 -2.59954 0
M  V30 5493 N 509.944 0.496216 -1.49584 0
M  V30 5494 C 510.876 1.61404 -1.62731 0
M  V30 5495 C 511.889 1.54613 -0.50978 0
M  V30 5496 O 513.078 1.60458 -0.782017 0
M  V30 5497 C 510.178 3.00212 -1.57245 0
M  V30 5498 C 509.351 3.32138 -2.84611 0
M  V30 5499 C 508.41 4.5038 -2.72112 0
M  V30 5500 O 507.436 4.51926 -3.46051 0
M  V30 5501 N 508.638 5.50575 -1.83977 0
M  V30 5502 H 511.403 1.50552 -2.59141 0
M  V30 5503 H 508.964 0.684182 -1.46733 0
M  V30 5504 H 510.956 3.77241 -1.4653 0
M  V30 5505 H 509.526 3.04964 -0.686729 0
M  V30 5506 H 508.746 2.4396 -3.09641 0
M  V30 5507 H 510.034 3.50268 -3.69039 0
M  V30 5508 H 509.432 5.52128 -1.23171 0
M  V30 5509 H 507.989 6.26687 -1.79182 0
M  V30 5510 N 511.423 1.38739 0.74761 0
M  V30 5511 C 512.834 1.31507 1.32524 0
M  V30 5512 C 513.185 -0.0263963 1.96182 0
M  V30 5513 O 512.31 -0.92849 1.95469 0
M  V30 5514 C 512.905 2.38162 2.40966 0
M  V30 5515 C 511.464 2.34489 2.94434 0
M  V30 5516 C 510.611 2.20712 1.67873 0
M  V30 5517 H 513.562 1.4901 0.546043 0
M  V30 5518 H 513.583 2.04222 3.21051 0
M  V30 5519 H 513.095 3.35783 1.94605 0
M  V30 5520 H 511.196 1.40467 3.45108 0
M  V30 5521 H 511.309 3.28861 3.48407 0
M  V30 5522 H 509.673 1.67667 1.91729 0
M  V30 5523 H 510.456 3.20285 1.23582 0
M  V30 5524 N 512.901 -0.976442 1.23707 0
M  V30 5525 C 514.129 -1.75341 1.09833 0
M  V30 5526 C 514.544 -1.8553 -0.349885 0
M  V30 5527 O 513.901 -1.33732 -1.24185 0
M  V30 5528 C 513.952 -3.17833 1.72233 0
M  V30 5529 O 513.673 -3.08167 3.11391 0
M  V30 5530 C 515.174 -4.11906 1.63853 0
M  V30 5531 H 512.394 -0.550137 0.384175 0
M  V30 5532 H 514.938 -1.2265 1.63638 0
M  V30 5533 H 513.093 -3.67538 1.22452 0
M  V30 5534 H 513.507 -3.97897 3.41729 0
M  V30 5535 H 514.981 -5.09579 2.12211 0
M  V30 5536 H 515.458 -4.35109 0.598092 0
M  V30 5537 H 516.064 -3.68107 2.13019 0
M  V30 5538 N 514.379 -1.04941 -1.1758 0
M  V30 5539 C 515.619 -0.766996 -1.89464 0
M  V30 5540 C 515.983 0.693123 -1.79053 0
M  V30 5541 O 517.184 1.08953 -2.45729 0
M  V30 5542 C 515.455 -1.23108 -3.35528 0
M  V30 5543 S 517.014 -1.07565 -4.25412 0
M  V30 5544 H 513.832 -0.278616 -0.654136 0
M  V30 5545 H 516.434 -1.34352 -1.4202 0
M  V30 5546 H 515.138 -2.28896 -3.40639 0
M  V30 5547 H 514.669 -0.648724 -3.88014 0
M  V30 5548 H 516.684 0.00169467 -4.962 0
M  V30 5549 N 515.857 1.33968 -0.830081 0
M  V30 5550 C 517.268 1.80439 -0.479455 0
M  V30 5551 C 517.619 1.68756 1.00079 0
M  V30 5552 O 516.744 1.23171 1.77927 0
M  V30 5553 C 517.339 3.27611 -0.863505 0
M  V30 5554 C 515.898 3.72133 -0.565145 0
M  V30 5555 C 515.045 2.55549 -1.07657 0
M  V30 5556 H 517.996 1.21614 -1.0196 0
M  V30 5557 H 518.017 3.8012 -0.170083 0
M  V30 5558 H 517.529 3.36082 -1.94089 0
M  V30 5559 H 515.63 3.69196 0.502536 0
M  V30 5560 H 515.743 4.65963 -1.11422 0
M  V30 5561 H 514.107 2.49788 -0.497807 0
M  V30 5562 H 514.89 2.66786 -2.16055 0
M  V30 5563 N 517.335 0.585699 1.46312 0
M  V30 5564 C 518.612 0.00542031 1.95599 0
M  V30 5565 C 518.992 -1.45619 1.52834 0
M  V30 5566 O 518.34 -2.14759 0.780446 0
M  V30 5567 C 518.55 0.180601 3.48532 0
M  V30 5568 C 519.898 0.049979 4.24571 0
M  V30 5569 O 520.922 0.109589 3.56031 0
M  V30 5570 O 519.781 -0.0832226 5.46437 0
M  V30 5571 H 516.875 -0.0481281 0.825598 0
M  V30 5572 H 519.421 0.654227 1.56582 0
M  V30 5573 H 518.193 1.19657 3.72556 0
M  V30 5574 H 517.816 -0.504498 3.94386 0
M  V30 5575 N 518.813 -1.54241 0.323641 0
M  V30 5576 C 519.763 -2.21071 -0.557833 0
M  V30 5577 C 520.747 -1.19126 -1.08157 0
M  V30 5578 O 521.939 -1.44755 -1.01857 0
M  V30 5579 C 519.068 -2.97208 -1.71821 0
M  V30 5580 C 518.154 -4.06491 -1.20936 0
M  V30 5581 N 518.545 -5.04052 -0.420202 0
M  V30 5582 C 516.843 -4.20443 -1.48808 0
M  V30 5583 C 517.544 -5.81516 -0.146413 0
M  V30 5584 N 516.52 -5.38641 -0.732562 0
M  V30 5585 H 520.322 -2.93853 0.0523921 0
M  V30 5586 H 517.836 -1.61883 0.129502 0
M  V30 5587 H 519.833 -3.4357 -2.36146 0
M  V30 5588 H 518.493 -2.25947 -2.33191 0
M  V30 5589 H 519.504 -5.17862 -0.0630401 0
M  V30 5590 H 516.181 -3.60396 -2.10762 0
M  V30 5591 H 517.571 -6.70119 0.488895 0
M  V30 5592 N 520.291 -0.0518155 -1.57515 0
M  V30 5593 C 521.224 0.957758 -2.07129 0
M  V30 5594 C 522.202 1.30355 -0.971927 0
M  V30 5595 O 523.386 1.41631 -1.2439 0
M  V30 5596 C 520.513 2.27157 -2.51232 0
M  V30 5597 C 519.559 2.07879 -3.72409 0
M  V30 5598 S 520.392 1.35656 -5.18033 0
M  V30 5599 C 521.548 2.68359 -5.65451 0
M  V30 5600 H 521.781 0.53552 -2.92437 0
M  V30 5601 H 519.314 0.160465 -1.53564 0
M  V30 5602 H 521.272 3.02676 -2.77304 0
M  V30 5603 H 519.933 2.66509 -1.66228 0
M  V30 5604 H 519.126 3.05061 -4.01191 0
M  V30 5605 H 518.728 1.40499 -3.46606 0
M  V30 5606 H 521.02 3.64526 -5.71076 0
M  V30 5607 H 521.963 2.44213 -6.64654 0
M  V30 5608 H 522.371 2.74647 -4.93183 0
M  V30 5609 N 521.769 1.56035 0.221574 0
M  V30 5610 C 522.699 1.95434 1.2778 0
M  V30 5611 C 523.68 0.822564 1.48889 0
M  V30 5612 O 524.865 1.08486 1.61072 0
M  V30 5613 C 521.995 2.27102 2.62759 0
M  V30 5614 C 520.949 3.4277 2.56306 0
M  V30 5615 C 520.275 3.60043 3.95314 0
M  V30 5616 C 521.575 4.77742 2.11093 0
M  V30 5617 H 523.269 2.83912 0.950504 0
M  V30 5618 H 520.815 1.36596 0.455791 0
M  V30 5619 H 522.768 2.53256 3.36807 0
M  V30 5620 H 521.492 1.35478 2.97176 0
M  V30 5621 H 520.151 3.16664 1.84715 0
M  V30 5622 H 519.799 2.65794 4.27039 0
M  V30 5623 H 519.499 4.37841 3.91879 0
M  V30 5624 H 521.023 3.88545 4.71025 0
M  V30 5625 H 522.437 5.03102 2.74885 0
M  V30 5626 H 520.834 5.58823 2.18716 0
M  V30 5627 H 521.904 4.731 1.06321 0
M  V30 5628 N 523.247 -0.488276 1.49845 0
M  V30 5629 C 524.177 -1.59675 1.70371 0
M  V30 5630 C 525.158 -1.60878 0.552473 0
M  V30 5631 O 526.343 -1.77417 0.78973 0
M  V30 5632 C 523.473 -2.98098 1.782 0
M  V30 5633 C 522.427 -3.11761 2.93239 0
M  V30 5634 C 521.753 -4.51661 2.86193 0
M  V30 5635 C 523.053 -2.90589 4.33999 0
M  V30 5636 H 524.747 -1.42752 2.63177 0
M  V30 5637 H 522.293 -0.685317 1.26647 0
M  V30 5638 H 524.246 -3.75555 1.91144 0
M  V30 5639 H 522.97 -3.16138 0.820018 0
M  V30 5640 H 521.629 -2.36732 2.79917 0
M  V30 5641 H 521.277 -4.66595 1.87877 0
M  V30 5642 H 520.977 -4.61742 3.63412 0
M  V30 5643 H 522.501 -5.31162 3.01163 0
M  V30 5644 H 523.915 -3.57807 4.47936 0
M  V30 5645 H 522.312 -3.1213 5.12538 0
M  V30 5646 H 523.382 -1.86595 4.4756 0
M  V30 5647 N 524.725 -1.39134 -0.740242 0
M  V30 5648 C 525.673 -1.3757 -1.87556 0
M  V30 5649 C 526.667 -0.259593 -1.67399 0
M  V30 5650 O 527.873 -0.429349 -1.74804 0
M  V30 5651 H 524.248 -0.42947 -0.6173 0
M  V30 5652 H 526.219 -2.33345 -1.85991 0
M  V30 5653 C 524.968 -1.23087 -3.25184 0
M  V30 5654 H 524.291 -2.08237 -3.41288 0
M  V30 5655 H 525.731 -1.26049 -4.0483 0
M  V30 5656 C 524.19 0.0611471 -3.36845 0
M  V30 5657 O 524.72 1.03328 -3.88183 0
M  V30 5658 N 522.926 0.122454 -2.90342 0
M  V30 5659 H 522.473 -0.669329 -2.48752 0
M  V30 5660 H 522.431 0.986463 -2.98523 0
M  V30 5661 N 526.204 0.969867 -1.24223 0
M  V30 5662 C 527.429 1.75289 -1.10853 0
M  V30 5663 C 527.854 1.85091 0.335079 0
M  V30 5664 O 527.212 1.32024 1.24255 0
M  V30 5665 C 527.26 3.15255 -1.75062 0
M  V30 5666 O 526.364 3.99589 -1.01992 0
M  V30 5667 H 525.705 0.538904 -0.387915 0
M  V30 5668 H 528.235 1.21675 -1.64488 0
M  V30 5669 H 528.245 3.65787 -1.80731 0
M  V30 5670 H 526.92 3.07436 -2.801 0
M  V30 5671 H 525.497 3.58077 -1.04094 0
M  V30 5672 N 527.682 1.05563 1.17022 0
M  V30 5673 C 528.614 0.617888 2.20714 0
M  V30 5674 C 529.627 -0.320303 1.59618 0
M  V30 5675 O 530.816 -0.112449 1.78145 0
M  V30 5676 C 527.916 -0.115333 3.38704 0
M  V30 5677 C 527.089 0.834493 4.29366 0
M  V30 5678 C 526.148 0.141855 5.26009 0
M  V30 5679 O 525.174 0.777151 5.6387 0
M  V30 5680 N 526.376 -1.11934 5.69606 0
M  V30 5681 H 529.141 1.50981 2.58892 0
M  V30 5682 H 526.702 0.938008 1.31958 0
M  V30 5683 H 528.694 -0.588918 4.00392 0
M  V30 5684 H 527.264 -0.908967 2.99093 0
M  V30 5685 H 526.484 1.48762 3.65053 0
M  V30 5686 H 527.772 1.4791 4.86827 0
M  V30 5687 H 527.17 -1.65574 5.40927 0
M  V30 5688 H 525.727 -1.53692 6.33421 0
M  V30 5689 N 529.16 -1.33526 0.837174 0
M  V30 5690 C 530.09 -2.31764 0.284206 0
M  V30 5691 C 531.071 -1.58896 -0.607142 0
M  V30 5692 O 532.256 -1.86798 -0.531047 0
M  V30 5693 C 529.386 -3.43029 -0.542962 0
M  V30 5694 C 528.34 -4.27255 0.252451 0
M  V30 5695 C 527.666 -5.3012 -0.69836 0
M  V30 5696 C 528.966 -5.01229 1.46858 0
M  V30 5697 H 530.66 -2.78262 1.10502 0
M  V30 5698 H 528.206 -1.3378 0.532812 0
M  V30 5699 H 530.159 -4.1078 -0.940096 0
M  V30 5700 H 528.883 -2.95216 -1.39697 0
M  V30 5701 H 527.542 -3.61127 0.631124 0
M  V30 5702 H 527.19 -4.78564 -1.54872 0
M  V30 5703 H 526.89 -5.87353 -0.170274 0
M  V30 5704 H 528.414 -6.00737 -1.09305 0
M  V30 5705 H 529.828 -5.61756 1.14469 0
M  V30 5706 H 528.225 -5.68104 1.93333 0
M  V30 5707 H 529.295 -4.301 2.23924 0
M  V30 5708 N 530.638 -0.59345 -1.46 0
M  V30 5709 C 531.568 0.121192 -2.33185 0
M  V30 5710 C 532.549 0.872977 -1.4599 0
M  V30 5711 O 533.734 0.846321 -1.74789 0
M  V30 5712 C 530.864 1.12844 -3.28456 0
M  V30 5713 C 529.818 0.4908 -4.25177 0
M  V30 5714 C 529.144 1.60529 -5.10034 0
M  V30 5715 C 530.444 -0.578949 -5.19081 0
M  V30 5716 H 532.138 -0.606767 -2.93187 0
M  V30 5717 H 529.684 -0.293242 -1.40983 0
M  V30 5718 H 531.637 1.63684 -3.88311 0
M  V30 5719 H 530.361 1.88681 -2.66584 0
M  V30 5720 H 529.02 0.00339328 -3.666 0
M  V30 5721 H 528.668 2.35359 -4.44539 0
M  V30 5722 H 528.368 1.18422 -5.75543 0
M  V30 5723 H 529.892 2.11623 -5.72755 0
M  V30 5724 H 531.306 -0.155199 -5.7309 0
M  V30 5725 H 529.703 -0.920947 -5.92991 0
M  V30 5726 H 530.773 -1.46109 -4.62364 0
M  V30 5727 N 532.116 1.54067 -0.331816 0
M  V30 5728 C 533.364 2.00319 0.267739 0
M  V30 5729 C 533.685 1.22148 1.52003 0
M  V30 5730 O 532.955 0.325494 1.93177 0
M  V30 5731 H 531.535 0.740014 0.101922 0
M  V30 5732 H 534.197 1.89628 -0.450267 0
M  V30 5733 H 533.293 3.07765 0.518385 0
M  V30 5734 N 533.594 0.0601682 1.57485 0
M  V30 5735 C 534.822 -0.620937 1.97363 0
M  V30 5736 C 535.237 -1.63846 0.938082 0
M  V30 5737 O 534.594 -1.82339 -0.0766578 0
M  V30 5738 C 534.645 -1.29987 3.37321 0
M  V30 5739 O 534.366 -0.323081 4.36907 0
M  V30 5740 C 535.867 -2.06989 3.92008 0
M  V30 5741 H 533.087 -0.169135 0.649334 0
M  V30 5742 H 535.631 0.129132 2.04092 0
M  V30 5743 H 533.786 -2.0011 3.31715 0
M  V30 5744 H 534.2 -0.808754 5.18227 0
M  V30 5745 H 535.674 -2.49901 4.92192 0
M  V30 5746 H 536.151 -2.92173 3.2792 0
M  V30 5747 H 536.757 -1.41757 4.0098 0
M  V30 5748 N 535.072 -1.5615 -0.213296 0
M  V30 5749 C 536.483 -1.69645 -0.779582 0
M  V30 5750 C 536.834 -0.663615 -1.84636 0
M  V30 5751 O 535.959 0.183633 -2.15619 0
M  V30 5752 C 536.554 -3.07567 -1.42084 0
M  V30 5753 C 535.113 -3.22889 -1.93442 0
M  V30 5754 C 534.26 -2.65581 -0.797612 0
M  V30 5755 H 537.211 -1.58696 0.0114951 0
M  V30 5756 H 537.232 -3.03884 -2.28986 0
M  V30 5757 H 536.744 -3.82716 -0.644187 0
M  V30 5758 H 534.845 -2.52623 -2.73884 0
M  V30 5759 H 534.958 -4.30197 -2.10872 0
M  V30 5760 H 533.322 -2.24278 -1.20712 0
M  V30 5761 H 534.105 -3.43284 -0.033494 0
M  V30 5762 N 536.55 0.480323 -1.50102 0
M  V30 5763 C 537.798 1.23063 -1.60312 0
M  V30 5764 C 538.119 1.92659 -0.301226 0
M  V30 5765 O 537.389 1.83691 0.680753 0
M  V30 5766 H 535.969 0.457231 -0.590719 0
M  V30 5767 H 538.631 0.554893 -1.86834 0
M  V30 5768 H 537.727 1.9835 -2.40964 0
M  V30 5769 N 538.028 1.39524 0.732853 0
M  V30 5770 C 539.253 1.40329 1.52717 0
M  V30 5771 C 539.678 0.000286574 1.881 0
M  V30 5772 O 539.036 -0.987262 1.52062 0
M  V30 5773 C 539.084 2.28464 2.78992 0
M  V30 5774 O 538.188 1.716 3.75003 0
M  V30 5775 H 537.529 0.47778 0.461109 0
M  V30 5776 H 540.059 1.83546 0.903996 0
M  V30 5777 H 540.069 2.43051 3.27705 0
M  V30 5778 H 538.744 3.30425 2.52572 0
M  V30 5779 H 537.321 1.66267 3.33781 0
M  V30 5780 N 539.506 -0.963266 1.24736 0
M  V30 5781 C 540.731 -1.74699 1.11781 0
M  V30 5782 C 541.156 -1.85267 -0.325258 0
M  V30 5783 O 540.514 -1.32681 -1.23553 0
M  V30 5784 C 540.562 -3.14322 1.76731 0
M  V30 5785 O 539.666 -3.99043 1.04109 0
M  V30 5786 H 539.007 -0.53684 0.390767 0
M  V30 5787 H 541.537 -1.20801 1.65131 0
M  V30 5788 H 541.547 -3.64824 1.82668 0
M  V30 5789 H 540.222 -3.05946 2.81726 0
M  V30 5790 H 538.799 -3.5752 1.05991 0
M  V30 5791 N 540.985 -1.06182 -1.16461 0
M  V30 5792 C 541.917 -0.629584 -2.20383 0
M  V30 5793 C 542.93 0.311834 -1.59786 0
M  V30 5794 O 544.119 0.103 -1.78203 0
M  V30 5795 C 541.219 0.0973695 -3.3876 0
M  V30 5796 C 540.392 -0.857252 -4.28917 0
M  V30 5797 C 539.451 -0.169749 -5.25926 0
M  V30 5798 O 538.477 -0.807044 -5.6345 0
M  V30 5799 N 539.679 1.08911 -5.70192 0
M  V30 5800 H 542.444 -1.52352 -2.58087 0
M  V30 5801 H 540.005 -0.944993 -1.31459 0
M  V30 5802 H 541.997 0.567676 -4.00699 0
M  V30 5803 H 540.567 0.893093 -2.99571 0
M  V30 5804 H 539.787 -1.50696 -3.64259 0
M  V30 5805 H 541.075 -1.50489 -4.86035 0
M  V30 5806 H 540.473 1.62703 -5.41797 0
M  V30 5807 H 539.03 1.50331 -6.34227 0
M  V30 5808 N 542.463 1.3308 -0.844243 0
M  V30 5809 C 543.411 2.31028 -0.269954 0
M  V30 5810 C 544.405 1.58381 0.600997 0
M  V30 5811 O 545.611 1.73203 0.48996 0
M  V30 5812 H 541.986 0.748866 -0.0685782 0
M  V30 5813 H 543.957 2.76967 -1.11049 0
M  V30 5814 C 542.706 3.43549 0.535676 0
M  V30 5815 H 542.029 3.99604 -0.125202 0
M  V30 5816 H 543.469 4.14267 0.903262 0
M  V30 5817 C 541.928 2.8988 1.71672 0
M  V30 5818 O 542.458 2.86511 2.81557 0
M  V30 5819 N 540.664 2.46416 1.54037 0
M  V30 5820 H 540.211 2.49356 0.64649 0
M  V30 5821 H 540.169 2.1086 2.33207 0
M  V30 5822 N 543.941 0.601185 1.45683 0
M  V30 5823 C 545.352 0.179659 1.85834 0
M  V30 5824 C 545.703 -1.26189 1.50236 0
M  V30 5825 O 544.828 -1.95587 0.925987 0
M  V30 5826 C 545.423 0.319277 3.37292 0
M  V30 5827 C 543.982 -0.0475092 3.7637 0
M  V30 5828 C 543.129 0.646692 2.69654 0
M  V30 5829 H 546.08 0.808268 1.36575 0
M  V30 5830 H 546.101 -0.4503 3.77826 0
M  V30 5831 H 545.613 1.36855 3.6317 0
M  V30 5832 H 543.714 -1.0962 3.5611 0
M  V30 5833 H 543.827 0.34168 4.7788 0
M  V30 5834 H 542.191 0.0849971 2.54558 0
M  V30 5835 H 542.974 1.69797 2.98369 0
M  V30 5836 N 545.419 -1.53889 0.339982 0
M  V30 5837 C 546.665 -2.01849 -0.250694 0
M  V30 5838 C 547.02 -1.22356 -1.48482 0
M  V30 5839 O 546.313 -0.301906 -1.89206 0
M  V30 5840 C 546.507 -3.51968 -0.620735 0
M  V30 5841 C 546.336 -4.45996 0.575981 0
M  V30 5842 C 545.106 -4.93619 1.08019 0
M  V30 5843 C 547.304 -4.93923 1.43332 0
M  V30 5844 N 545.286 -5.7159 2.2396 0
M  V30 5845 C 546.657 -5.69982 2.43969 0
M  V30 5846 C 548.712 -4.76038 1.45918 0
M  V30 5847 C 547.415 -6.30057 3.47016 0
M  V30 5848 C 549.441 -5.36961 2.47845 0
M  V30 5849 C 548.803 -6.12884 3.47208 0
M  V30 5850 H 544.902 -0.780054 -0.0551368 0
M  V30 5851 H 547.486 -1.88722 0.478741 0
M  V30 5852 H 545.657 -3.65308 -1.31928 0
M  V30 5853 H 547.389 -3.86677 -1.19429 0
M  V30 5854 H 544.144 -4.69134 0.64884 0
M  V30 5855 H 544.568 -6.15247 2.82489 0
M  V30 5856 H 549.21 -4.16887 0.704608 0
M  V30 5857 H 546.928 -6.88319 4.23371 0
M  V30 5858 H 550.514 -5.2503 2.50668 0
M  V30 5859 H 549.394 -6.59187 4.24785 0
M  V30 5860 N 546.897 -0.0685191 -1.57451 0
M  V30 5861 C 547.829 0.929372 -2.09512 0
M  V30 5862 C 548.842 1.26354 -1.02657 0
M  V30 5863 O 550.031 1.2213 -1.30179 0
M  V30 5864 C 547.131 2.24612 -2.53777 0
M  V30 5865 C 546.304 2.09128 -3.84167 0
M  V30 5866 C 545.363 3.24079 -4.14559 0
M  V30 5867 O 544.389 2.99215 -4.8421 0
M  V30 5868 N 545.591 4.49077 -3.67845 0
M  V30 5869 H 548.356 0.484901 -2.95751 0
M  V30 5870 H 545.917 0.11729 -1.61475 0
M  V30 5871 H 547.909 3.00412 -2.71172 0
M  V30 5872 H 546.479 2.60569 -1.72692 0
M  V30 5873 H 545.699 1.17815 -3.76182 0
M  V30 5874 H 546.987 1.9603 -4.69521 0
M  V30 5875 H 546.385 4.72165 -3.11571 0
M  V30 5876 H 544.942 5.21915 -3.90446 0
M  V30 5877 N 548.375 1.56261 0.205012 0
M  V30 5878 C 549.791 1.49623 0.555433 0
M  V30 5879 C 549.991 0.766719 1.86343 0
M  V30 5880 O 549.047 0.313158 2.50551 0
M  V30 5881 C 550.36 2.94253 0.619347 0
M  V30 5882 C 551.908 3.04868 0.708855 0
M  V30 5883 C 552.383 4.50888 0.803969 0
M  V30 5884 N 553.874 4.54999 0.867758 0
M  V30 5885 C 554.609 5.65284 0.96135 0
M  V30 5886 N 554.105 6.85282 1.01786 0
M  V30 5887 N 555.898 5.53174 0.997771 0
M  V30 5888 H 548.049 2.0211 -0.653094 0
M  V30 5889 H 550.312 0.919333 -0.231366 0
M  V30 5890 H 550.018 3.50643 -0.272458 0
M  V30 5891 H 549.892 3.47063 1.47741 0
M  V30 5892 H 552.279 2.48532 1.5911 0
M  V30 5893 H 552.36 2.55199 -0.175205 0
M  V30 5894 H 552.004 5.07846 -0.0738798 0
M  V30 5895 H 551.934 4.98279 1.70369 0
M  V30 5896 H 554.425 3.68588 0.833735 0
M  V30 5897 H 554.738 7.65081 1.08951 0
M  V30 5898 H 553.083 6.8796 0.986706 0
M  V30 5899 H 556.274 4.5835 0.950392 0
M  V30 5900 H 556.447 6.39151 1.06725 0
M  V30 5901 N 549.853 -0.472356 1.50355 0
M  V30 5902 C 550.783 -1.57859 1.72055 0
M  V30 5903 C 551.764 -1.60283 0.569505 0
M  V30 5904 O 552.949 -1.7657 0.808503 0
M  V30 5905 C 550.079 -2.96191 1.81351 0
M  V30 5906 C 549.033 -3.08633 2.96529 0
M  V30 5907 C 548.359 -4.486 2.90968 0
M  V30 5908 C 549.659 -2.85969 4.37057 0
M  V30 5909 H 551.353 -1.39953 2.64676 0
M  V30 5910 H 548.899 -0.671846 1.27367 0
M  V30 5911 H 550.852 -3.73507 1.95117 0
M  V30 5912 H 549.576 -3.15251 0.853502 0
M  V30 5913 H 548.235 -2.33749 2.82413 0
M  V30 5914 H 547.883 -4.64577 1.92815 0
M  V30 5915 H 547.583 -4.57861 3.68289 0
M  V30 5916 H 549.107 -5.27938 3.0678 0
M  V30 5917 H 550.521 -3.53036 4.51706 0
M  V30 5918 H 548.918 -3.06677 5.15819 0
M  V30 5919 H 549.988 -1.81838 4.49514 0
M  V30 5920 N 551.331 -1.39911 -0.725443 0
M  V30 5921 C 552.577 -1.37858 -1.48738 0
M  V30 5922 C 552.91 0.0224187 -1.94187 0
M  V30 5923 O 552.185 0.989204 -1.67466 0
M  V30 5924 C 552.468 -2.3594 -2.72038 0
M  V30 5925 C 552.321 -3.85023 -2.32546 0
M  V30 5926 C 553.64 -2.31704 -3.74167 0
M  V30 5927 H 550.759 -0.502074 -0.539528 0
M  V30 5928 H 553.401 -1.70974 -0.828728 0
M  V30 5929 H 551.551 -2.0783 -3.28236 0
M  V30 5930 H 553.223 -4.2392 -1.81905 0
M  V30 5931 H 551.466 -4.01334 -1.64661 0
M  V30 5932 H 552.137 -4.49152 -3.20884 0
M  V30 5933 H 554.613 -2.5658 -3.27576 0
M  V30 5934 H 553.489 -3.02395 -4.58092 0
M  V30 5935 H 553.75 -1.3253 -4.21768 0
M  V30 5936 N 552.809 0.956637 -1.25245 0
M  V30 5937 C 553.756 2.053 -1.05454 0
M  V30 5938 C 554.726 1.66062 0.0356889 0
M  V30 5939 O 555.911 1.90415 -0.121099 0
M  V30 5940 C 553.051 3.38391 -0.677191 0
M  V30 5941 C 552.164 3.90758 -1.84206 0
M  V30 5942 C 551.299 5.12165 -1.40926 0
M  V30 5943 C 550.338 5.56757 -2.54338 0
M  V30 5944 N 549.475 6.69376 -2.11848 0
M  V30 5945 H 554.315 2.21562 -1.99284 0
M  V30 5946 H 551.852 1.08578 -0.992434 0
M  V30 5947 H 553.81 4.1488 -0.43938 0
M  V30 5948 H 552.44 3.22021 0.224127 0
M  V30 5949 H 551.492 3.10808 -2.19323 0
M  V30 5950 H 552.804 4.19802 -2.69383 0
M  V30 5951 H 551.958 5.96065 -1.13098 0
M  V30 5952 H 550.697 4.84832 -0.528175 0
M  V30 5953 H 549.702 4.71423 -2.82913 0
M  V30 5954 H 550.927 5.861 -3.43022 0
M  V30 5955 H 548.873 6.43756 -1.26153 0
M  V30 5956 H 548.79 6.97927 -2.90574 0
M  V30 5957 H 550.058 7.5669 -1.87191 0
M  V30 5958 N 554.287 1.06798 1.15896 0
M  V30 5959 C 555.703 0.792423 1.38538 0
M  V30 5960 C 555.903 -0.60592 1.92174 0
M  V30 5961 O 554.959 -1.36561 2.12385 0
M  V30 5962 C 556.272 1.86157 2.36149 0
M  V30 5963 C 557.82 1.88567 2.49823 0
M  V30 5964 C 558.295 2.9455 3.5072 0
M  V30 5965 N 559.786 2.93616 3.58251 0
M  V30 5966 C 560.521 3.72267 4.36125 0
M  V30 5967 N 560.017 4.60751 5.17379 0
M  V30 5968 N 561.81 3.60637 4.31158 0
M  V30 5969 H 553.961 1.96993 0.794198 0
M  V30 5970 H 556.224 0.853942 0.411688 0
M  V30 5971 H 555.93 2.86603 2.03843 0
M  V30 5972 H 555.804 1.71692 3.3586 0
M  V30 5973 H 558.191 0.887765 2.8143 0
M  V30 5974 H 558.272 2.0711 1.5013 0
M  V30 5975 H 557.916 3.94537 3.19849 0
M  V30 5976 H 557.846 2.73255 4.50155 0
M  V30 5977 H 560.337 2.29472 3.00252 0
M  V30 5978 H 560.65 5.17408 5.74028 0
M  V30 5979 H 558.995 4.64803 5.16704 0
M  V30 5980 H 562.186 2.90892 3.66742 0
M  V30 5981 H 562.359 4.22176 4.91601 0
M  V30 5982 N 555.766 -1.3263 0.851289 0
M  V30 5983 C 556.699 -2.26952 0.238318 0
M  V30 5984 C 557.677 -1.50243 -0.621757 0
M  V30 5985 O 558.861 -1.79378 -0.579298 0
M  V30 5986 C 555.988 -3.32124 -0.664178 0
M  V30 5987 C 555.034 -4.26325 0.122067 0
M  V30 5988 S 555.867 -5.14404 1.48824 0
M  V30 5989 C 557.023 -6.231 0.591372 0
M  V30 5990 H 557.256 -2.78594 1.03791 0
M  V30 5991 H 554.789 -1.4011 0.648731 0
M  V30 5992 H 556.747 -3.93197 -1.17924 0
M  V30 5993 H 555.408 -2.79273 -1.43755 0
M  V30 5994 H 554.601 -5.00821 -0.565181 0
M  V30 5995 H 554.203 -3.69652 0.568602 0
M  V30 5996 H 556.495 -6.77187 -0.205762 0
M  V30 5997 H 557.438 -6.95936 1.30687 0
M  V30 5998 H 557.846 -5.64252 0.167206 0
M  V30 5999 N 557.244 -0.608902 -1.45362 0
M  V30 6000 C 558.472 -0.111013 -2.06602 0
M  V30 6001 C 558.887 1.20516 -1.45332 0
M  V30 6002 O 558.244 1.73437 -0.567978 0
M  V30 6003 C 558.295 0.033688 -3.61484 0
M  V30 6004 O 558.016 -1.23041 -4.20467 0
M  V30 6005 C 559.517 0.562882 -4.39712 0
M  V30 6006 H 556.737 -0.0694453 -0.667397 0
M  V30 6007 H 559.281 -0.837008 -1.86586 0
M  V30 6008 H 557.436 0.710016 -3.80838 0
M  V30 6009 H 557.85 -1.06094 -5.13658 0
M  V30 6010 H 559.324 0.613213 -5.48583 0
M  V30 6011 H 559.801 1.58543 -4.09586 0
M  V30 6012 H 560.407 -0.0794454 -4.25226 0
M  V30 6013 N 558.722 1.53707 -0.348139 0
M  V30 6014 C 560.138 1.596 0.00361134 0
M  V30 6015 C 560.338 1.36394 1.4832 0
M  V30 6016 O 559.394 1.16046 2.24253 0
M  V30 6017 C 560.707 2.97512 -0.436682 0
M  V30 6018 C 562.255 3.10568 -0.389416 0
M  V30 6019 C 562.73 4.50866 -0.805249 0
M  V30 6020 N 564.221 4.56929 -0.759616 0
M  V30 6021 C 564.956 5.63643 -1.05327 0
M  V30 6022 N 564.452 6.78189 -1.41531 0
M  V30 6023 N 566.245 5.5354 -0.977207 0
M  V30 6024 H 558.396 1.67044 -1.31187 0
M  V30 6025 H 560.659 0.782559 -0.535075 0
M  V30 6026 H 560.365 3.19575 -1.46849 0
M  V30 6027 H 560.239 3.76742 0.185744 0
M  V30 6028 H 562.626 2.88226 0.633228 0
M  V30 6029 H 562.707 2.33387 -1.04711 0
M  V30 6030 H 562.351 4.73943 -1.82593 0
M  V30 6031 H 562.281 5.26452 -0.124989 0
M  V30 6032 H 564.772 3.74675 -0.49265 0
M  V30 6033 H 565.085 7.55541 -1.62411 0
M  V30 6034 H 563.43 6.79624 -1.45381 0
M  V30 6035 H 566.621 4.62932 -0.693675 0
M  V30 6036 H 566.794 6.36614 -1.2094 0
M  V30 6037 N 560.2 0.0768682 1.57412 0
M  V30 6038 C 561.447 -0.591085 1.93681 0
M  V30 6039 C 561.775 -1.69311 0.957286 0
M  V30 6040 O 561.03 -1.95682 -0.0262428 0
M  V30 6041 C 561.329 -1.20268 3.36557 0
M  V30 6042 C 560.995 -0.226286 4.50332 0
M  V30 6043 C 559.657 0.0423142 4.81181 0
M  V30 6044 C 562.009 0.441415 5.19327 0
M  V30 6045 C 559.337 0.985616 5.78362 0
M  V30 6046 C 561.689 1.37307 6.17519 0
M  V30 6047 C 560.353 1.65009 6.46783 0
M  V30 6048 H 559.623 -0.216293 0.70873 0
M  V30 6049 H 562.27 0.148824 1.90921 0
M  V30 6050 H 560.575 -2.01844 3.35807 0
M  V30 6051 H 562.272 -1.72688 3.61911 0
M  V30 6052 H 558.862 -0.445821 4.26275 0
M  V30 6053 H 563.046 0.247023 4.95685 0
M  V30 6054 H 558.302 1.20743 5.99359 0
M  V30 6055 H 562.476 1.89637 6.70083 0
M  V30 6056 H 560.103 2.38263 7.21897 0
M  V30 6057 N 561.678 -1.56367 -0.196722 0
M  V30 6058 C 562.925 -1.80529 -0.917366 0
M  V30 6059 C 563.253 -0.649817 -1.83324 0
M  V30 6060 O 562.508 0.36451 -1.92275 0
M  V30 6061 C 562.807 -3.10663 -1.767 0
M  V30 6062 C 562.473 -4.3962 -1.00225 0
M  V30 6063 C 561.135 -4.74653 -0.791095 0
M  V30 6064 C 563.487 -5.1913 -0.464035 0
M  V30 6065 C 560.815 -5.86692 -0.0302155 0
M  V30 6066 C 563.167 -6.31964 0.283625 0
M  V30 6067 C 561.831 -6.65581 0.505813 0
M  V30 6068 H 561.101 -0.660602 -0.335688 0
M  V30 6069 H 563.748 -1.90615 -0.183844 0
M  V30 6070 H 562.053 -2.95807 -2.56915 0
M  V30 6071 H 563.75 -3.26563 -2.32718 0
M  V30 6072 H 560.34 -4.12127 -1.17684 0
M  V30 6073 H 564.524 -4.9248 -0.614575 0
M  V30 6074 H 559.78 -6.11211 0.151917 0
M  V30 6075 H 563.954 -6.92791 0.708057 0
M  V30 6076 H 561.581 -7.52239 1.0973 0
M  V30 6077 N 563.156 0.464375 -1.50603 0
M  V30 6078 C 564.384 1.23907 -1.65695 0
M  V30 6079 C 564.799 1.85658 -0.343027 0
M  V30 6080 O 564.156 1.69529 0.675739 0
M  V30 6081 C 564.207 2.3429 -2.75301 0
M  V30 6082 O 563.928 1.7507 -4.01599 0
M  V30 6083 C 565.429 3.25051 -3.01424 0
M  V30 6084 H 562.649 0.374485 -0.556778 0
M  V30 6085 H 565.193 0.55353 -1.96866 0
M  V30 6086 H 563.348 2.98607 -2.46804 0
M  V30 6087 H 563.762 2.47812 -4.62266 0
M  V30 6088 H 565.236 3.98699 -3.81763 0
M  V30 6089 H 565.713 3.84227 -2.12758 0
M  V30 6090 H 566.319 2.66463 -3.31477 0
M  V30 6091 N 564.634 1.40294 0.718013 0
M  V30 6092 C 565.581 1.40367 1.8321 0
M  V30 6093 C 566.551 0.260952 1.64037 0
M  V30 6094 O 567.736 0.458648 1.85205 0
M  V30 6095 C 564.876 1.26965 3.20895 0
M  V30 6096 C 563.989 2.50922 3.51656 0
M  V30 6097 C 563.124 2.29981 4.78834 0
M  V30 6098 C 562.163 3.49527 5.02491 0
M  V30 6099 N 561.3 3.27796 6.20882 0
M  V30 6100 H 566.14 2.35593 1.82482 0
M  V30 6101 H 563.677 1.17012 0.891444 0
M  V30 6102 H 565.635 1.17202 4.00399 0
M  V30 6103 H 564.265 0.353591 3.20858 0
M  V30 6104 H 563.317 2.71223 2.66725 0
M  V30 6105 H 564.629 3.39913 3.65048 0
M  V30 6106 H 563.783 2.17558 5.66351 0
M  V30 6107 H 562.522 1.38411 4.67647 0
M  V30 6108 H 561.527 3.6243 4.1343 0
M  V30 6109 H 562.752 4.42021 5.15553 0
M  V30 6110 H 560.698 2.38906 6.1095 0
M  V30 6111 H 560.615 4.10351 6.34939 0
M  V30 6112 H 561.883 3.19101 7.11193 0
M  V30 6113 N 566.112 -0.949982 1.2575 0
M  V30 6114 C 567.042 -2.06483 1.09028 0
M  V30 6115 C 568.023 -1.701 -0.00201532 0
M  V30 6116 O 569.208 -1.93469 0.168383 0
M  V30 6117 C 566.338 -3.39899 0.71316 0
M  V30 6118 C 565.292 -3.90309 1.75621 0
M  V30 6119 C 564.618 -5.20274 1.23365 0
M  V30 6120 C 565.918 -4.16169 3.15596 0
M  V30 6121 H 567.612 -2.20731 2.02283 0
M  V30 6122 H 565.158 -1.06066 0.973964 0
M  V30 6123 H 567.111 -4.17346 0.58309 0
M  V30 6124 H 565.835 -3.25602 -0.255091 0
M  V30 6125 H 564.494 -3.15035 1.8748 0
M  V30 6126 H 564.142 -5.02351 0.255491 0
M  V30 6127 H 563.842 -5.54971 1.93082 0
M  V30 6128 H 565.366 -6.00314 1.11607 0
M  V30 6129 H 566.78 -4.84259 3.06864 0
M  V30 6130 H 565.177 -4.62131 3.82825 0
M  V30 6131 H 566.247 -3.22273 3.6231 0
M  V30 6132 N 567.59 -1.07411 -1.15328 0
M  V30 6133 C 568.867 -0.710732 -1.82231 0
M  V30 6134 C 569.247 0.806732 -1.95077 0
M  V30 6135 O 568.595 1.72139 -1.50268 0
M  V30 6136 C 568.805 -1.42586 -3.18544 0
M  V30 6137 C 570.153 -1.57836 -3.94174 0
M  V30 6138 O 571.177 -1.38669 -3.281 0
M  V30 6139 O 570.036 -1.8938 -5.12638 0
M  V30 6140 H 567.13 -0.25297 -0.78736 0
M  V30 6141 H 569.676 -1.17508 -1.22434 0
M  V30 6142 H 568.448 -2.46008 -3.04296 0
M  V30 6143 H 568.071 -0.952332 -3.86026 0
M  V30 6144 N 569.068 1.32177 -0.85831 0
M  V30 6145 C 570.031 2.27086 -0.310588 0
M  V30 6146 C 571.031 1.51751 0.531806 0
M  V30 6147 O 572.221 1.70794 0.34279 0
M  V30 6148 C 569.353 3.36266 0.560179 0
M  V30 6149 H 570.546 2.77045 -1.1483 0
M  V30 6150 H 568.099 1.42911 -0.632942 0
M  V30 6151 H 568.834 2.9158 1.41956 0
M  V30 6152 H 568.619 3.92077 -0.0428473 0
M  V30 6153 H 570.109 4.06974 0.936056 0
M  V30 6154 N 570.547 0.616602 1.45037 0
M  V30 6155 C 571.824 0.0469086 1.95544 0
M  V30 6156 C 572.204 -1.42345 1.55888 0
M  V30 6157 O 571.552 -2.13055 0.825824 0
M  V30 6158 C 571.762 0.254489 3.48071 0
M  V30 6159 C 573.11 0.140025 4.24369 0
M  V30 6160 O 574.134 0.185084 3.55719 0
M  V30 6161 O 572.993 0.0327034 5.4649 0
M  V30 6162 H 570.087 -0.0306051 0.826433 0
M  V30 6163 H 572.633 0.687293 1.55159 0
M  V30 6164 H 571.405 1.27532 3.69934 0
M  V30 6165 H 571.028 -0.42073 3.95368 0
M  V30 6166 N 572.025 -1.5352 0.356285 0
M  V30 6167 C 572.972 -2.25439 -0.494569 0
M  V30 6168 C 573.942 -1.25752 -1.08516 0
M  V30 6169 O 575.127 -1.54513 -1.1194 0
M  V30 6170 C 572.267 -3.04011 -1.63313 0
M  V30 6171 C 571.38 -4.18574 -1.06862 0
M  V30 6172 C 570.515 -4.84607 -2.17552 0
M  V30 6173 C 569.554 -5.91218 -1.58518 0
M  V30 6174 N 568.691 -6.50979 -2.63003 0
M  V30 6175 H 573.531 -2.97737 0.125244 0
M  V30 6176 H 571.068 -1.46916 0.0735789 0
M  V30 6177 H 573.026 -3.47834 -2.30363 0
M  V30 6178 H 571.656 -2.33986 -2.22374 0
M  V30 6179 H 570.708 -3.79303 -0.288672 0
M  V30 6180 H 572.02 -4.95215 -0.596924 0
M  V30 6181 H 571.174 -5.31566 -2.92442 0
M  V30 6182 H 569.913 -4.07418 -2.6807 0
M  V30 6183 H 568.918 -5.4363 -0.821391 0
M  V30 6184 H 570.143 -6.70322 -1.08836 0
M  V30 6185 H 568.089 -5.76648 -3.12751 0
M  V30 6186 H 568.006 -7.23131 -2.20493 0
M  V30 6187 H 569.274 -7.02589 -3.37623 0
M  V30 6188 N 573.503 -0.0852151 -1.57369 0
M  V30 6189 C 574.728 0.592872 -1.98746 0
M  V30 6190 C 575.153 1.61538 -0.963689 0
M  V30 6191 O 574.511 1.81168 0.069071 0
M  V30 6192 C 574.559 1.22599 -3.39119 0
M  V30 6193 O 573.663 2.34185 -3.39457 0
M  V30 6194 H 573.004 0.151314 -0.646529 0
M  V30 6195 H 575.534 -0.163703 -2.03944 0
M  V30 6196 H 575.544 1.56965 -3.76598 0
M  V30 6197 H 574.219 0.476831 -4.13158 0
M  V30 6198 H 572.796 2.01512 -3.13763 0
M  V30 6199 N 574.981 1.5647 0.188427 0
M  V30 6200 C 576.211 1.84863 0.922463 0
M  V30 6201 C 576.619 0.666413 1.77075 0
M  V30 6202 O 575.962 -0.374044 1.79852 0
M  V30 6203 C 576.024 3.07447 1.86324 0
M  V30 6204 C 575.688 4.41066 1.19625 0
M  V30 6205 C 576.685 5.16767 0.569946 0
M  V30 6206 C 574.37 4.87802 1.19811 0
M  V30 6207 C 576.364 6.37384 -0.045594 0
M  V30 6208 C 574.051 6.08353 0.57874 0
M  V30 6209 C 575.049 6.82987 -0.0420259 0
M  V30 6210 O 574.737 8.01254 -0.651675 0
M  V30 6211 H 574.469 0.61784 0.274316 0
M  V30 6212 H 577.023 2.04437 0.198613 0
M  V30 6213 H 575.253 2.83774 2.62696 0
M  V30 6214 H 576.942 3.2243 2.46564 0
M  V30 6215 H 577.708 4.81749 0.560601 0
M  V30 6216 H 573.587 4.29662 1.67069 0
M  V30 6217 H 577.131 6.95578 -0.530731 0
M  V30 6218 H 573.028 6.42838 0.58561 0
M  V30 6219 H 573.796 8.16655 -0.549236 0
M  V30 6220 N 576.459 -0.456382 1.50847 0
M  V30 6221 C 577.391 -1.57033 1.66953 0
M  V30 6222 C 578.404 -1.53207 0.550593 0
M  V30 6223 O 579.593 -1.58328 0.824285 0
M  V30 6224 C 576.693 -2.95937 1.65149 0
M  V30 6225 C 575.866 -3.24475 2.93317 0
M  V30 6226 C 574.925 -4.43007 2.83957 0
M  V30 6227 O 573.951 -4.42592 3.57912 0
M  V30 6228 N 575.153 -5.45503 1.9851 0
M  V30 6229 H 577.918 -1.43629 2.63042 0
M  V30 6230 H 575.479 -0.645037 1.48495 0
M  V30 6231 H 577.471 -3.73224 1.56481 0
M  V30 6232 H 576.041 -3.03036 0.767343 0
M  V30 6233 H 575.261 -2.35664 3.16 0
M  V30 6234 H 576.549 -3.4036 3.78196 0
M  V30 6235 H 575.947 -5.48668 1.37766 0
M  V30 6236 H 574.504 -6.21716 1.95735 0
M  V30 6237 N 577.937 -1.40673 -0.710563 0
M  V30 6238 C 579.177 -1.40677 -1.48288 0
M  V30 6239 C 579.541 -0.0097193 -1.91998 0
M  V30 6240 O 580.742 0.115381 -2.68552 0
M  V30 6241 C 579.013 -2.37289 -2.67262 0
M  V30 6242 S 580.572 -2.55694 -3.56603 0
M  V30 6243 H 577.39 -0.498545 -0.506926 0
M  V30 6244 H 579.992 -1.76984 -0.830472 0
M  V30 6245 H 578.696 -3.37617 -2.3333 0
M  V30 6246 H 578.227 -2.02282 -3.3741 0
M  V30 6247 H 580.242 -1.81311 -4.61888 0
M  V30 6248 N 579.415 0.9433 -1.26252 0
M  V30 6249 C 580.345 2.05902 -1.10122 0
M  V30 6250 C 581.326 1.70099 -0.00700552 0
M  V30 6251 O 582.511 1.93377 -0.178641 0
M  V30 6252 C 579.641 3.39516 -0.731175 0
M  V30 6253 C 578.595 3.89372 -1.77688 0
M  V30 6254 C 577.921 5.19613 -1.26122 0
M  V30 6255 C 579.221 4.14489 -3.17799 0
M  V30 6256 H 580.915 2.19655 -2.03451 0
M  V30 6257 H 578.461 1.05548 -0.979576 0
M  V30 6258 H 580.414 4.17031 -0.605215 0
M  V30 6259 H 579.138 3.25733 0.23782 0
M  V30 6260 H 577.797 3.14036 -1.89148 0
M  V30 6261 H 577.445 5.02208 -0.282128 0
M  V30 6262 H 577.145 5.53939 -1.96023 0
M  V30 6263 H 578.669 5.99713 -1.14789 0
M  V30 6264 H 580.083 4.82625 -3.09428 0
M  V30 6265 H 578.48 4.60094 -3.85271 0
M  V30 6266 H 579.55 3.20347 -3.64014 0
M  V30 6267 N 580.893 1.08022 1.14757 0
M  V30 6268 C 581.84 0.706657 2.19716 0
M  V30 6269 C 582.81 -0.30525 1.63271 0
M  V30 6270 O 583.995 -0.19015 1.8985 0
M  V30 6271 C 581.135 0.117914 3.44898 0
M  V30 6272 C 580.248 1.18212 4.15512 0
M  V30 6273 C 579.383 0.557659 5.28265 0
M  V30 6274 C 578.422 1.60418 5.90705 0
M  V30 6275 N 577.559 1.0018 6.94916 0
M  V30 6276 H 582.399 1.60603 2.51019 0
M  V30 6277 H 579.936 0.802664 1.23271 0
M  V30 6278 H 581.894 -0.241112 4.16503 0
M  V30 6279 H 580.524 -0.744788 3.1409 0
M  V30 6280 H 579.576 1.65863 3.42335 0
M  V30 6281 H 580.888 1.97533 4.5802 0
M  V30 6282 H 580.042 0.146654 6.06523 0
M  V30 6283 H 578.781 -0.267249 4.86967 0
M  V30 6284 H 577.786 2.02489 5.11154 0
M  V30 6285 H 579.011 2.43149 6.34078 0
M  V30 6286 H 576.957 0.197917 6.55701 0
M  V30 6287 H 576.874 1.73216 7.35889 0
M  V30 6288 H 578.142 0.616523 7.77058 0
M  V30 6289 N 582.371 -1.3172 0.865308 0
M  V30 6290 C 583.281 -2.32394 0.320935 0
M  V30 6291 C 584.297 -1.64511 -0.566746 0
M  V30 6292 O 585.473 -1.95969 -0.464575 0
M  V30 6293 C 582.538 -3.43462 -0.472701 0
M  V30 6294 C 581.599 -4.27015 0.442385 0
M  V30 6295 C 580.832 -5.32779 -0.313469 0
M  V30 6296 O 581.055 -5.49158 -1.54214 0
M  V30 6297 O 579.989 -6.01015 0.326257 0
M  V30 6298 H 583.815 -2.80868 1.15528 0
M  V30 6299 H 581.4 -1.35535 0.628545 0
M  V30 6300 H 583.282 -4.11172 -0.922781 0
M  V30 6301 H 581.957 -2.97159 -1.28367 0
M  V30 6302 H 580.864 -3.62075 0.940866 0
M  V30 6303 H 582.197 -4.76871 1.21882 0
M  V30 6304 N 583.85 -0.624285 -1.44708 0
M  V30 6305 C 585.077 -0.132919 -2.06473 0
M  V30 6306 C 585.493 1.18967 -1.46602 0
M  V30 6307 O 584.85 1.72824 -0.586341 0
M  V30 6308 C 584.901 -0.00465418 -3.615 0
M  V30 6309 O 584.622 -1.27494 -4.19138 0
M  V30 6310 C 586.123 0.516213 -4.40284 0
M  V30 6311 H 583.343 -0.0765201 -0.666623 0
M  V30 6312 H 585.887 -0.856751 -1.85688 0
M  V30 6313 H 584.042 0.669583 -3.8157 0
M  V30 6314 H 584.456 -1.11536 -5.12504 0
M  V30 6315 H 585.93 0.554994 -5.49203 0
M  V30 6316 H 586.407 1.5419 -4.11245 0
M  V30 6317 H 587.013 -0.124542 -4.25118 0
M  V30 6318 N 585.328 1.53329 -0.364422 0
M  V30 6319 C 586.568 2.0315 0.22572 0
M  V30 6320 C 586.932 1.24589 1.46087 0
M  V30 6321 O 588.133 1.64411 2.12656 0
M  V30 6322 C 586.404 3.53718 0.511663 0
M  V30 6323 S 587.963 4.25412 1.07564 0
M  V30 6324 H 584.781 0.70795 0.0657843 0
M  V30 6325 H 587.383 1.88811 -0.507019 0
M  V30 6326 H 586.087 4.08497 -0.394784 0
M  V30 6327 H 585.618 3.72217 1.27351 0
M  V30 6328 H 587.633 4.36486 2.35997 0
M  V30 6329 N 586.806 0.0935595 1.57322 0
M  V30 6330 C 587.716 -0.880192 2.17462 0
M  V30 6331 C 588.732 -1.31135 1.14366 0
M  V30 6332 O 589.908 -1.37958 1.46729 0
M  V30 6333 C 586.973 -2.12184 2.74188 0
M  V30 6334 C 586.034 -1.74503 3.92234 0
M  V30 6335 C 585.267 -2.92748 4.46245 0
M  V30 6336 O 585.49 -4.07427 3.99198 0
M  V30 6337 O 584.424 -2.71303 5.37288 0
M  V30 6338 H 588.25 -0.398516 3.01074 0
M  V30 6339 H 585.835 -0.130707 1.48827 0
M  V30 6340 H 587.717 -2.84953 3.10451 0
M  V30 6341 H 586.392 -2.59407 1.93623 0
M  V30 6342 H 585.299 -0.989186 3.60785 0
M  V30 6343 H 586.632 -1.32044 4.74157 0
M  V30 6344 N 588.284 -1.56567 -0.180126 0
M  V30 6345 C 589.231 -1.95725 -1.22313 0
M  V30 6346 C 590.201 -0.819911 -1.44453 0
M  V30 6347 O 591.386 -1.07931 -1.57339 0
M  V30 6348 C 588.526 -2.31484 -2.55947 0
M  V30 6349 C 587.639 -3.58354 -2.4126 0
M  V30 6350 C 586.774 -3.83366 -3.67701 0
M  V30 6351 C 585.813 -5.03612 -3.47909 0
M  V30 6352 N 584.95 -5.24802 -4.66398 0
M  V30 6353 H 589.79 -2.84642 -0.882198 0
M  V30 6354 H 587.327 -1.4085 -0.42422 0
M  V30 6355 H 589.285 -2.50237 -3.33822 0
M  V30 6356 H 587.915 -1.45689 -2.88053 0
M  V30 6357 H 586.967 -3.47565 -1.54606 0
M  V30 6358 H 588.279 -4.46386 -2.22577 0
M  V30 6359 H 587.433 -4.02439 -4.54013 0
M  V30 6360 H 586.172 -2.93692 -3.89353 0
M  V30 6361 H 585.177 -4.84447 -2.59983 0
M  V30 6362 H 586.402 -5.94809 -3.27688 0
M  V30 6363 H 584.348 -4.38079 -4.88286 0
M  V30 6364 H 584.265 -6.07041 -4.50596 0
M  V30 6365 H 585.533 -5.48346 -5.54019 0
M  V30 6366 N 589.762 0.448376 -1.51087 0
M  V30 6367 C 590.692 1.55102 -1.74544 0
M  V30 6368 C 591.673 1.59357 -0.594932 0
M  V30 6369 O 592.858 1.75261 -0.836491 0
M  V30 6370 C 589.988 2.93268 -1.86041 0
M  V30 6371 C 588.942 3.03877 -3.01402 0
M  V30 6372 C 588.268 4.43914 -2.98068 0
M  V30 6373 C 589.568 2.7898 -4.41551 0
M  V30 6374 H 591.262 1.35724 -2.66869 0
M  V30 6375 H 588.808 0.651498 -1.28419 0
M  V30 6376 H 590.761 3.70356 -2.01034 0
M  V30 6377 H 589.485 3.13853 -0.903548 0
M  V30 6378 H 588.144 2.29227 -2.86096 0
M  V30 6379 H 587.792 4.6145 -2.00182 0
M  V30 6380 H 587.492 4.51944 -3.75527 0
M  V30 6381 H 589.016 5.22991 -3.1514 0
M  V30 6382 H 590.43 3.45805 -4.57265 0
M  V30 6383 H 588.827 2.98431 -5.20633 0
M  V30 6384 H 589.897 1.74663 -4.5235 0
M  V30 6385 N 591.24 1.41047 0.703093 0
M  V30 6386 C 592.488 1.39723 1.4602 0
M  V30 6387 C 592.809 0.00461257 1.94999 0
M  V30 6388 O 592.079 -0.952292 1.71196 0
M  V30 6389 H 590.659 0.514281 0.541779 0
M  V30 6390 H 593.321 1.76217 0.832678 0
M  V30 6391 H 592.417 2.07982 2.32701 0
M  V30 6392 N 592.718 -0.936591 1.26751 0
M  V30 6393 C 593.948 -1.71509 1.15188 0
M  V30 6394 C 594.356 -1.86885 -0.295037 0
M  V30 6395 O 593.699 -1.37915 -1.21347 0
M  V30 6396 C 593.761 -3.13853 1.75318 0
M  V30 6397 C 593.425 -3.21845 3.24445 0
M  V30 6398 C 594.422 -3.04771 4.21201 0
M  V30 6399 C 592.107 -3.45088 3.64992 0
M  V30 6400 C 594.101 -3.10816 5.56482 0
M  V30 6401 C 591.788 -3.50767 5.00405 0
M  V30 6402 C 592.786 -3.33648 5.9596 0
M  V30 6403 O 592.474 -3.39045 7.28906 0
M  V30 6404 H 592.206 -0.543658 0.401761 0
M  V30 6405 H 594.76 -1.18234 1.67958 0
M  V30 6406 H 592.99 -3.6857 1.17016 0
M  V30 6407 H 594.679 -3.73634 1.58596 0
M  V30 6408 H 595.445 -2.86665 3.91214 0
M  V30 6409 H 591.324 -3.57467 2.91098 0
M  V30 6410 H 594.868 -2.97372 6.31043 0
M  V30 6411 H 590.765 -3.68396 5.30052 0
M  V30 6412 H 591.533 -3.55558 7.37238 0
M  V30 6413 N 594.196 -1.08629 -1.14182 0
M  V30 6414 C 595.128 -0.676189 -2.18998 0
M  V30 6415 C 596.141 0.277871 -1.60411 0
M  V30 6416 O 597.33 0.0651771 -1.78381 0
M  V30 6417 C 594.43 0.0254916 -3.3889 0
M  V30 6418 C 593.603 -0.948039 -4.27002 0
M  V30 6419 C 592.662 -0.281268 -5.25448 0
M  V30 6420 O 591.688 -0.926378 -5.61611 0
M  V30 6421 N 592.89 0.967923 -5.72374 0
M  V30 6422 H 595.655 -1.57792 -2.54798 0
M  V30 6423 H 593.216 -0.972665 -1.29425 0
M  V30 6424 H 595.208 0.482554 -4.01813 0
M  V30 6425 H 593.778 0.829348 -3.01398 0
M  V30 6426 H 592.998 -1.58388 -3.6098 0
M  V30 6427 H 594.286 -1.60765 -4.82734 0
M  V30 6428 H 593.684 1.51175 -5.45126 0
M  V30 6429 H 592.241 1.36844 -6.37273 0
M  V30 6430 N 595.674 1.31259 -0.872281 0
M  V30 6431 C 596.92 1.973 -0.494414 0
M  V30 6432 C 597.275 1.67684 0.94339 0
M  V30 6433 O 596.568 0.964186 1.65572 0
M  V30 6434 C 596.762 3.50659 -0.690889 0
M  V30 6435 C 596.591 3.95179 -2.14624 0
M  V30 6436 C 595.361 4.21405 -2.7883 0
M  V30 6437 C 597.559 4.08948 -3.11875 0
M  V30 6438 N 595.541 4.52295 -4.15093 0
M  V30 6439 C 596.912 4.43576 -4.33174 0
M  V30 6440 C 598.967 3.91334 -3.07835 0
M  V30 6441 C 597.67 4.62429 -5.50956 0
M  V30 6442 C 599.696 4.11381 -4.24876 0
M  V30 6443 C 599.058 4.46343 -5.44938 0
M  V30 6444 H 595.157 0.747411 -0.230002 0
M  V30 6445 H 597.741 1.58741 -1.12736 0
M  V30 6446 H 595.912 3.88301 -0.0875162 0
M  V30 6447 H 597.644 4.03722 -0.281179 0
M  V30 6448 H 594.399 4.14131 -2.29767 0
M  V30 6449 H 594.823 4.71897 -4.8543 0
M  V30 6450 H 599.465 3.6339 -2.16119 0
M  V30 6451 H 597.183 4.8922 -6.43187 0
M  V30 6452 H 600.769 3.99235 -4.23205 0
M  V30 6453 H 599.649 4.6154 -6.33996 0
M  V30 6454 N 597.152 0.631951 1.44375 0
M  V30 6455 C 598.099 -0.0724807 2.30686 0
M  V30 6456 C 599.069 -0.835975 1.43529 0
M  V30 6457 O 600.254 -0.816849 1.7243 0
M  V30 6458 C 597.394 -1.04753 3.28817 0
M  V30 6459 C 596.507 -0.282367 4.31076 0
M  V30 6460 C 595.642 -1.2493 5.163 0
M  V30 6461 C 594.681 -0.473349 6.10267 0
M  V30 6462 N 593.818 -1.39079 6.88187 0
M  V30 6463 H 598.658 0.669477 2.90383 0
M  V30 6464 H 596.195 0.341927 1.43071 0
M  V30 6465 H 598.153 -1.62623 3.842 0
M  V30 6466 H 596.783 -1.75661 2.70819 0
M  V30 6467 H 595.835 0.412268 3.78159 0
M  V30 6468 H 597.147 0.321955 4.9776 0
M  V30 6469 H 596.301 -1.89931 5.76204 0
M  V30 6470 H 595.04 -1.88755 4.49692 0
M  V30 6471 H 594.045 0.190142 5.49471 0
M  V30 6472 H 595.27 0.16019 6.78911 0
M  V30 6473 H 593.216 -2.01623 6.24247 0
M  V30 6474 H 593.133 -0.840513 7.51313 0
M  V30 6475 H 594.401 -2.02961 7.52613 0
M  V30 6476 N 598.631 -1.53133 0.372548 0
M  V30 6477 C 599.578 -2.25951 -0.470631 0
M  V30 6478 C 600.548 -1.26895 -1.07176 0
M  V30 6479 O 601.733 -1.55691 -1.10294 0
M  V30 6480 C 598.873 -3.05726 -1.6008 0
M  V30 6481 C 597.986 -4.19684 -1.02416 0
M  V30 6482 C 597.121 -4.86888 -2.124 0
M  V30 6483 C 596.16 -5.92866 -1.52238 0
M  V30 6484 N 595.297 -6.53732 -2.56084 0
M  V30 6485 H 600.137 -2.97587 0.156816 0
M  V30 6486 H 597.674 -1.4683 0.0891571 0
M  V30 6487 H 599.632 -3.50258 -2.26661 0
M  V30 6488 H 598.262 -2.36331 -2.1988 0
M  V30 6489 H 597.314 -3.79588 -0.248426 0
M  V30 6490 H 598.626 -4.95821 -0.544366 0
M  V30 6491 H 597.78 -5.34638 -2.86787 0
M  V30 6492 H 596.519 -4.10239 -2.63734 0
M  V30 6493 H 595.524 -5.4447 -0.763685 0
M  V30 6494 H 596.749 -6.71439 -1.0172 0
M  V30 6495 H 594.695 -5.79932 -3.06618 0
M  V30 6496 H 594.612 -7.25429 -2.12811 0
M  V30 6497 H 595.88 -7.0613 -3.30152 0
M  V30 6498 N 600.109 -0.101901 -1.5727 0
M  V30 6499 C 601.334 0.571759 -1.99363 0
M  V30 6500 C 601.759 1.60507 -0.980768 0
M  V30 6501 O 601.117 1.81231 0.0498517 0
M  V30 6502 C 601.165 1.18996 -3.404 0
M  V30 6503 O 600.269 2.30572 -3.41922 0
M  V30 6504 H 599.61 0.144449 -0.648098 0
M  V30 6505 H 602.14 -0.185325 -2.03759 0
M  V30 6506 H 602.15 1.52962 -3.78241 0
M  V30 6507 H 600.825 0.432984 -4.1364 0
M  V30 6508 H 599.402 1.98173 -3.15883 0
M  V30 6509 N 601.587 1.56661 0.17182 0
M  V30 6510 C 602.827 1.83762 0.895029 0
M  V30 6511 C 603.191 0.682752 1.79451 0
M  V30 6512 O 604.392 0.834208 2.55528 0
M  V30 6513 C 602.663 3.15976 1.67015 0
M  V30 6514 S 604.222 3.64558 2.44219 0
M  V30 6515 H 601.04 0.644713 0.299778 0
M  V30 6516 H 603.642 1.94871 0.156701 0
M  V30 6517 H 602.346 3.98021 1.00039 0
M  V30 6518 H 601.877 3.07807 2.44986 0
M  V30 6519 H 603.892 3.31845 3.68909 0
M  V30 6520 N 603.065 -0.440357 1.51323 0
M  V30 6521 C 603.998 -1.55414 1.67098 0
M  V30 6522 C 604.976 -1.54108 0.518599 0
M  V30 6523 O 606.16 -1.7328 0.742054 0
M  V30 6524 C 603.287 -2.93996 1.68179 0
M  V30 6525 C 602.333 -3.13338 2.89347 0
M  V30 6526 S 603.166 -2.89957 4.50206 0
M  V30 6527 C 604.322 -4.30826 4.54027 0
M  V30 6528 H 604.555 -1.41798 2.61306 0
M  V30 6529 H 602.088 -0.629841 1.40969 0
M  V30 6530 H 604.046 -3.73878 1.69487 0
M  V30 6531 H 602.707 -3.04976 0.751542 0
M  V30 6532 H 601.9 -4.14652 2.86495 0
M  V30 6533 H 601.502 -2.41276 2.85766 0
M  V30 6534 H 603.794 -5.23977 4.29481 0
M  V30 6535 H 604.737 -4.38712 5.55822 0
M  V30 6536 H 605.145 -4.1434 3.83384 0
M  V30 6537 N 604.543 -1.41418 -0.695603 0
M  V30 6538 C 605.491 -1.43467 -1.83084 0
M  V30 6539 C 606.485 -0.312719 -1.66489 0
M  V30 6540 O 607.691 -0.484744 -1.7335 0
M  V30 6541 H 604.066 -0.448891 -0.603325 0
M  V30 6542 H 606.037 -2.39144 -1.78473 0
M  V30 6543 C 604.786 -1.3337 -3.21104 0
M  V30 6544 H 604.109 -2.18989 -3.3449 0
M  V30 6545 H 605.549 -1.38865 -4.00615 0
M  V30 6546 C 604.008 -0.0460484 -3.36869 0
M  V30 6547 O 604.538 0.909258 -3.91274 0
M  V30 6548 N 602.744 0.0300222 -2.90584 0
M  V30 6549 H 602.291 -0.748129 -2.46497 0
M  V30 6550 H 602.249 0.890991 -3.01511 0
M  V30 6551 N 606.021 0.929856 -1.27246 0
M  V30 6552 C 606.953 2.03434 -1.0558 0
M  V30 6553 C 607.966 1.62795 -0.0125762 0
M  V30 6554 O 609.155 1.76685 -0.2539 0
M  V30 6555 C 606.255 3.33915 -0.57912 0
M  V30 6556 C 605.428 4.03259 -1.69415 0
M  V30 6557 C 604.487 5.12014 -1.21357 0
M  V30 6558 O 603.513 5.36097 -1.91282 0
M  V30 6559 N 604.715 5.8046 -0.0680622 0
M  V30 6560 H 607.48 2.22583 -2.00691 0
M  V30 6561 H 605.041 1.1001 -1.18783 0
M  V30 6562 H 607.033 4.03978 -0.241563 0
M  V30 6563 H 605.603 3.11355 0.278703 0
M  V30 6564 H 604.823 3.26958 -2.20209 0
M  V30 6565 H 606.111 4.46337 -2.44255 0
M  V30 6566 H 605.509 5.63345 0.515626 0
M  V30 6567 H 604.066 6.51461 0.210332 0
M  V30 6568 N 607.499 1.09233 1.13605 0
M  V30 6569 C 608.745 0.828385 1.8511 0
M  V30 6570 C 609.078 -0.64437 1.83198 0
M  V30 6571 O 608.353 -1.47428 1.26867 0
M  V30 6572 C 608.636 1.36167 3.33363 0
M  V30 6573 C 608.489 2.90038 3.438 0
M  V30 6574 C 609.808 0.993819 4.28732 0
M  V30 6575 H 606.927 0.30239 0.672108 0
M  V30 6576 H 609.569 1.35339 1.33355 0
M  V30 6577 H 607.719 0.9151 3.77569 0
M  V30 6578 H 609.391 3.43128 3.08319 0
M  V30 6579 H 607.634 3.27271 2.84739 0
M  V30 6580 H 608.305 3.22428 4.48045 0
M  V30 6581 H 610.781 1.37893 3.92587 0
M  V30 6582 H 609.657 1.39403 5.30903 0
M  V30 6583 H 609.918 -0.0982206 4.41991 0
M  V30 6584 N 608.977 -1.30795 0.87923 0
M  V30 6585 C 610.205 -2.00527 0.509548 0
M  V30 6586 C 610.62 -1.65944 -0.90045 0
M  V30 6587 O 609.977 -0.893525 -1.5913 0
M  V30 6588 C 610.028 -3.55276 0.667943 0
M  V30 6589 O 609.749 -3.88625 2.02242 0
M  V30 6590 C 611.25 -4.4228 0.300494 0
M  V30 6591 H 608.47 -0.641261 0.197549 0
M  V30 6592 H 611.014 -1.66813 1.18295 0
M  V30 6593 H 609.169 -3.87377 0.0419843 0
M  V30 6594 H 609.583 -4.83334 2.03688 0
M  V30 6595 H 611.057 -5.50061 0.462242 0
M  V30 6596 H 611.534 -4.32556 -0.76106 0
M  V30 6597 H 612.14 -4.15613 0.902536 0
M  V30 6598 N 610.455 -0.639598 -1.44038 0
M  V30 6599 C 611.704 -0.144885 -2.01179 0
M  V30 6600 C 612.017 1.24372 -1.50967 0
M  V30 6601 O 613.223 1.83291 -2.00292 0
M  V30 6602 C 611.679 -0.208244 -3.59297 0
M  V30 6603 C 611.287 -1.59869 -4.18504 0
M  V30 6604 C 613.031 0.229568 -4.23879 0
M  V30 6605 C 610.938 -1.61671 -5.68873 0
M  V30 6606 H 609.868 -0.0504005 -0.752314 0
M  V30 6607 H 612.519 -0.799639 -1.65161 0
M  V30 6608 H 610.901 0.513767 -3.92653 0
M  V30 6609 H 612.075 -2.34496 -3.96671 0
M  V30 6610 H 610.39 -1.98131 -3.66242 0
M  V30 6611 H 612.987 0.235758 -5.3418 0
M  V30 6612 H 613.33 1.25848 -3.96822 0
M  V30 6613 H 613.863 -0.440233 -3.95357 0
M  V30 6614 H 610.602 -2.62427 -6.00677 0
M  V30 6615 H 610.122 -0.913489 -5.92803 0
M  V30 6616 H 611.801 -1.35439 -6.32665 0
M  V30 6617 N 611.933 1.52934 -0.380664 0
M  V30 6618 C 613.158 2.06363 0.207157 0
M  V30 6619 C 613.583 1.25122 1.4045 0
M  V30 6620 O 612.941 0.274062 1.79217 0
M  V30 6621 C 612.989 3.56162 0.563996 0
M  V30 6622 O 612.093 3.77552 1.65917 0
M  V30 6623 H 611.434 0.663468 0.0265859 0
M  V30 6624 H 613.964 1.9719 -0.545635 0
M  V30 6625 H 613.974 3.99453 0.830752 0
M  V30 6626 H 612.649 4.14732 -0.311427 0
M  V30 6627 H 611.226 3.46154 1.3868 0
M  V30 6628 N 613.412 0.11024 1.57214 0
M  V30 6629 C 614.64 -0.557834 1.99238 0
M  V30 6630 C 615.055 -1.60778 0.989734 0
M  V30 6631 O 614.412 -1.82491 -0.0186092 0
M  V30 6632 C 614.463 -1.19189 3.41286 0
M  V30 6633 O 614.184 -0.183919 4.37714 0
M  V30 6634 C 615.685 -1.94413 3.98395 0
M  V30 6635 H 612.905 -0.148392 0.654386 0
M  V30 6636 H 615.449 0.193996 2.03578 0
M  V30 6637 H 613.604 -1.89456 3.37913 0
M  V30 6638 H 614.018 -0.643475 5.20538 0
M  V30 6639 H 615.492 -2.34116 4.99894 0
M  V30 6640 H 615.969 -2.81592 3.3705 0
M  V30 6641 H 616.575 -1.28928 4.05287 0
M  V30 6642 N 614.89 -1.56749 -0.16351 0
M  V30 6643 C 616.118 -1.86577 -0.894233 0
M  V30 6644 C 616.533 -0.696543 -1.75481 0
M  V30 6645 O 615.89 0.334161 -1.79415 0
M  V30 6646 C 615.941 -3.15508 -1.76456 0
M  V30 6647 O 615.662 -4.27926 -0.938685 0
M  V30 6648 C 617.163 -3.58737 -2.60428 0
M  V30 6649 H 614.383 -0.618829 -0.259405 0
M  V30 6650 H 616.927 -2.03863 -0.161259 0
M  V30 6651 H 615.082 -3.00025 -2.45079 0
M  V30 6652 H 615.496 -5.01546 -1.53465 0
M  V30 6653 H 616.97 -4.51832 -3.17099 0
M  V30 6654 H 617.447 -2.83229 -3.35675 0
M  V30 6655 H 618.053 -3.76858 -1.97125 0
M  V30 6656 N 616.368 0.432326 -1.51554 0
M  V30 6657 C 617.645 1.19288 -1.55015 0
M  V30 6658 C 618.025 2.08701 -0.317375 0
M  V30 6659 O 617.373 2.17602 0.697243 0
M  V30 6660 C 617.583 1.99037 -2.86679 0
M  V30 6661 C 618.931 2.55907 -3.38817 0
M  V30 6662 O 619.955 2.09243 -2.88263 0
M  V30 6663 O 618.814 3.41029 -4.27038 0
M  V30 6664 H 615.908 0.543369 -0.623441 0
M  V30 6665 H 618.454 0.440988 -1.6387 0
M  V30 6666 H 617.226 1.33397 -3.6786 0
M  V30 6667 H 616.849 2.81281 -2.8101 0
M  V30 6668 N 617.846 1.41785 0.688094 0
M  V30 6669 C 619.262 1.24419 0.999608 0
M  V30 6670 C 619.462 0.138868 2.01021 0
M  V30 6671 O 618.518 -0.494283 2.47615 0
M  V30 6672 C 619.831 2.59625 1.51709 0
M  V30 6673 C 621.379 2.66869 1.63554 0
M  V30 6674 C 621.854 4.0241 2.18702 0
M  V30 6675 N 623.345 4.04295 2.26053 0
M  V30 6676 C 624.08 5.05977 2.69768 0
M  V30 6677 N 623.576 6.18047 3.13033 0
M  V30 6678 N 625.369 4.93336 2.69398 0
M  V30 6679 H 617.52 2.12392 0.0187427 0
M  V30 6680 H 619.783 0.945347 0.0708673 0
M  V30 6681 H 619.489 3.41297 0.849059 0
M  V30 6682 H 619.363 2.82628 2.49803 0
M  V30 6683 H 621.75 1.8555 2.29467 0
M  V30 6684 H 621.831 2.47668 0.639857 0
M  V30 6685 H 621.475 4.8418 1.53402 0
M  V30 6686 H 621.405 4.18955 3.19037 0
M  V30 6687 H 623.896 3.23383 1.9553 0
M  V30 6688 H 624.209 6.91498 3.45038 0
M  V30 6689 H 622.554 6.21572 3.10923 0
M  V30 6690 H 625.745 4.04865 2.34952 0
M  V30 6691 H 625.918 5.72717 3.03148 0
M  V30 6692 N 619.324 -0.923095 1.27737 0
M  V30 6693 C 620.74 -1.19985 1.05241 0
M  V30 6694 C 620.94 -2.00391 -0.21113 0
M  V30 6695 O 619.996 -2.35324 -0.915366 0
M  V30 6696 C 621.309 -1.94352 2.29451 0
M  V30 6697 C 622.857 -2.07273 2.34536 0
M  V30 6698 C 623.332 -2.85046 3.58487 0
M  V30 6699 N 624.823 -2.92612 3.59072 0
M  V30 6700 C 625.558 -3.53266 4.51654 0
M  V30 6701 N 625.054 -4.15274 5.54545 0
M  V30 6702 N 626.847 -3.50714 4.39268 0
M  V30 6703 H 618.998 -0.386042 2.08862 0
M  V30 6704 H 621.261 -0.233407 0.918817 0
M  V30 6705 H 620.967 -1.42692 3.21453 0
M  V30 6706 H 620.841 -2.94947 2.3513 0
M  V30 6707 H 623.228 -2.58117 1.43037 0
M  V30 6708 H 623.309 -1.05884 2.32857 0
M  V30 6709 H 622.953 -2.34884 4.50324 0
M  V30 6710 H 622.883 -3.8673 3.57418 0
M  V30 6711 H 625.374 -2.48547 2.84663 0
M  V30 6712 H 625.687 -4.59507 6.21348 0
M  V30 6713 H 624.032 -4.13806 5.58382 0
M  V30 6714 H 627.223 -3.01475 3.58093 0
M  V30 6715 H 627.396 -3.97693 5.1161 0
M  V30 6716 N 620.802 -1.09834 -1.13024 0
M  V30 6717 C 621.75 -0.736283 -2.20639 0
M  V30 6718 C 622.744 0.264725 -1.67319 0
M  V30 6719 O 623.95 0.125745 -1.7956 0
M  V30 6720 H 620.325 -0.220136 -0.719058 0
M  V30 6721 H 622.296 -1.65295 -2.48436 0
M  V30 6722 C 621.045 -0.177544 -3.47246 0
M  V30 6723 H 620.368 -0.939009 -3.88616 0
M  V30 6724 H 621.808 0.0378007 -4.23983 0
M  V30 6725 C 620.267 1.08824 -3.1884 0
M  V30 6726 O 620.797 2.1708 -3.37993 0
M  V30 6727 N 619.003 1.00442 -2.7269 0
M  V30 6728 H 618.55 0.123383 -2.57304 0
M  V30 6729 H 618.508 1.85206 -2.5406 0
M  V30 6730 N 622.28 1.30327 -0.886154 0
M  V30 6731 C 623.228 2.30052 -0.343317 0
M  V30 6732 C 624.222 1.60212 0.550305 0
M  V30 6733 O 625.428 1.74674 0.434609 0
M  V30 6734 H 621.803 0.746306 -0.0923681 0
M  V30 6735 H 623.774 2.73294 -1.19804 0
M  V30 6736 C 622.523 3.45079 0.426107 0
M  V30 6737 H 621.846 3.99003 -0.25227 0
M  V30 6738 H 623.286 4.16931 0.771009 0
M  V30 6739 C 621.745 2.95195 1.62363 0
M  V30 6740 O 622.275 2.95323 2.723 0
M  V30 6741 N 620.481 2.51192 1.4612 0
M  V30 6742 H 620.028 2.51286 0.566832 0
M  V30 6743 H 619.986 2.18173 2.2638 0
M  V30 6744 N 623.758 0.647228 1.43697 0
M  V30 6745 C 624.705 -0.0480092 2.3075 0
M  V30 6746 C 625.675 -0.820705 1.44408 0
M  V30 6747 O 626.86 -0.798515 1.73287 0
M  V30 6748 C 624 -1.01259 3.2991 0
M  V30 6749 C 623.113 -0.236629 4.31351 0
M  V30 6750 C 622.248 -1.19447 5.17596 0
M  V30 6751 C 621.287 -0.408595 6.10735 0
M  V30 6752 N 620.424 -1.31772 6.89623 0
M  V30 6753 H 625.264 0.700238 2.89656 0
M  V30 6754 H 622.801 0.357082 1.427 0
M  V30 6755 H 624.759 -1.58538 3.85903 0
M  V30 6756 H 623.389 -1.72778 2.72667 0
M  V30 6757 H 622.441 0.452353 3.77701 0
M  V30 6758 H 623.753 0.374731 4.9739 0
M  V30 6759 H 622.907 -1.83809 5.78186 0
M  V30 6760 H 621.646 -1.83975 4.51669 0
M  V30 6761 H 620.651 0.24841 5.49239 0
M  V30 6762 H 621.876 0.232188 6.78703 0
M  V30 6763 H 619.822 -1.94991 6.2635 0
M  V30 6764 H 619.739 -0.760779 7.52162 0
M  V30 6765 H 621.007 -1.94967 7.54724 0
M  V30 6766 N 625.236 -1.5273 0.388769 0
M  V30 6767 C 626.166 -2.29353 -0.438111 0
M  V30 6768 C 627.147 -1.32719 -1.06394 0
M  V30 6769 O 628.332 -1.61612 -1.07681 0
M  V30 6770 C 625.462 -3.09995 -1.56589 0
M  V30 6771 C 624.416 -4.14509 -1.06613 0
M  V30 6772 C 623.742 -4.83372 -2.28594 0
M  V30 6773 C 625.042 -5.22127 -0.134459 0
M  V30 6774 H 626.736 -2.98723 0.201206 0
M  V30 6775 H 624.282 -1.43665 0.0982089 0
M  V30 6776 H 626.235 -3.62357 -2.15118 0
M  V30 6777 H 624.959 -2.38357 -2.23279 0
M  V30 6778 H 623.618 -3.63128 -0.503383 0
M  V30 6779 H 623.266 -4.08283 -2.93792 0
M  V30 6780 H 622.966 -5.54012 -1.95817 0
M  V30 6781 H 624.49 -5.38538 -2.87766 0
M  V30 6782 H 625.904 -5.69851 -0.627914 0
M  V30 6783 H 624.301 -6.00011 0.103534 0
M  V30 6784 H 625.371 -4.77971 0.816798 0
M  V30 6785 N 626.714 -0.118576 -1.57153 0
M  V30 6786 C 627.963 0.539339 -1.94355 0
M  V30 6787 C 628.276 1.67858 -1.00415 0
M  V30 6788 O 629.482 2.39922 -1.27081 0
M  V30 6789 C 627.938 1.01082 -3.45414 0
M  V30 6790 C 627.546 -0.0999402 -4.47889 0
M  V30 6791 C 629.29 1.64013 -3.91535 0
M  V30 6792 C 627.197 0.388212 -5.90124 0
M  V30 6793 H 626.127 0.205247 -0.725527 0
M  V30 6794 H 628.778 -0.19836 -1.82425 0
M  V30 6795 H 627.16 1.80292 -3.52577 0
M  V30 6796 H 628.334 -0.876189 -4.52393 0
M  V30 6797 H 626.649 -0.635885 -4.11516 0
M  V30 6798 H 629.246 2.01649 -4.95219 0
M  V30 6799 H 629.589 2.51836 -3.31488 0
M  V30 6800 H 630.122 0.913439 -3.87171 0
M  V30 6801 H 626.861 -0.453963 -6.53926 0
M  V30 6802 H 626.381 1.13095 -5.89041 0
M  V30 6803 H 628.06 0.849574 -6.41398 0
M  V30 6804 N 628.193 1.56834 0.155195 0
M  V30 6805 C 629.44 1.82898 0.869179 0
M  V30 6806 C 629.768 0.698194 1.81537 0
M  V30 6807 O 629.023 -0.313404 1.93174 0
M  V30 6808 C 629.322 3.15239 1.68402 0
M  V30 6809 C 628.988 4.42123 0.885341 0
M  V30 6810 C 627.65 4.76583 0.664971 0
M  V30 6811 C 630.002 5.20178 0.326234 0
M  V30 6812 C 627.33 5.86566 -0.125346 0
M  V30 6813 C 629.682 6.3099 -0.45108 0
M  V30 6814 C 628.346 6.64006 -0.682102 0
M  V30 6815 H 627.616 0.66927 0.318055 0
M  V30 6816 H 630.263 1.91036 0.133241 0
M  V30 6817 H 628.568 3.02515 2.48982 0
M  V30 6818 H 630.265 3.32618 2.23978 0
M  V30 6819 H 626.855 4.15102 1.06716 0
M  V30 6820 H 631.039 4.93936 0.483787 0
M  V30 6821 H 626.295 6.10594 -0.313915 0
M  V30 6822 H 630.469 6.9067 -0.89149 0
M  V30 6823 H 628.096 7.49065 -1.29636 0
M  V30 6824 N 629.671 -0.424282 1.51781 0
M  V30 6825 C 630.618 -1.51591 1.74037 0
M  V30 6826 C 631.588 -1.55556 0.582358 0
M  V30 6827 O 632.773 -1.72364 0.818245 0
M  V30 6828 C 629.913 -2.89188 1.8832 0
M  V30 6829 C 629.026 -2.9465 3.1592 0
M  V30 6830 C 628.161 -4.23452 3.20721 0
M  V30 6831 C 627.2 -4.22831 4.42584 0
M  V30 6832 N 626.337 -5.43178 4.44862 0
M  V30 6833 H 631.177 -1.31917 2.67212 0
M  V30 6834 H 628.714 -0.640599 1.32419 0
M  V30 6835 H 630.672 -3.69044 1.94583 0
M  V30 6836 H 629.302 -3.07392 0.985402 0
M  V30 6837 H 628.354 -2.07378 3.18902 0
M  V30 6838 H 629.666 -2.90055 4.05795 0
M  V30 6839 H 628.82 -5.1169 3.25973 0
M  V30 6840 H 627.559 -4.30722 2.28757 0
M  V30 6841 H 626.564 -3.32984 4.37495 0
M  V30 6842 H 627.789 -4.17213 5.35826 0
M  V30 6843 H 625.735 -5.51145 3.55775 0
M  V30 6844 H 625.652 -5.40515 5.28563 0
M  V30 6845 H 626.92 -6.33412 4.54324 0
M  V30 6846 N 631.149 -1.42148 -0.680565 0
M  V30 6847 C 632.395 -1.42521 -1.44277 0
M  V30 6848 C 632.728 -0.0393718 -1.9416 0
M  V30 6849 O 632.003 0.935425 -1.70529 0
M  V30 6850 C 632.286 -2.44475 -2.64394 0
M  V30 6851 C 632.139 -3.92226 -2.20179 0
M  V30 6852 C 633.458 -2.43491 -3.66606 0
M  V30 6853 H 630.577 -0.518985 -0.523282 0
M  V30 6854 H 633.219 -1.73524 -0.773914 0
M  V30 6855 H 631.369 -2.18168 -3.21458 0
M  V30 6856 H 633.041 -4.29493 -1.68327 0
M  V30 6857 H 631.284 -4.0637 -1.5181 0
M  V30 6858 H 631.955 -4.59133 -3.06433 0
M  V30 6859 H 634.431 -2.66872 -3.19247 0
M  V30 6860 H 633.307 -3.16816 -4.4824 0
M  V30 6861 H 633.568 -1.45881 -4.17338 0
M  V30 6862 N 632.627 0.916307 -1.28225 0
M  V30 6863 C 633.575 2.03977 -1.11786 0
M  V30 6864 C 634.569 1.69358 -0.0378265 0
M  V30 6865 O 635.775 1.78925 -0.196405 0
M  V30 6866 H 632.15 0.66829 -0.344809 0
M  V30 6867 H 634.121 2.14985 -2.06939 0
M  V30 6868 C 632.87 3.38518 -0.7938 0
M  V30 6869 H 632.193 3.65649 -1.61682 0
M  V30 6870 H 633.633 4.17864 -0.718719 0
M  V30 6871 C 632.092 3.33134 0.502353 0
M  V30 6872 O 632.622 3.71281 1.53341 0
M  V30 6873 N 630.828 2.86229 0.502147 0
M  V30 6874 H 630.375 2.55382 -0.337338 0
M  V30 6875 H 630.333 2.83009 1.36942 0
M  V30 6876 N 634.105 1.10431 1.1244 0
M  V30 6877 C 635.035 0.775143 2.20258 0
M  V30 6878 C 636.016 -0.25186 1.68225 0
M  V30 6879 O 637.201 -0.117637 1.93843 0
M  V30 6880 C 634.331 0.206133 3.46688 0
M  V30 6881 C 633.285 1.16382 4.11873 0
M  V30 6882 C 632.611 0.456014 5.32752 0
M  V30 6883 C 633.911 2.5104 4.58013 0
M  V30 6884 H 635.605 1.67665 2.4805 0
M  V30 6885 H 633.151 0.807595 1.19222 0
M  V30 6886 H 635.104 -0.036291 4.21384 0
M  V30 6887 H 633.828 -0.730614 3.18323 0
M  V30 6888 H 632.487 1.39169 3.39157 0
M  V30 6889 H 632.135 -0.485203 5.00654 0
M  V30 6890 H 631.835 1.09466 5.77314 0
M  V30 6891 H 633.359 0.222135 6.10196 0
M  V30 6892 H 634.773 2.32401 5.24083 0
M  V30 6893 H 633.17 3.10789 5.13352 0
M  V30 6894 H 634.24 3.11039 3.71998 0
M  V30 6895 N 635.583 -1.29855 0.893053 0
M  V30 6896 C 636.513 -2.3035 0.382249 0
M  V30 6897 C 637.494 -1.61328 -0.539203 0
M  V30 6898 O 638.679 -1.88882 -0.451342 0
M  V30 6899 C 635.809 -3.45024 -0.396983 0
M  V30 6900 C 634.763 -4.258 0.433437 0
M  V30 6901 C 634.089 -5.32605 -0.472889 0
M  V30 6902 C 635.389 -4.94549 1.67984 0
M  V30 6903 H 637.083 -2.73325 1.22205 0
M  V30 6904 H 634.629 -1.314 0.589073 0
M  V30 6905 H 636.582 -4.14398 -0.765024 0
M  V30 6906 H 635.306 -3.00875 -1.2705 0
M  V30 6907 H 633.965 -3.58125 0.783723 0
M  V30 6908 H 633.613 -4.84702 -1.34435 0
M  V30 6909 H 633.313 -5.87547 0.0789958 0
M  V30 6910 H 634.837 -6.04832 -0.837269 0
M  V30 6911 H 636.251 -5.56395 1.38192 0
M  V30 6912 H 634.648 -5.59393 2.17254 0
M  V30 6913 H 635.718 -4.20215 2.41965 0
M  V30 6914 N 637.061 -0.65484 -1.43351 0
M  V30 6915 C 637.971 0.0363603 -2.34572 0
M  V30 6916 C 638.987 0.810432 -1.53974 0
M  V30 6917 O 640.163 0.757308 -1.86619 0
M  V30 6918 C 637.228 0.989733 -3.32273 0
M  V30 6919 C 636.289 0.212414 -4.28774 0
M  V30 6920 C 635.522 1.12038 -5.21808 0
M  V30 6921 O 635.745 2.35967 -5.19303 0
M  V30 6922 O 634.679 0.59191 -5.98982 0
M  V30 6923 H 638.505 -0.714527 -2.95175 0
M  V30 6924 H 636.09 -0.415029 -1.4352 0
M  V30 6925 H 637.972 1.53759 -3.92347 0
M  V30 6926 H 636.647 1.72082 -2.74171 0
M  V30 6927 H 635.554 -0.379062 -3.72175 0
M  V30 6928 H 636.887 -0.479138 -4.89862 0
M  V30 6929 N 638.539 1.52521 -0.396863 0
M  V30 6930 C 639.472 2.23118 0.478926 0
M  V30 6931 C 640.45 1.23475 1.05796 0
M  V30 6932 O 641.634 1.52486 1.10817 0
M  V30 6933 C 638.761 2.95028 1.66362 0
M  V30 6934 C 637.807 4.09002 1.20913 0
M  V30 6935 S 638.64 5.35182 0.184407 0
M  V30 6936 C 639.796 6.10616 1.37471 0
M  V30 6937 H 640.029 2.97056 -0.120542 0
M  V30 6938 H 637.562 1.53334 -0.18109 0
M  V30 6939 H 639.52 3.37066 2.34301 0
M  V30 6940 H 638.181 2.20756 2.23441 0
M  V30 6941 H 637.374 4.58445 2.09389 0
M  V30 6942 H 636.976 3.69016 0.608559 0
M  V30 6943 H 639.268 6.37247 2.30048 0
M  V30 6944 H 640.211 7.02084 0.921051 0
M  V30 6945 H 640.619 5.41499 1.59495 0
M  V30 6946 N 640.017 0.126909 1.57088 0
M  V30 6947 C 641.294 -0.573152 1.87014 0
M  V30 6948 C 641.674 -1.84297 1.02945 0
M  V30 6949 O 641.022 -2.28232 0.110573 0
M  V30 6950 C 641.232 -0.857984 3.38289 0
M  V30 6951 C 642.58 -1.20759 4.07066 0
M  V30 6952 O 643.604 -0.947992 3.43353 0
M  V30 6953 O 642.463 -1.69516 5.19545 0
M  V30 6954 H 639.557 -0.290082 0.774456 0
M  V30 6955 H 642.103 0.162008 1.68925 0
M  V30 6956 H 640.875 0.0415286 3.91278 0
M  V30 6957 H 640.498 -1.64803 3.61837 0
M  V30 6958 N 641.495 -1.56914 -0.146875 0
M  V30 6959 C 642.772 -1.74273 -0.888165 0
M  V30 6960 C 643.152 -0.69496 -1.99333 0
M  V30 6961 O 642.5 0.286093 -2.26702 0
M  V30 6962 C 642.71 -3.18336 -1.43051 0
M  V30 6963 C 644.058 -3.80024 -1.89387 0
M  V30 6964 O 645.082 -3.21765 -1.52792 0
M  V30 6965 O 643.941 -4.82367 -2.56874 0
M  V30 6966 H 641.035 -0.712565 -0.419738 0
M  V30 6967 H 643.581 -1.6918 -0.132791 0
M  V30 6968 H 642.353 -3.86092 -0.636274 0
M  V30 6969 H 641.976 -3.27854 -2.24938 0
M  V30 6970 N 642.974 0.416227 -1.52004 0
M  V30 6971 C 643.921 1.50666 -1.74838 0
M  V30 6972 C 644.891 1.55245 -0.590599 0
M  V30 6973 O 646.076 1.71928 -0.827374 0
M  V30 6974 C 643.216 2.88185 -1.89851 0
M  V30 6975 C 642.329 2.92971 -3.17478 0
M  V30 6976 C 641.464 4.21745 -3.22962 0
M  V30 6977 C 640.503 4.20478 -4.4482 0
M  V30 6978 N 639.64 5.40811 -4.47736 0
M  V30 6979 H 644.48 1.30498 -2.67907 0
M  V30 6980 H 642.017 0.633568 -1.32757 0
M  V30 6981 H 643.975 3.68007 -1.96537 0
M  V30 6982 H 642.605 3.06865 -1.00169 0
M  V30 6983 H 641.657 2.05684 -3.19997 0
M  V30 6984 H 642.969 2.87899 -4.07328 0
M  V30 6985 H 642.123 5.09954 -3.28682 0
M  V30 6986 H 640.862 4.29503 -2.31038 0
M  V30 6987 H 639.867 3.30659 -4.39254 0
M  V30 6988 H 641.092 4.14366 -5.38031 0
M  V30 6989 H 639.038 5.4925 -3.58692 0
M  V30 6990 H 638.955 5.37705 -5.31422 0
M  V30 6991 H 640.223 6.30993 -4.57676 0
M  V30 6992 N 644.452 1.42507 0.673017 0
M  V30 6993 C 645.701 1.42364 1.42883 0
M  V30 6994 C 646.014 0.0441598 1.9555 0
M  V30 6995 O 647.22 -0.0798679 2.71382 0
M  V30 6996 C 645.676 2.5043 2.58482 0
M  V30 6997 C 645.284 3.94392 2.12506 0
M  V30 6998 C 647.028 2.59455 3.35981 0
M  V30 6999 C 644.935 4.93964 3.25198 0
M  V30 7000 H 643.865 0.52951 0.536782 0
M  V30 7001 H 646.516 1.68422 0.728448 0
M  V30 7002 H 644.898 2.1754 3.30896 0
M  V30 7003 H 646.072 4.36645 1.47233 0
M  V30 7004 H 644.387 3.89233 1.4794 0
M  V30 7005 H 646.984 3.31025 4.19912 0
M  V30 7006 H 647.327 1.63869 3.82691 0
M  V30 7007 H 647.86 2.91549 2.70637 0
M  V30 7008 H 644.599 5.91034 2.83477 0
M  V30 7009 H 644.119 4.56341 3.89247 0
M  V30 7010 H 645.798 5.15763 3.90637 0
M  V30 7011 N 645.93 -0.909495 1.28709 0
M  V30 7012 C 646.86 -2.0291 1.15542 0
M  V30 7013 C 647.841 -1.7002 0.0521017 0
M  V30 7014 O 649.026 -1.92835 0.229849 0
M  V30 7015 C 646.156 -3.37458 0.820935 0
M  V30 7016 C 645.11 -3.84524 1.87949 0
M  V30 7017 C 644.436 -5.16086 1.39854 0
M  V30 7018 C 645.736 -4.05918 3.28676 0
M  V30 7019 H 647.43 -2.14183 2.09203 0
M  V30 7020 H 644.976 -1.02913 1.00722 0
M  V30 7021 H 646.929 -4.1528 0.715571 0
M  V30 7022 H 645.653 -3.26249 -0.151374 0
M  V30 7023 H 644.312 -3.08911 1.97408 0
M  V30 7024 H 643.96 -5.01284 0.41518 0
M  V30 7025 H 643.66 -5.48547 2.1064 0
M  V30 7026 H 645.184 -5.96459 1.30649 0
M  V30 7027 H 646.598 -4.74252 3.22115 0
M  V30 7028 H 644.995 -4.49717 3.97334 0
M  V30 7029 H 646.065 -3.10583 3.72379 0
M  V30 7030 N 647.408 -1.11026 -1.11852 0
M  V30 7031 C 648.654 -0.857729 -1.83768 0
M  V30 7032 C 648.987 0.615143 -1.842 0
M  V30 7033 O 648.262 1.45391 -1.29196 0
M  V30 7034 C 648.545 -1.41453 -3.31154 0
M  V30 7035 C 648.398 -2.95471 -3.39142 0
M  V30 7036 C 649.717 -1.0619 -4.27097 0
M  V30 7037 H 646.836 -0.313044 -0.667212 0
M  V30 7038 H 649.478 -1.37443 -1.31185 0
M  V30 7039 H 647.628 -0.975052 -3.76065 0
M  V30 7040 H 649.3 -3.4799 -3.02821 0
M  V30 7041 H 647.543 -3.31759 -2.79497 0
M  V30 7042 H 648.214 -3.29515 -4.42859 0
M  V30 7043 H 650.69 -1.44122 -3.90344 0
M  V30 7044 H 649.566 -1.47832 -5.28618 0
M  V30 7045 H 649.827 0.0278912 -4.42091 0
M  V30 7046 N 648.886 1.2938 -0.899927 0
M  V30 7047 C 650.163 1.9046 -0.445443 0
M  V30 7048 C 650.543 1.81683 1.07492 0
M  V30 7049 O 649.891 1.24371 1.91688 0
M  V30 7050 C 650.101 3.35529 -0.960279 0
M  V30 7051 C 651.449 4.12556 -1.00412 0
M  V30 7052 O 652.473 3.44434 -0.907965 0
M  V30 7053 O 651.332 5.34294 -1.14857 0
M  V30 7054 H 648.426 0.815253 -0.138893 0
M  V30 7055 H 650.972 1.37844 -0.989808 0
M  V30 7056 H 649.744 3.36074 -2.00425 0
M  V30 7057 H 649.367 3.95624 -0.395939 0
M  V30 7058 N 650.364 0.662433 1.43002 0
M  V30 7059 C 651.611 0.179591 2.01702 0
M  V30 7060 C 651.939 -1.20964 1.52309 0
M  V30 7061 O 651.194 -1.82343 0.7106 0
M  V30 7062 C 651.493 0.149363 3.57088 0
M  V30 7063 C 651.159 1.48158 4.25864 0
M  V30 7064 C 649.821 1.84638 4.44367 0
M  V30 7065 C 652.173 2.35953 4.64732 0
M  V30 7066 C 649.501 3.08561 4.99006 0
M  V30 7067 C 651.853 3.59176 5.20745 0
M  V30 7068 C 650.517 3.95841 5.37463 0
M  V30 7069 H 649.787 0.0657172 0.73808 0
M  V30 7070 H 652.434 0.854968 1.71355 0
M  V30 7071 H 650.739 -0.609491 3.8703 0
M  V30 7072 H 652.436 -0.241241 4.00274 0
M  V30 7073 H 649.026 1.18777 4.11813 0
M  V30 7074 H 653.21 2.09058 4.50121 0
M  V30 7075 H 648.466 3.37005 5.10135 0
M  V30 7076 H 652.64 4.27417 5.49807 0
M  V30 7077 H 650.267 4.91942 5.79566 0
M  V30 7078 N 651.842 -1.52309 0.404946 0
M  V30 7079 C 653.258 -1.59503 0.0556255 0
M  V30 7080 C 653.458 -1.41805 -1.43156 0
M  V30 7081 O 652.514 -1.2429 -2.19792 0
M  V30 7082 C 653.827 -2.95687 0.546801 0
M  V30 7083 C 655.375 -3.08909 0.504413 0
M  V30 7084 C 655.85 -4.47566 0.97203 0
M  V30 7085 N 657.341 -4.53795 0.928679 0
M  V30 7086 C 658.076 -5.59346 1.26174 0
M  V30 7087 N 657.572 -6.72469 1.66604 0
M  V30 7088 N 659.365 -5.49532 1.18198 0
M  V30 7089 H 651.516 -1.6206 1.37296 0
M  V30 7090 H 653.779 -0.762161 0.563751 0
M  V30 7091 H 653.485 -3.13905 1.58609 0
M  V30 7092 H 653.359 -3.77172 -0.0457905 0
M  V30 7093 H 655.746 -2.90378 -0.525819 0
M  V30 7094 H 655.827 -2.2934 1.13301 0
M  V30 7095 H 655.471 -4.6684 2.00057 0
M  V30 7096 H 655.401 -5.25625 0.320292 0
M  V30 7097 H 657.892 -3.72588 0.631369 0
M  V30 7098 H 658.205 -7.48993 1.9034 0
M  V30 7099 H 656.55 -6.73761 1.70504 0
M  V30 7100 H 659.741 -4.60038 0.865011 0
M  V30 7101 H 659.914 -6.31687 1.44485 0
M  V30 7102 N 653.32 -0.135238 -1.57019 0
M  V30 7103 C 654.25 0.805235 -2.19176 0
M  V30 7104 C 655.231 1.2656 -1.13651 0
M  V30 7105 O 656.416 1.32528 -1.4195 0
M  V30 7106 C 653.546 2.04914 -2.80406 0
M  V30 7107 C 652.5 1.72598 -3.91655 0
M  V30 7108 C 651.826 3.04154 -4.39766 0
M  V30 7109 C 653.126 0.981709 -5.12991 0
M  V30 7110 H 654.82 0.287232 -2.98019 0
M  V30 7111 H 652.366 0.136714 -1.4335 0
M  V30 7112 H 654.319 2.71178 -3.22553 0
M  V30 7113 H 653.043 2.59067 -1.98877 0
M  V30 7114 H 651.702 1.08717 -3.50109 0
M  V30 7115 H 651.35 3.56274 -3.55075 0
M  V30 7116 H 651.05 2.83299 -5.14796 0
M  V30 7117 H 652.574 3.71509 -4.84576 0
M  V30 7118 H 653.988 1.5462 -5.52056 0
M  V30 7119 H 652.385 0.873533 -5.93708 0
M  V30 7120 H 653.455 -0.0286887 -4.84892 0
M  V30 7121 N 654.798 1.5699 0.138552 0
M  V30 7122 C 656.023 1.88344 0.86841 0
M  V30 7123 C 656.448 0.725159 1.7356 0
M  V30 7124 O 655.806 -0.324992 1.78363 0
M  V30 7125 C 655.854 3.18334 1.69398 0
M  V30 7126 O 654.958 3.02863 2.79907 0
M  V30 7127 H 654.299 0.618577 0.241367 0
M  V30 7128 H 656.829 2.04207 0.126826 0
M  V30 7129 H 656.839 3.50567 2.08726 0
M  V30 7130 H 655.514 4.02238 1.05725 0
M  V30 7131 H 654.091 2.82056 2.43924 0
M  V30 7132 N 656.276 -0.40816 1.52223 0
M  V30 7133 C 657.223 -1.49737 1.75635 0
M  V30 7134 C 658.193 -1.5493 0.598824 0
M  V30 7135 O 659.378 -1.71487 0.83648 0
M  V30 7136 C 656.518 -2.87174 1.91376 0
M  V30 7137 C 655.631 -2.91283 3.19027 0
M  V30 7138 C 654.766 -4.20026 3.25195 0
M  V30 7139 C 653.805 -4.18113 4.47044 0
M  V30 7140 N 652.942 -5.38429 4.50598 0
M  V30 7141 H 657.782 -1.29075 2.68596 0
M  V30 7142 H 655.319 -0.626518 1.33091 0
M  V30 7143 H 657.277 -3.66959 1.98486 0
M  V30 7144 H 655.907 -3.06329 1.01795 0
M  V30 7145 H 654.959 -2.03984 3.21084 0
M  V30 7146 H 656.271 -2.85734 4.08849 0
M  V30 7147 H 655.425 -5.08204 3.31382 0
M  V30 7148 H 654.164 -4.28271 2.33313 0
M  V30 7149 H 653.169 -3.28325 4.41002 0
M  V30 7150 H 654.394 -4.11507 5.40221 0
M  V30 7151 H 652.34 -5.4734 3.616 0
M  V30 7152 H 652.257 -5.34879 5.34266 0
M  V30 7153 H 653.525 -6.28557 4.61016 0
M  V30 7154 N 657.755 -1.42862 -0.66545 0
M  V30 7155 C 659.003 -1.43546 -1.42264 0
M  V30 7156 C 659.324 -0.0563116 -1.94919 0
M  V30 7157 O 658.594 0.906568 -1.73661 0
M  V30 7158 H 657.174 -0.528464 -0.527953 0
M  V30 7159 H 659.836 -1.78363 -0.785665 0
M  V30 7160 H 658.932 -2.14079 -2.27105 0
M  V30 7161 N 659.233 0.902656 -1.29189 0
M  V30 7162 C 660.51 1.63296 -1.07674 0
M  V30 7163 C 660.89 2.07649 0.380137 0
M  V30 7164 O 660.238 1.82997 1.36837 0
M  V30 7165 C 660.448 2.81603 -2.06158 0
M  V30 7166 C 661.796 3.52359 -2.36914 0
M  V30 7167 O 662.82 2.91767 -2.04329 0
M  V30 7168 O 661.679 4.61586 -2.92576 0
M  V30 7169 H 658.773 0.716889 -0.41231 0
M  V30 7170 H 661.319 0.950984 -1.4055 0
M  V30 7171 H 660.091 2.46004 -3.04299 0
M  V30 7172 H 659.714 3.57508 -1.73993 0
M  V30 7173 N 660.711 1.11618 1.11262 0
M  V30 7174 C 661.959 0.864469 1.82678 0
M  V30 7175 C 662.28 -0.611564 1.85162 0
M  V30 7176 O 661.55 -1.44429 1.32352 0
M  V30 7177 H 660.13 0.316821 0.676486 0
M  V30 7178 H 662.792 1.40894 1.34666 0
M  V30 7179 H 661.888 1.23832 2.86482 0
M  V30 7180 N 662.189 -1.289 0.906776 0
M  V30 7181 C 663.119 -2.29932 0.406659 0
M  V30 7182 C 664.1 -1.6189 -0.522061 0
M  V30 7183 O 665.285 -1.8935 -0.431283 0
M  V30 7184 C 662.415 -3.45425 -0.360366 0
M  V30 7185 C 661.369 -4.25316 0.478574 0
M  V30 7186 C 660.695 -5.33076 -0.416373 0
M  V30 7187 C 661.995 -4.92739 1.7322 0
M  V30 7188 H 663.689 -2.72013 1.25097 0
M  V30 7189 H 661.235 -1.30768 0.602977 0
M  V30 7190 H 663.188 -4.15186 -0.721029 0
M  V30 7191 H 661.912 -3.02206 -1.23852 0
M  V30 7192 H 660.571 -3.57273 0.821662 0
M  V30 7193 H 660.219 -4.86101 -1.29287 0
M  V30 7194 H 659.919 -5.8743 0.141309 0
M  V30 7195 H 661.443 -6.05686 -0.773072 0
M  V30 7196 H 662.857 -5.54898 1.44086 0
M  V30 7197 H 661.254 -5.57057 2.23175 0
M  V30 7198 H 662.324 -4.17625 2.46408 0
M  V30 7199 N 663.667 -0.670007 -1.42649 0
M  V30 7200 C 664.577 0.0114788 -2.34597 0
M  V30 7201 C 665.593 0.794055 -1.54825 0
M  V30 7202 O 666.769 0.737472 -1.87412 0
M  V30 7203 C 663.834 0.954436 -3.33304 0
M  V30 7204 C 662.895 0.166925 -4.28975 0
M  V30 7205 C 662.128 1.06497 -5.22967 0
M  V30 7206 O 662.351 2.30446 -5.21777 0
M  V30 7207 O 661.285 0.528347 -5.99577 0
M  V30 7208 H 665.111 -0.745794 -2.944 0
M  V30 7209 H 662.696 -0.430228 -1.43071 0
M  V30 7210 H 664.578 1.49589 -3.93956 0
M  V30 7211 H 663.253 1.69164 -2.7598 0
M  V30 7212 H 662.16 -0.418515 -3.71752 0
M  V30 7213 H 663.493 -0.531067 -4.89327 0
M  V30 7214 N 665.145 1.52092 -0.413018 0
M  V30 7215 C 666.392 2.01855 0.161497 0
M  V30 7216 C 666.72 1.29845 1.44812 0
M  V30 7217 O 665.975 0.394471 1.91683 0
M  V30 7218 C 666.274 3.54529 0.4521 0
M  V30 7219 C 665.94 4.4469 -0.745788 0
M  V30 7220 C 664.602 4.69053 -1.07435 0
M  V30 7221 C 666.954 4.97742 -1.54604 0
M  V30 7222 C 664.282 5.43717 -2.20429 0
M  V30 7223 C 666.634 5.73642 -2.66678 0
M  V30 7224 C 665.298 5.96277 -3.00016 0
M  V30 7225 H 664.568 0.73864 0.0590961 0
M  V30 7226 H 667.215 1.83274 -0.555234 0
M  V30 7227 H 665.52 3.7131 1.25045 0
M  V30 7228 H 667.217 3.90546 0.909647 0
M  V30 7229 H 663.807 4.25907 -0.479725 0
M  V30 7230 H 667.991 4.78824 -1.30543 0
M  V30 7231 H 663.247 5.59462 -2.46602 0
M  V30 7232 H 667.421 6.13746 -3.29072 0
M  V30 7233 H 665.048 6.53913 -3.87688 0
M  V30 7234 N 666.623 0.143563 1.56945 0
M  V30 7235 C 667.57 -0.797433 2.16586 0
M  V30 7236 C 668.54 -1.24654 1.09775 0
M  V30 7237 O 669.725 -1.31968 1.37801 0
M  V30 7238 C 666.865 -2.03253 2.78895 0
M  V30 7239 C 665.978 -1.62954 4.00087 0
M  V30 7240 C 665.113 -2.81617 4.50406 0
M  V30 7241 C 664.152 -2.37675 5.64072 0
M  V30 7242 N 663.289 -3.49335 6.09023 0
M  V30 7243 H 668.129 -0.282023 2.96662 0
M  V30 7244 H 665.666 -0.127494 1.46546 0
M  V30 7245 H 667.624 -2.75653 3.13163 0
M  V30 7246 H 666.254 -2.52211 2.01469 0
M  V30 7247 H 665.306 -0.803322 3.71821 0
M  V30 7248 H 666.618 -1.26679 4.82446 0
M  V30 7249 H 665.772 -3.62212 4.86711 0
M  V30 7250 H 664.511 -3.21134 3.67048 0
M  V30 7251 H 663.516 -1.55519 5.27346 0
M  V30 7252 H 664.741 -1.99247 6.49213 0
M  V30 7253 H 662.687 -3.8848 5.28601 0
M  V30 7254 H 662.604 -3.17064 6.86299 0
M  V30 7255 H 663.872 -4.30297 6.49973 0
M  V30 7256 N 668.101 -1.57061 -0.130224 0
M  V30 7257 C 669.517 -1.52103 -0.483413 0
M  V30 7258 C 669.717 -0.854752 -1.82473 0
M  V30 7259 O 668.773 -0.432342 -2.48771 0
M  V30 7260 C 670.086 -2.96872 -0.47825 0
M  V30 7261 C 671.634 -3.07902 -0.562592 0
M  V30 7262 C 672.109 -4.54211 -0.587929 0
M  V30 7263 N 673.6 -4.58621 -0.649684 0
M  V30 7264 C 674.335 -5.69227 -0.690551 0
M  V30 7265 N 673.831 -6.89358 -0.689743 0
M  V30 7266 N 675.624 -5.57304 -0.732708 0
M  V30 7267 H 667.775 -1.98764 0.748779 0
M  V30 7268 H 670.038 -0.907248 0.274965 0
M  V30 7269 H 669.744 -3.48944 0.439444 0
M  V30 7270 H 669.618 -3.53716 -1.31013 0
M  V30 7271 H 672.005 -2.5584 -1.47071 0
M  V30 7272 H 672.086 -2.54073 0.296764 0
M  V30 7273 H 671.73 -5.06915 0.316096 0
M  V30 7274 H 671.66 -5.0584 -1.46401 0
M  V30 7275 H 674.151 -3.72146 -0.656927 0
M  V30 7276 H 674.464 -7.69408 -0.723239 0
M  V30 7277 H 672.809 -6.91884 -0.657347 0
M  V30 7278 H 676 -4.62363 -0.730625 0
M  V30 7279 H 676.173 -6.43515 -0.76109 0
M  V30 7280 N 669.579 0.400081 -1.52437 0
M  V30 7281 C 670.529 1.48734 -1.72807 0
M  V30 7282 C 671.513 1.50004 -0.582032 0
M  V30 7283 O 672.705 1.55828 -0.839449 0
M  V30 7284 C 669.834 2.86568 -1.89034 0
M  V30 7285 C 668.92 2.8991 -3.09537 0
M  V30 7286 N 669.311 2.62937 -4.32086 0
M  V30 7287 C 667.609 3.21078 -3.09556 0
M  V30 7288 C 668.31 2.73079 -5.13617 0
M  V30 7289 N 667.286 3.06342 -4.49061 0
M  V30 7290 H 671.088 1.26689 -2.65193 0
M  V30 7291 H 668.602 0.607902 -1.50593 0
M  V30 7292 H 670.599 3.64834 -2.01746 0
M  V30 7293 H 669.259 3.09604 -0.978547 0
M  V30 7294 H 670.27 2.37163 -4.60406 0
M  V30 7295 H 666.947 3.49651 -2.28146 0
M  V30 7296 H 668.337 2.55863 -6.21276 0
M  V30 7297 N 671.057 1.43213 0.657864 0
M  V30 7298 C 672.304 1.44584 1.41781 0
M  V30 7299 C 672.632 0.0684208 1.9438 0
M  V30 7300 O 671.887 -0.925872 1.72413 0
M  V30 7301 C 672.186 2.43143 2.61947 0
M  V30 7302 C 671.852 3.89128 2.27794 0
M  V30 7303 C 670.514 4.28889 2.18191 0
M  V30 7304 C 672.866 4.81144 2.00375 0
M  V30 7305 C 670.194 5.58625 1.79319 0
M  V30 7306 C 672.546 6.11239 1.63003 0
M  V30 7307 C 671.21 6.49981 1.51922 0
M  V30 7308 H 670.48 0.529069 0.518813 0
M  V30 7309 H 673.127 1.76263 0.748577 0
M  V30 7310 H 671.432 2.04851 3.33981 0
M  V30 7311 H 673.129 2.4146 3.20153 0
M  V30 7312 H 669.719 3.57657 2.36176 0
M  V30 7313 H 673.903 4.512 2.06718 0
M  V30 7314 H 669.159 5.87486 1.69323 0
M  V30 7315 H 673.333 6.82014 1.40817 0
M  V30 7316 H 670.96 7.50416 1.21572 0
M  V30 7317 N 672.536 -0.895792 1.29666 0
M  V30 7318 C 673.466 -2.01673 1.17688 0
M  V30 7319 C 674.447 -1.69955 0.0701317 0
M  V30 7320 O 675.632 -1.9258 0.250289 0
M  V30 7321 C 672.762 -3.36568 0.856681 0
M  V30 7322 C 671.716 -3.82509 1.92017 0
M  V30 7323 C 671.042 -5.14574 1.4532 0
M  V30 7324 C 672.342 -4.02409 3.32963 0
M  V30 7325 H 674.036 -2.11953 2.11463 0
M  V30 7326 H 671.582 -1.01839 1.01807 0
M  V30 7327 H 673.535 -4.14498 0.759577 0
M  V30 7328 H 672.259 -3.26391 -0.116763 0
M  V30 7329 H 670.918 -3.068 2.00673 0
M  V30 7330 H 670.566 -5.00815 0.468325 0
M  V30 7331 H 670.266 -5.46283 2.16447 0
M  V30 7332 H 671.79 -5.9504 1.36968 0
M  V30 7333 H 673.204 -4.70808 3.27127 0
M  V30 7334 H 671.601 -4.45478 4.02082 0
M  V30 7335 H 672.671 -3.06616 3.75652 0
M  V30 7336 N 674.014 -1.12206 -1.10668 0
M  V30 7337 C 674.961 -0.787716 -2.16942 0
M  V30 7338 C 675.931 0.244442 -1.64291 0
M  V30 7339 O 677.116 0.119558 -1.90425 0
M  V30 7340 C 674.256 -0.24584 -3.44223 0
M  V30 7341 C 673.369 -1.33552 -4.10838 0
M  V30 7342 C 672.504 -0.753337 -5.25831 0
M  V30 7343 C 671.543 -1.82231 -5.84344 0
M  V30 7344 N 670.68 -1.25902 -6.90719 0
M  V30 7345 H 675.52 -1.69809 -2.44885 0
M  V30 7346 H 673.057 -0.847862 -1.20207 0
M  V30 7347 H 675.015 0.0863639 -4.17111 0
M  V30 7348 H 673.645 0.627702 -3.16638 0
M  V30 7349 H 672.697 -1.78454 -3.35944 0
M  V30 7350 H 674.009 -2.14396 -4.50373 0
M  V30 7351 H 673.163 -0.37166 -6.05561 0
M  V30 7352 H 671.902 0.0863297 -4.87624 0
M  V30 7353 H 670.907 -2.2132 -5.03287 0
M  V30 7354 H 672.132 -2.66515 -6.24617 0
M  V30 7355 H 670.078 -0.44114 -6.54515 0
M  V30 7356 H 669.995 -2.00408 -7.28953 0
M  V30 7357 H 671.263 -0.904498 -7.74235 0
M  V30 7358 N 675.492 1.28418 -0.913599 0
M  V30 7359 C 676.741 1.94265 -0.542572 0
M  V30 7360 C 677.054 1.72709 0.918207 0
M  V30 7361 O 678.26 2.32778 1.39738 0
M  V30 7362 C 676.716 3.47956 -0.919507 0
M  V30 7363 C 676.324 3.78291 -2.4 0
M  V30 7364 C 678.068 4.19962 -0.619057 0
M  V30 7365 C 675.975 5.2529 -2.71707 0
M  V30 7366 H 674.905 0.727213 -0.199192 0
M  V30 7367 H 677.556 1.45931 -1.11249 0
M  V30 7368 H 675.938 3.9502 -0.278372 0
M  V30 7369 H 677.112 3.42035 -3.08786 0
M  V30 7370 H 675.427 3.19456 -2.67089 0
M  V30 7371 H 678.024 5.28178 -0.832623 0
M  V30 7372 H 678.367 4.13935 0.443126 0
M  V30 7373 H 678.9 3.78674 -1.21865 0
M  V30 7374 H 675.639 5.36394 -3.76778 0
M  V30 7375 H 675.159 5.62743 -2.07559 0
M  V30 7376 H 676.838 5.93027 -2.58703 0
M  V30 7377 N 676.97 0.677563 1.42291 0
M  V30 7378 C 677.917 0.000947061 2.308 0
M  V30 7379 C 678.887 -0.789889 1.46116 0
M  V30 7380 O 680.072 -0.761578 1.74942 0
M  V30 7381 C 677.212 -0.942387 3.31984 0
M  V30 7382 C 676.325 -0.14508 4.31756 0
M  V30 7383 C 675.46 -1.08442 5.20013 0
M  V30 7384 C 674.499 -0.278958 6.11464 0
M  V30 7385 N 673.636 -1.17115 6.92263 0
M  V30 7386 H 678.476 0.761521 2.88106 0
M  V30 7387 H 676.013 0.38727 1.41911 0
M  V30 7388 H 677.971 -1.50317 3.89179 0
M  V30 7389 H 676.601 -1.66956 2.76271 0
M  V30 7390 H 675.653 0.532368 3.76656 0
M  V30 7391 H 676.965 0.48015 4.96484 0
M  V30 7392 H 676.119 -1.71504 5.81955 0
M  V30 7393 H 674.858 -1.74353 4.55469 0
M  V30 7394 H 673.863 0.364856 5.48588 0
M  V30 7395 H 675.088 0.376099 6.78058 0
M  V30 7396 H 673.034 -1.81661 6.30345 0
M  V30 7397 H 672.951 -0.601063 7.53607 0
M  V30 7398 H 674.219 -1.78915 7.58689 0
M  V30 7399 N 678.448 -1.51871 0.421078 0
M  V30 7400 C 679.696 -2.01539 -0.150492 0
M  V30 7401 C 680.017 -1.30803 -1.44623 0
M  V30 7402 O 679.287 -0.437568 -1.90951 0
M  V30 7403 H 677.867 -0.744698 -0.0586041 0
M  V30 7404 H 680.529 -1.8668 0.560059 0
M  V30 7405 H 679.625 -3.10264 -0.338068 0
M  V30 7406 N 679.926 -0.151884 -1.56866 0
M  V30 7407 C 680.873 0.785936 -2.17006 0
M  V30 7408 C 681.843 1.2407 -1.10435 0
M  V30 7409 O 683.028 1.31235 -1.38499 0
M  V30 7410 C 680.168 2.01771 -2.79969 0
M  V30 7411 C 679.281 1.6083 -4.00946 0
M  V30 7412 C 678.416 2.79224 -4.51893 0
M  V30 7413 C 677.455 2.3468 -5.65324 0
M  V30 7414 N 676.592 3.461 -6.10867 0
M  V30 7415 H 681.432 0.266286 -2.96808 0
M  V30 7416 H 678.969 0.11972 -1.46612 0
M  V30 7417 H 680.927 2.73989 -3.14621 0
M  V30 7418 H 679.557 2.51139 -2.02803 0
M  V30 7419 H 678.609 0.783592 -3.72242 0
M  V30 7420 H 679.921 1.24119 -4.83111 0
M  V30 7421 H 679.075 3.59625 -4.88625 0
M  V30 7422 H 677.814 3.19183 -3.68746 0
M  V30 7423 H 676.819 1.52721 -5.28163 0
M  V30 7424 H 678.044 1.95801 -6.5026 0
M  V30 7425 H 675.99 3.85671 -5.30654 0
M  V30 7426 H 675.907 3.1342 -6.87971 0
M  V30 7427 H 677.175 4.26844 -6.52246 0
M  V30 7428 N 681.404 1.57128 0.121893 0
M  V30 7429 C 682.334 2.03165 1.15092 0
M  V30 7430 C 683.315 0.915587 1.43356 0
M  V30 7431 O 684.5 1.1851 1.53847 0
M  V30 7432 C 681.63 2.43352 2.47784 0
M  V30 7433 C 680.584 3.58376 2.33989 0
M  V30 7434 C 679.91 3.84454 3.71617 0
M  V30 7435 C 681.21 4.90199 1.80283 0
M  V30 7436 H 682.904 2.89382 0.768023 0
M  V30 7437 H 680.45 1.39218 0.367998 0
M  V30 7438 H 682.403 2.74163 3.20019 0
M  V30 7439 H 681.127 1.54103 2.87958 0
M  V30 7440 H 679.786 3.2777 1.64202 0
M  V30 7441 H 679.434 2.92414 4.09271 0
M  V30 7442 H 679.134 4.61877 3.6324 0
M  V30 7443 H 680.658 4.17714 4.45362 0
M  V30 7444 H 682.072 5.19565 2.42333 0
M  V30 7445 H 680.469 5.71601 1.82735 0
M  V30 7446 H 681.539 4.78904 0.760184 0
M  V30 7447 N 682.882 -0.391992 1.52647 0
M  V30 7448 C 684.131 -1.13449 1.6677 0
M  V30 7449 C 684.444 -1.91203 0.412399 0
M  V30 7450 O 685.65 -2.68013 0.433707 0
M  V30 7451 C 684.106 -2.06577 2.9471 0
M  V30 7452 C 683.714 -1.3426 4.27409 0
M  V30 7453 C 685.458 -2.80981 3.18198 0
M  V30 7454 C 683.365 -2.26136 5.46458 0
M  V30 7455 H 682.295 -0.427211 0.621295 0
M  V30 7456 H 684.946 -0.397522 1.79142 0
M  V30 7457 H 683.328 -2.83898 2.76076 0
M  V30 7458 H 684.502 -0.621856 4.56585 0
M  V30 7459 H 682.817 -0.718279 4.10158 0
M  V30 7460 H 685.414 -3.49898 4.04321 0
M  V30 7461 H 685.757 -3.44891 2.33144 0
M  V30 7462 H 686.29 -2.10754 3.37383 0
M  V30 7463 H 683.029 -1.66846 6.33911 0
M  V30 7464 H 682.549 -2.96134 5.21598 0
M  V30 7465 H 684.228 -2.86286 5.80215 0
M  V30 7466 N 684.36 -1.4356 -0.65026 0
M  V30 7467 C 685.637 -1.35811 -1.40765 0
M  V30 7468 C 686.017 -0.00736379 -2.11099 0
M  V30 7469 O 685.365 1.00932 -2.05 0
M  V30 7470 C 685.575 -2.54332 -2.3899 0
M  V30 7471 C 686.923 -2.97551 -3.02901 0
M  V30 7472 O 687.947 -2.544 -2.49317 0
M  V30 7473 O 686.806 -3.72311 -4.00059 0
M  V30 7474 H 683.9 -0.536861 -0.629054 0
M  V30 7475 H 686.446 -1.55615 -0.676919 0
M  V30 7476 H 685.218 -3.44274 -1.85986 0
M  V30 7477 H 684.841 -2.36643 -3.19509 0
M  V30 7478 N 685.838 0.888903 -1.30139 0
M  V30 7479 C 687.087 1.63507 -1.18103 0
M  V30 7480 C 687.4 1.93808 0.264141 0
M  V30 7481 O 688.606 2.66744 0.505966 0
M  V30 7482 C 687.062 2.94673 -2.0663 0
M  V30 7483 C 686.67 2.71926 -3.56034 0
M  V30 7484 C 688.414 3.72626 -2.03346 0
M  V30 7485 C 686.321 3.98884 -4.3663 0
M  V30 7486 H 685.251 0.613426 -0.438435 0
M  V30 7487 H 687.902 0.984427 -1.54859 0
M  V30 7488 H 686.284 3.61009 -1.62754 0
M  V30 7489 H 687.458 2.14116 -4.08033 0
M  V30 7490 H 685.773 2.07353 -3.61101 0
M  V30 7491 H 688.37 4.66775 -2.60816 0
M  V30 7492 H 688.713 4.03712 -1.016 0
M  V30 7493 H 689.246 3.13147 -2.45324 0
M  V30 7494 H 685.985 3.72959 -5.39056 0
M  V30 7495 H 685.505 4.56214 -3.89396 0
M  V30 7496 H 687.184 4.66938 -4.47859 0
M  V30 7497 N 687.317 1.12792 1.10072 0
M  V30 7498 C 688.563 0.886857 1.82381 0
M  V30 7499 C 688.896 -0.58576 1.85155 0
M  V30 7500 O 688.171 -1.43317 1.31493 0
M  V30 7501 C 688.454 1.46703 3.28862 0
M  V30 7502 C 688.307 3.00829 3.34398 0
M  V30 7503 C 689.626 1.12971 4.25353 0
M  V30 7504 H 686.745 0.32362 0.662148 0
M  V30 7505 H 689.387 1.39513 1.28982 0
M  V30 7506 H 687.537 1.03476 3.74466 0
M  V30 7507 H 689.209 3.52764 2.97247 0
M  V30 7508 H 687.452 3.36164 2.74183 0
M  V30 7509 H 688.123 3.36519 4.3756 0
M  V30 7510 H 690.599 1.50313 3.88001 0
M  V30 7511 H 689.475 1.56223 5.26199 0
M  V30 7512 H 689.736 0.0424452 4.4208 0
M  V30 7513 N 688.795 -1.27931 0.920396 0
M  V30 7514 C 690.02 -1.99343 0.572478 0
M  V30 7515 C 690.445 -1.68267 -0.840696 0
M  V30 7516 O 689.803 -0.918805 -1.56294 0
M  V30 7517 C 689.851 -3.51698 0.796284 0
M  V30 7518 O 688.955 -4.12157 -0.141602 0
M  V30 7519 H 688.296 -0.626065 0.221221 0
M  V30 7520 H 690.826 -1.62921 1.23765 0
M  V30 7521 H 690.836 -4.01793 0.708984 0
M  V30 7522 H 689.511 -3.73649 1.82644 0
M  V30 7523 H 688.088 -3.729 -0.005007 0
M  V30 7524 N 690.273 -0.685099 -1.4193 0
M  V30 7525 C 691.498 -0.218842 -2.06242 0
M  V30 7526 C 691.923 1.11923 -1.51178 0
M  V30 7527 O 691.281 1.69837 -0.634446 0
M  V30 7528 C 691.329 -0.175592 -3.60172 0
M  V30 7529 O 690.433 0.852776 -4.03487 0
M  V30 7530 H 689.774 -0.109531 -0.654904 0
M  V30 7531 H 692.304 -0.937013 -1.81882 0
M  V30 7532 H 692.314 -0.00291151 -4.08 0
M  V30 7533 H 690.989 -1.15222 -3.99621 0
M  V30 7534 H 689.566 0.650301 -3.67186 0
M  V30 7535 N 691.751 1.51645 -0.429126 0
M  V30 7536 C 692.683 2.25279 0.422124 0
M  V30 7537 C 693.696 1.28986 0.993299 0
M  V30 7538 O 694.885 1.54797 0.888836 0
M  V30 7539 C 691.985 2.98666 1.60162 0
M  V30 7540 C 691.158 4.2199 1.15078 0
M  V30 7541 C 690.217 4.78028 2.19946 0
M  V30 7542 O 689.243 5.40084 1.79716 0
M  V30 7543 N 690.445 4.61342 3.5234 0
M  V30 7544 H 693.21 2.98971 -0.208931 0
M  V30 7545 H 690.771 1.59838 -0.257568 0
M  V30 7546 H 692.763 3.33044 2.29922 0
M  V30 7547 H 691.333 2.28036 2.13818 0
M  V30 7548 H 690.553 3.932 0.280552 0
M  V30 7549 H 691.841 5.02037 0.826831 0
M  V30 7550 H 691.239 4.11894 3.87763 0
M  V30 7551 H 689.796 5.00104 4.18019 0
M  V30 7552 N 693.229 0.160201 1.56784 0
M  V30 7553 C 694.176 -0.774416 2.1742 0
M  V30 7554 C 695.146 -1.23483 1.11091 0
M  V30 7555 O 696.331 -1.30499 1.39193 0
M  V30 7556 C 693.471 -2.00283 2.81035 0
M  V30 7557 C 692.584 -1.58701 4.01793 0
M  V30 7558 C 691.719 -2.76824 4.53367 0
M  V30 7559 C 690.758 -2.31679 5.66561 0
M  V30 7560 N 689.895 -3.42856 6.12694 0
M  V30 7561 H 694.735 -0.250542 2.96945 0
M  V30 7562 H 692.272 -0.111943 1.46673 0
M  V30 7563 H 694.23 -2.72316 3.16069 0
M  V30 7564 H 692.86 -2.5006 2.04132 0
M  V30 7565 H 691.912 -0.76384 3.72652 0
M  V30 7566 H 693.224 -1.21555 4.83762 0
M  V30 7567 H 692.378 -3.57029 4.90525 0
M  V30 7568 H 691.117 -3.17223 3.70433 0
M  V30 7569 H 690.122 -1.49917 5.28966 0
M  V30 7570 H 691.347 -1.9235 6.5129 0
M  V30 7571 H 689.293 -3.82852 5.32692 0
M  V30 7572 H 689.21 -3.09767 6.89624 0
M  V30 7573 H 690.478 -4.23379 6.545 0
M  V30 7574 N 694.707 -1.5719 -0.113559 0
M  V30 7575 C 695.956 -1.84325 -0.818984 0
M  V30 7576 C 696.269 -0.746685 -1.80787 0
M  V30 7577 O 697.475 -0.904596 -2.55987 0
M  V30 7578 C 695.931 -3.26818 -1.50724 0
M  V30 7579 C 695.539 -4.44498 -0.559065 0
M  V30 7580 C 697.283 -3.63196 -2.19748 0
M  V30 7581 C 695.19 -5.7802 -1.25086 0
M  V30 7582 H 694.12 -0.687507 -0.309596 0
M  V30 7583 H 696.771 -1.8336 -0.0717621 0
M  V30 7584 H 695.153 -3.22269 -2.30128 0
M  V30 7585 H 696.327 -4.60356 0.202146 0
M  V30 7586 H 694.642 -4.16393 0.024495 0
M  V30 7587 H 697.239 -4.60226 -2.72206 0
M  V30 7588 H 697.582 -2.90899 -2.97798 0
M  V30 7589 H 698.115 -3.69553 -1.47226 0
M  V30 7590 H 694.854 -6.53501 -0.511539 0
M  V30 7591 H 694.374 -5.66038 -1.98395 0
M  V30 7592 H 696.053 -6.2196 -1.78253 0
M  V30 7593 N 696.185 0.383891 -1.52853 0
M  V30 7594 C 697.431 1.12667 -1.69345 0
M  V30 7595 C 697.786 1.87519 -0.430635 0
M  V30 7596 O 697.079 1.82742 0.575846 0
M  V30 7597 C 697.273 2.12881 -2.87082 0
M  V30 7598 C 697.102 1.47873 -4.24692 0
M  V30 7599 C 695.872 1.24064 -4.89833 0
M  V30 7600 C 698.07 0.926118 -5.05893 0
M  V30 7601 N 696.052 0.552138 -6.11412 0
M  V30 7602 C 697.423 0.365966 -6.18919 0
M  V30 7603 C 699.478 0.823023 -4.91051 0
M  V30 7604 C 698.181 -0.287204 -7.18726 0
M  V30 7605 C 700.207 0.183666 -5.91115 0
M  V30 7606 C 699.569 -0.365693 -7.0345 0
M  V30 7607 H 695.668 0.398064 -0.673104 0
M  V30 7608 H 698.252 0.415504 -1.90215 0
M  V30 7609 H 696.423 2.81329 -2.67784 0
M  V30 7610 H 698.155 2.79703 -2.92486 0
M  V30 7611 H 694.91 1.51701 -4.48647 0
M  V30 7612 H 695.334 0.223783 -6.7663 0
M  V30 7613 H 699.976 1.23354 -4.04405 0
M  V30 7614 H 697.694 -0.709719 -8.04977 0
M  V30 7615 H 701.28 0.105074 -5.81705 0
M  V30 7616 H 700.16 -0.85261 -7.79551 0
M  V30 7617 N 697.663 1.43903 0.642637 0
M  V30 7618 C 698.593 1.52697 1.76652 0
M  V30 7619 C 699.574 0.380816 1.65782 0
M  V30 7620 O 700.759 0.599432 1.84717 0
M  V30 7621 C 697.889 1.45975 3.15133 0
M  V30 7622 C 696.843 2.58949 3.40778 0
M  V30 7623 C 696.169 2.37279 4.79169 0
M  V30 7624 C 697.469 4.01153 3.34475 0
M  V30 7625 H 699.163 2.46766 1.69549 0
M  V30 7626 H 696.709 1.18767 0.814279 0
M  V30 7627 H 698.662 1.5073 3.93521 0
M  V30 7628 H 697.386 0.484162 3.22991 0
M  V30 7629 H 696.045 2.53564 2.64765 0
M  V30 7630 H 695.693 1.37939 4.83717 0
M  V30 7631 H 695.393 3.13016 4.97287 0
M  V30 7632 H 696.917 2.43834 5.59801 0
M  V30 7633 H 698.331 4.07968 4.02784 0
M  V30 7634 H 696.728 4.77001 3.64129 0
M  V30 7635 H 697.798 4.25539 2.32475 0
M  V30 7636 N 699.141 -0.881989 1.30609 0
M  V30 7637 C 700.552 -1.44956 1.17664 0
M  V30 7638 C 700.903 -1.94945 -0.221531 0
M  V30 7639 O 700.028 -1.85257 -1.11844 0
M  V30 7640 C 700.623 -2.63474 2.12995 0
M  V30 7641 C 699.182 -3.16312 2.04019 0
M  V30 7642 C 698.329 -1.89008 2.02907 0
M  V30 7643 H 701.28 -0.691645 1.42835 0
M  V30 7644 H 701.301 -3.39783 1.71253 0
M  V30 7645 H 700.813 -2.2706 3.14746 0
M  V30 7646 H 698.914 -3.57376 1.0542 0
M  V30 7647 H 699.027 -3.79409 2.9255 0
M  V30 7648 H 697.391 -2.07465 1.47751 0
M  V30 7649 H 698.174 -1.54848 3.06394 0
M  V30 7650 N 700.619 -1.13374 -1.09472 0
M  V30 7651 C 701.582 -0.813639 -2.14272 0
M  V30 7652 C 702.582 0.176677 -1.59826 0
M  V30 7653 O 703.772 -0.0503441 -1.74127 0
M  V30 7654 C 700.904 -0.210897 -3.40247 0
M  V30 7655 H 702.097 -1.74229 -2.44099 0
M  V30 7656 H 699.65 -0.938304 -1.25002 0
M  V30 7657 H 700.385 0.726998 -3.16046 0
M  V30 7658 H 700.17 -0.924048 -3.81056 0
M  V30 7659 H 701.66 -0.00377603 -4.176 0
M  V30 7660 N 702.098 1.27442 -0.927168 0
M  V30 7661 C 703.326 1.98498 -0.583622 0
M  V30 7662 C 703.741 1.69171 0.838241 0
M  V30 7663 O 703.098 0.951969 1.55704 0
M  V30 7664 C 703.149 3.52552 -0.799341 0
M  V30 7665 O 702.87 3.80851 -2.16527 0
M  V30 7666 C 704.371 4.4086 -0.464436 0
M  V30 7667 H 701.591 0.633487 -0.221213 0
M  V30 7668 H 704.135 1.62308 -1.24404 0
M  V30 7669 H 702.29 3.86955 -0.185728 0
M  V30 7670 H 702.704 4.75441 -2.21487 0
M  V30 7671 H 704.178 5.47967 -0.666075 0
M  V30 7672 H 704.655 4.35082 0.599995 0
M  V30 7673 H 705.261 4.11977 -1.05617 0
M  V30 7674 O 703.615 0.831378 1.38457 0
M  V30 7675 H 704.306 0.416578 1.89167 0
M  V30 END ATOM
M  V30 BEGIN BOND
M  V30 END BOND
M  V30 END CTAB
M  END
$$$$
