drugbank_target|P27696 Acetolactate synthase, catabolic (DB01987; DB02327; DB03361)
 OpenBabel12092119553D

  0  0  0     0  0            999 V3000
M  V30 BEGIN CTAB
M  V30 COUNTS 8499 8581 0 0 0
M  V30 BEGIN ATOM
M  V30 1 H -0.908 1.98254 -0.117106 0
M  V30 2 N 0 1.576 0 0
M  V30 3 C 0.933 2.03868 1.02534 0
M  V30 4 C 1.911 0.928543 1.3348 0
M  V30 5 O 3.095 1.19667 1.45644 0
M  V30 6 C 0.222 2.43627 2.35294 0
M  V30 7 C -0.732 3.65373 2.2001 0
M  V30 8 S 0.101 5.13292 1.52614 0
M  V30 9 C 1.257 5.56322 2.86805 0
M  V30 10 H 1.49 2.90518 0.631377 0
M  V30 11 H -0.977 1.52953 0.210867 0
M  V30 12 H 0.981 2.67203 3.11629 0
M  V30 13 H -0.358 1.57376 2.7183 0
M  V30 14 H -1.165 3.90944 3.18086 0
M  V30 15 H -1.563 3.418 1.51819 0
M  V30 16 H 0.729 5.58782 3.83104 0
M  V30 17 H 1.672 6.56266 2.65933 0
M  V30 18 H 2.08 4.83886 2.90714 0
M  V30 19 N 1.4781 -0.272755 1.55222 0
M  V30 20 C 2.7551 -1.02562 1.66555 0
M  V30 21 C 3.1351 -2.04282 0.532189 0
M  V30 22 O 2.4831 -2.23662 -0.467717 0
M  V30 23 C 2.6931 -1.6822 3.05782 0
M  V30 24 C 4.0411 -2.19373 3.63539 0
M  V30 25 O 5.0651 -1.78206 3.08417 0
M  V30 26 O 3.9241 -2.94883 4.60115 0
M  V30 27 H 1.0181 -0.475755 0.676451 0
M  V30 28 H 3.5641 -0.268593 1.67561 0
M  V30 29 H 2.3361 -0.945112 3.79715 0
M  V30 30 H 1.9591 -2.50609 3.08676 0
M  V30 31 N 2.9562 -1.48159 -0.537278 0
M  V30 32 C 3.9032 -1.62138 -1.64256 0
M  V30 33 C 4.8732 -0.463668 -1.59497 0
M  V30 34 O 6.0582 -0.686241 -1.78032 0
M  V30 35 C 3.1982 -1.66028 -3.02537 0
M  V30 36 C 2.3112 -2.92855 -3.17585 0
M  V30 37 C 1.4462 -2.87952 -4.46382 0
M  V30 38 C 0.4852 -4.09516 -4.54932 0
M  V30 39 N -0.3778 -4.02733 -5.75109 0
M  V30 40 H 4.4622 -2.56529 -1.51647 0
M  V30 41 H 1.9992 -1.27224 -0.738414 0
M  V30 42 H 3.9572 -1.66265 -3.82638 0
M  V30 43 H 2.5872 -0.751331 -3.13934 0
M  V30 44 H 1.6392 -3.02395 -2.30784 0
M  V30 45 H 2.9512 -3.82822 -3.19764 0
M  V30 46 H 2.1052 -2.8655 -5.34765 0
M  V30 47 H 0.8442 -1.95702 -4.46712 0
M  V30 48 H -0.1508 -4.11201 -3.64957 0
M  V30 49 H 1.0742 -5.02917 -4.56346 0
M  V30 50 H -0.9798 -3.13299 -5.76351 0
M  V30 51 H -1.0628 -4.86397 -5.78752 0
M  V30 52 H 0.2052 -4.05379 -6.65799 0
M  V30 53 N 4.4343 0.785586 -1.36625 0
M  V30 54 C 5.3663 1.90711 -1.2713 0
M  V30 55 C 6.3793 1.61688 -0.189986 0
M  V30 56 O 7.5683 1.72864 -0.445014 0
M  V30 57 C 4.6683 3.25611 -0.939713 0
M  V30 58 C 3.8413 3.82385 -2.12369 0
M  V30 59 C 2.9003 4.95732 -1.76456 0
M  V30 60 O 1.9263 5.12047 -2.48589 0
M  V30 61 N 3.1283 5.76258 -0.700492 0
M  V30 62 H 5.8933 1.99376 -2.23762 0
M  V30 63 H 3.4543 0.964041 -1.30069 0
M  V30 64 H 5.4463 3.98937 -0.680554 0
M  V30 65 H 4.0163 3.12538 -0.0624074 0
M  V30 66 H 3.2363 3.01001 -2.54543 0
M  V30 67 H 4.5243 4.17047 -2.9146 0
M  V30 68 H 3.9223 5.65609 -0.101624 0
M  V30 69 H 2.4793 6.4987 -0.501165 0
M  V30 70 N 5.9124 1.20967 1.01018 0
M  V30 71 C 7.1424 1.04803 1.78044 0
M  V30 72 C 7.5504 -0.405462 1.84804 0
M  V30 73 O 6.8934 -1.2932 1.30468 0
M  V30 74 C 6.9554 1.56377 3.23707 0
M  V30 75 C 6.6194 3.04767 3.40538 0
M  V30 76 C 7.6164 4.02366 3.29239 0
M  V30 77 C 5.3014 3.43862 3.66147 0
M  V30 78 C 7.2954 5.37049 3.43304 0
M  V30 79 C 4.9824 4.78699 3.79855 0
M  V30 80 C 5.9804 5.75101 3.68439 0
M  V30 81 O 5.6684 7.07493 3.81719 0
M  V30 82 H 5.4004 0.368778 0.56655 0
M  V30 83 H 7.9544 1.60642 1.27997 0
M  V30 84 H 6.1844 0.949297 3.74867 0
M  V30 85 H 7.8734 1.36136 3.8239 0
M  V30 86 H 8.6394 3.73506 3.09384 0
M  V30 87 H 4.5184 2.69364 3.74118 0
M  V30 88 H 8.0624 6.12277 3.34309 0
M  V30 89 H 3.9594 5.07247 3.99213 0
M  V30 90 H 4.7274 7.1483 3.98697 0
M  V30 91 N 7.3905 -1.2043 1.01659 0
M  V30 92 C 8.8015 -1.71517 0.737482 0
M  V30 93 C 9.1525 -1.81547 -0.743973 0
M  V30 94 O 8.2775 -1.47803 -1.58061 0
M  V30 95 C 8.8725 -3.11515 1.33206 0
M  V30 96 C 7.4315 -3.59912 1.10183 0
M  V30 97 C 6.5785 -2.37116 1.43776 0
M  V30 98 H 9.5295 -1.05444 1.18606 0
M  V30 99 H 9.5505 -3.73575 0.722636 0
M  V30 100 H 9.0625 -3.04182 2.41028 0
M  V30 101 H 7.1635 -3.72577 0.0412756 0
M  V30 102 H 7.2765 -4.44731 1.78188 0
M  V30 103 H 5.6405 -2.39857 0.856778 0
M  V30 104 H 6.4235 -2.32424 2.52654 0
M  V30 105 N 8.8686 -0.792821 -1.36206 0
M  V30 106 C 10.1146 -0.36733 -1.99446 0
M  V30 107 C 10.4476 1.05917 -1.62774 0
M  V30 108 O 9.7226 1.7324 -0.88421 0
M  V30 109 C 10.0056 -0.535044 -3.56103 0
M  V30 110 C 9.8586 -2.00548 -4.02617 0
M  V30 111 C 11.1776 0.0478191 -4.40074 0
M  V30 112 H 8.2966 -0.134941 -0.724541 0
M  V30 113 H 10.9386 -0.999794 -1.61568 0
M  V30 114 H 9.0886 0.00336329 -3.885 0
M  V30 115 H 10.7606 -2.60521 -3.80692 0
M  V30 116 H 9.0036 -2.50686 -3.54032 0
M  V30 117 H 9.6746 -2.07377 -5.11565 0
M  V30 118 H 12.1506 -0.411822 -4.14057 0
M  V30 119 H 11.0266 -0.0995336 -5.4881 0
M  V30 120 H 11.2876 1.14025 -4.27142 0
M  V30 121 N 10.3467 1.47872 -0.545128 0
M  V30 122 C 11.7627 1.5829 -0.204032 0
M  V30 123 C 11.9627 1.54529 1.29317 0
M  V30 124 O 11.0187 1.44232 2.07252 0
M  V30 125 C 12.3317 2.89304 -0.819987 0
M  V30 126 C 13.8797 3.02864 -0.790105 0
M  V30 127 C 14.3547 4.3656 -1.38491 0
M  V30 128 N 15.8457 4.43165 -1.34755 0
M  V30 129 C 16.5807 5.45153 -1.77753 0
M  V30 130 N 16.0767 6.54016 -2.2855 0
M  V30 131 N 17.8697 5.36125 -1.68897 0
M  V30 132 H 10.0207 1.4856 -1.51802 0
M  V30 133 H 12.2837 0.706305 -0.632327 0
M  V30 134 H 11.9897 2.97757 -1.87173 0
M  V30 135 H 11.8637 3.75957 -0.305915 0
M  V30 136 H 14.2507 2.94014 0.252913 0
M  V30 137 H 14.3317 2.17782 -1.34181 0
M  V30 138 H 13.9757 4.46164 -2.42693 0
M  V30 139 H 13.9057 5.20353 -0.808754 0
M  V30 140 H 16.3967 3.65083 -0.975855 0
M  V30 141 H 16.7097 7.27994 -2.59314 0
M  V30 142 H 15.0547 6.54938 -2.32553 0
M  V30 143 H 18.2457 4.49975 -1.28998 0
M  V30 144 H 18.4187 6.15472 -2.02726 0
M  V30 145 N 11.8248 0.280983 1.55075 0
M  V30 146 C 12.7568 -0.637268 2.20163 0
M  V30 147 C 13.7698 -1.11298 1.18813 0
M  V30 148 O 14.9588 -1.03388 1.4551 0
M  V30 149 C 12.0588 -1.88199 2.81841 0
M  V30 150 C 11.2318 -1.55211 4.08936 0
M  V30 151 C 10.2908 -2.64991 4.54606 0
M  V30 152 O 9.3168 -2.30929 5.2025 0
M  V30 153 N 10.5188 -3.95161 4.25238 0
M  V30 154 H 13.2838 -0.0801694 2.99593 0
M  V30 155 H 10.8448 0.102329 1.61576 0
M  V30 156 H 12.8368 -2.60948 3.09335 0
M  V30 157 H 11.4068 -2.34799 2.06369 0
M  V30 158 H 10.6268 -0.658185 3.88666 0
M  V30 159 H 11.9148 -1.30681 4.91732 0
M  V30 160 H 11.3128 -4.25653 3.72607 0
M  V30 161 H 9.8698 -4.6427 4.5749 0
M  V30 162 N 13.3029 -1.57598 0.00835791 0
M  V30 163 C 14.5489 -1.92046 -0.670055 0
M  V30 164 C 14.9039 -0.88351 -1.70915 0
M  V30 165 O 14.1969 0.103223 -1.91322 0
M  V30 166 C 14.3909 -3.3101 -1.34787 0
M  V30 167 C 14.2199 -4.48126 -0.375945 0
M  V30 168 C 12.9899 -5.05297 0.0166914 0
M  V30 169 C 15.1879 -5.1303 0.361272 0
M  V30 170 N 13.1699 -6.05931 0.985952 0
M  V30 171 C 14.5409 -6.08571 1.18495 0
M  V30 172 C 16.5959 -4.9609 0.42421 0
M  V30 173 C 15.2989 -6.88996 2.06584 0
M  V30 174 C 17.3249 -5.77107 1.29236 0
M  V30 175 C 16.6869 -6.72248 2.10386 0
M  V30 176 H 12.7859 -0.75096 -0.218136 0
M  V30 177 H 15.3699 -1.94572 0.0706669 0
M  V30 178 H 13.5409 -3.29342 -2.05884 0
M  V30 179 H 15.2729 -3.52864 -1.98164 0
M  V30 180 H 12.0279 -4.72279 -0.353435 0
M  V30 181 H 12.4519 -6.60932 1.4662 0
M  V30 182 H 17.0939 -4.22378 -0.188915 0
M  V30 183 H 14.8119 -7.62028 2.6896 0
M  V30 184 H 18.3979 -5.66038 1.34508 0
M  V30 185 H 17.2779 -7.33846 2.76476 0
M  V30 186 N 14.781 0.264519 -1.55364 0
M  V30 187 C 15.744 1.31046 -1.88042 0
M  V30 188 C 16.744 1.41943 -0.755569 0
M  V30 189 O 17.934 1.40947 -1.02369 0
M  V30 190 C 15.066 2.69067 -2.09323 0
M  V30 191 H 16.259 1.03297 -2.81549 0
M  V30 192 H 13.812 0.502989 -1.47986 0
M  V30 193 H 14.547 3.01982 -1.18226 0
M  V30 194 H 14.332 2.62542 -2.91229 0
M  V30 195 H 15.822 3.44623 -2.35848 0
M  V30 196 N 16.2591 1.48442 0.529413 0
M  V30 197 C 17.2091 1.59407 1.63014 0
M  V30 198 C 18.1931 0.451166 1.54445 0
M  V30 199 O 19.3851 0.702635 1.62456 0
M  V30 200 C 16.5141 1.63746 3.01732 0
M  V30 201 C 15.6001 2.83518 3.15402 0
M  V30 202 N 15.9911 4.07929 2.99045 0
M  V30 203 C 14.2891 2.80862 3.46457 0
M  V30 204 C 14.9901 4.8829 3.16146 0
M  V30 205 N 13.9661 4.21117 3.43746 0
M  V30 206 H 17.7681 2.53343 1.48978 0
M  V30 207 H 15.2821 1.44821 0.734885 0
M  V30 208 H 17.2791 1.69695 3.80801 0
M  V30 209 H 15.9391 0.709264 3.16859 0
M  V30 210 H 16.9501 4.38357 2.75796 0
M  V30 211 H 13.6271 1.97301 3.67938 0
M  V30 212 H 15.0171 5.97028 3.08232 0
M  V30 213 N 17.7372 -0.778329 1.37039 0
M  V30 214 C 18.9852 -1.53361 1.31623 0
M  V30 215 C 19.3062 -1.94739 -0.100831 0
M  V30 216 O 18.5762 -1.65797 -1.04347 0
M  V30 217 H 17.1562 -0.568794 0.484234 0
M  V30 218 H 19.8182 -0.926742 1.71457 0
M  V30 219 H 18.9142 -2.43606 1.95096 0
M  V30 220 N 19.2153 -1.21501 -1.00376 0
M  V30 221 C 20.1783 -0.976927 -2.07337 0
M  V30 222 C 21.1783 0.0525322 -1.60714 0
M  V30 223 O 22.3683 -0.184869 -1.73216 0
M  V30 224 C 19.5003 -0.473423 -3.37597 0
M  V30 225 H 20.6933 -1.92587 -2.29892 0
M  V30 226 H 18.2463 -1.03217 -1.17371 0
M  V30 227 H 18.9813 0.480379 -3.20722 0
M  V30 228 H 18.7663 -1.216 -3.72768 0
M  V30 229 H 20.2563 -0.32675 -4.1632 0
M  V30 230 N 20.6934 1.19889 -1.02296 0
M  V30 231 C 21.9704 1.85148 -0.630832 0
M  V30 232 C 22.3504 1.91385 0.890782 0
M  V30 233 O 21.6984 1.42642 1.78509 0
M  V30 234 C 21.9084 3.24442 -1.28602 0
M  V30 235 C 23.2564 4.00663 -1.4055 0
M  V30 236 O 24.2804 3.33818 -1.24273 0
M  V30 237 O 23.1394 5.20387 -1.66913 0
M  V30 238 H 20.2334 0.797613 -0.218499 0
M  V30 239 H 22.7794 1.27427 -1.12074 0
M  V30 240 H 21.5514 3.14704 -2.32545 0
M  V30 241 H 21.1744 3.89802 -0.7836 0
M  V30 242 N 22.1715 0.800033 1.35784 0
M  V30 243 C 23.1015 0.220184 2.3246 0
M  V30 244 C 24.0825 -0.65073 1.57161 0
M  V30 245 O 25.2675 -0.582359 1.85263 0
M  V30 246 C 22.3975 -0.637353 3.41402 0
M  V30 247 C 21.3515 0.134531 4.27789 0
M  V30 248 C 20.6775 -0.844285 5.27992 0
M  V30 249 C 21.9775 1.32979 5.05088 0
M  V30 250 H 23.6715 1.02787 2.81203 0
M  V30 251 H 21.2175 0.495717 1.35199 0
M  V30 252 H 23.1705 -1.05302 4.08031 0
M  V30 253 H 21.8945 -1.47785 2.91251 0
M  V30 254 H 20.5535 0.531296 3.6273 0
M  V30 255 H 20.2015 -1.68011 4.74111 0
M  V30 256 H 19.9015 -0.332184 5.8666 0
M  V30 257 H 21.4255 -1.2583 5.97494 0
M  V30 258 H 22.8395 0.98934 5.64699 0
M  V30 259 H 21.2365 1.77593 5.7322 0
M  V30 260 H 22.3065 2.11978 4.36111 0
M  V30 261 N 23.6496 -1.47581 0.552962 0
M  V30 262 C 24.8956 -2.02782 0.0273648 0
M  V30 263 C 25.2286 -1.42687 -1.31734 0
M  V30 264 O 24.5036 -0.580897 -1.85623 0
M  V30 265 C 24.7866 -3.60031 -0.0702371 0
M  V30 266 C 24.6396 -4.30566 1.30126 0
M  V30 267 C 25.9586 -4.33028 -0.785771 0
M  V30 268 H 23.0776 -0.736912 0.0114185 0
M  V30 269 H 25.7196 -1.76056 0.714432 0
M  V30 270 H 23.8696 -3.82932 -0.655382 0
M  V30 271 H 25.5416 -4.19018 1.92929 0
M  V30 272 H 23.7846 -3.91086 1.87709 0
M  V30 273 H 24.4556 -5.39114 1.18573 0
M  V30 274 H 26.9316 -4.15095 -0.288982 0
M  V30 275 H 25.8076 -5.42695 -0.823013 0
M  V30 276 H 26.0686 -4.01945 -1.841 0
M  V30 277 N 25.1277 -0.289203 -1.54924 0
M  V30 278 C 26.3737 0.323998 -2.00195 0
M  V30 279 C 26.7067 1.54441 -1.17735 0
M  V30 280 O 25.9817 1.92875 -0.250878 0
M  V30 281 C 26.2647 0.692276 -3.53383 0
M  V30 282 C 26.1177 -0.536457 -4.46589 0
M  V30 283 C 27.4367 1.52335 -4.12895 0
M  V30 284 H 24.5557 0.116289 -0.727768 0
M  V30 285 H 27.1977 -0.398954 -1.85764 0
M  V30 286 H 25.3477 1.30822 -3.65811 0
M  V30 287 H 27.0197 -1.17499 -4.46085 0
M  V30 288 H 25.2627 -1.17192 -4.1767 0
M  V30 289 H 25.9337 -0.234806 -5.515 0
M  V30 290 H 28.4097 1.00302 -4.0383 0
M  V30 291 H 27.2857 1.74982 -5.20262 0
M  V30 292 H 27.5467 2.50886 -3.64018 0
M  V30 293 N 26.6058 1.57591 -0.0167156 0
M  V30 294 C 27.8308 1.9598 0.67872 0
M  V30 295 C 28.2558 0.892546 1.65575 0
M  V30 296 O 27.6138 -0.147772 1.80697 0
M  V30 297 C 27.6618 3.33468 1.37227 0
M  V30 298 O 26.7658 3.28954 2.48722 0
M  V30 299 H 26.1068 0.639339 0.17928 0
M  V30 300 H 28.6368 2.04463 -0.0748802 0
M  V30 301 H 28.6468 3.69417 1.7319 0
M  V30 302 H 27.3218 4.10694 0.656007 0
M  V30 303 H 25.8988 3.04705 2.14963 0
M  V30 304 N 28.0839 -0.256276 1.55502 0
M  V30 305 C 29.0159 -1.33981 1.85962 0
M  V30 306 C 30.0289 -1.44743 0.745212 0
M  V30 307 O 31.2179 -1.4626 1.02324 0
M  V30 308 C 28.3179 -2.7194 2.02242 0
M  V30 309 C 27.4909 -2.83562 3.33033 0
M  V30 310 C 26.5499 -4.02304 3.39172 0
M  V30 311 O 25.5759 -3.92273 4.12444 0
M  V30 312 N 26.7779 -5.15045 2.67784 0
M  V30 313 H 29.5429 -1.08191 2.7949 0
M  V30 314 H 27.1039 -0.446388 1.55624 0
M  V30 315 H 29.0959 -3.49697 2.03701 0
M  V30 316 H 27.6659 -2.90479 1.15502 0
M  V30 317 H 26.8859 -1.92555 3.43971 0
M  V30 318 H 28.1739 -2.88271 4.19258 0
M  V30 319 H 27.5719 -5.26085 2.07968 0
M  V30 320 H 26.1289 -5.90972 2.74947 0
M  V30 321 N 29.562 -1.4872 -0.521534 0
M  V30 322 C 30.492 -1.66771 -1.63431 0
M  V30 323 C 31.473 -0.516499 -1.62069 0
M  V30 324 O 32.658 -0.750013 -1.79132 0
M  V30 325 C 29.788 -1.71515 -3.01993 0
M  V30 326 C 28.742 -2.86222 -3.18216 0
M  V30 327 C 28.068 -2.76061 -4.57924 0
M  V30 328 C 29.368 -4.27419 -3.00184 0
M  V30 329 H 31.062 -2.59932 -1.48579 0
M  V30 330 H 28.608 -1.25089 -0.713358 0
M  V30 331 H 30.561 -1.82731 -3.7972 0
M  V30 332 H 29.285 -0.749393 -3.17886 0
M  V30 333 H 27.944 -2.74575 -2.42908 0
M  V30 334 H 27.592 -1.77437 -4.70665 0
M  V30 335 H 27.292 -3.53037 -4.69722 0
M  V30 336 H 28.816 -2.89256 -5.37739 0
M  V30 337 H 30.23 -4.39855 -3.67697 0
M  V30 338 H 28.627 -5.05458 -3.2347 0
M  V30 339 H 29.697 -4.43293 -1.96518 0
M  V30 340 N 31.0401 0.771051 -1.3745 0
M  V30 341 C 31.9501 1.91538 -1.35464 0
M  V30 342 C 32.9661 1.72134 -0.254123 0
M  V30 343 O 34.1421 1.95358 -0.489626 0
M  V30 344 C 31.2071 3.26671 -1.16134 0
M  V30 345 C 30.2681 3.58723 -2.35831 0
M  V30 346 C 29.5011 4.87409 -2.17413 0
M  V30 347 O 29.7241 5.58506 -1.15876 0
M  V30 348 O 28.6581 5.18539 -3.05615 0
M  V30 349 H 32.4841 1.96165 -2.31847 0
M  V30 350 H 30.0691 0.9139 -1.18187 0
M  V30 351 H 31.9511 4.07499 -1.07345 0
M  V30 352 H 30.6261 3.22894 -0.228251 0
M  V30 353 H 29.5331 2.78127 -2.50192 0
M  V30 354 H 30.8661 3.67243 -3.27709 0
M  V30 355 N 32.5182 1.22032 0.997298 0
M  V30 356 C 33.4812 0.987909 2.06816 0
M  V30 357 C 34.4812 -0.0440084 1.6074 0
M  V30 358 O 35.6712 0.194053 1.73116 0
M  V30 359 C 32.8032 0.49132 3.37341 0
M  V30 360 H 33.9962 1.93803 2.28868 0
M  V30 361 H 31.5492 1.03838 1.16822 0
M  V30 362 H 32.2842 -0.463364 3.20973 0
M  V30 363 H 32.0692 1.23575 3.72118 0
M  V30 364 H 33.5592 0.348824 4.16141 0
M  V30 365 N 33.9963 -1.19345 1.0293 0
M  V30 366 C 34.9283 -2.22036 0.56857 0
M  V30 367 C 35.9413 -1.58865 -0.355779 0
M  V30 368 O 37.1303 -1.77851 -0.152103 0
M  V30 369 C 34.2303 -3.38363 -0.190752 0
M  V30 370 C 33.4033 -4.31118 0.738643 0
M  V30 371 C 32.4623 -5.26194 0.0246497 0
M  V30 372 O 31.4883 -5.65461 0.651354 0
M  V30 373 N 32.6903 -5.66971 -1.24594 0
M  V30 374 H 35.4553 -2.6219 1.45177 0
M  V30 375 H 33.0163 -1.34015 0.908381 0
M  V30 376 H 35.0083 -3.98981 -0.677961 0
M  V30 377 H 33.5783 -2.96994 -0.975366 0
M  V30 378 H 32.7983 -3.68276 1.40593 0
M  V30 379 H 34.0863 -4.90001 1.37029 0
M  V30 380 H 33.4843 -5.37104 -1.77583 0
M  V30 381 H 32.0413 -6.2984 -1.67764 0
M  V30 382 N 35.4744 -0.807222 -1.35358 0
M  V30 383 C 36.7224 -0.387122 -1.98358 0
M  V30 384 C 37.0434 1.04942 -1.64354 0
M  V30 385 O 36.3134 1.72615 -0.926339 0
M  V30 386 H 34.8934 -0.140154 -0.733734 0
M  V30 387 H 37.5554 -1.0332 -1.6526 0
M  V30 388 H 36.6514 -0.493352 -3.08176 0
M  V30 389 N 36.9525 1.47285 -0.560781 0
M  V30 390 C 38.1985 2.02764 -0.0381184 0
M  V30 391 C 38.5315 1.43384 1.30976 0
M  V30 392 O 37.8065 0.590733 1.85312 0
M  V30 393 C 38.0895 3.60064 0.0511427 0
M  V30 394 C 37.9425 4.2987 -1.32408 0
M  V30 395 C 39.2615 4.33439 0.762795 0
M  V30 396 H 36.3805 0.736841 -0.0153264 0
M  V30 397 H 39.0225 1.75675 -0.723759 0
M  V30 398 H 37.1725 3.83274 0.635065 0
M  V30 399 H 38.8445 4.17989 -1.95148 0
M  V30 400 H 37.0875 3.90085 -1.8978 0
M  V30 401 H 37.7585 5.38478 -1.21431 0
M  V30 402 H 40.2345 4.15243 0.266965 0
M  V30 403 H 39.1105 5.43124 0.794221 0
M  V30 404 H 39.3715 4.02915 1.81966 0
M  V30 405 N 38.4306 0.297415 1.54768 0
M  V30 406 C 39.8466 -0.0560823 1.59501 0
M  V30 407 C 40.0466 -1.52725 1.31444 0
M  V30 408 O 39.1026 -2.27947 1.08611 0
M  V30 409 C 40.4156 0.338631 2.98787 0
M  V30 410 C 41.9636 0.287097 3.11681 0
M  V30 411 C 42.4386 0.656579 4.53269 0
M  V30 412 N 43.9296 0.608977 4.59179 0
M  V30 413 C 44.6646 0.867385 5.66802 0
M  V30 414 N 44.1606 1.19157 6.82476 0
M  V30 415 N 45.9536 0.794687 5.56454 0
M  V30 416 H 38.1046 1.25624 1.71267 0
M  V30 417 H 40.3676 0.509057 0.799728 0
M  V30 418 H 40.0736 1.36263 3.2423 0
M  V30 419 H 39.9476 -0.309508 3.75928 0
M  V30 420 H 42.3346 -0.727649 2.85988 0
M  V30 421 H 42.4156 0.969809 2.36703 0
M  V30 422 H 42.0596 1.66912 4.7969 0
M  V30 423 H 41.9896 -0.0481649 5.26578 0
M  V30 424 H 44.4806 0.369198 3.76092 0
M  V30 425 H 44.7936 1.37482 7.60473 0
M  V30 426 H 43.1386 1.22958 6.84037 0
M  V30 427 H 46.3296 0.541098 4.64962 0
M  V30 428 H 46.5026 0.999445 6.40246 0
M  V30 429 N 39.9087 -1.5758 0.0250728 0
M  V30 430 C 40.8407 -2.06869 -0.986796 0
M  V30 431 C 41.8537 -0.991332 -1.29137 0
M  V30 432 O 43.0427 -1.26761 -1.25674 0
M  V30 433 C 40.1427 -2.47486 -2.31525 0
M  V30 434 C 39.3157 -3.78253 -2.19643 0
M  V30 435 C 38.3747 -4.05464 -3.35388 0
M  V30 436 O 37.4007 -4.75774 -3.12454 0
M  V30 437 N 38.6027 -3.55321 -4.59051 0
M  V30 438 H 41.3677 -2.94302 -0.566276 0
M  V30 439 H 38.9287 -1.6109 -0.161776 0
M  V30 440 H 40.9207 -2.62785 -3.07776 0
M  V30 441 H 39.4907 -1.65441 -2.65232 0
M  V30 442 H 38.7107 -3.7279 -1.28144 0
M  V30 443 H 39.9987 -4.63936 -2.08903 0
M  V30 444 H 39.3967 -2.98431 -4.80578 0
M  V30 445 H 37.9537 -3.75905 -5.32483 0
M  V30 446 N 41.3868 0.248026 -1.55636 0
M  V30 447 C 42.6328 0.97767 -1.77678 0
M  V30 448 C 42.9658 1.85016 -0.590135 0
M  V30 449 O 42.2408 1.90095 0.411611 0
M  V30 450 C 42.5238 1.83914 -3.09593 0
M  V30 451 C 42.3768 0.99491 -4.38659 0
M  V30 452 C 43.6958 2.82183 -3.37729 0
M  V30 453 H 40.8148 0.354005 -0.646413 0
M  V30 454 H 43.4568 0.248253 -1.88371 0
M  V30 455 H 41.6068 2.46104 -3.00608 0
M  V30 456 H 43.2788 0.391789 -4.59633 0
M  V30 457 H 41.5218 0.299231 -4.32767 0
M  V30 458 H 42.1928 1.63145 -5.2734 0
M  V30 459 H 44.6688 2.30129 -3.4667 0
M  V30 460 H 43.5448 3.39582 -4.31249 0
M  V30 461 H 43.8058 3.58588 -2.58586 0
M  V30 462 N 42.8649 1.48995 0.513639 0
M  V30 463 C 44.1119 1.57843 1.26854 0
M  V30 464 C 44.4399 0.259501 1.92761 0
M  V30 465 O 43.6949 -0.75159 1.80692 0
M  V30 466 C 43.9939 2.67756 2.36731 0
M  V30 467 C 43.6599 4.09669 1.88368 0
M  V30 468 C 42.3219 4.48291 1.74896 0
M  V30 469 C 44.6739 4.98537 1.52021 0
M  V30 470 C 42.0019 5.73568 1.23438 0
M  V30 471 C 44.3539 6.24319 1.0202 0
M  V30 472 C 43.0179 6.61783 0.871778 0
M  V30 473 H 42.2879 0.577587 0.464192 0
M  V30 474 H 44.9349 1.82778 0.571366 0
M  V30 475 H 43.2399 2.36743 3.12185 0
M  V30 476 H 44.9369 2.71813 2.9482 0
M  V30 477 H 41.5269 3.79176 1.99808 0
M  V30 478 H 45.7109 4.69363 1.61281 0
M  V30 479 H 40.9669 6.01304 1.10648 0
M  V30 480 H 45.1409 6.92566 0.729722 0
M  V30 481 H 42.7679 7.5874 0.470852 0
M  V30 482 N 44.343 -0.763751 1.37857 0
M  V30 483 C 45.591 -1.51957 1.33243 0
M  V30 484 C 45.912 -1.94835 -0.0801709 0
M  V30 485 O 45.182 -1.66894 -1.02582 0
M  V30 486 H 43.762 -0.563626 0.49024 0
M  V30 487 H 46.424 -0.908504 1.7243 0
M  V30 488 H 45.52 -2.41523 1.97669 0
M  V30 489 N 45.8211 -1.22559 -0.990812 0
M  V30 490 C 47.0701 -1.04553 -1.72486 0
M  V30 491 C 47.3831 0.419349 -1.91052 0
M  V30 492 O 48.5891 0.719121 -2.61803 0
M  V30 493 C 47.0451 -1.82231 -3.10355 0
M  V30 494 C 46.6531 -3.32981 -2.99713 0
M  V30 495 C 48.3971 -1.7268 -3.87791 0
M  V30 496 C 46.3041 -4.03091 -4.32748 0
M  V30 497 H 45.2341 -0.387614 -0.646739 0
M  V30 498 H 47.8851 -1.46429 -1.10593 0
M  V30 499 H 46.2671 -1.33155 -3.72942 0
M  V30 500 H 47.4411 -3.89466 -2.46278 0
M  V30 501 H 45.7561 -3.43231 -2.35758 0
M  V30 502 H 48.3531 -2.22381 -4.86262 0
M  V30 503 H 48.6961 -0.687607 -4.10582 0
M  V30 504 H 49.2291 -2.1931 -3.31885 0
M  V30 505 H 45.9681 -5.07273 -4.15156 0
M  V30 506 H 45.4881 -3.51394 -4.86089 0
M  V30 507 H 47.1671 -4.08804 -5.01486 0
M  V30 508 N 47.2992 1.18797 -1.03562 0
M  V30 509 C 48.7102 1.70322 -0.764676 0
M  V30 510 C 49.0612 1.82708 0.714996 0
M  V30 511 O 48.1862 1.50299 1.55689 0
M  V30 512 C 48.7812 3.09356 -1.38145 0
M  V30 513 C 47.3402 3.58114 -1.15895 0
M  V30 514 C 46.4872 2.34798 -1.4753 0
M  V30 515 H 49.4382 1.03543 -1.20268 0
M  V30 516 H 49.4592 3.72378 -0.781977 0
M  V30 517 H 48.9712 3.00309 -2.45837 0
M  V30 518 H 47.0722 3.72464 -0.100544 0
M  V30 519 H 47.1852 4.4184 -1.8524 0
M  V30 520 H 45.5492 2.38464 -0.894829 0
M  V30 521 H 46.3322 2.28375 -2.56319 0
M  V30 522 N 48.7773 0.814389 1.34928 0
M  V30 523 C 50.0253 0.397636 1.9815 0
M  V30 524 C 50.3463 -1.04069 1.64908 0
M  V30 525 O 49.6163 -1.72121 0.93548 0
M  V30 526 H 48.1963 0.144043 0.732981 0
M  V30 527 H 50.8583 1.04195 1.6471 0
M  V30 528 H 49.9543 0.509688 3.0791 0
M  V30 529 N 50.2554 -1.46986 0.568584 0
M  V30 530 C 51.2184 -2.28624 -0.162366 0
M  V30 531 C 52.2184 -1.37596 -0.832103 0
M  V30 532 O 53.4084 -1.60115 -0.68622 0
M  V30 533 C 50.5404 -3.17596 -1.23878 0
M  V30 534 H 51.7334 -2.94722 0.554899 0
M  V30 535 H 49.2864 -1.52863 0.325976 0
M  V30 536 H 50.0214 -2.56214 -1.98808 0
M  V30 537 H 49.8064 -3.846 -0.763219 0
M  V30 538 H 51.2964 -3.79078 -1.75185 0
M  V30 539 N 51.7335 -0.305618 -1.54608 0
M  V30 540 C 52.6805 0.568421 -2.23691 0
M  V30 541 C 53.6505 1.12592 -1.22116 0
M  V30 542 O 54.8355 1.16959 -1.50749 0
M  V30 543 C 51.9755 1.7322 -2.98477 0
M  V30 544 C 51.0885 1.20566 -4.14835 0
M  V30 545 C 50.2235 2.33368 -4.77193 0
M  V30 546 C 49.2625 1.7787 -5.85686 0
M  V30 547 N 48.3995 2.84263 -6.4198 0
M  V30 548 H 53.2395 -0.0272867 -2.97988 0
M  V30 549 H 50.7765 -0.0252363 -1.47078 0
M  V30 550 H 52.7345 2.41675 -3.40072 0
M  V30 551 H 51.3645 2.29947 -2.26548 0
M  V30 552 H 50.4165 0.413223 -3.78149 0
M  V30 553 H 51.7285 0.759417 -4.92985 0
M  V30 554 H 50.8825 3.09761 -5.21664 0
M  V30 555 H 49.6215 2.8132 -3.98385 0
M  V30 556 H 48.6265 0.99968 -5.40635 0
M  V30 557 H 49.8515 1.30816 -6.66381 0
M  V30 558 H 47.7975 3.31541 -5.66053 0
M  V30 559 H 47.7145 2.44149 -7.15491 0
M  V30 560 H 48.9825 3.6054 -6.91109 0
M  V30 561 N 53.2116 1.57565 -0.0334293 0
M  V30 562 C 54.4606 1.91155 0.643639 0
M  V30 563 C 54.7736 0.91192 1.73042 0
M  V30 564 O 55.9796 1.13923 2.46442 0
M  V30 565 C 54.4356 3.39443 1.1961 0
M  V30 566 C 54.0436 4.47774 0.142381 0
M  V30 567 C 55.7876 3.82094 1.84944 0
M  V30 568 C 53.6946 5.87162 0.706727 0
M  V30 569 H 52.6246 0.713368 0.244176 0
M  V30 570 H 55.2756 1.8323 -0.0994323 0
M  V30 571 H 53.6576 3.42313 1.99092 0
M  V30 572 H 54.8316 4.56469 -0.630296 0
M  V30 573 H 53.1466 4.14352 -0.412446 0
M  V30 574 H 55.7436 4.83591 2.2813 0
M  V30 575 H 56.0866 3.17386 2.69392 0
M  V30 576 H 56.6196 3.81665 1.12145 0
M  V30 577 H 53.3586 6.55424 -0.0997178 0
M  V30 578 H 52.8786 5.82064 1.44779 0
M  V30 579 H 54.5576 6.35866 1.19514 0
M  V30 580 N 54.6897 -0.239769 1.55765 0
M  V30 581 C 55.9667 -0.990056 1.68693 0
M  V30 582 C 56.3467 -2.03107 0.5754 0
M  V30 583 O 55.6947 -2.24604 -0.42017 0
M  V30 584 C 55.9047 -1.61696 3.09282 0
M  V30 585 C 57.2527 -2.11613 3.6811 0
M  V30 586 O 58.2767 -1.71624 3.12127 0
M  V30 587 O 57.1357 -2.85057 4.66267 0
M  V30 588 H 54.2297 -0.461299 0.686391 0
M  V30 589 H 56.7757 -0.232991 1.68093 0
M  V30 590 H 55.5477 -0.864357 3.81634 0
M  V30 591 H 55.1707 -2.44005 3.13923 0
M  V30 592 N 56.1678 -1.49265 -0.50573 0
M  V30 593 C 57.1148 -1.65585 -1.6078 0
M  V30 594 C 58.0848 -0.497396 -1.58478 0
M  V30 595 O 59.2698 -0.72385 -1.76536 0
M  V30 596 C 56.4098 -1.72408 -2.98948 0
M  V30 597 C 55.5228 -2.99525 -3.11301 0
M  V30 598 C 54.6578 -2.97356 -4.40174 0
M  V30 599 C 53.6968 -4.19074 -4.46143 0
M  V30 600 N 52.8338 -4.14841 -5.66437 0
M  V30 601 H 57.6738 -2.59688 -1.46172 0
M  V30 602 H 55.2108 -1.28761 -0.711261 0
M  V30 603 H 57.1688 -1.74344 -3.79025 0
M  V30 604 H 55.7988 -0.817753 -3.1227 0
M  V30 605 H 54.8508 -3.07222 -2.24318 0
M  V30 606 H 56.1628 -3.89518 -3.11572 0
M  V30 607 H 55.3168 -2.97829 -5.28567 0
M  V30 608 H 54.0558 -2.05133 -4.42461 0
M  V30 609 H 53.0608 -4.1885 -3.56153 0
M  V30 610 H 54.2858 -5.12483 -4.45575 0
M  V30 611 H 52.2318 -3.25453 -5.69575 0
M  V30 612 H 52.1488 -4.98564 -5.68304 0
M  V30 613 H 53.4168 -4.1941 -6.57051 0
M  V30 614 N 57.6459 0.756429 -1.3826 0
M  V30 615 C 58.8919 1.51772 -1.34511 0
M  V30 616 C 59.2249 1.94089 0.0656691 0
M  V30 617 O 58.4999 1.65221 1.02626 0
M  V30 618 C 58.7829 2.77226 -2.29821 0
M  V30 619 C 58.6359 2.41065 -3.79747 0
M  V30 620 C 59.9549 3.79236 -2.23312 0
M  V30 621 H 57.0739 0.550578 -0.489931 0
M  V30 622 H 59.7159 0.866607 -1.69086 0
M  V30 623 H 57.8659 3.32784 -2.00467 0
M  V30 624 H 59.5379 1.91303 -4.19763 0
M  V30 625 H 57.7809 1.7356 -3.97567 0
M  V30 626 H 58.4519 3.3081 -4.41892 0
M  V30 627 H 60.9279 3.3321 -2.49219 0
M  V30 628 H 59.8039 4.64714 -2.92116 0
M  V30 629 H 60.0649 4.24615 -1.23102 0
M  V30 630 N 59.124 1.23083 0.984299 0
M  V30 631 C 60.371 1.06057 1.72505 0
M  V30 632 C 60.699 -0.403105 1.90277 0
M  V30 633 O 59.954 -1.3149 1.44944 0
M  V30 634 C 60.253 1.72673 3.1292 0
M  V30 635 C 59.919 3.22586 3.15038 0
M  V30 636 C 58.581 3.63489 3.15324 0
M  V30 637 C 60.933 4.185 3.10657 0
M  V30 638 C 58.261 4.98772 3.08939 0
M  V30 639 C 60.613 5.53769 3.05814 0
M  V30 640 C 59.277 5.94041 3.04419 0
M  V30 641 H 58.547 0.388091 0.631242 0
M  V30 642 H 61.194 1.52963 1.15215 0
M  V30 643 H 59.499 1.18116 3.73572 0
M  V30 644 H 61.196 1.56982 3.68996 0
M  V30 645 H 57.786 2.90022 3.15571 0
M  V30 646 H 61.97 3.87911 3.09579 0
M  V30 647 H 57.226 5.29193 3.0621 0
M  V30 648 H 61.4 6.27808 3.0138 0
M  V30 649 H 59.027 6.98833 2.99227 0
M  V30 650 N 60.6021 -1.18246 1.0419 0
M  V30 651 C 61.8791 -1.84121 0.660208 0
M  V30 652 C 62.2591 -1.92778 -0.860221 0
M  V30 653 O 61.6071 -1.45464 -1.76217 0
M  V30 654 C 61.8171 -3.22355 1.33747 0
M  V30 655 C 63.1651 -3.98376 1.46906 0
M  V30 656 O 64.1891 -3.31799 1.29568 0
M  V30 657 O 63.0481 -5.17665 1.75171 0
M  V30 658 H 60.1421 -0.794036 0.231161 0
M  V30 659 H 62.6881 -1.25628 1.14087 0
M  V30 660 H 61.4601 -3.10964 2.37522 0
M  V30 661 H 61.0831 -3.88506 0.845515 0
M  V30 662 N 62.0802 -0.821533 -1.34494 0
M  V30 663 C 63.3052 -0.420873 -2.03085 0
M  V30 664 C 63.7302 0.964915 -1.61465 0
M  V30 665 O 63.0882 1.62763 -0.798607 0
M  V30 666 C 63.1362 -0.529414 -3.56693 0
M  V30 667 O 62.2402 0.451302 -4.09923 0
M  V30 668 H 61.5812 -0.173489 -0.640935 0
M  V30 669 H 64.1112 -1.11157 -1.71771 0
M  V30 670 H 64.1212 -0.404671 -4.05988 0
M  V30 671 H 62.7962 -1.54014 -3.86332 0
M  V30 672 H 61.3732 0.285558 -3.71805 0
M  V30 673 N 63.5583 1.46682 -0.576371 0
M  V30 674 C 64.4883 2.33028 0.148397 0
M  V30 675 C 65.4693 1.44961 0.889956 0
M  V30 676 O 66.6543 1.73789 0.866662 0
M  V30 677 C 63.7843 3.27117 1.1667 0
M  V30 678 C 62.7383 4.24575 0.540386 0
M  V30 679 C 62.0643 5.08126 1.6647 0
M  V30 680 C 63.3643 5.19722 -0.518331 0
M  V30 681 H 65.0583 2.93875 -0.572509 0
M  V30 682 H 62.6043 1.41315 -0.276768 0
M  V30 683 H 64.5573 3.86374 1.68204 0
M  V30 684 H 63.2813 2.64364 1.9178 0
M  V30 685 H 61.9403 3.66571 0.0461769 0
M  V30 686 H 61.5883 4.41762 2.40531 0
M  V30 687 H 61.2883 5.74122 1.25131 0
M  V30 688 H 62.8123 5.70246 2.18293 0
M  V30 689 H 64.2263 5.73232 -0.0883058 0
M  V30 690 H 62.6233 5.94026 -0.851679 0
M  V30 691 H 63.6933 4.64037 -1.40703 0
M  V30 692 N 65.0364 0.313813 1.54444 0
M  V30 693 C 65.9664 -0.549454 2.26943 0
M  V30 694 C 66.9474 -1.12741 1.27372 0
M  V30 695 O 68.1324 -1.15436 1.56167 0
M  V30 696 C 65.2624 -1.71523 3.01989 0
M  V30 697 C 64.2164 -1.26703 4.08816 0
M  V30 698 C 63.5424 -2.51898 4.71647 0
M  V30 699 C 64.8424 -0.388962 5.2085 0
M  V30 700 H 66.5364 0.0552661 2.99349 0
M  V30 701 H 64.0824 0.0280207 1.43973 0
M  V30 702 H 66.0354 -2.32535 3.51433 0
M  V30 703 H 64.7594 -2.34639 2.27183 0
M  V30 704 H 63.4184 -0.679896 3.6024 0
M  V30 705 H 63.0664 -3.13356 3.93468 0
M  V30 706 H 62.7664 -2.22605 5.43802 0
M  V30 707 H 64.2904 -3.1369 5.23861 0
M  V30 708 H 65.7044 -0.905107 5.6611 0
M  V30 709 H 64.1014 -0.18924 5.99802 0
M  V30 710 H 65.1714 0.582699 4.81386 0
M  V30 711 N 66.5145 -1.57545 0.0417849 0
M  V30 712 C 67.7915 -1.83642 -0.673433 0
M  V30 713 C 68.1715 -0.928298 -1.89594 0
M  V30 714 O 67.5195 0.0129955 -2.28496 0
M  V30 715 C 67.7295 -3.33155 -1.03964 0
M  V30 716 C 69.0775 -3.99941 -1.42592 0
M  V30 717 O 70.1015 -3.37725 -1.13226 0
M  V30 718 O 68.9605 -5.09619 -1.9736 0
M  V30 719 H 66.0545 -0.757638 -0.331533 0
M  V30 720 H 68.6005 -1.69554 0.070433 0
M  V30 721 H 67.3725 -3.9093 -0.170098 0
M  V30 722 H 66.9955 -3.52396 -1.84126 0
M  V30 723 N 67.9926 0.231505 -1.5589 0
M  V30 724 C 69.2176 0.978689 -1.82856 0
M  V30 725 C 69.6426 1.77559 -0.620846 0
M  V30 726 O 69.0006 1.76119 0.430305 0
M  V30 727 C 69.0486 1.87997 -3.07716 0
M  V30 728 O 68.1526 2.97393 -2.85712 0
M  V30 729 H 67.4936 0.277663 -0.603158 0
M  V30 730 H 70.0236 0.24783 -2.03093 0
M  V30 731 H 70.0336 2.2917 -3.37558 0
M  V30 732 H 68.7086 1.29417 -3.95252 0
M  V30 733 H 67.2856 2.60238 -2.67078 0
M  V30 734 N 69.4707 1.49531 0.497807 0
M  V30 735 C 70.6957 1.63159 1.28039 0
M  V30 736 C 71.1207 0.30418 1.85624 0
M  V30 737 O 70.4787 -0.728618 1.66015 0
M  V30 738 C 70.5267 2.70537 2.38416 0
M  V30 739 O 69.6307 2.29931 3.42353 0
M  V30 740 H 68.9717 0.546001 0.377861 0
M  V30 741 H 71.5017 1.9574 0.59558 0
M  V30 742 H 71.5117 2.92802 2.84132 0
M  V30 743 H 70.1867 3.6689 1.95869 0
M  V30 744 H 68.7637 2.18009 3.02533 0
M  V30 745 N 70.9488 -0.749086 1.3866 0
M  V30 746 C 72.1978 -1.50371 1.3443 0
M  V30 747 C 72.5108 -1.95503 -0.0616397 0
M  V30 748 O 73.7168 -2.70554 -0.226489 0
M  V30 749 C 72.1728 -2.71644 2.36088 0
M  V30 750 C 71.7808 -2.3352 3.82325 0
M  V30 751 C 73.5248 -3.49518 2.40909 0
M  V30 752 C 71.4318 -3.51431 4.75658 0
M  V30 753 H 70.3618 -0.564628 0.499712 0
M  V30 754 H 73.0128 -0.818449 1.64237 0
M  V30 755 H 71.3948 -3.42175 1.9933 0
M  V30 756 H 72.5688 -1.70627 4.28046 0
M  V30 757 H 70.8838 -1.6877 3.80665 0
M  V30 758 H 73.4808 -4.37197 3.07836 0
M  V30 759 H 73.8238 -3.90992 1.42937 0
M  V30 760 H 74.3568 -2.86005 2.76489 0
M  V30 761 H 71.0958 -3.15019 5.74842 0
M  V30 762 H 70.6158 -4.13352 4.34627 0
M  V30 763 H 72.2948 -4.17953 4.93887 0
M  V30 764 N 72.4269 -1.23603 -0.977757 0
M  V30 765 C 73.8429 -0.999251 -1.24447 0
M  V30 766 C 74.0429 0.298053 -1.99283 0
M  V30 767 O 73.0989 1.01681 -2.31122 0
M  V30 768 C 74.4119 -2.20784 -2.04144 0
M  V30 769 C 75.9599 -2.25303 -2.17273 0
M  V30 770 C 76.4349 -3.45755 -3.00362 0
M  V30 771 N 77.9259 -3.4601 -3.07947 0
M  V30 772 C 78.6609 -4.35868 -3.72568 0
M  V30 773 N 78.1569 -5.35966 -4.38991 0
M  V30 774 N 79.9499 -4.23605 -3.6948 0
M  V30 775 H 72.1009 -2.06986 -0.476483 0
M  V30 776 H 74.3639 -0.907801 -0.273134 0
M  V30 777 H 74.0699 -3.14945 -1.56533 0
M  V30 778 H 73.9439 -2.22085 -3.04891 0
M  V30 779 H 76.3309 -1.3168 -2.64092 0
M  V30 780 H 76.4119 -2.28033 -1.15907 0
M  V30 781 H 76.0559 -4.39687 -2.5424 0
M  V30 782 H 75.9859 -3.40266 -4.01904 0
M  V30 783 H 78.4769 -2.73588 -2.60688 0
M  V30 784 H 78.7899 -6.00783 -4.86086 0
M  V30 785 H 77.1349 -5.39863 -4.37691 0
M  V30 786 H 80.3259 -3.44647 -3.16759 0
M  V30 787 H 80.4989 -4.93836 -4.1956 0
M  V30 788 N 73.905 1.17692 -1.04816 0
M  V30 789 C 75.154 1.87192 -0.751132 0
M  V30 790 C 75.467 1.8169 0.724441 0
M  V30 791 O 76.673 2.46625 1.13527 0
M  V30 792 C 75.129 3.35857 -1.29338 0
M  V30 793 C 74.737 3.4987 -2.79812 0
M  V30 794 C 76.481 4.10709 -1.07322 0
M  V30 795 C 74.388 4.92536 -3.27356 0
M  V30 796 H 73.318 0.701162 -0.277288 0
M  V30 797 H 75.969 1.32932 -1.26496 0
M  V30 798 H 74.351 3.89631 -0.707376 0
M  V30 799 H 75.525 3.06332 -3.44235 0
M  V30 800 H 73.84 2.88433 -3.00325 0
M  V30 801 H 76.437 5.15952 -1.4035 0
M  V30 802 H 76.78 4.16299 -0.0108001 0
M  V30 803 H 77.313 3.6313 -1.62423 0
M  V30 804 H 74.052 4.92119 -4.33012 0
M  V30 805 H 73.572 5.3676 -2.67673 0
M  V30 806 H 75.251 5.61288 -3.21815 0
M  V30 807 N 75.3831 0.828654 1.34056 0
M  V30 808 C 76.6321 0.415828 1.97367 0
M  V30 809 C 76.9451 -1.02796 1.6641 0
M  V30 810 O 78.1511 -1.54497 2.23255 0
M  V30 811 C 76.6071 0.692601 3.53173 0
M  V30 812 C 76.2151 2.15038 3.93017 0
M  V30 813 C 77.9591 0.346222 4.23086 0
M  V30 814 C 75.8661 2.37174 5.41758 0
M  V30 815 H 74.7961 0.151755 0.738571 0
M  V30 816 H 77.4471 1.01581 1.52819 0
M  V30 817 H 75.8291 0.0223764 3.95994 0
M  V30 818 H 77.0031 2.86024 3.61285 0
M  V30 819 H 75.3181 2.45875 3.36057 0
M  V30 820 H 77.9151 0.48937 5.32456 0
M  V30 821 H 78.2581 -0.709842 4.10204 0
M  V30 822 H 78.7911 0.971258 3.85761 0
M  V30 823 H 75.5301 3.41308 5.59633 0
M  V30 824 H 75.0501 1.70738 5.74986 0
M  V30 825 H 76.7291 2.19818 6.08514 0
M  V30 826 N 76.8612 -1.46375 0.584142 0
M  V30 827 C 78.2722 -1.86031 0.157959 0
M  V30 828 C 78.6232 -1.48753 -1.27933 0
M  V30 829 O 77.7482 -0.903098 -1.96655 0
M  V30 830 C 78.3432 -3.37642 0.279892 0
M  V30 831 C 76.9022 -3.76289 -0.09143 0
M  V30 832 C 76.0492 -2.7039 0.615178 0
M  V30 833 H 79.0002 -1.37509 0.792274 0
M  V30 834 H 79.0212 -3.77275 -0.494364 0
M  V30 835 H 78.5332 -3.64742 1.32607 0
M  V30 836 H 76.6342 -3.54806 -1.13769 0
M  V30 837 H 76.7472 -4.78246 0.285886 0
M  V30 838 H 75.1112 -2.5464 0.0552833 0
M  V30 839 H 75.8942 -3.0033 1.66303 0
M  V30 840 N 78.3393 -0.321999 -1.54275 0
M  V30 841 C 79.5853 0.281461 -2.00837 0
M  V30 842 C 79.9183 1.51909 -1.20985 0
M  V30 843 O 79.1933 1.923 -0.291733 0
M  V30 844 C 79.4763 0.617162 -3.54772 0
M  V30 845 C 79.3293 -0.631064 -4.45351 0
M  V30 846 C 80.6483 1.43542 -4.16033 0
M  V30 847 H 77.7673 0.100826 -0.730071 0
M  V30 848 H 80.4093 -0.438268 -1.84876 0
M  V30 849 H 78.5593 1.23034 -3.68504 0
M  V30 850 H 80.2313 -1.26934 -4.43492 0
M  V30 851 H 78.4743 -1.26025 -4.15091 0
M  V30 852 H 79.1453 -0.351735 -5.50878 0
M  V30 853 H 81.6213 0.917134 -4.05867 0
M  V30 854 H 80.4973 1.63907 -5.23856 0
M  V30 855 H 80.7583 2.43108 -3.69257 0
M  V30 856 N 79.8174 1.5752 -0.0501392 0
M  V30 857 C 81.2334 1.56631 0.306402 0
M  V30 858 C 81.4334 1.0577 1.71508 0
M  V30 859 O 80.4894 0.713837 2.422 0
M  V30 860 C 81.8024 3.00393 0.135811 0
M  V30 861 C 83.3504 3.12315 0.206993 0
M  V30 862 C 83.8254 4.57954 0.064944 0
M  V30 863 N 85.3164 4.63041 0.121254 0
M  V30 864 C 86.0514 5.73389 0.0354381 0
M  V30 865 N 85.5474 6.92724 -0.102666 0
M  V30 866 N 87.3404 5.62026 0.090946 0
M  V30 867 H 79.4914 1.88903 -0.971046 0
M  V30 868 H 81.7544 0.869876 -0.376855 0
M  V30 869 H 81.4604 3.41635 -0.835384 0
M  V30 870 H 81.3344 3.66373 0.897275 0
M  V30 871 H 83.7214 2.70973 1.16866 0
M  V30 872 H 83.8024 2.49016 -0.585208 0
M  V30 873 H 83.4464 4.99981 -0.893394 0
M  V30 874 H 83.3764 5.19258 0.876277 0
M  V30 875 H 85.8674 3.77216 0.227284 0
M  V30 876 H 86.1804 7.72633 -0.160882 0
M  V30 877 H 84.5254 6.94864 -0.137737 0
M  V30 878 H 87.7164 4.67684 0.197388 0
M  V30 879 H 87.8894 6.47997 0.0206089 0
M  V30 880 N 81.2955 -0.223234 1.56011 0
M  V30 881 C 82.2455 -1.28008 1.88674 0
M  V30 882 C 83.2295 -1.42369 0.749663 0
M  V30 883 O 84.4215 -1.45212 1.01205 0
M  V30 884 C 81.5505 -2.63084 2.20548 0
M  V30 885 C 80.6365 -2.52632 3.40643 0
M  V30 886 N 81.0275 -2.11829 4.59306 0
M  V30 887 C 79.3255 -2.83594 3.44224 0
M  V30 888 C 80.0265 -2.12587 5.41463 0
M  V30 889 N 79.0025 -2.5301 4.81131 0
M  V30 890 H 82.8045 -0.955487 2.77935 0
M  V30 891 H 80.3185 -0.431801 1.56554 0
M  V30 892 H 82.3155 -3.39385 2.42122 0
M  V30 893 H 80.9755 -2.96391 1.32599 0
M  V30 894 H 81.9865 -1.82988 4.84496 0
M  V30 895 H 78.6635 -3.21284 2.66614 0
M  V30 896 H 80.0535 -1.83179 6.46448 0
M  V30 897 N 82.7736 -1.49793 -0.48987 0
M  V30 898 C 83.6836 -1.70036 -1.61632 0
M  V30 899 C 84.6996 -0.583102 -1.63939 0
M  V30 900 O 85.8756 -0.859169 -1.82154 0
M  V30 901 C 82.9406 -1.77277 -2.97949 0
M  V30 902 C 82.0016 -3.00918 -3.06181 0
M  V30 903 C 81.2346 -3.07804 -4.35996 0
M  V30 904 O 81.4576 -2.21982 -5.25433 0
M  V30 905 O 80.3916 -4.00369 -4.49431 0
M  V30 906 H 84.2176 -2.65486 -1.47482 0
M  V30 907 H 81.8026 -1.33666 -0.667362 0
M  V30 908 H 83.6846 -1.84329 -3.78947 0
M  V30 909 H 82.3596 -0.850076 -3.12339 0
M  V30 910 H 81.2666 -2.99377 -2.2433 0
M  V30 911 H 82.5996 -3.92704 -2.96723 0
M  V30 912 N 84.2517 0.741722 -1.39055 0
M  V30 913 C 85.2147 1.83733 -1.37021 0
M  V30 914 C 86.2147 1.58542 -0.268534 0
M  V30 915 O 87.4047 1.66067 -0.526076 0
M  V30 916 C 84.5367 3.2141 -1.13617 0
M  V30 917 H 85.7297 1.86941 -2.34506 0
M  V30 918 H 83.2827 0.944676 -1.24521 0
M  V30 919 H 84.0177 3.23865 -0.167863 0
M  V30 920 H 83.8027 3.4109 -1.93391 0
M  V30 921 H 85.2927 4.01477 -1.14918 0
M  V30 922 N 85.7298 1.2412 0.971189 0
M  V30 923 C 86.6778 1.02812 2.08644 0
M  V30 924 C 87.6718 -0.0358403 1.69362 0
M  V30 925 O 88.8778 0.118429 1.7961 0
M  V30 926 H 85.2528 0.315428 0.682649 0
M  V30 927 H 87.2238 1.97397 2.23779 0
M  V30 928 C 85.9728 0.645874 3.41649 0
M  V30 929 H 85.2958 1.45632 3.72332 0
M  V30 930 H 86.7358 0.536366 4.20594 0
M  V30 931 C 85.1948 -0.646713 3.30635 0
M  V30 932 O 85.7248 -1.69338 3.64263 0
M  V30 933 N 83.9308 -0.626115 2.83775 0
M  V30 934 H 83.4778 0.225988 2.56607 0
M  V30 935 H 83.4358 -1.49117 2.76788 0
M  V30 936 N 87.2079 -1.17134 1.05439 0
M  V30 937 C 88.1709 -2.19439 0.661764 0
M  V30 938 C 89.1709 -1.58199 -0.288042 0
M  V30 939 O 90.3609 -1.74053 -0.0715803 0
M  V30 940 C 87.4929 -3.40889 -0.0276209 0
M  V30 941 H 88.6859 -2.55688 1.56728 0
M  V30 942 H 86.2389 -1.31259 0.848567 0
M  V30 943 H 86.9739 -3.10187 -0.94629 0
M  V30 944 H 86.7589 -3.86586 0.655238 0
M  V30 945 H 88.2489 -4.16603 -0.288342 0
M  V30 946 N 88.686 -0.835752 -1.33615 0
M  V30 947 C 89.649 -0.272 -2.2758 0
M  V30 948 C 90.649 0.557487 -1.50827 0
M  V30 949 O 91.839 0.37173 -1.70188 0
M  V30 950 C 88.971 0.617173 -3.35267 0
M  V30 951 H 90.164 -1.10111 -2.78954 0
M  V30 952 H 87.717 -0.608594 -1.43965 0
M  V30 953 H 88.452 1.46884 -2.89129 0
M  V30 954 H 88.237 0.0237066 -3.92093 0
M  V30 955 H 89.727 1.005 -4.05326 0
M  V30 956 N 90.1641 1.46063 -0.591896 0
M  V30 957 C 91.4111 2.02338 -0.0809991 0
M  V30 958 C 91.7391 1.46228 1.28249 0
M  V30 959 O 90.9941 0.620818 1.85592 0
M  V30 960 C 91.2931 3.57391 0.0249813 0
M  V30 961 C 90.9591 4.32583 -1.27211 0
M  V30 962 C 89.6211 4.52844 -1.62745 0
M  V30 963 C 91.9731 4.75687 -2.13005 0
M  V30 964 C 89.3011 5.13462 -2.83855 0
M  V30 965 C 91.6531 5.37644 -3.3335 0
M  V30 966 C 90.3171 5.5613 -3.69155 0
M  V30 967 H 89.5871 0.740407 -0.0296397 0
M  V30 968 H 92.2341 1.75321 -0.770374 0
M  V30 969 H 90.5391 3.83597 0.797537 0
M  V30 970 H 92.2361 3.98621 0.436184 0
M  V30 971 H 88.8261 4.17116 -0.985499 0
M  V30 972 H 93.0101 4.59782 -1.86855 0
M  V30 973 H 88.2661 5.25965 -3.11722 0
M  V30 974 H 92.4401 5.7 -4.00092 0
M  V30 975 H 90.0671 6.0287 -4.63089 0
M  V30 976 N 91.6422 0.330177 1.54103 0
M  V30 977 C 92.5752 -0.575477 2.20825 0
M  V30 978 C 93.5532 -1.11064 1.18758 0
M  V30 979 O 94.7372 -1.17341 1.47524 0
M  V30 980 C 91.8642 -1.79032 2.87516 0
M  V30 981 C 90.9102 -1.38581 4.03358 0
M  V30 982 S 91.7432 -0.416911 5.33875 0
M  V30 983 C 92.8992 -1.63889 6.04062 0
M  V30 984 H 93.1322 -0.00872114 2.97299 0
M  V30 985 H 90.6652 0.114254 1.53977 0
M  V30 986 H 92.6232 -2.48734 3.2656 0
M  V30 987 H 91.2842 -2.32827 2.10832 0
M  V30 988 H 90.4772 -2.29123 4.48908 0
M  V30 989 H 90.0792 -0.768419 3.66021 0
M  V30 990 H 92.3712 -2.57536 6.26643 0
M  V30 991 H 93.3142 -1.22542 6.97416 0
M  V30 992 H 93.7222 -1.82887 5.34053 0
M  V30 993 N 93.1203 -1.57491 0.0584922 0
M  V30 994 C 94.0833 -2.1085 -0.898617 0
M  V30 995 C 95.0833 -1.02964 -1.23511 0
M  V30 996 O 96.2733 -1.29007 -1.17059 0
M  V30 997 C 93.4053 -2.59881 -2.20623 0
M  V30 998 H 94.5983 -2.96715 -0.435936 0
M  V30 999 H 92.1513 -1.55141 -0.190023 0
M  V30 1000 H 92.8863 -1.77431 -2.71457 0
M  V30 1001 H 92.6713 -3.38727 -1.97501 0
M  V30 1002 H 94.1613 -3.01285 -2.89166 0
M  V30 1003 N 94.5984 0.214957 -1.56127 0
M  V30 1004 C 95.5614 1.24997 -1.92116 0
M  V30 1005 C 96.5614 1.39467 -0.800344 0
M  V30 1006 O 97.7514 1.37619 -1.06802 0
M  V30 1007 C 94.8834 2.62271 -2.17777 0
M  V30 1008 H 96.0764 0.942875 -2.84693 0
M  V30 1009 H 93.6294 0.455654 -1.49511 0
M  V30 1010 H 94.3644 2.98068 -1.27773 0
M  V30 1011 H 94.1494 2.53143 -2.99434 0
M  V30 1012 H 95.6394 3.36946 -2.46693 0
M  V30 1013 N 96.0765 1.50051 0.48192 0
M  V30 1014 C 97.0395 1.67584 1.5636 0
M  V30 1015 C 98.0395 0.546894 1.51214 0
M  V30 1016 O 99.2295 0.813725 1.54026 0
M  V30 1017 C 96.3615 1.691 2.96003 0
M  V30 1018 H 97.5545 2.64078 1.42136 0
M  V30 1019 H 95.1075 1.39369 0.707533 0
M  V30 1020 H 95.8425 0.742589 3.15684 0
M  V30 1021 H 95.6275 2.51105 3.01146 0
M  V30 1022 H 97.1175 1.84656 3.74556 0
M  V30 1023 N 97.5546 -0.734337 1.39446 0
M  V30 1024 C 98.8006 -1.49613 1.36908 0
M  V30 1025 C 99.1336 -1.94169 -0.0347829 0
M  V30 1026 O 98.4086 -1.66833 -0.999847 0
M  V30 1027 C 98.6916 -2.73534 2.34203 0
M  V30 1028 C 98.5446 -2.34993 3.83534 0
M  V30 1029 C 99.8636 -3.75635 2.29317 0
M  V30 1030 H 96.9826 -0.542714 0.498629 0
M  V30 1031 H 99.6246 -0.839597 1.70443 0
M  V30 1032 H 97.7746 -3.29553 2.05736 0
M  V30 1033 H 99.4466 -1.84601 4.22753 0
M  V30 1034 H 97.6896 -1.67213 4.00278 0
M  V30 1035 H 98.3606 -3.23738 4.47099 0
M  V30 1036 H 100.837 -3.29203 2.54489 0
M  V30 1037 H 99.7126 -4.60008 2.99472 0
M  V30 1038 H 99.9736 -4.22603 1.29842 0
M  V30 1039 N 99.0327 -1.24633 -0.964593 0
M  V30 1040 C 100.281 -1.08573 -1.70459 0
M  V30 1041 C 100.602 0.375655 -1.91347 0
M  V30 1042 O 99.8717 1.26779 -1.49345 0
M  V30 1043 H 98.4517 -0.398784 -0.631649 0
M  V30 1044 H 101.114 -1.56601 -1.16026 0
M  V30 1045 H 100.21 -1.58623 -2.68785 0
M  V30 1046 N 100.511 1.16574 -1.06058 0
M  V30 1047 C 101.927 1.3904 -0.783585 0
M  V30 1048 C 102.127 1.91784 0.618145 0
M  V30 1049 O 101.183 2.11511 1.37911 0
M  V30 1050 C 102.496 2.37329 -1.84649 0
M  V30 1051 C 104.044 2.51018 -1.86973 0
M  V30 1052 C 104.519 3.52588 -2.92311 0
M  V30 1053 N 106.01 3.60113 -2.91329 0
M  V30 1054 C 106.745 4.38486 -3.69482 0
M  V30 1055 N 106.241 5.20302 -4.57447 0
M  V30 1056 N 108.034 4.33446 -3.57885 0
M  V30 1057 H 100.185 0.806725 -1.96483 0
M  V30 1058 H 102.448 0.417117 -0.851303 0
M  V30 1059 H 102.154 2.05663 -2.85299 0
M  V30 1060 H 102.028 3.36946 -1.6955 0
M  V30 1061 H 104.415 2.81989 -0.869827 0
M  V30 1062 H 104.496 1.51445 -2.0615 0
M  V30 1063 H 104.14 3.22354 -3.92492 0
M  V30 1064 H 104.07 4.51886 -2.70383 0
M  V30 1065 H 106.561 3.01707 -2.27555 0
M  V30 1066 H 106.874 5.77311 -5.13743 0
M  V30 1067 H 105.219 5.19653 -4.61503 0
M  V30 1068 H 108.41 3.68586 -2.88551 0
M  V30 1069 H 108.583 4.94279 -4.19037 0
M  V30 1070 N 101.989 0.842826 1.3317 0
M  V30 1071 C 103.238 0.436738 1.96915 0
M  V30 1072 C 103.551 -1.01025 1.67491 0
M  V30 1073 O 104.757 -1.5212 2.24881 0
M  V30 1074 C 103.213 0.730021 3.52418 0
M  V30 1075 C 102.821 2.19195 3.90714 0
M  V30 1076 C 104.565 0.391076 4.22695 0
M  V30 1077 C 102.472 2.42907 5.39212 0
M  V30 1078 H 101.402 0.15958 0.736919 0
M  V30 1079 H 104.053 1.03196 1.51733 0
M  V30 1080 H 102.435 0.0643755 3.95948 0
M  V30 1081 H 103.609 2.8984 3.58231 0
M  V30 1082 H 101.924 2.49425 3.33431 0
M  V30 1083 H 104.521 0.545817 5.31907 0
M  V30 1084 H 104.864 -0.666294 4.10933 0
M  V30 1085 H 105.397 1.01212 3.84709 0
M  V30 1086 H 102.136 3.47224 5.55982 0
M  V30 1087 H 101.656 1.76827 5.73142 0
M  V30 1088 H 103.335 2.2626 6.06148 0
M  V30 1089 N 103.467 -1.45747 0.599634 0
M  V30 1090 C 104.695 -2.06668 0.0978551 0
M  V30 1091 C 105.11 -1.44562 -1.21439 0
M  V30 1092 O 104.467 -0.556923 -1.73795 0
M  V30 1093 C 104.518 -3.61456 -0.0567044 0
M  V30 1094 O 104.239 -4.21242 1.20361 0
M  V30 1095 C 105.74 -4.39345 -0.590869 0
M  V30 1096 H 102.96 -0.667825 0.0651943 0
M  V30 1097 H 105.504 -1.87115 0.82511 0
M  V30 1098 H 103.659 -3.80378 -0.734251 0
M  V30 1099 H 104.073 -5.14323 1.02821 0
M  V30 1100 H 105.547 -5.48182 -0.648131 0
M  V30 1101 H 106.024 -4.08568 -1.61147 0
M  V30 1102 H 106.63 -4.25268 0.0523679 0
M  V30 1103 N 104.945 -0.338344 -1.53925 0
M  V30 1104 C 106.193 0.259245 -2.0043 0
M  V30 1105 C 106.514 1.51484 -1.22791 0
M  V30 1106 O 105.784 1.93037 -0.33368 0
M  V30 1107 H 104.364 0.0987845 -0.740439 0
M  V30 1108 H 107.026 -0.458302 -1.89435 0
M  V30 1109 H 106.122 0.505334 -3.07982 0
M  V30 1110 N 106.423 1.57458 -0.0668435 0
M  V30 1111 C 107.37 2.12439 0.902122 0
M  V30 1112 C 108.34 1.03565 1.2986 0
M  V30 1113 O 109.525 1.312 1.38532 0
M  V30 1114 C 106.665 2.6865 2.16614 0
M  V30 1115 C 105.778 3.91663 1.82274 0
M  V30 1116 C 104.913 4.36134 3.0325 0
M  V30 1117 C 103.952 5.51808 2.64904 0
M  V30 1118 N 103.089 5.9126 3.78624 0
M  V30 1119 H 107.929 2.94934 0.426382 0
M  V30 1120 H 105.466 1.4575 0.198819 0
M  V30 1121 H 107.424 2.99346 2.90599 0
M  V30 1122 H 106.054 1.88928 2.61737 0
M  V30 1123 H 105.106 3.6746 0.983719 0
M  V30 1124 H 106.418 4.75693 1.50059 0
M  V30 1125 H 105.572 4.68465 3.85519 0
M  V30 1126 H 104.311 3.50948 3.38655 0
M  V30 1127 H 103.316 5.19133 1.81055 0
M  V30 1128 H 104.541 6.38722 2.30675 0
M  V30 1129 H 102.487 5.09024 4.138 0
M  V30 1130 H 102.404 6.70018 3.5016 0
M  V30 1131 H 103.672 6.28212 4.61486 0
M  V30 1132 N 107.901 -0.206675 1.56239 0
M  V30 1133 C 108.864 -1.23976 1.92776 0
M  V30 1134 C 109.864 -1.39041 0.807729 0
M  V30 1135 O 111.054 -1.37051 1.0753 0
M  V30 1136 C 108.186 -2.61112 2.19165 0
M  V30 1137 H 109.379 -0.927764 2.85189 0
M  V30 1138 H 106.932 -0.447718 1.4975 0
M  V30 1139 H 107.667 -2.97386 1.29352 0
M  V30 1140 H 107.452 -2.51552 3.00772 0
M  V30 1141 H 108.942 -3.35633 2.48476 0
M  V30 1142 N 109.379 -1.50304 -0.473955 0
M  V30 1143 C 110.627 -1.60832 -1.22382 0
M  V30 1144 C 110.948 -0.30939 -1.9253 0
M  V30 1145 O 110.218 0.67296 -1.83978 0
M  V30 1146 H 108.798 -0.592652 -0.454723 0
M  V30 1147 H 111.46 -1.87068 -0.546968 0
M  V30 1148 H 110.556 -2.41803 -1.97327 0
M  V30 1149 N 110.857 0.726932 -1.39834 0
M  V30 1150 C 112.103 1.48884 -1.377 0
M  V30 1151 C 112.436 1.94185 0.0244852 0
M  V30 1152 O 111.711 1.67361 0.990986 0
M  V30 1153 C 111.994 2.72288 -2.3565 0
M  V30 1154 C 111.847 2.32956 -3.84775 0
M  V30 1155 C 113.166 3.74414 -2.31306 0
M  V30 1156 H 110.285 0.540062 -0.5015 0
M  V30 1157 H 112.927 0.830547 -1.70886 0
M  V30 1158 H 111.077 3.28457 -2.07481 0
M  V30 1159 H 112.749 1.82356 -4.23726 0
M  V30 1160 H 110.992 1.65088 -4.01159 0
M  V30 1161 H 111.663 3.21362 -4.4881 0
M  V30 1162 H 114.139 3.27849 -2.56231 0
M  V30 1163 H 113.015 4.58414 -3.01907 0
M  V30 1164 H 113.276 4.21909 -1.32081 0
M  V30 1165 N 112.336 1.25143 0.95797 0
M  V30 1166 C 113.299 1.05321 2.03569 0
M  V30 1167 C 114.299 0.007152 1.60798 0
M  V30 1168 O 115.489 0.24903 1.72411 0
M  V30 1169 C 112.621 0.598394 3.35607 0
M  V30 1170 H 113.814 2.00986 2.22586 0
M  V30 1171 H 111.367 1.07502 1.13459 0
M  V30 1172 H 112.102 -0.361014 3.22284 0
M  V30 1173 H 111.887 1.35351 3.67998 0
M  V30 1174 H 113.377 0.48104 4.1482 0
M  V30 1175 N 113.814 -1.1601 1.06675 0
M  V30 1176 C 114.744 -2.22688 0.702307 0
M  V30 1177 C 115.725 -1.67306 -0.307032 0
M  V30 1178 O 116.91 -1.93352 -0.181305 0
M  V30 1179 C 114.04 -3.47178 0.092038 0
M  V30 1180 C 112.994 -4.15477 1.02777 0
M  V30 1181 C 112.32 -5.33963 0.28061 0
M  V30 1182 C 113.62 -4.66019 2.35846 0
M  V30 1183 H 115.314 -2.53429 1.59419 0
M  V30 1184 H 112.86 -1.21813 0.767961 0
M  V30 1185 H 114.813 -4.21037 -0.174814 0
M  V30 1186 H 113.537 -3.15749 -0.834877 0
M  V30 1187 H 112.196 -3.43549 1.27944 0
M  V30 1188 H 111.844 -4.98788 -0.649545 0
M  V30 1189 H 111.544 -5.806 0.904258 0
M  V30 1190 H 113.068 -6.10596 0.021396 0
M  V30 1191 H 114.482 -5.3144 2.15045 0
M  V30 1192 H 112.879 -5.23293 2.93743 0
M  V30 1193 H 113.949 -3.82023 2.98641 0
M  V30 1194 N 115.292 -0.849877 -1.32721 0
M  V30 1195 C 116.538 -0.451591 -1.97708 0
M  V30 1196 C 116.871 0.989175 -1.6712 0
M  V30 1197 O 116.146 1.69334 -0.956891 0
M  V30 1198 C 116.429 -0.685598 -3.53513 0
M  V30 1199 C 116.282 -2.17444 -3.93749 0
M  V30 1200 C 117.601 -0.138874 -4.39881 0
M  V30 1201 H 114.72 -0.16555 -0.718166 0
M  V30 1202 H 117.362 -1.06742 -1.57182 0
M  V30 1203 H 115.512 -0.161416 -3.88165 0
M  V30 1204 H 117.184 -2.76433 -3.693 0
M  V30 1205 H 115.427 -2.65476 -3.43081 0
M  V30 1206 H 116.098 -2.28888 -5.02309 0
M  V30 1207 H 118.574 -0.587068 -4.11938 0
M  V30 1208 H 117.45 -0.332213 -5.47894 0
M  V30 1209 H 117.711 0.95806 -4.31594 0
M  V30 1210 N 116.77 1.45427 -0.607355 0
M  V30 1211 C 117.998 2.06614 -0.108814 0
M  V30 1212 C 118.413 1.45204 1.2067 0
M  V30 1213 O 117.77 0.566132 1.73497 0
M  V30 1214 C 117.821 3.61481 0.0375347 0
M  V30 1215 O 117.542 4.20598 -1.22593 0
M  V30 1216 C 119.043 4.39652 0.567561 0
M  V30 1217 H 116.263 0.66747 -0.0687351 0
M  V30 1218 H 118.807 1.86675 -0.835022 0
M  V30 1219 H 116.962 3.80762 0.714068 0
M  V30 1220 H 117.376 5.1377 -1.05547 0
M  V30 1221 H 118.85 5.48518 0.61905 0
M  V30 1222 H 119.327 4.09417 1.58978 0
M  V30 1223 H 119.933 4.25234 -0.0749202 0
M  V30 1224 N 118.248 0.346503 1.53744 0
M  V30 1225 C 119.473 -0.253074 2.0585 0
M  V30 1226 C 119.898 -1.43202 1.21962 0
M  V30 1227 O 119.256 -1.79783 0.234073 0
M  V30 1228 C 119.304 -0.643193 3.54817 0
M  V30 1229 O 118.408 -1.74286 3.73762 0
M  V30 1230 H 117.749 -0.0413583 0.662711 0
M  V30 1231 H 120.279 0.501574 1.98357 0
M  V30 1232 H 120.289 -0.919526 3.97503 0
M  V30 1233 H 118.964 0.218966 4.15323 0
M  V30 1234 H 117.541 -1.46356 3.42979 0
M  V30 1235 N 119.726 -1.57421 0.075193 0
M  V30 1236 C 120.974 -1.93236 -0.591974 0
M  V30 1237 C 121.295 -0.956241 -1.69944 0
M  V30 1238 O 120.565 -0.00494792 -1.95899 0
M  V30 1239 H 119.145 -0.713355 -0.22166 0
M  V30 1240 H 121.807 -1.9444 0.133848 0
M  V30 1241 H 120.903 -2.95131 -1.01509 0
M  V30 1242 N 121.204 0.198386 -1.56346 0
M  V30 1243 C 122.615 0.763358 -1.70381 0
M  V30 1244 C 122.966 1.83995 -0.681203 0
M  V30 1245 O 122.091 2.15785 0.16305 0
M  V30 1246 C 122.686 1.39143 -3.08909 0
M  V30 1247 C 121.245 1.90352 -3.2472 0
M  V30 1248 C 120.392 0.772233 -2.6633 0
M  V30 1249 H 123.343 -0.0266377 -1.58678 0
M  V30 1250 H 123.364 2.26076 -3.06055 0
M  V30 1251 H 122.876 0.607638 -3.83314 0
M  V30 1252 H 120.977 2.71461 -2.55225 0
M  V30 1253 H 121.09 2.06757 -4.3219 0
M  V30 1254 H 119.454 1.18566 -2.2542 0
M  V30 1255 H 120.237 0.00073556 -3.433 0
M  V30 1256 N 122.682 1.50554 0.465978 0
M  V30 1257 C 123.93 1.61479 1.21528 0
M  V30 1258 C 124.251 0.319596 1.92363 0
M  V30 1259 O 123.521 -0.663194 1.84333 0
M  V30 1260 H 122.101 0.595055 0.451573 0
M  V30 1261 H 124.763 1.87355 0.53704 0
M  V30 1262 H 123.859 2.42846 1.96042 0
M  V30 1263 N 124.16 -0.719506 1.40217 0
M  V30 1264 C 125.4 -1.49181 1.39729 0
M  V30 1265 C 125.764 -1.92 -0.00250614 0
M  V30 1266 O 126.965 -2.68473 -0.132479 0
M  V30 1267 C 125.236 -2.68767 2.35582 0
M  V30 1268 S 126.795 -3.58224 2.53418 0
M  V30 1269 H 123.613 -0.510091 0.495307 0
M  V30 1270 H 126.215 -0.841724 1.76452 0
M  V30 1271 H 124.919 -2.35475 3.36124 0
M  V30 1272 H 124.45 -3.38691 2.0013 0
M  V30 1273 H 126.465 -4.63033 1.78367 0
M  V30 1274 N 125.638 -1.25649 -0.95132 0
M  V30 1275 C 126.863 -1.13443 -1.73624 0
M  V30 1276 C 127.288 0.307565 -1.85568 0
M  V30 1277 O 126.646 1.22282 -1.33854 0
M  V30 1278 C 126.694 -1.79723 -3.12621 0
M  V30 1279 O 125.798 -1.07912 -3.98031 0
M  V30 1280 H 125.139 -0.395872 -0.533086 0
M  V30 1281 H 127.669 -1.66276 -1.1922 0
M  V30 1282 H 127.679 -1.86141 -3.63064 0
M  V30 1283 H 126.354 -2.84633 -3.03244 0
M  V30 1284 H 124.931 -1.09398 -3.56492 0
M  V30 1285 N 127.117 1.15442 -1.07289 0
M  V30 1286 C 128.065 2.22225 -0.686952 0
M  V30 1287 C 129.059 1.66688 0.30193 0
M  V30 1288 O 130.265 1.79236 0.165712 0
M  V30 1289 H 126.64 0.723783 -0.204064 0
M  V30 1290 H 128.611 2.52056 -1.5972 0
M  V30 1291 C 127.36 3.47556 -0.100149 0
M  V30 1292 H 126.683 3.90612 -0.852211 0
M  V30 1293 H 128.123 4.23794 0.132235 0
M  V30 1294 C 126.582 3.16337 1.159 0
M  V30 1295 O 127.112 3.33074 2.24555 0
M  V30 1296 N 125.318 2.70385 1.06491 0
M  V30 1297 H 124.865 2.56966 0.180668 0
M  V30 1298 H 124.823 2.49871 1.90819 0
M  V30 1299 N 128.595 0.856903 1.32268 0
M  V30 1300 C 129.525 0.31858 2.31316 0
M  V30 1301 C 130.506 -0.583487 1.59779 0
M  V30 1302 O 131.691 -0.503259 1.87566 0
M  V30 1303 C 128.821 -0.491979 3.43798 0
M  V30 1304 C 127.775 0.315849 4.26833 0
M  V30 1305 C 127.101 -0.619586 5.31098 0
M  V30 1306 C 128.401 1.54282 4.98993 0
M  V30 1307 H 130.095 1.14621 2.76591 0
M  V30 1308 H 127.641 0.552613 1.32974 0
M  V30 1309 H 129.594 -0.879012 4.1213 0
M  V30 1310 H 128.318 -1.35299 2.97257 0
M  V30 1311 H 126.977 0.684664 3.6015 0
M  V30 1312 H 126.625 -1.47751 4.8081 0
M  V30 1313 H 126.325 -0.0830621 5.87541 0
M  V30 1314 H 127.849 -1.00375 6.02293 0
M  V30 1315 H 129.263 1.22796 5.59995 0
M  V30 1316 H 127.66 2.01745 5.65172 0
M  V30 1317 H 128.73 2.30285 4.26728 0
M  V30 1318 N 130.073 -1.45103 0.615059 0
M  V30 1319 C 131.322 -2.01396 0.110718 0
M  V30 1320 C 131.635 -1.48834 -1.26916 0
M  V30 1321 O 132.841 -1.97152 -1.86664 0
M  V30 1322 C 131.297 -3.59599 0.14723 0
M  V30 1323 C 130.905 -4.21158 1.52743 0
M  V30 1324 C 132.649 -4.23428 -0.30148 0
M  V30 1325 C 130.556 -5.71535 1.51992 0
M  V30 1326 H 129.486 -0.753061 0.0376241 0
M  V30 1327 H 132.137 -1.66494 0.77149 0
M  V30 1328 H 130.519 -3.91724 -0.580339 0
M  V30 1329 H 131.693 -4.00594 2.2773 0
M  V30 1330 H 130.008 -3.69552 1.91886 0
M  V30 1331 H 132.605 -5.33703 -0.326392 0
M  V30 1332 H 132.948 -3.94629 -1.32565 0
M  V30 1333 H 133.481 -3.96047 0.373065 0
M  V30 1334 H 130.22 -6.05044 2.52193 0
M  V30 1335 H 129.74 -5.94268 0.81274 0
M  V30 1336 H 131.419 -6.34873 1.24681 0
M  V30 1337 N 131.551 -0.354651 -1.53558 0
M  V30 1338 C 132.779 0.239515 -2.05509 0
M  V30 1339 C 133.194 1.4333 -1.2289 0
M  V30 1340 O 132.551 1.80538 -0.266899 0
M  V30 1341 C 132.602 0.643719 -3.55723 0
M  V30 1342 O 132.323 -0.502602 -4.35207 0
M  V30 1343 C 133.824 1.29743 -4.23889 0
M  V30 1344 H 131.044 0.0442697 -0.669538 0
M  V30 1345 H 133.588 -0.509856 -1.98042 0
M  V30 1346 H 131.743 1.34302 -3.63376 0
M  V30 1347 H 132.157 -0.178172 -5.24197 0
M  V30 1348 H 133.631 1.53091 -5.30346 0
M  V30 1349 H 134.108 2.25441 -3.76926 0
M  V30 1350 H 134.714 0.639865 -4.20459 0
M  V30 1351 N 133.029 1.57378 -0.0835403 0
M  V30 1352 C 134.277 1.93547 0.581718 0
M  V30 1353 C 134.598 0.96524 1.69435 0
M  V30 1354 O 133.868 0.0153369 1.95894 0
M  V30 1355 H 132.448 0.714521 0.217874 0
M  V30 1356 H 135.11 1.94366 -0.144158 0
M  V30 1357 H 134.206 2.95665 0.999423 0
M  V30 1358 N 134.507 -0.190092 1.56449 0
M  V30 1359 C 135.44 -1.26375 1.90012 0
M  V30 1360 C 136.418 -1.43705 0.760765 0
M  V30 1361 O 137.602 -1.59014 1.01226 0
M  V30 1362 C 134.729 -2.62962 2.13468 0
M  V30 1363 C 133.775 -2.62474 3.36169 0
M  V30 1364 S 134.608 -2.13412 4.91137 0
M  V30 1365 C 135.764 -3.51812 5.17667 0
M  V30 1366 H 135.997 -0.977181 2.80782 0
M  V30 1367 H 133.53 -0.393814 1.49293 0
M  V30 1368 H 135.488 -3.41583 2.27664 0
M  V30 1369 H 134.149 -2.88828 1.23439 0
M  V30 1370 H 133.342 -3.62918 3.49723 0
M  V30 1371 H 132.944 -1.91937 3.20992 0
M  V30 1372 H 135.236 -4.47706 5.08494 0
M  V30 1373 H 136.179 -3.43148 6.19399 0
M  V30 1374 H 136.587 -3.46956 4.45288 0
M  V30 1375 N 135.985 -1.50799 -0.457987 0
M  V30 1376 C 136.948 -1.7005 -1.53674 0
M  V30 1377 C 137.948 -0.570881 -1.50325 0
M  V30 1378 O 139.138 -0.838126 -1.52712 0
M  V30 1379 C 136.27 -1.73788 -2.93276 0
M  V30 1380 H 137.463 -2.66306 -1.37917 0
M  V30 1381 H 135.016 -1.40477 -0.685271 0
M  V30 1382 H 135.751 -0.792717 -3.14462 0
M  V30 1383 H 135.536 -2.55864 -2.97113 0
M  V30 1384 H 137.026 -1.90591 -3.71571 0
M  V30 1385 N 137.463 0.71206 -1.40597 0
M  V30 1386 C 138.691 1.50111 -1.42388 0
M  V30 1387 C 139.106 1.88784 -0.0245395 0
M  V30 1388 O 138.463 1.55681 0.952351 0
M  V30 1389 C 138.514 2.7742 -2.31776 0
M  V30 1390 O 138.235 2.40382 -3.66262 0
M  V30 1391 C 139.736 3.7129 -2.42196 0
M  V30 1392 H 136.956 0.46314 -0.485533 0
M  V30 1393 H 139.5 0.878068 -1.8469 0
M  V30 1394 H 137.655 3.36001 -1.92827 0
M  V30 1395 H 138.069 3.22324 -4.13772 0
M  V30 1396 H 139.543 4.57448 -3.08943 0
M  V30 1397 H 140.02 4.14641 -1.44809 0
M  V30 1398 H 140.626 3.18619 -2.81712 0
M  V30 1399 N 138.941 1.26152 0.944643 0
M  V30 1400 C 139.904 1.07474 2.0244 0
M  V30 1401 C 140.904 0.0242064 1.60782 0
M  V30 1402 O 142.094 0.267302 1.72137 0
M  V30 1403 C 139.226 0.633956 3.34953 0
M  V30 1404 H 140.419 2.03336 2.20442 0
M  V30 1405 H 137.972 1.087 1.12312 0
M  V30 1406 H 138.707 -0.326811 3.22649 0
M  V30 1407 H 138.492 1.39247 3.66542 0
M  V30 1408 H 139.982 0.52501 4.14287 0
M  V30 1409 N 140.419 -1.14872 1.07899 0
M  V30 1410 C 141.367 -2.21857 0.698727 0
M  V30 1411 C 142.361 -1.66845 -0.293086 0
M  V30 1412 O 143.567 -1.79321 -0.156204 0
M  V30 1413 H 139.942 -0.722691 0.207899 0
M  V30 1414 H 141.913 -2.51205 1.61054 0
M  V30 1415 C 140.662 -3.47498 0.11858 0
M  V30 1416 H 139.985 -3.90154 0.872914 0
M  V30 1417 H 141.425 -4.23858 -0.109759 0
M  V30 1418 C 139.884 -3.16947 -1.1422 0
M  V30 1419 O 140.414 -3.3426 -2.22785 0
M  V30 1420 N 138.62 -2.70946 -1.05055 0
M  V30 1421 H 138.167 -2.57058 -0.167038 0
M  V30 1422 H 138.125 -2.50879 -1.89491 0
M  V30 1423 N 141.898 -0.863906 -1.31812 0
M  V30 1424 C 143.123 -0.48527 -2.01643 0
M  V30 1425 C 143.548 0.913058 -1.64453 0
M  V30 1426 O 142.906 1.6014 -0.849985 0
M  V30 1427 C 142.954 -0.642625 -3.54828 0
M  V30 1428 O 142.058 0.320659 -4.11151 0
M  V30 1429 H 141.399 -0.193793 -0.635091 0
M  V30 1430 H 143.929 -1.16565 -1.68148 0
M  V30 1431 H 143.939 -0.533628 -4.04495 0
M  V30 1432 H 142.614 -1.66227 -3.81237 0
M  V30 1433 H 141.191 0.167126 -3.72525 0
M  V30 1434 N 143.376 1.44774 -0.622745 0
M  V30 1435 C 144.286 2.34433 0.0886031 0
M  V30 1436 C 145.302 1.52131 0.844529 0
M  V30 1437 O 146.478 1.84886 0.798691 0
M  V30 1438 C 143.543 3.29986 1.0635 0
M  V30 1439 C 142.604 4.28195 0.307873 0
M  V30 1440 C 141.837 5.19183 1.23633 0
M  V30 1441 O 142.06 5.13918 2.47476 0
M  V30 1442 O 140.994 5.97515 0.725189 0
M  V30 1443 H 144.82 2.96693 -0.648599 0
M  V30 1444 H 142.405 1.44408 -0.382957 0
M  V30 1445 H 144.287 3.88825 1.6246 0
M  V30 1446 H 142.962 2.70269 1.78146 0
M  V30 1447 H 141.869 3.72927 -0.296064 0
M  V30 1448 H 143.202 4.90808 -0.3699 0
M  V30 1449 N 144.854 0.36279 1.53368 0
M  V30 1450 C 146.102 -0.227326 2.00817 0
M  V30 1451 C 146.423 -1.49511 1.25186 0
M  V30 1452 O 145.693 -1.92482 0.364348 0
M  V30 1453 H 144.273 -0.0869923 0.741917 0
M  V30 1454 H 146.935 0.488381 1.88682 0
M  V30 1455 H 146.031 -0.456273 3.08747 0
M  V30 1456 N 146.332 -1.57332 0.0918853 0
M  V30 1457 C 147.609 -1.85691 -0.614668 0
M  V30 1458 C 147.989 -0.988146 -1.86545 0
M  V30 1459 O 147.337 -0.0597055 -2.28422 0
M  V30 1460 C 147.547 -3.36294 -0.933126 0
M  V30 1461 C 148.895 -4.04275 -1.29796 0
M  V30 1462 O 149.919 -3.41157 -1.02424 0
M  V30 1463 O 148.778 -5.1564 -1.81047 0
M  V30 1464 H 145.872 -0.767802 -0.307261 0
M  V30 1465 H 148.418 -1.69244 0.12434 0
M  V30 1466 H 147.19 -3.91273 -0.0456404 0
M  V30 1467 H 146.813 -3.58076 -1.72822 0
M  V30 1468 N 147.81 0.181792 -1.56548 0
M  V30 1469 C 149.221 0.745244 -1.71181 0
M  V30 1470 C 149.572 1.83262 -0.70068 0
M  V30 1471 O 148.697 2.15946 0.140154 0
M  V30 1472 C 149.292 1.35859 -3.10367 0
M  V30 1473 C 147.851 1.86898 -3.2672 0
M  V30 1474 C 146.998 0.743942 -2.67134 0
M  V30 1475 H 149.949 -0.0434661 -1.5864 0
M  V30 1476 H 149.97 2.22817 -3.08436 0
M  V30 1477 H 149.482 0.566948 -3.83937 0
M  V30 1478 H 147.583 2.68738 -2.5809 0
M  V30 1479 H 147.696 2.02162 -4.34359 0
M  V30 1480 H 146.06 1.16169 -2.26665 0
M  V30 1481 H 146.843 -0.035676 -3.43281 0
M  V30 1482 N 149.288 1.51039 0.449983 0
M  V30 1483 C 150.534 1.63322 1.20223 0
M  V30 1484 C 150.867 0.34241 1.91158 0
M  V30 1485 O 150.142 -0.657344 1.83055 0
M  V30 1486 C 150.425 2.82801 2.22925 0
M  V30 1487 C 150.278 4.21823 1.56157 0
M  V30 1488 C 151.597 2.97807 3.24035 0
M  V30 1489 H 148.716 0.594407 0.435718 0
M  V30 1490 H 151.358 1.83489 0.493136 0
M  V30 1491 H 149.508 2.65738 2.834 0
M  V30 1492 H 151.18 4.50526 0.991162 0
M  V30 1493 H 149.423 4.25105 0.864172 0
M  V30 1494 H 150.094 5.01391 2.30891 0
M  V30 1495 H 152.57 3.13497 2.73603 0
M  V30 1496 H 151.446 3.82992 3.93202 0
M  V30 1497 H 151.707 2.09328 3.89402 0
M  V30 1498 N 150.766 -0.704594 1.40972 0
M  V30 1499 C 152.012 -1.46675 1.40051 0
M  V30 1500 C 152.345 -1.94199 0.00641102 0
M  V30 1501 O 151.62 -1.68916 -0.964235 0
M  V30 1502 C 151.903 -2.68505 2.39952 0
M  V30 1503 C 151.756 -2.26805 3.88432 0
M  V30 1504 C 153.075 -3.70686 2.37233 0
M  V30 1505 H 150.194 -0.532015 0.510028 0
M  V30 1506 H 152.836 -0.803255 1.72185 0
M  V30 1507 H 150.986 -3.25114 2.1268 0
M  V30 1508 H 152.658 -1.75592 4.26574 0
M  V30 1509 H 150.901 -1.58685 4.03734 0
M  V30 1510 H 151.572 -3.14181 4.53866 0
M  V30 1511 H 154.048 -3.23731 2.61415 0
M  V30 1512 H 152.924 -4.53553 3.09162 0
M  V30 1513 H 153.185 -4.19754 1.38777 0
M  V30 1514 N 152.244 -1.26651 -0.937939 0
M  V30 1515 C 153.207 -1.08546 -2.01867 0
M  V30 1516 C 154.207 -0.0327327 -1.60767 0
M  V30 1517 O 155.397 -0.276427 -1.71993 0
M  V30 1518 C 152.529 -0.651711 -3.34613 0
M  V30 1519 H 153.722 -2.04502 -2.1936 0
M  V30 1520 H 151.275 -1.09294 -1.11734 0
M  V30 1521 H 152.01 0.309696 -3.22818 0
M  V30 1522 H 151.795 -1.41189 -3.65798 0
M  V30 1523 H 153.285 -0.546973 -4.14002 0
M  V30 1524 N 153.722 1.14298 -1.08507 0
M  V30 1525 C 154.652 2.21542 -0.737646 0
M  V30 1526 C 155.633 1.67773 0.280377 0
M  V30 1527 O 156.818 1.93616 0.150521 0
M  V30 1528 C 153.948 3.46988 -0.147259 0
M  V30 1529 C 152.902 4.13789 -1.09374 0
M  V30 1530 C 152.228 5.33449 -0.365524 0
M  V30 1531 C 153.528 4.62208 -2.4323 0
M  V30 1532 H 155.222 2.5086 -1.6343 0
M  V30 1533 H 152.768 1.20576 -0.787243 0
M  V30 1534 H 154.721 4.21262 0.107808 0
M  V30 1535 H 153.445 3.17037 0.784538 0
M  V30 1536 H 152.104 3.4147 -1.33393 0
M  V30 1537 H 151.752 4.99759 0.57011 0
M  V30 1538 H 151.452 5.79088 -0.996512 0
M  V30 1539 H 152.976 6.10485 -0.118534 0
M  V30 1540 H 154.39 5.27952 -2.23472 0
M  V30 1541 H 152.787 5.18553 -3.02031 0
M  V30 1542 H 153.857 3.77224 -3.04681 0
M  V30 1543 N 155.201 0.870884 1.31352 0
M  V30 1544 C 156.449 0.48132 1.96285 0
M  V30 1545 C 156.77 -0.969813 1.69173 0
M  V30 1546 O 156.04 -1.67998 1.00764 0
M  V30 1547 H 154.62 0.175002 0.726212 0
M  V30 1548 H 157.282 1.11087 1.60143 0
M  V30 1549 H 156.378 0.639825 3.05471 0
M  V30 1550 N 156.679 -1.44442 0.630414 0
M  V30 1551 C 157.927 -2.01653 0.134351 0
M  V30 1552 C 158.248 -1.49836 -1.24796 0
M  V30 1553 O 157.518 -0.701684 -1.82902 0
M  V30 1554 H 156.098 -0.74554 0.0466769 0
M  V30 1555 H 158.76 -1.76952 0.816955 0
M  V30 1556 H 157.856 -3.11935 0.101498 0
M  V30 1557 N 158.157 -0.370918 -1.53173 0
M  V30 1558 C 159.12 0.460778 -2.24521 0
M  V30 1559 C 160.12 1.00536 -1.25496 0
M  V30 1560 O 161.31 0.890266 -1.49733 0
M  V30 1561 C 158.442 1.64457 -2.98608 0
M  V30 1562 H 159.635 -0.163613 -2.99453 0
M  V30 1563 H 157.188 -0.122699 -1.55818 0
M  V30 1564 H 157.923 2.30691 -2.2793 0
M  V30 1565 H 157.708 1.26099 -3.7127 0
M  V30 1566 H 159.198 2.23384 -3.5283 0
M  V30 1567 N 159.635 1.57281 -0.100228 0
M  V30 1568 C 160.881 1.94826 0.563101 0
M  V30 1569 C 161.214 0.982475 1.67514 0
M  V30 1570 O 160.489 0.0164069 1.94493 0
M  V30 1571 C 160.772 3.42453 1.11346 0
M  V30 1572 C 160.625 4.498 0.00612081 0
M  V30 1573 C 161.944 3.91506 2.01024 0
M  V30 1574 H 159.063 0.708428 0.203221 0
M  V30 1575 H 161.705 1.8922 -0.171979 0
M  V30 1576 H 159.855 3.47361 1.7399 0
M  V30 1577 H 161.527 4.57 -0.628357 0
M  V30 1578 H 159.77 4.28756 -0.659581 0
M  V30 1579 H 160.441 5.50306 0.432109 0
M  V30 1580 H 162.917 3.88784 1.48278 0
M  V30 1581 H 161.793 4.95358 2.36457 0
M  V30 1582 H 162.054 3.31099 2.92961 0
M  V30 1583 N 161.113 -0.173488 1.56642 0
M  V30 1584 C 162.06 -1.21482 1.96242 0
M  V30 1585 C 163.03 -1.44104 0.826027 0
M  V30 1586 O 164.215 -1.5688 1.08597 0
M  V30 1587 C 161.355 -2.54964 2.32567 0
M  V30 1588 C 160.468 -2.39739 3.59373 0
M  V30 1589 C 159.603 -3.66072 3.84921 0
M  V30 1590 C 158.642 -3.45771 5.05083 0
M  V30 1591 N 157.779 -4.64169 5.26775 0
M  V30 1592 H 162.619 -0.870123 2.85014 0
M  V30 1593 H 160.156 -0.418245 1.41029 0
M  V30 1594 H 162.114 -3.32758 2.5165 0
M  V30 1595 H 160.744 -2.87433 1.46908 0
M  V30 1596 H 159.796 -1.53131 3.48217 0
M  V30 1597 H 161.108 -2.20683 4.47326 0
M  V30 1598 H 160.262 -4.52303 4.0436 0
M  V30 1599 H 159.001 -3.88105 2.9534 0
M  V30 1600 H 158.006 -2.57927 4.85545 0
M  V30 1601 H 159.231 -3.25163 5.96193 0
M  V30 1602 H 157.177 -4.86425 4.40144 0
M  V30 1603 H 157.094 -4.48019 6.08946 0
M  V30 1604 H 158.362 -5.51689 5.5069 0
M  V30 1605 N 162.591 -1.51276 -0.441967 0
M  V30 1606 C 164.007 -1.39349 -0.778083 0
M  V30 1607 C 164.207 -0.472212 -1.95889 0
M  V30 1608 O 163.263 0.0743551 -2.5239 0
M  V30 1609 C 164.576 -2.81292 -1.0628 0
M  V30 1610 C 166.124 -2.9041 -1.16751 0
M  V30 1611 C 166.599 -4.33251 -1.48519 0
M  V30 1612 N 168.09 -4.36336 -1.55453 0
M  V30 1613 C 168.825 -5.43885 -1.81596 0
M  V30 1614 N 168.321 -6.61601 -2.05562 0
M  V30 1615 N 170.114 -5.3136 -1.8334 0
M  V30 1616 H 162.265 -2.09729 0.335774 0
M  V30 1617 H 164.528 -0.943925 0.0878028 0
M  V30 1618 H 164.234 -3.50678 -0.267905 0
M  V30 1619 H 164.108 -3.20334 -1.99163 0
M  V30 1620 H 166.495 -2.21225 -1.95304 0
M  V30 1621 H 166.576 -2.54871 -0.217801 0
M  V30 1622 H 166.22 -5.02984 -0.704958 0
M  V30 1623 H 166.15 -4.66299 -2.44689 0
M  V30 1624 H 168.641 -3.51466 -1.38853 0
M  V30 1625 H 168.954 -7.39361 -2.24867 0
M  V30 1626 H 167.299 -6.64725 -2.02894 0
M  V30 1627 H 170.49 -4.38382 -1.64132 0
M  V30 1628 H 170.663 -6.15258 -2.03377 0
M  V30 1629 N 164.069 0.697108 -1.41344 0
M  V30 1630 C 165.032 1.79281 -1.42797 0
M  V30 1631 C 166.032 1.57607 -0.318837 0
M  V30 1632 O 167.222 1.64309 -0.578642 0
M  V30 1633 C 164.354 3.17632 -1.23785 0
M  V30 1634 H 165.547 1.79385 -2.40335 0
M  V30 1635 H 163.1 0.904582 -1.27464 0
M  V30 1636 H 163.835 3.23167 -0.270814 0
M  V30 1637 H 163.62 3.34765 -2.04144 0
M  V30 1638 H 165.11 3.97617 -1.27633 0
M  V30 1639 N 165.547 1.27147 0.931209 0
M  V30 1640 C 166.824 1.0401 1.65654 0
M  V30 1641 C 167.204 -0.426297 2.06751 0
M  V30 1642 O 166.552 -1.40879 1.79904 0
M  V30 1643 C 166.762 1.99834 2.86125 0
M  V30 1644 C 168.11 2.29007 3.57549 0
M  V30 1645 O 169.134 1.97779 2.96246 0
M  V30 1646 O 167.993 2.82222 4.67989 0
M  V30 1647 H 165.087 0.396239 0.725895 0
M  V30 1648 H 167.633 1.38397 0.982056 0
M  V30 1649 H 166.405 2.98744 2.52721 0
M  V30 1650 H 166.028 1.65987 3.61295 0
M  V30 1651 N 167.025 -1.13721 1.09112 0
M  V30 1652 C 167.972 -2.19031 0.727591 0
M  V30 1653 C 168.942 -1.63555 -0.289656 0
M  V30 1654 O 170.127 -1.90023 -0.172026 0
M  V30 1655 C 167.267 -3.4477 0.15082 0
M  V30 1656 C 166.38 -4.14365 1.22172 0
M  V30 1657 C 165.515 -5.27709 0.608042 0
M  V30 1658 C 164.554 -5.89147 1.66047 0
M  V30 1659 N 163.691 -6.93929 1.06806 0
M  V30 1660 H 168.531 -2.49475 1.62991 0
M  V30 1661 H 166.068 -1.22499 0.81439 0
M  V30 1662 H 168.026 -4.16714 -0.201358 0
M  V30 1663 H 166.656 -3.14787 -0.714783 0
M  V30 1664 H 165.708 -3.40737 1.69122 0
M  V30 1665 H 167.02 -4.56114 2.01895 0
M  V30 1666 H 166.174 -6.06355 0.204523 0
M  V30 1667 H 164.913 -4.872 -0.220769 0
M  V30 1668 H 163.918 -5.09198 2.07357 0
M  V30 1669 H 165.143 -6.31729 2.49189 0
M  V30 1670 H 163.089 -6.55483 0.260476 0
M  V30 1671 H 163.006 -7.34202 1.8023 0
M  V30 1672 H 164.274 -7.76434 0.690644 0
M  V30 1673 N 168.503 -0.877838 -1.30888 0
M  V30 1674 C 169.466 -0.344265 -2.266 0
M  V30 1675 C 170.466 0.50922 -1.52524 0
M  V30 1676 O 171.656 0.317398 -1.71284 0
M  V30 1677 C 168.788 0.510198 -3.37061 0
M  V30 1678 H 169.981 -1.1893 -2.7531 0
M  V30 1679 H 167.534 -0.654088 -1.41956 0
M  V30 1680 H 168.269 1.37612 -2.93655 0
M  V30 1681 H 168.054 -0.101047 -3.9197 0
M  V30 1682 H 169.544 0.875537 -4.08319 0
M  V30 1683 N 169.982 1.44106 -0.638065 0
M  V30 1684 C 170.929 2.30715 0.062701 0
M  V30 1685 C 171.899 1.43882 0.829883 0
M  V30 1686 O 173.084 1.72775 0.809532 0
M  V30 1687 C 170.224 3.29258 1.03358 0
M  V30 1688 C 169.337 4.31192 0.26409 0
M  V30 1689 C 168.472 5.16825 1.22741 0
M  V30 1690 C 167.511 6.10462 0.447475 0
M  V30 1691 N 166.648 6.8877 1.36161 0
M  V30 1692 H 171.488 2.90096 -0.681781 0
M  V30 1693 H 169.025 1.42925 -0.347988 0
M  V30 1694 H 170.983 3.84886 1.60992 0
M  V30 1695 H 169.613 2.71562 1.74511 0
M  V30 1696 H 168.665 3.77981 -0.428295 0
M  V30 1697 H 169.977 4.97619 -0.343052 0
M  V30 1698 H 169.131 5.77004 1.87487 0
M  V30 1699 H 167.87 4.50488 1.86847 0
M  V30 1700 H 166.875 5.49386 -0.213433 0
M  V30 1701 H 168.1 6.78837 -0.188968 0
M  V30 1702 H 166.046 6.25096 1.98975 0
M  V30 1703 H 165.963 7.51663 0.808656 0
M  V30 1704 H 167.231 7.53467 1.99769 0
M  V30 1705 N 171.46 0.379036 1.52974 0
M  V30 1706 C 172.392 -0.495963 2.2377 0
M  V30 1707 C 173.405 -1.03517 1.25651 0
M  V30 1708 O 174.594 -0.939249 1.51791 0
M  V30 1709 C 171.694 -1.69894 2.93239 0
M  V30 1710 C 170.867 -1.2889 4.17979 0
M  V30 1711 C 169.926 -2.35543 4.70538 0
M  V30 1712 O 168.952 -1.97375 5.33883 0
M  V30 1713 N 170.154 -3.67318 4.49508 0
M  V30 1714 H 172.919 0.110523 2.99496 0
M  V30 1715 H 170.48 0.204878 1.60598 0
M  V30 1716 H 172.472 -2.40747 3.25304 0
M  V30 1717 H 171.042 -2.212 2.20883 0
M  V30 1718 H 170.262 -0.409676 3.92065 0
M  V30 1719 H 171.55 -0.991443 4.99047 0
M  V30 1720 H 170.948 -4.01095 3.98923 0
M  V30 1721 H 169.505 -4.34235 4.8609 0
M  V30 1722 N 172.938 -1.57226 0.108567 0
M  V30 1723 C 174.184 -1.95121 -0.552761 0
M  V30 1724 C 174.517 -0.991345 -1.66991 0
M  V30 1725 O 173.792 -0.0267211 -1.94482 0
M  V30 1726 C 174.075 -3.43039 -1.09528 0
M  V30 1727 C 173.928 -4.49797 0.0177332 0
M  V30 1728 C 175.247 -3.92567 -1.98945 0
M  V30 1729 H 172.366 -0.709496 -0.199461 0
M  V30 1730 H 175.008 -1.89126 0.182011 0
M  V30 1731 H 173.158 -3.48279 -1.72146 0
M  V30 1732 H 174.83 -4.56661 0.652584 0
M  V30 1733 H 173.073 -4.284 0.682309 0
M  V30 1734 H 173.744 -5.50528 -0.402919 0
M  V30 1735 H 176.22 -3.89565 -1.46214 0
M  V30 1736 H 175.096 -4.96605 -2.33827 0
M  V30 1737 H 175.357 -3.32648 -2.91201 0
M  V30 1738 N 174.416 0.165178 -1.56732 0
M  V30 1739 C 175.366 1.20917 -1.93295 0
M  V30 1740 C 176.35 1.39488 -0.801985 0
M  V30 1741 O 177.542 1.41356 -1.06525 0
M  V30 1742 C 174.671 2.54718 -2.3016 0
M  V30 1743 C 173.757 2.39815 -3.49785 0
M  V30 1744 N 174.148 1.94637 -4.66851 0
M  V30 1745 C 172.446 2.70623 -3.54513 0
M  V30 1746 C 173.147 1.92344 -5.4898 0
M  V30 1747 N 172.123 2.34978 -4.9019 0
M  V30 1748 H 175.925 0.851675 -2.81289 0
M  V30 1749 H 173.439 0.373399 -1.58049 0
M  V30 1750 H 175.436 3.30165 -2.54552 0
M  V30 1751 H 174.096 2.91265 -1.43508 0
M  V30 1752 H 175.107 1.6488 -4.90953 0
M  V30 1753 H 171.784 3.11167 -2.78354 0
M  V30 1754 H 173.174 1.5906 -6.52801 0
M  V30 1755 N 175.894 1.51508 0.433938 0
M  V30 1756 C 176.826 1.69266 1.54537 0
M  V30 1757 C 177.839 0.573276 1.52373 0
M  V30 1758 O 179.028 0.847698 1.57087 0
M  V30 1759 C 176.128 1.69524 2.93453 0
M  V30 1760 C 175.301 2.98101 3.20085 0
M  V30 1761 C 174.36 2.90502 4.38742 0
M  V30 1762 O 173.386 3.64442 4.3723 0
M  V30 1763 N 174.588 2.06586 5.42496 0
M  V30 1764 H 177.353 2.65145 1.39708 0
M  V30 1765 H 174.914 1.49437 0.622922 0
M  V30 1766 H 176.906 1.62004 3.70859 0
M  V30 1767 H 175.476 0.812245 3.01863 0
M  V30 1768 H 174.696 3.19464 2.30947 0
M  V30 1769 H 175.984 3.83207 3.34708 0
M  V30 1770 H 175.382 1.45896 5.46563 0
M  V30 1771 H 173.939 2.04943 6.18742 0
M  V30 1772 N 177.372 -0.689602 1.41712 0
M  V30 1773 C 178.597 -1.48329 1.44959 0
M  V30 1774 C 179.022 -1.8801 0.0581283 0
M  V30 1775 O 178.38 -1.55026 -0.940035 0
M  V30 1776 C 178.428 -2.71835 2.36935 0
M  V30 1777 O 177.532 -3.69549 1.8305 0
M  V30 1778 H 176.873 -0.446199 0.491734 0
M  V30 1779 H 179.403 -0.847127 1.86239 0
M  V30 1780 H 179.413 -3.20076 2.53013 0
M  V30 1781 H 178.088 -2.42291 3.38035 0
M  V30 1782 H 176.665 -3.2851 1.76452 0
M  V30 1783 N 178.85 -1.27639 -0.924453 0
M  V30 1784 C 179.783 -1.04966 -2.02626 0
M  V30 1785 C 180.761 0.0309505 -1.62571 0
M  V30 1786 O 181.945 -0.114846 -1.8815 0
M  V30 1787 C 179.072 -0.59292 -3.3347 0
M  V30 1788 C 178.118 -1.66858 -3.92506 0
M  V30 1789 S 178.951 -3.2619 -4.24689 0
M  V30 1790 C 180.107 -2.82325 -5.58609 0
M  V30 1791 H 180.34 -1.98252 -2.21547 0
M  V30 1792 H 177.873 -1.11506 -1.06798 0
M  V30 1793 H 179.831 -0.336086 -4.09122 0
M  V30 1794 H 178.492 0.319939 -3.12466 0
M  V30 1795 H 177.685 -1.30038 -4.86935 0
M  V30 1796 H 177.287 -1.87766 -3.2345 0
M  V30 1797 H 179.579 -2.2783 -6.38044 0
M  V30 1798 H 180.522 -3.75511 -6.00331 0
M  V30 1799 H 180.93 -2.21367 -5.19285 0
M  V30 1800 N 180.328 1.1314 -1.09713 0
M  V30 1801 C 181.605 1.80762 -0.747302 0
M  V30 1802 C 181.985 1.96663 0.767265 0
M  V30 1803 O 181.333 1.53706 1.69076 0
M  V30 1804 C 181.543 3.15606 -1.48975 0
M  V30 1805 C 182.891 3.90914 -1.65746 0
M  V30 1806 O 183.915 3.25239 -1.45251 0
M  V30 1807 O 182.774 5.08718 -1.9967 0
M  V30 1808 H 179.868 0.782103 -0.268782 0
M  V30 1809 H 182.414 1.20041 -1.19951 0
M  V30 1810 H 181.186 2.99278 -2.52088 0
M  V30 1811 H 180.809 3.84029 -1.02991 0
M  V30 1812 N 181.806 0.884767 1.30421 0
M  V30 1813 C 183.034 0.518044 2.0031 0
M  V30 1814 C 183.449 -0.893408 1.66324 0
M  V30 1815 O 182.806 -1.5875 0.900262 0
M  V30 1816 C 182.857 0.682997 3.54989 0
M  V30 1817 O 182.578 2.03888 3.87764 0
M  V30 1818 C 184.079 0.31924 4.42149 0
M  V30 1819 H 181.299 0.200265 0.640418 0
M  V30 1820 H 183.843 1.19001 1.6631 0
M  V30 1821 H 181.998 0.0584052 3.87356 0
M  V30 1822 H 182.412 2.05735 4.82466 0
M  V30 1823 H 183.886 0.485555 5.4986 0
M  V30 1824 H 184.363 -0.742717 4.32875 0
M  V30 1825 H 184.969 0.920147 4.15227 0
M  V30 1826 N 183.284 -1.43765 0.645699 0
M  V30 1827 C 184.53 -2.02197 0.156271 0
M  V30 1828 C 184.863 -1.50776 -1.22393 0
M  V30 1829 O 184.138 -0.697771 -1.81553 0
M  V30 1830 C 184.421 -3.59749 0.158872 0
M  V30 1831 C 184.274 -4.21419 1.57245 0
M  V30 1832 C 185.593 -4.37149 -0.50879 0
M  V30 1833 H 182.712 -0.734694 0.0582602 0
M  V30 1834 H 185.354 -1.71157 0.824951 0
M  V30 1835 H 183.504 -3.86325 -0.410525 0
M  V30 1836 H 185.176 -4.059 2.19186 0
M  V30 1837 H 183.419 -3.78356 2.122 0
M  V30 1838 H 184.09 -5.30482 1.52619 0
M  V30 1839 H 186.566 -4.16093 -0.024412 0
M  V30 1840 H 185.442 -5.4683 -0.476213 0
M  V30 1841 H 185.703 -4.12839 -1.58165 0
M  V30 1842 N 184.763 -0.387143 -1.52771 0
M  V30 1843 C 185.726 0.436939 -2.24997 0
M  V30 1844 C 186.726 0.991991 -1.26555 0
M  V30 1845 O 187.916 0.874335 -1.50669 0
M  V30 1846 C 185.048 1.61281 -3.00335 0
M  V30 1847 H 186.241 -0.195365 -2.99263 0
M  V30 1848 H 183.794 -0.139218 -1.55679 0
M  V30 1849 H 184.529 2.2826 -2.30364 0
M  V30 1850 H 184.314 1.22154 -3.72587 0
M  V30 1851 H 185.804 2.19629 -3.5518 0
M  V30 1852 N 186.241 1.57166 -0.116904 0
M  V30 1853 C 187.174 2.10912 0.871291 0
M  V30 1854 C 188.152 1.025 1.26224 0
M  V30 1855 O 189.336 1.3014 1.36366 0
M  V30 1856 C 186.463 2.6041 2.16574 0
M  V30 1857 C 185.509 3.80687 1.92302 0
M  V30 1858 S 186.342 5.23199 1.14119 0
M  V30 1859 C 187.498 5.76064 2.44748 0
M  V30 1860 H 187.731 2.94401 0.414138 0
M  V30 1861 H 185.264 1.54096 0.096829 0
M  V30 1862 H 187.222 2.89583 2.9095 0
M  V30 1863 H 185.883 1.77106 2.59408 0
M  V30 1864 H 185.076 4.13462 2.8821 0
M  V30 1865 H 184.678 3.5212 1.26047 0
M  V30 1866 H 186.97 5.8566 3.406 0
M  V30 1867 H 187.913 6.74184 2.16521 0
M  V30 1868 H 188.321 5.04117 2.54019 0
M  V30 1869 N 187.719 -0.156864 1.56817 0
M  V30 1870 C 188.966 -0.871125 1.82805 0
M  V30 1871 C 189.294 -1.81611 0.696262 0
M  V30 1872 O 188.549 -1.93141 -0.315459 0
M  V30 1873 C 188.848 -1.68737 3.1506 0
M  V30 1874 C 188.514 -0.890045 4.42028 0
M  V30 1875 C 187.176 -0.670042 4.76512 0
M  V30 1876 C 189.528 -0.331769 5.20143 0
M  V30 1877 C 186.856 0.119104 5.86579 0
M  V30 1878 C 189.208 0.444365 6.31037 0
M  V30 1879 C 187.872 0.675035 6.64078 0
M  V30 1880 H 187.142 -0.318767 0.668931 0
M  V30 1881 H 189.789 -0.135274 1.91022 0
M  V30 1882 H 188.094 -2.49304 3.0225 0
M  V30 1883 H 189.791 -2.24331 3.3238 0
M  V30 1884 H 186.381 -1.07157 4.14988 0
M  V30 1885 H 190.565 -0.489043 4.93885 0
M  V30 1886 H 185.821 0.307417 6.10627 0
M  V30 1887 H 189.995 0.884139 6.90765 0
M  V30 1888 H 187.622 1.28839 7.49203 0
M  V30 1889 N 189.197 -1.51736 -0.425897 0
M  V30 1890 C 190.422 -1.69082 -1.20108 0
M  V30 1891 C 190.847 -0.392398 -1.83962 0
M  V30 1892 O 190.205 0.64858 -1.69302 0
M  V30 1893 C 190.253 -2.81604 -2.25237 0
M  V30 1894 O 189.357 -2.46004 -3.30992 0
M  V30 1895 H 188.698 -0.563408 -0.35138 0
M  V30 1896 H 191.228 -1.98358 -0.501512 0
M  V30 1897 H 191.238 -3.06025 -2.69838 0
M  V30 1898 H 189.913 -3.75817 -1.78142 0
M  V30 1899 H 188.49 -2.32195 -2.91787 0
M  V30 1900 N 190.675 0.682077 -1.42076 0
M  V30 1901 C 192.086 1.26246 -1.37546 0
M  V30 1902 C 192.437 1.96092 -0.0651481 0
M  V30 1903 O 191.562 1.99587 0.836297 0
M  V30 1904 C 192.157 2.29594 -2.49143 0
M  V30 1905 C 190.716 2.83175 -2.47969 0
M  V30 1906 C 189.863 1.57395 -2.28303 0
M  V30 1907 H 192.814 0.475937 -1.51395 0
M  V30 1908 H 192.835 3.11175 -2.18976 0
M  V30 1909 H 192.347 1.78729 -3.44496 0
M  V30 1910 H 190.448 3.3818 -1.56413 0
M  V30 1911 H 190.561 3.32687 -3.44755 0
M  V30 1912 H 188.925 1.83699 -1.76428 0
M  V30 1913 H 189.708 1.08507 -3.25701 0
M  V30 1914 N 192.153 1.28127 0.917671 0
M  V30 1915 C 193.399 1.15223 1.66888 0
M  V30 1916 C 193.732 -0.299293 1.9188 0
M  V30 1917 O 193.007 -1.21805 1.51637 0
M  V30 1918 C 193.29 1.94706 3.02922 0
M  V30 1919 C 193.143 3.47898 2.85109 0
M  V30 1920 C 194.462 1.75939 4.03402 0
M  V30 1921 H 191.581 0.419946 0.605652 0
M  V30 1922 H 194.223 1.57398 1.06423 0
M  V30 1923 H 192.373 1.58864 3.54534 0
M  V30 1924 H 194.045 3.93624 2.40537 0
M  V30 1925 H 192.288 3.7373 2.20246 0
M  V30 1926 H 192.959 3.98765 3.81694 0
M  V30 1927 H 195.435 2.07209 3.60837 0
M  V30 1928 H 194.311 2.33931 4.96556 0
M  V30 1929 H 194.572 0.709877 4.36364 0
M  V30 1930 N 193.631 -1.12557 1.10312 0
M  V30 1931 C 194.859 -1.87864 0.866873 0
M  V30 1932 C 195.274 -1.79588 -0.582557 0
M  V30 1933 O 194.631 -1.16887 -1.40156 0
M  V30 1934 C 194.682 -3.37125 1.30496 0
M  V30 1935 O 194.403 -3.45201 2.69755 0
M  V30 1936 C 195.904 -4.29373 1.10243 0
M  V30 1937 H 193.124 -0.594452 0.311236 0
M  V30 1938 H 195.668 -1.42429 1.46745 0
M  V30 1939 H 193.823 -3.80109 0.748081 0
M  V30 1940 H 194.237 -4.38056 2.88457 0
M  V30 1941 H 195.711 -5.32394 1.45811 0
M  V30 1942 H 196.188 -4.39181 0.0409492 0
M  V30 1943 H 196.794 -3.92169 1.64571 0
M  V30 1944 N 195.109 -0.891671 -1.2995 0
M  V30 1945 C 196.056 -0.361736 -2.27948 0
M  V30 1946 C 197.026 0.551761 -1.56668 0
M  V30 1947 O 198.211 0.478736 -1.84696 0
M  V30 1948 C 195.351 0.411825 -3.42634 0
M  V30 1949 C 194.464 -0.531651 -4.28716 0
M  V30 1950 C 193.599 0.258167 -5.30572 0
M  V30 1951 C 192.638 -0.680349 -6.08307 0
M  V30 1952 N 191.775 0.0745613 -7.0206 0
M  V30 1953 H 196.615 -1.20254 -2.72659 0
M  V30 1954 H 194.152 -0.604352 -1.34112 0
M  V30 1955 H 196.11 0.876304 -4.07893 0
M  V30 1956 H 194.74 1.21715 -2.98974 0
M  V30 1957 H 193.792 -1.11463 -3.63703 0
M  V30 1958 H 195.104 -1.25038 -4.82874 0
M  V30 1959 H 194.258 0.784204 -6.0161 0
M  V30 1960 H 192.997 1.01008 -4.77126 0
M  V30 1961 H 192.002 -1.21796 -5.3614 0
M  V30 1962 H 193.227 -1.43145 -6.63842 0
M  V30 1963 H 191.173 0.808883 -6.50994 0
M  V30 1964 H 191.09 -0.584409 -7.53738 0
M  V30 1965 H 192.358 0.581123 -7.77331 0
M  V30 1966 N 196.587 1.43421 -0.653314 0
M  V30 1967 C 197.817 2.05864 -0.174238 0
M  V30 1968 C 198.225 1.49052 1.16534 0
M  V30 1969 O 197.568 0.616481 1.73047 0
M  V30 1970 C 197.63 3.59499 -0.00875873 0
M  V30 1971 C 197.294 4.38893 -1.27364 0
M  V30 1972 C 198.291 4.70947 -2.20239 0
M  V30 1973 C 195.976 4.789 -1.51525 0
M  V30 1974 C 197.97 5.41916 -3.35568 0
M  V30 1975 C 195.657 5.49614 -2.67147 0
M  V30 1976 C 196.655 5.81044 -3.58994 0
M  V30 1977 O 196.343 6.50313 -4.72597 0
M  V30 1978 H 196.075 0.670345 -0.0872549 0
M  V30 1979 H 198.629 1.84913 -0.894226 0
M  V30 1980 H 196.859 3.79025 0.7666 0
M  V30 1981 H 198.548 4.0364 0.427687 0
M  V30 1982 H 199.314 4.40558 -2.02815 0
M  V30 1983 H 195.193 4.53843 -0.809158 0
M  V30 1984 H 198.737 5.66365 -4.07279 0
M  V30 1985 H 194.634 5.79419 -2.84505 0
M  V30 1986 H 195.402 6.68795 -4.71864 0
M  V30 1987 N 198.065 0.39524 1.52563 0
M  V30 1988 C 199.028 -0.425001 2.25225 0
M  V30 1989 C 200.028 -0.985266 1.27079 0
M  V30 1990 O 201.218 -0.866332 1.5113 0
M  V30 1991 C 198.35 -1.59686 3.01186 0
M  V30 1992 H 199.543 0.211233 2.99155 0
M  V30 1993 H 197.096 0.147472 1.55603 0
M  V30 1994 H 197.831 -2.27035 2.31572 0
M  V30 1995 H 197.616 -1.20176 3.73229 0
M  V30 1996 H 199.106 -2.17743 3.5634 0
M  V30 1997 N 199.544 -1.57102 0.125237 0
M  V30 1998 C 200.793 -1.94582 -0.531095 0
M  V30 1999 C 201.106 -1.01126 -1.6743 0
M  V30 2000 O 202.312 -1.28097 -2.39381 0
M  V30 2001 C 200.768 -3.45839 -0.996164 0
M  V30 2002 C 200.376 -4.47842 0.118926 0
M  V30 2003 C 202.12 -3.92227 -1.62352 0
M  V30 2004 C 200.027 -5.90284 -0.363192 0
M  V30 2005 H 198.957 -0.726391 -0.20217 0
M  V30 2006 H 201.608 -1.82339 0.206092 0
M  V30 2007 H 199.99 -3.53338 -1.78796 0
M  V30 2008 H 201.164 -4.52018 0.895358 0
M  V30 2009 H 199.479 -4.11243 0.653324 0
M  V30 2010 H 202.076 -4.96069 -1.99548 0
M  V30 2011 H 202.419 -3.32552 -2.50429 0
M  V30 2012 H 202.952 -3.87554 -0.897019 0
M  V30 2013 H 199.691 -6.53728 0.481679 0
M  V30 2014 H 199.211 -5.89515 -1.10597 0
M  V30 2015 H 200.89 -6.41752 -0.822377 0
M  V30 2016 N 201.022 0.148545 -1.56898 0
M  V30 2017 C 201.932 1.20293 -2.01412 0
M  V30 2018 C 202.948 1.47107 -0.929273 0
M  V30 2019 O 204.124 1.58807 -1.23863 0
M  V30 2020 C 201.189 2.51682 -2.38447 0
M  V30 2021 C 200.25 2.32529 -3.60872 0
M  V30 2022 C 199.483 3.57653 -3.96132 0
M  V30 2023 O 199.706 4.63771 -3.32073 0
M  V30 2024 O 198.64 3.50408 -4.89385 0
M  V30 2025 H 202.466 0.855025 -2.91416 0
M  V30 2026 H 200.051 0.357151 -1.45068 0
M  V30 2027 H 201.933 3.29147 -2.63135 0
M  V30 2028 H 200.608 2.86006 -1.51599 0
M  V30 2029 H 199.515 1.53019 -3.41373 0
M  V30 2030 H 200.848 2.03121 -4.48333 0
M  V30 2031 N 202.5 1.5196 0.417844 0
M  V30 2032 C 203.746 1.65836 1.16732 0
M  V30 2033 C 204.079 0.382881 1.90388 0
M  V30 2034 O 203.354 -0.618368 1.84408 0
M  V30 2035 C 203.637 2.87466 2.16876 0
M  V30 2036 C 203.49 4.25041 1.47174 0
M  V30 2037 C 204.809 3.04613 3.17646 0
M  V30 2038 H 201.928 0.603515 0.423011 0
M  V30 2039 H 204.57 1.84494 0.454105 0
M  V30 2040 H 202.72 2.71689 2.777 0
M  V30 2041 H 204.392 4.52527 0.895376 0
M  V30 2042 H 202.635 4.26843 0.773806 0
M  V30 2043 H 203.306 5.06176 2.20204 0
M  V30 2044 H 205.782 3.1923 2.66892 0
M  V30 2045 H 204.658 3.91247 3.8499 0
M  V30 2046 H 204.919 2.17541 3.84874 0
M  V30 2047 N 203.978 -0.674533 1.42435 0
M  V30 2048 C 205.206 -1.46283 1.46317 0
M  V30 2049 C 205.621 -1.88653 0.0745836 0
M  V30 2050 O 204.978 -1.58151 -0.91074 0
M  V30 2051 C 205.029 -2.71178 2.3905 0
M  V30 2052 O 204.75 -2.30586 3.72507 0
M  V30 2053 C 206.251 -3.64738 2.51955 0
M  V30 2054 H 203.471 -0.450104 0.497642 0
M  V30 2055 H 206.015 -0.828792 1.86953 0
M  V30 2056 H 204.17 -3.3077 2.01667 0
M  V30 2057 H 204.584 -3.11241 4.22172 0
M  V30 2058 H 206.058 -4.49096 3.20962 0
M  V30 2059 H 206.535 -4.10656 1.55752 0
M  V30 2060 H 207.141 -3.11038 2.90061 0
M  V30 2061 N 205.456 -1.28612 -0.910864 0
M  V30 2062 C 206.419 -1.12803 -1.9952 0
M  V30 2063 C 207.419 -0.0668264 -1.60661 0
M  V30 2064 O 208.609 -0.312847 -1.71368 0
M  V30 2065 C 205.741 -0.72254 -3.33155 0
M  V30 2066 H 206.934 -2.09109 -2.14973 0
M  V30 2067 H 204.487 -1.11639 -1.09391 0
M  V30 2068 H 205.222 0.241152 -3.23402 0
M  V30 2069 H 205.007 -1.48916 -3.62721 0
M  V30 2070 H 206.497 -0.634666 -4.12749 0
M  V30 2071 N 206.934 1.1197 -1.10907 0
M  V30 2072 C 208.345 1.65114 -0.871446 0
M  V30 2073 C 208.696 1.86885 0.597353 0
M  V30 2074 O 207.821 1.59896 1.45816 0
M  V30 2075 C 208.416 2.99944 -1.5754 0
M  V30 2076 C 206.975 3.50018 -1.38435 0
M  V30 2077 C 206.122 2.24941 -1.62164 0
M  V30 2078 H 209.073 0.956851 -1.2661 0
M  V30 2079 H 209.094 3.66651 -1.01721 0
M  V30 2080 H 208.606 2.84067 -2.64438 0
M  V30 2081 H 206.707 3.71071 -0.337214 0
M  V30 2082 H 206.82 4.29165 -2.12965 0
M  V30 2083 H 205.184 2.3229 -1.04467 0
M  V30 2084 H 205.967 2.11612 -2.70324 0
M  V30 2085 N 208.412 0.89855 1.29475 0
M  V30 2086 C 209.689 0.443416 1.90508 0
M  V30 2087 C 210.069 -1.07685 1.81569 0
M  V30 2088 O 209.417 -1.9182 1.24166 0
M  V30 2089 C 209.627 0.956708 3.35631 0
M  V30 2090 C 210.975 0.999728 4.12663 0
M  V30 2091 O 211.999 0.904299 3.4453 0
M  V30 2092 O 210.858 1.14289 5.34416 0
M  V30 2093 H 207.952 0.138025 0.815401 0
M  V30 2094 H 210.498 0.98834 1.37949 0
M  V30 2095 H 209.27 2.00067 3.36287 0
M  V30 2096 H 208.893 0.391728 3.95666 0
M  V30 2097 N 209.89 -1.43072 0.660911 0
M  V30 2098 C 210.853 -2.29194 -0.0166406 0
M  V30 2099 C 211.853 -1.42609 -0.742912 0
M  V30 2100 O 213.043 -1.64155 -0.583004 0
M  V30 2101 C 210.175 -3.24831 -1.0343 0
M  V30 2102 H 211.368 -2.90596 0.741208 0
M  V30 2103 H 208.921 -1.5048 0.422532 0
M  V30 2104 H 209.656 -2.68339 -1.82111 0
M  V30 2105 H 209.441 -3.88676 -0.517082 0
M  V30 2106 H 210.931 -3.89451 -1.50723 0
M  V30 2107 N 211.368 -0.403325 -1.52352 0
M  V30 2108 C 212.298 0.416205 -2.29761 0
M  V30 2109 C 213.279 1.05123 -1.33728 0
M  V30 2110 O 214.464 1.06134 -1.62632 0
M  V30 2111 C 211.594 1.53624 -3.11475 0
M  V30 2112 C 210.548 1.02653 -4.15507 0
M  V30 2113 C 209.874 2.23971 -4.85532 0
M  V30 2114 C 211.174 0.08463 -5.22231 0
M  V30 2115 H 212.868 -0.229701 -2.98518 0
M  V30 2116 H 210.414 -0.111913 -1.43564 0
M  V30 2117 H 212.367 2.1165 -3.64393 0
M  V30 2118 H 211.091 2.20994 -2.40477 0
M  V30 2119 H 209.75 0.46871 -3.63591 0
M  V30 2120 H 209.398 2.89883 -4.11068 0
M  V30 2121 H 209.098 1.90521 -5.55856 0
M  V30 2122 H 210.622 2.82614 -5.41259 0
M  V30 2123 H 212.036 0.573509 -5.70424 0
M  V30 2124 H 210.433 -0.160783 -5.99885 0
M  V30 2125 H 211.503 -0.86237 -4.7717 0
M  V30 2126 N 212.846 1.57033 -0.133567 0
M  V30 2127 C 213.809 2.14897 0.796995 0
M  V30 2128 C 214.809 1.0874 1.18458 0
M  V30 2129 O 215.999 1.34446 1.1077 0
M  V30 2130 C 213.131 2.70112 2.07973 0
M  V30 2131 H 214.324 2.98457 0.293873 0
M  V30 2132 H 211.877 1.55871 0.115787 0
M  V30 2133 H 212.612 1.9018 2.62682 0
M  V30 2134 H 212.397 3.47764 1.81115 0
M  V30 2135 H 213.887 3.14738 2.74462 0
M  V30 2136 N 214.325 -0.140222 1.56975 0
M  V30 2137 C 215.235 -1.19223 2.02047 0
M  V30 2138 C 216.251 -1.46612 0.937062 0
M  V30 2139 O 217.427 -1.58148 1.24704 0
M  V30 2140 C 214.492 -2.50414 2.39778 0
M  V30 2141 C 213.553 -2.30612 3.621 0
M  V30 2142 C 212.786 -3.55547 3.98023 0
M  V30 2143 O 213.009 -4.62004 3.34528 0
M  V30 2144 O 211.943 -3.47808 4.91237 0
M  V30 2145 H 215.769 -0.839559 2.91865 0
M  V30 2146 H 213.354 -0.349453 1.45256 0
M  V30 2147 H 215.236 -3.27747 2.64877 0
M  V30 2148 H 213.911 -2.85198 1.53114 0
M  V30 2149 H 212.818 -1.51207 3.4218 0
M  V30 2150 H 214.151 -2.00741 4.49404 0
M  V30 2151 N 215.803 -1.52179 -0.40978 0
M  V30 2152 C 217.049 -1.66453 -1.15851 0
M  V30 2153 C 217.382 -0.392972 -1.90182 0
M  V30 2154 O 216.657 0.608579 -1.84734 0
M  V30 2155 C 216.94 -2.88612 -2.15349 0
M  V30 2156 C 216.793 -4.25815 -1.44918 0
M  V30 2157 C 218.112 -3.06294 -3.16026 0
M  V30 2158 H 215.231 -0.60575 -0.419805 0
M  V30 2159 H 217.873 -1.84732 -0.444314 0
M  V30 2160 H 216.023 -2.73158 -2.76255 0
M  V30 2161 H 217.695 -4.52995 -0.871365 0
M  V30 2162 H 215.938 -4.27247 -0.751159 0
M  V30 2163 H 216.609 -5.07337 -2.17516 0
M  V30 2164 H 219.085 -3.20641 -2.65195 0
M  V30 2165 H 217.961 -3.93283 -3.8291 0
M  V30 2166 H 218.222 -2.19579 -3.83715 0
M  V30 2167 N 217.281 0.66697 -1.42791 0
M  V30 2168 C 218.527 1.4291 -1.43891 0
M  V30 2169 C 218.86 1.94114 -0.0578972 0
M  V30 2170 O 218.135 1.71414 0.91911 0
M  V30 2171 C 218.418 2.62049 -2.46987 0
M  V30 2172 C 218.271 2.16426 -3.94309 0
M  V30 2173 C 219.59 3.64266 -2.46978 0
M  V30 2174 H 216.709 0.518306 -0.523954 0
M  V30 2175 H 219.351 0.757321 -1.74255 0
M  V30 2176 H 217.501 3.19361 -2.21225 0
M  V30 2177 H 219.173 1.64221 -4.31079 0
M  V30 2178 H 217.416 1.47925 -4.078 0
M  V30 2179 H 218.087 3.02038 -4.62036 0
M  V30 2180 H 220.563 3.16686 -2.69906 0
M  V30 2181 H 219.439 4.45196 -3.21079 0
M  V30 2182 H 219.7 4.15927 -1.49857 0
M  V30 2183 N 218.759 1.29093 0.90403 0
M  V30 2184 C 219.984 1.19809 1.69294 0
M  V30 2185 C 220.409 -0.238481 1.86582 0
M  V30 2186 O 219.767 -1.1723 1.383 0
M  V30 2187 C 219.815 1.91202 3.05736 0
M  V30 2188 O 218.919 1.22611 3.93752 0
M  V30 2189 H 218.26 0.415385 0.518027 0
M  V30 2190 H 220.79 1.70586 1.12967 0
M  V30 2191 H 220.8 1.99487 3.55906 0
M  V30 2192 H 219.475 2.95692 2.92471 0
M  V30 2193 H 218.052 1.22554 3.52186 0
M  V30 2194 N 220.237 -1.11381 1.11499 0
M  V30 2195 C 221.185 -2.19522 0.768956 0
M  V30 2196 C 222.179 -1.67693 -0.239857 0
M  V30 2197 O 223.385 -1.79727 -0.0990755 0
M  V30 2198 H 219.76 -0.715711 0.230786 0
M  V30 2199 H 221.731 -2.45954 1.68964 0
M  V30 2200 C 220.48 -3.46945 0.229073 0
M  V30 2201 H 219.803 -3.8718 0.996596 0
M  V30 2202 H 221.243 -4.23993 0.0251441 0
M  V30 2203 C 219.702 -3.2042 -1.04079 0
M  V30 2204 O 220.232 -3.41178 -2.12038 0
M  V30 2205 N 218.438 -2.74151 -0.963823 0
M  V30 2206 H 217.985 -2.57459 -0.0851722 0
M  V30 2207 H 217.943 -2.56781 -1.81414 0
M  V30 2208 N 221.715 -0.905404 -1.28997 0
M  V30 2209 C 222.678 -0.392253 -2.25819 0
M  V30 2210 C 223.678 0.476753 -1.5357 0
M  V30 2211 O 224.868 0.280994 -1.71919 0
M  V30 2212 C 222 0.438588 -3.38067 0
M  V30 2213 H 223.193 -1.24743 -2.72725 0
M  V30 2214 H 220.746 -0.684051 -1.40536 0
M  V30 2215 H 221.481 1.31352 -2.96508 0
M  V30 2216 H 221.266 -0.184167 -3.91667 0
M  V30 2217 H 222.756 0.78873 -4.10084 0
M  V30 2218 N 223.193 1.4272 -0.668489 0
M  V30 2219 C 224.44 2.01624 -0.18814 0
M  V30 2220 C 224.768 1.5282 1.20317 0
M  V30 2221 O 224.023 0.718323 1.8204 0
M  V30 2222 C 224.322 3.57021 -0.164499 0
M  V30 2223 C 223.988 4.25232 -1.49962 0
M  V30 2224 C 222.65 4.4358 -1.8652 0
M  V30 2225 C 225.002 4.63727 -2.37921 0
M  V30 2226 C 222.33 4.97694 -3.10674 0
M  V30 2227 C 224.682 5.19218 -3.6138 0
M  V30 2228 C 223.346 5.3578 -3.98115 0
M  V30 2229 H 222.616 0.737795 -0.0688454 0
M  V30 2230 H 225.263 1.70991 -0.862225 0
M  V30 2231 H 223.568 3.87285 0.593079 0
M  V30 2232 H 225.265 4.00372 0.224271 0
M  V30 2233 H 221.855 4.11306 -1.20522 0
M  V30 2234 H 226.039 4.4923 -2.10964 0
M  V30 2235 H 221.295 5.08702 -3.39164 0
M  V30 2236 H 225.469 5.4799 -4.29743 0
M  V30 2237 H 223.096 5.77475 -4.94395 0
M  V30 2238 N 224.671 0.411399 1.52136 0
M  V30 2239 C 226.087 0.0623865 1.59478 0
M  V30 2240 C 226.287 -1.42554 1.4241 0
M  V30 2241 O 225.343 -2.19263 1.2522 0
M  V30 2242 C 226.656 0.559331 2.95452 0
M  V30 2243 C 228.204 0.517503 3.08692 0
M  V30 2244 C 228.679 0.990994 4.4715 0
M  V30 2245 N 230.17 0.947908 4.53397 0
M  V30 2246 C 230.905 1.28544 5.58806 0
M  V30 2247 N 230.401 1.69454 6.71757 0
M  V30 2248 N 232.194 1.20526 5.49026 0
M  V30 2249 H 224.345 1.37982 1.61477 0
M  V30 2250 H 226.608 0.566977 0.759764 0
M  V30 2251 H 226.314 1.59938 3.1323 0
M  V30 2252 H 226.188 -0.0298014 3.77188 0
M  V30 2253 H 228.575 -0.513505 2.90598 0
M  V30 2254 H 228.656 1.14272 2.28857 0
M  V30 2255 H 228.3 2.02034 4.65988 0
M  V30 2256 H 228.23 0.34257 5.25485 0
M  V30 2257 H 230.721 0.647157 3.72317 0
M  V30 2258 H 231.034 1.93513 7.48179 0
M  V30 2259 H 229.379 1.73359 6.73032 0
M  V30 2260 H 232.57 0.884505 4.59667 0
M  V30 2261 H 232.743 1.47161 6.31069 0
M  V30 2262 N 226.149 -1.5696 0.141893 0
M  V30 2263 C 227.112 -2.15316 -0.785587 0
M  V30 2264 C 228.112 -1.09366 -1.1788 0
M  V30 2265 O 229.302 -1.35031 -1.10056 0
M  V30 2266 C 226.434 -2.71211 -2.06537 0
M  V30 2267 H 227.627 -2.98608 -0.278041 0
M  V30 2268 H 225.18 -1.5593 -0.107519 0
M  V30 2269 H 225.915 -1.91571 -2.6167 0
M  V30 2270 H 225.7 -3.4872 -1.79268 0
M  V30 2271 H 227.19 -3.16189 -2.72789 0
M  V30 2272 N 227.627 0.131896 -1.57047 0
M  V30 2273 C 228.59 1.14638 -1.98471 0
M  V30 2274 C 229.59 1.35029 -0.873148 0
M  V30 2275 O 230.78 1.31764 -1.13946 0
M  V30 2276 C 227.912 2.50358 -2.31373 0
M  V30 2277 H 229.105 0.79064 -2.8929 0
M  V30 2278 H 226.658 0.375761 -1.51716 0
M  V30 2279 H 227.393 2.90876 -1.43393 0
M  V30 2280 H 227.178 2.36915 -3.12432 0
M  V30 2281 H 228.668 3.23395 -2.64207 0
M  V30 2282 N 229.106 1.52395 0.401703 0
M  V30 2283 C 230.016 1.7917 1.51444 0
M  V30 2284 C 231.032 0.677691 1.6026 0
M  V30 2285 O 232.208 0.963909 1.76835 0
M  V30 2286 C 229.273 1.94347 2.87107 0
M  V30 2287 C 228.334 3.18257 2.88116 0
M  V30 2288 C 227.567 3.32701 4.17308 0
M  V30 2289 O 227.79 2.52238 5.11598 0
M  V30 2290 O 226.724 4.25891 4.25324 0
M  V30 2291 H 230.55 2.73633 1.31752 0
M  V30 2292 H 228.135 1.3733 0.588296 0
M  V30 2293 H 230.017 2.06109 3.67555 0
M  V30 2294 H 228.692 1.03073 3.06851 0
M  V30 2295 H 227.599 3.11947 2.06494 0
M  V30 2296 H 228.932 4.09336 2.73322 0
M  V30 2297 N 230.584 -0.659388 1.43143 0
M  V30 2298 C 231.516 -1.7849 1.43784 0
M  V30 2299 C 232.529 -1.5932 0.334787 0
M  V30 2300 O 233.718 -1.68155 0.598842 0
M  V30 2301 C 230.818 -3.15828 1.22906 0
M  V30 2302 C 229.991 -3.61711 2.45934 0
M  V30 2303 C 229.05 -4.77831 2.20371 0
M  V30 2304 O 228.076 -4.87586 2.93681 0
M  V30 2305 N 229.278 -5.67611 1.21647 0
M  V30 2306 H 232.043 -1.7842 2.40803 0
M  V30 2307 H 229.604 -0.84302 1.3822 0
M  V30 2308 H 231.596 -3.91189 1.03697 0
M  V30 2309 H 230.166 -3.10707 0.343542 0
M  V30 2310 H 229.386 -2.76861 2.80609 0
M  V30 2311 H 230.674 -3.89112 3.27825 0
M  V30 2312 H 230.072 -5.62397 0.610449 0
M  V30 2313 H 228.629 -6.42719 1.08423 0
M  V30 2314 N 232.062 -1.29571 -0.897171 0
M  V30 2315 C 233.31 -1.17456 -1.64464 0
M  V30 2316 C 233.631 0.273698 -1.9307 0
M  V30 2317 O 232.901 1.18684 -1.55855 0
M  V30 2318 H 231.481 -0.431706 -0.609622 0
M  V30 2319 H 234.143 -1.62531 -1.07562 0
M  V30 2320 H 233.239 -1.72648 -2.59998 0
M  V30 2321 N 233.54 1.10788 -1.12088 0
M  V30 2322 C 234.956 1.34691 -0.856186 0
M  V30 2323 C 235.156 1.94791 0.515615 0
M  V30 2324 O 234.212 2.18524 1.26505 0
M  V30 2325 C 235.525 2.27208 -1.9697 0
M  V30 2326 C 237.073 2.40755 -2.00016 0
M  V30 2327 C 237.548 3.36598 -3.1059 0
M  V30 2328 N 239.039 3.44164 -3.10008 0
M  V30 2329 C 239.774 4.18284 -3.92206 0
M  V30 2330 N 239.27 4.95322 -4.84384 0
M  V30 2331 N 241.063 4.13865 -3.80357 0
M  V30 2332 H 233.214 0.70144 -2.00483 0
M  V30 2333 H 235.477 0.371405 -0.872217 0
M  V30 2334 H 235.183 1.90251 -2.958 0
M  V30 2335 H 235.057 3.27485 -1.87172 0
M  V30 2336 H 237.444 2.76982 -1.01808 0
M  V30 2337 H 237.525 1.40305 -2.13888 0
M  V30 2338 H 237.169 3.01096 -4.09028 0
M  V30 2339 H 237.099 4.36918 -2.93956 0
M  V30 2340 H 239.59 2.8922 -2.43228 0
M  V30 2341 H 239.903 5.49267 -5.43623 0
M  V30 2342 H 238.248 4.94459 -4.884 0
M  V30 2343 H 241.439 3.52773 -3.07683 0
M  V30 2344 H 241.612 4.71372 -4.44649 0
M  V30 2345 N 235.018 0.912232 1.28515 0
M  V30 2346 C 236.429 0.591352 1.77087 0
M  V30 2347 C 236.78 -0.8933 1.74684 0
M  V30 2348 O 235.905 -1.69876 1.34056 0
M  V30 2349 C 236.5 1.06668 3.2157 0
M  V30 2350 C 235.059 0.79675 3.67871 0
M  V30 2351 C 234.206 1.23427 2.48316 0
M  V30 2352 H 237.157 1.09365 1.15 0
M  V30 2353 H 237.178 0.407455 3.78312 0
M  V30 2354 H 236.69 2.14726 3.23287 0
M  V30 2355 H 234.791 -0.270679 3.71616 0
M  V30 2356 H 234.904 1.40343 4.58084 0
M  V30 2357 H 233.268 0.653036 2.46186 0
M  V30 2358 H 234.051 2.32316 2.52753 0
M  V30 2359 N 236.496 -1.42363 0.676048 0
M  V30 2360 C 237.744 -2.01123 0.198437 0
M  V30 2361 C 238.065 -1.53731 -1.19966 0
M  V30 2362 O 237.335 -0.759518 -1.80577 0
M  V30 2363 H 235.915 -0.743678 0.0703721 0
M  V30 2364 H 238.577 -1.74263 0.872837 0
M  V30 2365 H 237.673 -3.11454 0.200686 0
M  V30 2366 N 237.974 -0.419461 -1.51915 0
M  V30 2367 C 239.199 0.154572 -2.06823 0
M  V30 2368 C 239.624 1.3722 -1.28656 0
M  V30 2369 O 238.982 1.78461 -0.319583 0
M  V30 2370 C 239.03 0.473172 -3.57482 0
M  V30 2371 O 238.134 1.56255 -3.81652 0
M  V30 2372 H 237.475 0.0096924 -0.663929 0
M  V30 2373 H 240.005 -0.595642 -1.95738 0
M  V30 2374 H 240.015 0.728825 -4.01438 0
M  V30 2375 H 238.69 -0.416873 -4.13805 0
M  V30 2376 H 237.267 1.29825 -3.49571 0
M  V30 2377 N 239.452 1.56882 -0.150215 0
M  V30 2378 C 240.415 2.1573 0.774157 0
M  V30 2379 C 241.415 1.0999 1.17298 0
M  V30 2380 O 242.605 1.35613 1.09338 0
M  V30 2381 C 239.737 2.72302 2.05096 0
M  V30 2382 H 240.93 2.98752 0.262201 0
M  V30 2383 H 238.483 1.55985 0.099248 0
M  V30 2384 H 239.218 1.92956 2.6065 0
M  V30 2385 H 239.003 3.49665 1.77416 0
M  V30 2386 H 240.493 3.17632 2.71109 0
M  V30 2387 N 240.93 -0.123565 1.57115 0
M  V30 2388 C 242.177 -0.832153 1.84612 0
M  V30 2389 C 242.505 -1.80093 0.734627 0
M  V30 2390 O 241.76 -1.93766 -0.27442 0
M  V30 2391 C 242.059 -1.62016 3.18568 0
M  V30 2392 C 241.725 -0.796084 4.43817 0
M  V30 2393 C 240.387 -0.568816 4.77826 0
M  V30 2394 C 242.739 -0.221364 5.2073 0
M  V30 2395 C 240.067 0.243499 5.86194 0
M  V30 2396 C 242.419 0.578117 6.29953 0
M  V30 2397 C 241.083 0.815744 6.62497 0
M  V30 2398 H 240.353 -0.304507 0.675542 0
M  V30 2399 H 243 -0.0947248 1.91266 0
M  V30 2400 H 241.305 -2.42837 3.0747 0
M  V30 2401 H 243.002 -2.17231 3.37064 0
M  V30 2402 H 239.592 -0.983307 4.17168 0
M  V30 2403 H 243.776 -0.384173 4.94811 0
M  V30 2404 H 239.032 0.436871 6.09837 0
M  V30 2405 H 243.206 1.03046 6.88734 0
M  V30 2406 H 240.833 1.44701 7.46301 0
M  V30 2407 N 242.408 -1.52605 -0.393616 0
M  V30 2408 C 243.654 -1.67672 -1.14079 0
M  V30 2409 C 243.987 -0.413121 -1.89755 0
M  V30 2410 O 243.262 0.588952 -1.85369 0
M  V30 2411 C 243.545 -2.9088 -2.12276 0
M  V30 2412 C 243.398 -4.27329 -1.40394 0
M  V30 2413 C 244.717 -3.09628 -3.12759 0
M  V30 2414 H 241.836 -0.610168 -0.413356 0
M  V30 2415 H 244.478 -1.85193 -0.424696 0
M  V30 2416 H 242.628 -2.76073 -2.73342 0
M  V30 2417 H 244.3 -4.53894 -0.82327 0
M  V30 2418 H 242.543 -4.2802 -0.705801 0
M  V30 2419 H 243.214 -5.09615 -2.12123 0
M  V30 2420 H 245.69 -3.23436 -2.61779 0
M  V30 2421 H 244.566 -3.97322 -3.78717 0
M  V30 2422 H 244.827 -2.23637 -3.81365 0
M  V30 2423 N 243.887 0.651787 -1.4349 0
M  V30 2424 C 245.112 1.44434 -1.48841 0
M  V30 2425 C 245.537 1.8779 -0.107955 0
M  V30 2426 O 244.895 1.57464 0.898602 0
M  V30 2427 C 244.943 2.65458 -2.44059 0
M  V30 2428 O 244.047 3.64566 -1.92784 0
M  V30 2429 H 243.388 0.433005 -0.503391 0
M  V30 2430 H 245.918 0.797451 -1.88419 0
M  V30 2431 H 245.928 3.13255 -2.6141 0
M  V30 2432 H 244.603 2.33244 -3.4434 0
M  V30 2433 H 243.18 3.23716 -1.851 0
M  V30 2434 N 245.365 1.30045 0.890287 0
M  V30 2435 C 246.295 1.18541 2.01172 0
M  V30 2436 C 247.276 0.0773356 1.69924 0
M  V30 2437 O 248.461 0.25845 1.92473 0
M  V30 2438 C 245.591 0.870941 3.36202 0
M  V30 2439 C 244.545 1.93637 3.81692 0
M  V30 2440 C 243.871 1.475 5.13953 0
M  V30 2441 C 245.171 3.34666 4.00994 0
M  V30 2442 H 246.865 2.12359 2.11054 0
M  V30 2443 H 244.411 1.02238 1.01407 0
M  V30 2444 H 246.364 0.777141 4.14172 0
M  V30 2445 H 245.088 -0.102926 3.26438 0
M  V30 2446 H 243.747 2.01972 3.05946 0
M  V30 2447 H 243.395 0.489551 5.00612 0
M  V30 2448 H 243.095 2.1876 5.4536 0
M  V30 2449 H 244.619 1.39489 5.94454 0
M  V30 2450 H 246.033 3.2912 4.69417 0
M  V30 2451 H 244.43 4.03966 4.43769 0
M  V30 2452 H 245.5 3.76949 3.05021 0
M  V30 2453 N 246.843 -1.10192 1.12674 0
M  V30 2454 C 248.254 -1.63707 0.897604 0
M  V30 2455 C 248.605 -1.87812 -0.567546 0
M  V30 2456 O 247.73 -1.62196 -1.43253 0
M  V30 2457 C 248.325 -2.974 1.62292 0
M  V30 2458 C 246.884 -3.47772 1.43986 0
M  V30 2459 C 246.031 -2.22332 1.65722 0
M  V30 2460 H 248.982 -0.936587 1.28116 0
M  V30 2461 H 249.003 -3.64986 1.07541 0
M  V30 2462 H 248.515 -2.79824 2.68924 0
M  V30 2463 H 246.616 -3.70487 0.396206 0
M  V30 2464 H 246.729 -4.25723 2.19765 0
M  V30 2465 H 245.093 -2.30599 1.08149 0
M  V30 2466 H 245.876 -2.07285 2.73657 0
M  V30 2467 N 248.321 -0.919034 -1.28029 0
M  V30 2468 C 249.253 -0.368762 -2.26214 0
M  V30 2469 C 250.266 0.495716 -1.55069 0
M  V30 2470 O 251.455 0.30974 -1.75792 0
M  V30 2471 C 248.555 0.491049 -3.35324 0
M  V30 2472 C 247.728 -0.352133 -4.3598 0
M  V30 2473 C 246.787 0.443622 -5.24327 0
M  V30 2474 O 245.813 -0.14566 -5.69014 0
M  V30 2475 N 247.015 1.74545 -5.53637 0
M  V30 2476 H 249.78 -1.21273 -2.74068 0
M  V30 2477 H 247.341 -0.785541 -1.41566 0
M  V30 2478 H 249.333 1.03026 -3.91366 0
M  V30 2479 H 247.903 1.23574 -2.87138 0
M  V30 2480 H 247.123 -1.07269 -3.79324 0
M  V30 2481 H 248.411 -0.928883 -5.00249 0
M  V30 2482 H 247.809 2.24666 -5.19174 0
M  V30 2483 H 246.366 2.23138 -6.12416 0
M  V30 2484 N 249.799 1.42003 -0.683588 0
M  V30 2485 C 251.076 1.95112 -0.138075 0
M  V30 2486 C 251.456 1.62359 1.34918 0
M  V30 2487 O 250.804 0.924311 2.08971 0
M  V30 2488 C 251.014 3.46505 -0.416581 0
M  V30 2489 C 252.362 4.23254 -0.337834 0
M  V30 2490 O 253.386 3.54468 -0.35082 0
M  V30 2491 O 252.245 5.45743 -0.287596 0
M  V30 2492 H 249.339 0.826961 -0.00797996 0
M  V30 2493 H 251.885 1.51784 -0.758924 0
M  V30 2494 H 250.657 3.63582 -1.4465 0
M  V30 2495 H 250.28 3.969 0.235839 0
M  V30 2496 N 251.277 0.427512 1.51691 0
M  V30 2497 C 252.523 -0.142439 2.02299 0
M  V30 2498 C 252.856 -1.43214 1.31162 0
M  V30 2499 O 252.131 -1.89833 0.423511 0
M  V30 2500 C 252.414 -0.371301 3.58181 0
M  V30 2501 C 252.267 0.936358 4.39946 0
M  V30 2502 C 253.586 -1.14542 4.24933 0
M  V30 2503 H 250.705 -0.0502937 0.735282 0
M  V30 2504 H 253.347 0.564584 1.81418 0
M  V30 2505 H 251.497 -0.973559 3.76104 0
M  V30 2506 H 253.169 1.57184 4.33694 0
M  V30 2507 H 251.412 1.5432 4.05423 0
M  V30 2508 H 252.083 0.730388 5.47147 0
M  V30 2509 H 254.559 -0.635362 4.11221 0
M  V30 2510 H 253.435 -1.27431 5.33903 0
M  V30 2511 H 253.696 -2.17093 3.85127 0
M  V30 2512 N 252.755 -1.56801 0.158532 0
M  V30 2513 C 254.001 -1.96781 -0.490405 0
M  V30 2514 C 254.334 -1.04397 -1.63753 0
M  V30 2515 O 253.609 -0.0885805 -1.94298 0
M  V30 2516 C 253.892 -3.4635 -0.985594 0
M  V30 2517 C 253.745 -4.49512 0.160824 0
M  V30 2518 C 255.064 -3.98697 -1.86355 0
M  V30 2519 H 252.183 -0.715482 -0.176788 0
M  V30 2520 H 254.825 -1.88451 0.242088 0
M  V30 2521 H 252.975 -3.53579 -1.60978 0
M  V30 2522 H 254.647 -4.54353 0.797537 0
M  V30 2523 H 252.89 -4.26013 0.818256 0
M  V30 2524 H 253.561 -5.51531 -0.227569 0
M  V30 2525 H 256.037 -3.94019 -1.33746 0
M  V30 2526 H 254.913 -5.03792 -2.17909 0
M  V30 2527 H 255.174 -3.41744 -2.8047 0
M  V30 2528 N 254.233 0.115231 -1.57178 0
M  V30 2529 C 255.51 0.852873 -1.76027 0
M  V30 2530 C 255.89 1.97892 -0.73498 0
M  V30 2531 O 255.238 2.27232 0.24036 0
M  V30 2532 C 255.448 1.36608 -3.21153 0
M  V30 2533 C 256.796 1.81692 -3.83762 0
M  V30 2534 O 257.82 1.46278 -3.24779 0
M  V30 2535 O 256.679 2.47104 -4.87444 0
M  V30 2536 H 253.773 0.405296 -0.720877 0
M  V30 2537 H 256.319 0.0986785 -1.69413 0
M  V30 2538 H 255.091 0.558357 -3.87296 0
M  V30 2539 H 254.714 2.18287 -3.3232 0
M  V30 2540 N 255.711 1.52812 0.385517 0
M  V30 2541 C 256.959 1.67694 1.12797 0
M  V30 2542 C 257.28 0.421115 1.90399 0
M  V30 2543 O 256.55 -0.564551 1.87589 0
M  V30 2544 H 255.13 0.618155 0.419396 0
M  V30 2545 H 257.792 1.89938 0.436972 0
M  V30 2546 H 256.888 2.52896 1.82894 0
M  V30 2547 N 257.189 -0.644168 1.43834 0
M  V30 2548 C 258.6 -1.22554 1.40845 0
M  V30 2549 C 258.951 -1.9585 0.117115 0
M  V30 2550 O 258.076 -2.01734 -0.783086 0
M  V30 2551 C 258.671 -2.22907 2.55143 0
M  V30 2552 C 257.23 -2.76501 2.5539 0
M  V30 2553 C 256.377 -1.51287 2.32396 0
M  V30 2554 H 259.328 -0.43563 1.52604 0
M  V30 2555 H 259.349 -3.05259 2.2715 0
M  V30 2556 H 258.861 -1.69533 3.49114 0
M  V30 2557 H 256.962 -3.33914 1.65324 0
M  V30 2558 H 257.075 -3.23429 3.53455 0
M  V30 2559 H 255.439 -1.78957 1.81236 0
M  V30 2560 H 256.222 -0.998336 3.28463 0
M  V30 2561 N 258.668 -1.30515 -0.883378 0
M  V30 2562 C 259.914 -1.19607 -1.63774 0
M  V30 2563 C 260.247 0.248314 -1.92606 0
M  V30 2564 O 259.522 1.17742 -1.54813 0
M  V30 2565 C 259.805 -2.02669 -2.97653 0
M  V30 2566 C 259.658 -3.55335 -2.75784 0
M  V30 2567 C 260.977 -1.86573 -3.98596 0
M  V30 2568 H 258.096 -0.435856 -0.594305 0
M  V30 2569 H 260.738 -1.60165 -1.02212 0
M  V30 2570 H 258.888 -1.68208 -3.50197 0
M  V30 2571 H 260.56 -3.99863 -2.30016 0
M  V30 2572 H 258.803 -3.79438 -2.1026 0
M  V30 2573 H 259.474 -4.08745 -3.70988 0
M  V30 2574 H 261.95 -2.16703 -3.55217 0
M  V30 2575 H 260.826 -2.47014 -4.90179 0
M  V30 2576 H 261.087 -0.825321 -4.34328 0
M  V30 2577 N 260.146 1.09593 -1.13257 0
M  V30 2578 C 261.371 1.8604 -0.916732 0
M  V30 2579 C 261.796 1.80504 0.529146 0
M  V30 2580 O 261.154 1.18127 1.37534 0
M  V30 2581 C 261.202 3.32017 -1.40703 0
M  V30 2582 O 260.306 4.08141 -0.591153 0
M  V30 2583 H 259.647 0.576943 -0.328683 0
M  V30 2584 H 262.177 1.38405 -1.50682 0
M  V30 2585 H 262.187 3.82865 -1.4099 0
M  V30 2586 H 260.862 3.35361 -2.45979 0
M  V30 2587 H 259.439 3.67084 -0.656005 0
M  V30 2588 N 261.624 0.925811 1.2754 0
M  V30 2589 C 262.872 0.564138 1.94067 0
M  V30 2590 C 263.193 -0.897188 1.73134 0
M  V30 2591 O 262.463 -1.63573 1.07799 0
M  V30 2592 H 261.043 0.205645 0.718136 0
M  V30 2593 H 263.705 1.1778 1.55287 0
M  V30 2594 H 262.801 0.76881 3.02483 0
M  V30 2595 N 263.102 -1.41638 0.69111 0
M  V30 2596 C 264.049 -2.30789 0.0229705 0
M  V30 2597 C 265.019 -1.46863 -0.775911 0
M  V30 2598 O 266.204 -1.75661 -0.74485 0
M  V30 2599 C 263.344 -3.32868 -0.910666 0
M  V30 2600 C 262.457 -4.31875 -0.103874 0
M  V30 2601 C 261.592 -5.21024 -1.03475 0
M  V30 2602 C 260.631 -6.11702 -0.220598 0
M  V30 2603 N 259.768 -6.93349 -1.10504 0
M  V30 2604 H 264.608 -2.87366 0.788978 0
M  V30 2605 H 262.145 -1.41535 0.400794 0
M  V30 2606 H 264.103 -3.90596 -1.46597 0
M  V30 2607 H 262.733 -2.77851 -1.64312 0
M  V30 2608 H 261.785 -3.76131 0.568285 0
M  V30 2609 H 263.097 -4.96003 0.527504 0
M  V30 2610 H 262.251 -5.83565 -1.65943 0
M  V30 2611 H 260.99 -4.57112 -1.69999 0
M  V30 2612 H 259.995 -5.48215 0.417187 0
M  V30 2613 H 261.22 -6.77668 0.440784 0
M  V30 2614 H 259.166 -6.3205 -1.75638 0
M  V30 2615 H 259.083 -7.54146 -0.529125 0
M  V30 2616 H 260.351 -7.60362 -1.71667 0
M  V30 2617 N 264.58 -0.43555 -1.51462 0
M  V30 2618 C 265.826 0.131709 -2.02372 0
M  V30 2619 C 266.159 1.42516 -1.3192 0
M  V30 2620 O 265.434 1.89606 -0.433573 0
M  V30 2621 C 265.717 0.352301 -3.58373 0
M  V30 2622 C 265.57 -0.959676 -4.39443 0
M  V30 2623 C 266.889 1.12286 -4.25535 0
M  V30 2624 H 264.008 0.0463936 -0.735538 0
M  V30 2625 H 266.65 -0.574197 -1.81116 0
M  V30 2626 H 264.8 0.9536 -3.76615 0
M  V30 2627 H 266.472 -1.59482 -4.32855 0
M  V30 2628 H 264.715 -1.56468 -4.04599 0
M  V30 2629 H 265.386 -0.759394 -5.46752 0
M  V30 2630 H 267.862 0.613545 -4.11552 0
M  V30 2631 H 266.738 1.24598 -5.34571 0
M  V30 2632 H 266.999 2.15048 -3.86273 0
M  V30 2633 N 266.058 1.56714 -0.166846 0
M  V30 2634 C 266.988 2.20754 0.760913 0
M  V30 2635 C 267.969 1.16178 1.24244 0
M  V30 2636 O 269.154 1.44592 1.29641 0
M  V30 2637 C 266.284 2.84478 1.99223 0
M  V30 2638 C 265.238 3.95053 1.64672 0
M  V30 2639 C 264.564 4.45805 2.95232 0
M  V30 2640 C 265.864 5.14865 0.878155 0
M  V30 2641 H 267.558 2.98537 0.22713 0
M  V30 2642 H 265.104 1.43596 0.107805 0
M  V30 2643 H 267.057 3.27951 2.64624 0
M  V30 2644 H 265.781 2.04056 2.55007 0
M  V30 2645 H 264.44 3.52228 1.01641 0
M  V30 2646 H 264.088 3.62181 3.49047 0
M  V30 2647 H 263.788 5.204 2.7287 0
M  V30 2648 H 265.312 4.91962 3.6167 0
M  V30 2649 H 266.726 5.55059 1.43466 0
M  V30 2650 H 265.123 5.95348 0.753738 0
M  V30 2651 H 266.193 4.84735 -0.126377 0
M  V30 2652 N 267.536 -0.106894 1.57237 0
M  V30 2653 C 268.947 -0.662723 1.74542 0
M  V30 2654 C 269.298 -1.7971 0.787319 0
M  V30 2655 O 268.423 -2.16368 -0.0369636 0
M  V30 2656 C 269.018 -1.20896 3.16496 0
M  V30 2657 C 267.577 -1.71096 3.35266 0
M  V30 2658 C 266.724 -0.615642 2.7038 0
M  V30 2659 H 269.675 0.119106 1.58252 0
M  V30 2660 H 269.696 -2.07847 3.18716 0
M  V30 2661 H 269.208 -0.383122 3.86204 0
M  V30 2662 H 267.309 -2.56119 2.70618 0
M  V30 2663 H 267.422 -1.81208 4.43509 0
M  V30 2664 H 265.786 -1.05222 2.31949 0
M  V30 2665 H 266.569 0.199419 3.4272 0
M  V30 2666 N 269.014 -1.53014 -0.377408 0
M  V30 2667 C 269.977 -1.77957 -1.44444 0
M  V30 2668 C 270.977 -0.649763 -1.47087 0
M  V30 2669 O 272.167 -0.917897 -1.48055 0
M  V30 2670 C 269.299 -1.89089 -2.83651 0
M  V30 2671 H 270.492 -2.73243 -1.23606 0
M  V30 2672 H 268.045 -1.43912 -0.609844 0
M  V30 2673 H 268.78 -0.958293 -3.09818 0
M  V30 2674 H 268.565 -2.71254 -2.83132 0
M  V30 2675 H 270.055 -2.1002 -3.60945 0
M  V30 2676 N 270.492 0.636531 -1.44174 0
M  V30 2677 C 271.717 1.42847 -1.50364 0
M  V30 2678 C 272.142 1.87665 -0.127867 0
M  V30 2679 O 271.5 1.58408 0.88185 0
M  V30 2680 C 271.548 2.62854 -2.4686 0
M  V30 2681 O 270.652 3.62501 -1.9664 0
M  V30 2682 H 269.993 0.427642 -0.507955 0
M  V30 2683 H 272.523 0.777422 -1.89255 0
M  V30 2684 H 272.533 3.10465 -2.64718 0
M  V30 2685 H 271.208 2.29578 -3.46795 0
M  V30 2686 H 269.785 3.21735 -1.88523 0
M  V30 2687 N 271.97 1.30982 0.876444 0
M  V30 2688 C 273.218 1.20058 1.62575 0
M  V30 2689 C 273.539 -0.242947 1.93481 0
M  V30 2690 O 272.809 -1.1619 1.57724 0
M  V30 2691 H 271.389 0.44135 0.602677 0
M  V30 2692 H 274.051 1.64222 1.04962 0
M  V30 2693 H 273.147 1.76762 2.57219 0
M  V30 2694 N 273.449 -1.08991 1.13837 0
M  V30 2695 C 274.412 -2.13925 0.822715 0
M  V30 2696 C 275.412 -1.599 -0.1699 0
M  V30 2697 O 276.602 -1.74104 0.0577251 0
M  V30 2698 C 273.734 -3.40155 0.225318 0
M  V30 2699 H 274.927 -2.43358 1.75262 0
M  V30 2700 H 272.48 -1.24603 0.943594 0
M  V30 2701 H 273.215 -3.16352 -0.713594 0
M  V30 2702 H 273 -3.80661 0.940193 0
M  V30 2703 H 274.49 -4.17594 0.0214784 0
M  V30 2704 N 274.927 -0.932562 -1.27047 0
M  V30 2705 C 276.338 -0.619451 -1.76124 0
M  V30 2706 C 276.689 0.865397 -1.76083 0
M  V30 2707 O 275.814 1.67722 -1.36742 0
M  V30 2708 C 276.409 -1.11771 -3.19832 0
M  V30 2709 C 274.968 -0.855174 -3.66557 0
M  V30 2710 C 274.115 -1.27362 -2.46321 0
M  V30 2711 H 277.066 -1.11181 -1.13245 0
M  V30 2712 H 277.087 -0.46759 -3.77616 0
M  V30 2713 H 276.599 -2.19842 -3.1983 0
M  V30 2714 H 274.7 0.211524 -3.71999 0
M  V30 2715 H 274.813 -1.47613 -4.55793 0
M  V30 2716 H 273.177 -0.692119 -2.45116 0
M  V30 2717 H 273.96 -2.36307 -2.49025 0
M  V30 2718 N 276.405 1.4127 -0.698611 0
M  V30 2719 C 277.337 2.292 0.00399731 0
M  V30 2720 C 278.35 1.44944 0.741279 0
M  V30 2721 O 279.539 1.68416 0.591477 0
M  V30 2722 C 276.639 3.22875 1.02979 0
M  V30 2723 C 275.812 4.35904 0.36151 0
M  V30 2724 C 274.871 5.10134 1.29033 0
M  V30 2725 O 273.897 5.63809 0.781562 0
M  V30 2726 N 275.099 5.17885 2.6225 0
M  V30 2727 H 277.864 2.9014 -0.750921 0
M  V30 2728 H 275.425 1.52455 -0.544882 0
M  V30 2729 H 277.417 3.69404 1.65296 0
M  V30 2730 H 275.987 2.63221 1.68622 0
M  V30 2731 H 275.207 3.91719 -0.441584 0
M  V30 2732 H 276.495 5.08696 -0.103055 0
M  V30 2733 H 275.893 4.7573 3.061 0
M  V30 2734 H 274.45 5.6798 3.19754 0
M  V30 2735 N 277.883 0.443576 1.51229 0
M  V30 2736 C 278.816 -0.410089 2.24485 0
M  V30 2737 C 279.794 -1.01949 1.26669 0
M  V30 2738 O 280.978 -1.06075 1.55821 0
M  V30 2739 C 278.105 -1.57211 3.00004 0
M  V30 2740 C 277.151 -1.08279 4.12526 0
M  V30 2741 S 277.984 -0.0197476 5.35496 0
M  V30 2742 C 279.14 -1.18629 6.14555 0
M  V30 2743 H 279.373 0.211832 2.96544 0
M  V30 2744 H 276.906 0.228156 1.52705 0
M  V30 2745 H 278.864 -2.23825 3.44111 0
M  V30 2746 H 277.525 -2.16547 2.27522 0
M  V30 2747 H 276.718 -1.95193 4.64667 0
M  V30 2748 H 276.32 -0.494797 3.70713 0
M  V30 2749 H 278.612 -2.10344 6.4402 0
M  V30 2750 H 279.555 -0.70472 7.04584 0
M  V30 2751 H 279.963 -1.42768 5.46148 0
M  V30 2752 N 279.361 -1.56624 0.175154 0
M  V30 2753 C 280.609 -1.96609 -0.467885 0
M  V30 2754 C 280.93 -1.06238 -1.63519 0
M  V30 2755 O 280.2 -0.129523 -1.95471 0
M  V30 2756 H 278.78 -0.726008 -0.175845 0
M  V30 2757 H 281.442 -1.93195 0.257234 0
M  V30 2758 H 280.538 -3.00989 -0.825342 0
M  V30 2759 N 280.839 0.0985539 -1.57292 0
M  V30 2760 C 281.802 1.10402 -2.00858 0
M  V30 2761 C 282.802 1.33146 -0.901593 0
M  V30 2762 O 283.992 1.29318 -1.16716 0
M  V30 2763 C 281.124 2.45394 -2.36632 0
M  V30 2764 H 282.317 0.729099 -2.90902 0
M  V30 2765 H 279.87 0.343495 -1.52479 0
M  V30 2766 H 280.605 2.87769 -1.49531 0
M  V30 2767 H 280.39 2.30235 -3.17387 0
M  V30 2768 H 281.88 3.17718 -2.71007 0
M  V30 2769 N 282.317 1.53212 0.369288 0
M  V30 2770 C 283.28 1.7872 1.43498 0
M  V30 2771 C 284.28 0.657554 1.46741 0
M  V30 2772 O 285.47 0.925736 1.47566 0
M  V30 2773 C 282.602 1.90591 2.82645 0
M  V30 2774 H 283.795 2.73894 1.22156 0
M  V30 2775 H 281.348 1.44233 0.602203 0
M  V30 2776 H 282.083 0.974709 3.09306 0
M  V30 2777 H 281.868 2.72751 2.8169 0
M  V30 2778 H 283.358 2.11931 3.59826 0
M  V30 2779 N 283.795 -0.628877 1.44509 0
M  V30 2780 C 285.206 -1.21054 1.42137 0
M  V30 2781 C 285.557 -1.95715 0.137881 0
M  V30 2782 O 284.682 -2.02554 -0.761645 0
M  V30 2783 C 285.277 -2.20189 2.57493 0
M  V30 2784 C 283.836 -2.73777 2.58308 0
M  V30 2785 C 282.983 -1.48813 2.33987 0
M  V30 2786 H 285.934 -0.41942 1.53057 0
M  V30 2787 H 285.955 -3.02833 2.30375 0
M  V30 2788 H 285.467 -1.6582 3.50892 0
M  V30 2789 H 283.568 -3.32142 1.68856 0
M  V30 2790 H 283.681 -3.19662 3.56865 0
M  V30 2791 H 282.045 -1.77024 1.83124 0
M  V30 2792 H 282.828 -0.963442 3.29504 0
M  V30 2793 N 285.273 -1.31445 -0.869486 0
M  V30 2794 C 286.55 -1.11795 -1.60503 0
M  V30 2795 C 286.93 0.327168 -2.08549 0
M  V30 2796 O 286.278 1.32135 -1.8642 0
M  V30 2797 C 286.488 -2.13258 -2.76265 0
M  V30 2798 C 287.836 -2.45805 -3.46215 0
M  V30 2799 O 288.86 -2.11688 -2.86473 0
M  V30 2800 O 287.719 -3.04228 -4.5399 0
M  V30 2801 H 284.813 -0.430421 -0.706163 0
M  V30 2802 H 287.359 -1.42925 -0.914907 0
M  V30 2803 H 286.131 -3.10461 -2.3818 0
M  V30 2804 H 285.754 -1.83035 -3.52964 0
M  V30 2805 N 286.751 1.08385 -1.14413 0
M  V30 2806 C 288.028 1.77429 -0.823297 0
M  V30 2807 C 288.408 1.9974 0.683163 0
M  V30 2808 O 287.756 1.60739 1.62405 0
M  V30 2809 C 287.966 3.09004 -1.62227 0
M  V30 2810 C 289.314 3.83532 -1.82177 0
M  V30 2811 O 290.338 3.18786 -1.58915 0
M  V30 2812 O 289.197 4.99792 -2.21067 0
M  V30 2813 H 286.291 0.769999 -0.301712 0
M  V30 2814 H 288.837 1.14846 -1.24934 0
M  V30 2815 H 287.609 2.88316 -2.64555 0
M  V30 2816 H 287.232 3.79316 -1.19187 0
M  V30 2817 N 288.23 0.939286 1.26551 0
M  V30 2818 C 289.193 0.451987 2.24699 0
M  V30 2819 C 290.193 -0.435869 1.5478 0
M  V30 2820 O 291.383 -0.235314 1.72603 0
M  V30 2821 C 288.515 -0.348801 3.39111 0
M  V30 2822 H 289.708 1.3193 2.69322 0
M  V30 2823 H 287.261 0.721072 1.38673 0
M  V30 2824 H 287.996 -1.23444 2.99887 0
M  V30 2825 H 287.781 0.287945 3.91041 0
M  V30 2826 H 289.271 -0.679726 4.12031 0
M  V30 2827 N 289.708 -1.40897 0.706093 0
M  V30 2828 C 290.957 -2.00284 0.238574 0
M  V30 2829 C 291.27 -1.56604 -1.17194 0
M  V30 2830 O 292.476 -2.08624 -1.73748 0
M  V30 2831 C 290.932 -3.57934 0.375623 0
M  V30 2832 C 290.54 -4.10591 1.79217 0
M  V30 2833 C 292.284 -4.24488 -0.0315857 0
M  V30 2834 C 290.191 -5.60712 1.88032 0
M  V30 2835 H 289.121 -0.749144 0.0854398 0
M  V30 2836 H 291.772 -1.61251 0.875813 0
M  V30 2837 H 290.154 -3.94622 -0.330042 0
M  V30 2838 H 291.328 -3.85301 2.52745 0
M  V30 2839 H 289.643 -3.56601 2.15 0
M  V30 2840 H 292.24 -5.34698 0.0136842 0
M  V30 2841 H 292.583 -4.02261 -1.072 0
M  V30 2842 H 293.116 -3.92873 0.624181 0
M  V30 2843 H 289.855 -5.87781 2.90161 0
M  V30 2844 H 289.375 -5.87896 1.18903 0
M  V30 2845 H 291.054 -6.25658 1.64805 0
M  V30 2846 N 291.186 -0.45159 -1.50991 0
M  V30 2847 C 292.463 0.170707 -1.94854 0
M  V30 2848 C 292.843 1.58788 -1.39103 0
M  V30 2849 O 292.191 2.20913 -0.583921 0
M  V30 2850 C 292.401 0.133929 -3.48743 0
M  V30 2851 C 293.749 0.33248 -4.23296 0
M  V30 2852 O 294.773 0.211403 -3.55572 0
M  V30 2853 O 293.632 0.57486 -5.43468 0
M  V30 2854 H 290.726 0.122264 -0.817912 0
M  V30 2855 H 293.272 -0.510594 -1.61836 0
M  V30 2856 H 292.044 -0.856283 -3.81816 0
M  V30 2857 H 291.667 0.857529 -3.88242 0
M  V30 2858 N 292.664 1.56529 -0.183458 0
M  V30 2859 C 293.596 2.15747 0.773697 0
M  V30 2860 C 294.609 1.1162 1.1851 0
M  V30 2861 O 295.798 1.3876 1.12285 0
M  V30 2862 C 292.898 2.6952 2.05456 0
M  V30 2863 C 292.071 3.98429 1.8048 0
M  V30 2864 C 291.13 4.37145 2.92901 0
M  V30 2865 O 290.156 5.04791 2.6301 0
M  V30 2866 N 291.358 3.99695 4.2098 0
M  V30 2867 H 294.123 2.98505 0.26736 0
M  V30 2868 H 291.684 1.619 -0.0010878 0
M  V30 2869 H 293.676 2.92412 2.79781 0
M  V30 2870 H 292.246 1.91282 2.47245 0
M  V30 2871 H 291.466 3.8379 0.899947 0
M  V30 2872 H 292.754 4.82597 1.61175 0
M  V30 2873 H 292.152 3.4526 4.48121 0
M  V30 2874 H 290.709 4.27562 4.9197 0
M  V30 2875 N 294.142 -0.090211 1.57342 0
M  V30 2876 C 295.388 -0.793982 1.86611 0
M  V30 2877 C 295.721 -1.78142 0.773252 0
M  V30 2878 O 294.996 -1.93271 -0.218304 0
M  V30 2879 C 295.279 -1.51839 3.26523 0
M  V30 2880 C 295.132 -0.548609 4.46442 0
M  V30 2881 C 296.451 -2.46779 3.64401 0
M  V30 2882 H 293.57 -0.287186 0.678744 0
M  V30 2883 H 296.212 -0.0575076 1.89913 0
M  V30 2884 H 294.362 -2.14617 3.23839 0
M  V30 2885 H 296.034 0.0725513 4.61243 0
M  V30 2886 H 294.277 0.137614 4.33582 0
M  V30 2887 H 294.948 -1.09271 5.41076 0
M  V30 2888 H 297.424 -1.94089 3.68061 0
M  V30 2889 H 296.3 -2.94479 4.63221 0
M  V30 2890 H 296.561 -3.30758 2.93346 0
M  V30 2891 N 295.62 -1.53406 -0.361157 0
M  V30 2892 C 296.583 -1.79479 -1.42548 0
M  V30 2893 C 297.583 -0.665327 -1.4639 0
M  V30 2894 O 298.773 -0.933549 -1.47073 0
M  V30 2895 C 295.905 -1.92087 -2.8163 0
M  V30 2896 H 297.098 -2.74538 -1.20701 0
M  V30 2897 H 294.651 -1.4455 -0.594546 0
M  V30 2898 H 295.386 -0.991099 -3.08784 0
M  V30 2899 H 295.171 -2.74241 -2.80239 0
M  V30 2900 H 296.661 -2.13836 -3.58697 0
M  V30 2901 N 297.098 0.621204 -1.44841 0
M  V30 2902 C 298.045 1.73267 -1.5247 0
M  V30 2903 C 299.015 1.6189 -0.371611 0
M  V30 2904 O 300.2 1.81668 -0.58321 0
M  V30 2905 C 297.34 3.11545 -1.48438 0
M  V30 2906 C 296.453 3.33827 -2.74196 0
M  V30 2907 C 295.588 4.62133 -2.61929 0
M  V30 2908 C 294.627 4.77627 -3.82804 0
M  V30 2909 N 293.764 5.97219 -3.69153 0
M  V30 2910 H 298.604 1.66082 -2.47428 0
M  V30 2911 H 296.141 0.810026 -1.22788 0
M  V30 2912 H 298.099 3.91528 -1.4409 0
M  V30 2913 H 296.729 3.1772 -0.570402 0
M  V30 2914 H 295.781 2.47715 -2.88689 0
M  V30 2915 H 297.093 3.41153 -3.6389 0
M  V30 2916 H 296.247 5.50291 -2.5547 0
M  V30 2917 H 294.986 4.57182 -1.69811 0
M  V30 2918 H 293.991 3.87896 -3.89637 0
M  V30 2919 H 295.216 4.84385 -4.75971 0
M  V30 2920 H 293.162 5.93339 -2.79794 0
M  V30 2921 H 293.079 6.05644 -4.52472 0
M  V30 2922 H 294.347 6.87912 -3.66603 0
M  V30 2923 N 298.576 1.31904 0.862503 0
M  V30 2924 C 299.506 1.22782 1.98612 0
M  V30 2925 C 300.487 0.113362 1.69722 0
M  V30 2926 O 301.672 0.299218 1.91881 0
M  V30 2927 C 298.802 0.942058 3.34279 0
M  V30 2928 C 297.756 2.0169 3.77499 0
M  V30 2929 C 297.082 1.58369 5.10709 0
M  V30 2930 C 298.382 3.43096 3.93805 0
M  V30 2931 H 300.076 2.16788 2.06502 0
M  V30 2932 H 297.622 1.04366 0.992154 0
M  V30 2933 H 299.575 0.864818 4.1243 0
M  V30 2934 H 298.299 -0.0336603 3.26583 0
M  V30 2935 H 296.958 2.08416 3.01593 0
M  V30 2936 H 296.606 0.595628 4.99461 0
M  V30 2937 H 296.306 2.30279 5.40597 0
M  V30 2938 H 297.83 1.52067 5.91361 0
M  V30 2939 H 299.244 3.39003 4.62331 0
M  V30 2940 H 297.641 4.13288 4.35101 0
M  V30 2941 H 298.711 3.83334 2.96957 0
M  V30 2942 N 300.054 -1.07777 1.14986 0
M  V30 2943 C 301.303 -1.79669 0.916617 0
M  V30 2944 C 301.616 -1.87474 -0.557917 0
M  V30 2945 O 302.822 -2.55845 -0.908617 0
M  V30 2946 C 301.278 -3.22848 1.59051 0
M  V30 2947 C 300.886 -3.23257 3.10176 0
M  V30 2948 C 302.63 -3.99379 1.43864 0
M  V30 2949 C 300.537 -4.61063 3.70372 0
M  V30 2950 H 299.467 -0.673349 0.33929 0
M  V30 2951 H 302.118 -1.21003 1.37951 0
M  V30 2952 H 300.5 -3.8168 1.0553 0
M  V30 2953 H 301.674 -2.74095 3.70417 0
M  V30 2954 H 299.989 -2.60222 3.25074 0
M  V30 2955 H 302.586 -5.0122 1.86232 0
M  V30 2956 H 302.929 -4.14511 0.385564 0
M  V30 2957 H 303.462 -3.47032 1.94457 0
M  V30 2958 H 300.201 -4.51135 4.7556 0
M  V30 2959 H 299.721 -5.1048 3.14913 0
M  V30 2960 H 301.4 -5.30034 3.71043 0
M  V30 2961 N 301.532 -0.945985 -1.26051 0
M  V30 2962 C 302.495 -0.463897 -2.24456 0
M  V30 2963 C 303.495 0.427655 -1.55009 0
M  V30 2964 O 304.685 0.226157 -1.72726 0
M  V30 2965 C 301.817 0.330812 -3.39291 0
M  V30 2966 H 303.01 -1.33357 -2.68619 0
M  V30 2967 H 300.563 -0.728416 -1.38289 0
M  V30 2968 H 301.298 1.21852 -3.00537 0
M  V30 2969 H 301.083 -0.308679 -3.90883 0
M  V30 2970 H 302.573 0.657865 -4.12386 0
M  V30 2971 N 303.011 1.40521 -0.713556 0
M  V30 2972 C 303.943 2.29191 -0.0203126 0
M  V30 2973 C 304.956 1.45723 0.725864 0
M  V30 2974 O 306.145 1.69033 0.573581 0
M  V30 2975 C 303.245 3.2395 0.995486 0
M  V30 2976 C 302.418 4.36262 0.315256 0
M  V30 2977 C 301.477 5.11474 1.23616 0
M  V30 2978 O 300.503 5.64606 0.721719 0
M  V30 2979 N 301.705 5.20638 2.56743 0
M  V30 2980 H 304.47 2.89327 -0.781652 0
M  V30 2981 H 302.031 1.51869 -0.561022 0
M  V30 2982 H 304.023 3.71137 1.61368 0
M  V30 2983 H 302.593 2.64995 1.6582 0
M  V30 2984 H 301.813 3.91228 -0.483106 0
M  V30 2985 H 303.101 5.08558 -0.157004 0
M  V30 2986 H 302.499 4.7895 3.01037 0
M  V30 2987 H 301.056 5.71339 3.13712 0
M  V30 2988 N 304.489 0.459591 1.5075 0
M  V30 2989 C 305.452 -0.329093 2.26825 0
M  V30 2990 C 306.452 -0.930481 1.31144 0
M  V30 2991 O 307.642 -0.801453 1.54669 0
M  V30 2992 C 304.774 -1.46768 3.07688 0
M  V30 2993 H 305.967 0.337924 2.9799 0
M  V30 2994 H 303.52 0.213336 1.54837 0
M  V30 2995 H 304.255 -2.17009 2.40993 0
M  V30 2996 H 304.04 -1.04238 3.77991 0
M  V30 2997 H 305.53 -2.02433 3.65254 0
M  V30 2998 N 305.967 -1.56429 0.191757 0
M  V30 2999 C 306.914 -2.18936 -0.730454 0
M  V30 3000 C 307.884 -1.13557 -1.21219 0
M  V30 3001 O 309.069 -1.41794 -1.27668 0
M  V30 3002 C 306.209 -2.85013 -1.9458 0
M  V30 3003 C 305.322 -4.04909 -1.50574 0
M  V30 3004 C 304.457 -4.58853 -2.67634 0
M  V30 3005 C 303.496 -5.71114 -2.20217 0
M  V30 3006 N 302.633 -6.19478 -3.30442 0
M  V30 3007 H 307.473 -2.97389 -0.190664 0
M  V30 3008 H 305.01 -1.46869 -0.0823694 0
M  V30 3009 H 306.968 -3.21492 -2.65893 0
M  V30 3010 H 305.598 -2.09129 -2.45896 0
M  V30 3011 H 304.65 -3.74115 -0.688605 0
M  V30 3012 H 305.962 -4.86113 -1.11784 0
M  V30 3013 H 305.116 -4.97619 -3.47074 0
M  V30 3014 H 303.855 -3.76749 -3.09696 0
M  V30 3015 H 302.86 -5.31879 -1.3923 0
M  V30 3016 H 304.085 -6.55033 -1.79189 0
M  V30 3017 H 302.031 -5.40297 -3.72041 0
M  V30 3018 H 301.948 -6.95725 -2.9581 0
M  V30 3019 H 303.216 -6.62898 -4.10106 0
M  V30 3020 N 307.445 0.0818655 -1.57387 0
M  V30 3021 C 308.393 1.11712 -2.04018 0
M  V30 3022 C 309.387 1.40683 -0.94364 0
M  V30 3023 O 310.593 1.40209 -1.12878 0
M  V30 3024 H 306.968 0.377542 -0.650358 0
M  V30 3025 H 308.939 0.697614 -2.90131 0
M  V30 3026 C 307.688 2.42537 -2.49141 0
M  V30 3027 H 307.011 2.21092 -3.33104 0
M  V30 3028 H 308.451 3.13446 -2.85531 0
M  V30 3029 C 306.91 3.0778 -1.37014 0
M  V30 3030 O 307.44 3.95436 -0.706621 0
M  V30 3031 N 305.646 2.68242 -1.11779 0
M  V30 3032 H 305.193 1.97052 -1.65917 0
M  V30 3033 H 305.151 3.1222 -0.369594 0
M  V30 3034 N 308.923 1.53595 0.353017 0
M  V30 3035 C 310.334 1.61937 0.929153 0
M  V30 3036 C 310.685 0.494686 1.89861 0
M  V30 3037 O 309.81 -0.377017 2.1309 0
M  V30 3038 C 310.405 2.93526 1.69199 0
M  V30 3039 C 308.964 3.04161 2.21727 0
M  V30 3040 C 308.111 2.57322 1.03348 0
M  V30 3041 H 311.062 1.58155 0.131431 0
M  V30 3042 H 311.083 2.82034 2.55416 0
M  V30 3043 H 310.595 3.75362 0.986144 0
M  V30 3044 H 308.696 2.26938 2.95516 0
M  V30 3045 H 308.809 4.09465 2.48748 0
M  V30 3046 H 307.173 2.12499 1.40414 0
M  V30 3047 H 307.956 3.41588 0.342428 0
M  V30 3048 N 310.401 -0.613514 1.45168 0
M  V30 3049 C 311.65 -1.36874 1.4815 0
M  V30 3050 C 311.963 -1.952 0.124982 0
M  V30 3051 O 313.169 -2.71481 0.0324176 0
M  V30 3052 C 311.625 -2.47905 2.60904 0
M  V30 3053 C 311.233 -1.96016 4.02842 0
M  V30 3054 C 312.977 -3.24965 2.73126 0
M  V30 3055 C 310.884 -3.04494 5.06988 0
M  V30 3056 H 309.814 -0.514428 0.551253 0
M  V30 3057 H 312.465 -0.658182 1.7129 0
M  V30 3058 H 310.847 -3.21618 2.31037 0
M  V30 3059 H 312.021 -1.29051 4.4236 0
M  V30 3060 H 310.336 -1.31719 3.95018 0
M  V30 3061 H 312.933 -4.05865 3.48106 0
M  V30 3062 H 313.276 -3.75588 1.79553 0
M  V30 3063 H 313.809 -2.5835 3.0249 0
M  V30 3064 H 310.548 -2.58795 6.0225 0
M  V30 3065 H 310.068 -3.70044 4.72046 0
M  V30 3066 H 311.747 -3.68976 5.31475 0
M  V30 3067 N 311.879 -1.3236 -0.855495 0
M  V30 3068 C 313.126 -1.22872 -1.60962 0
M  V30 3069 C 313.454 0.209658 -1.93367 0
M  V30 3070 O 312.709 1.16243 -1.57436 0
M  V30 3071 C 313.008 -2.03275 -2.93963 0
M  V30 3072 C 312.674 -3.5264 -2.80991 0
M  V30 3073 C 311.336 -3.93364 -2.7716 0
M  V30 3074 C 313.688 -4.47626 -2.66983 0
M  V30 3075 C 311.016 -5.27319 -2.572 0
M  V30 3076 C 313.368 -5.81723 -2.48558 0
M  V30 3077 C 312.032 -6.2165 -2.4312 0
M  V30 3078 H 311.302 -0.44962 -0.589001 0
M  V30 3079 H 313.949 -1.63777 -0.992442 0
M  V30 3080 H 312.254 -1.55095 -3.59795 0
M  V30 3081 H 313.951 -1.93303 -3.51333 0
M  V30 3082 H 310.541 -3.20295 -2.84797 0
M  V30 3083 H 314.725 -4.17084 -2.68988 0
M  V30 3084 H 309.981 -5.57311 -2.51424 0
M  V30 3085 H 314.155 -6.5494 -2.36699 0
M  V30 3086 H 311.782 -7.25388 -2.27412 0
M  V30 3087 N 313.357 1.07166 -1.15556 0
M  V30 3088 C 314.287 2.16403 -0.877046 0
M  V30 3089 C 315.268 1.69217 0.173111 0
M  V30 3090 O 316.453 1.94181 0.027084 0
M  V30 3091 C 313.583 3.45349 -0.367632 0
M  V30 3092 C 312.537 4.05995 -1.35468 0
M  V30 3093 C 311.863 5.30045 -0.704038 0
M  V30 3094 C 313.163 4.45804 -2.72132 0
M  V30 3095 H 314.857 2.39959 -1.79053 0
M  V30 3096 H 312.403 1.15325 -0.862331 0
M  V30 3097 H 314.356 4.21095 -0.160317 0
M  V30 3098 H 313.08 3.21385 0.581326 0
M  V30 3099 H 311.739 3.32296 -1.54839 0
M  V30 3100 H 311.387 5.02373 0.251128 0
M  V30 3101 H 311.087 5.71579 -1.36277 0
M  V30 3102 H 312.611 6.08495 -0.50654 0
M  V30 3103 H 314.025 5.12671 -2.56595 0
M  V30 3104 H 312.422 4.98296 -3.34397 0
M  V30 3105 H 313.492 3.57083 -3.28054 0
M  V30 3106 N 314.835 0.952656 1.25548 0
M  V30 3107 C 315.765 0.489287 2.28316 0
M  V30 3108 C 316.746 -0.463359 1.63667 0
M  V30 3109 O 317.931 -0.36274 1.90782 0
M  V30 3110 C 315.061 -0.235603 3.465 0
M  V30 3111 C 314.015 0.631593 4.23314 0
M  V30 3112 C 313.341 -0.223923 5.34231 0
M  V30 3113 C 314.641 1.90871 4.86174 0
M  V30 3114 H 316.335 1.34822 2.67326 0
M  V30 3115 H 313.881 0.649728 1.28509 0
M  V30 3116 H 315.834 -0.570882 4.17515 0
M  V30 3117 H 314.558 -1.12877 3.06474 0
M  V30 3118 H 313.217 0.949929 3.54079 0
M  V30 3119 H 312.865 -1.11678 4.90446 0
M  V30 3120 H 312.565 0.35299 5.86539 0
M  V30 3121 H 314.089 -0.554214 6.0808 0
M  V30 3122 H 315.503 1.63997 5.49343 0
M  V30 3123 H 313.9 2.43112 5.4865 0
M  V30 3124 H 314.97 2.61304 4.08471 0
M  V30 3125 N 316.313 -1.40141 0.720998 0
M  V30 3126 C 317.561 -2.0039 0.262323 0
M  V30 3127 C 317.882 -1.57469 -1.15015 0
M  V30 3128 O 317.152 -0.816582 -1.78069 0
M  V30 3129 H 315.732 -0.741063 0.093996 0
M  V30 3130 H 318.394 -1.71398 0.927835 0
M  V30 3131 H 317.49 -3.10658 0.299671 0
M  V30 3132 N 317.792 -0.46758 -1.50504 0
M  V30 3133 C 318.722 0.318381 -2.31319 0
M  V30 3134 C 319.703 0.993564 -1.38066 0
M  V30 3135 O 320.888 0.991411 -1.66987 0
M  V30 3136 C 318.018 1.40275 -3.17711 0
M  V30 3137 C 316.972 0.849373 -4.19487 0
M  V30 3138 C 316.298 2.03177 -4.94594 0
M  V30 3139 C 317.598 -0.136942 -5.2212 0
M  V30 3140 H 319.292 -0.356106 -2.97275 0
M  V30 3141 H 316.838 -0.172703 -1.42961 0
M  V30 3142 H 318.791 1.96004 -3.73042 0
M  V30 3143 H 317.515 2.10596 -2.49634 0
M  V30 3144 H 316.174 0.314076 -3.65252 0
M  V30 3145 H 315.822 2.72187 -4.22993 0
M  V30 3146 H 315.522 1.66774 -5.63436 0
M  V30 3147 H 317.046 2.59403 -5.52759 0
M  V30 3148 H 318.46 0.331056 -5.72343 0
M  V30 3149 H 316.857 -0.41507 -5.98663 0
M  V30 3150 H 317.927 -1.06398 -4.73083 0
M  V30 3151 N 319.27 1.56325 -0.20005 0
M  V30 3152 C 320.203 2.15234 0.758267 0
M  V30 3153 C 321.181 1.09046 1.20614 0
M  V30 3154 O 322.365 1.37186 1.29276 0
M  V30 3155 C 319.492 2.71524 2.02466 0
M  V30 3156 C 318.538 3.90345 1.71852 0
M  V30 3157 S 319.371 5.28513 0.862249 0
M  V30 3158 C 320.527 5.88227 2.13868 0
M  V30 3159 H 320.76 2.96183 0.2575 0
M  V30 3160 H 318.293 1.54393 0.0150099 0
M  V30 3161 H 320.251 3.04598 2.75191 0
M  V30 3162 H 318.912 1.90607 2.49655 0
M  V30 3163 H 318.105 4.28158 2.65888 0
M  V30 3164 H 317.707 3.58306 1.07205 0
M  V30 3165 H 319.999 6.02891 3.09076 0
M  V30 3166 H 320.942 6.84714 1.80479 0
M  V30 3167 H 321.35 5.16874 2.2694 0
M  V30 3168 N 320.748 -0.0735177 1.57428 0
M  V30 3169 C 321.711 -1.07192 2.02589 0
M  V30 3170 C 322.711 -1.31695 0.922661 0
M  V30 3171 O 323.901 -1.27445 1.18758 0
M  V30 3172 C 321.033 -2.41599 2.40506 0
M  V30 3173 H 322.226 -0.682727 2.92025 0
M  V30 3174 H 319.779 -0.319193 1.53006 0
M  V30 3175 H 320.514 -2.85354 1.5409 0
M  V30 3176 H 320.299 -2.25156 3.21009 0
M  V30 3177 H 321.789 -3.13367 2.76027 0
M  V30 3178 N 322.226 -1.5378 -0.344866 0
M  V30 3179 C 323.451 -1.75211 -1.10977 0
M  V30 3180 C 323.876 -0.48936 -1.81623 0
M  V30 3181 O 323.234 0.557925 -1.72502 0
M  V30 3182 C 323.282 -2.93147 -2.09993 0
M  V30 3183 O 322.386 -2.63203 -3.17487 0
M  V30 3184 H 321.727 -0.581241 -0.321021 0
M  V30 3185 H 324.257 -2.00738 -0.395661 0
M  V30 3186 H 324.267 -3.19898 -2.53237 0
M  V30 3187 H 322.942 -3.84731 -1.5797 0
M  V30 3188 H 321.519 -2.47336 -2.79069 0
M  V30 3189 N 323.704 0.605807 -1.45491 0
M  V30 3190 C 324.636 1.73031 -1.5031 0
M  V30 3191 C 325.649 1.57968 -0.393687 0
M  V30 3192 O 326.838 1.65817 -0.660839 0
M  V30 3193 C 323.938 3.11049 -1.34543 0
M  V30 3194 C 323.111 3.52334 -2.59189 0
M  V30 3195 C 322.17 4.69323 -2.37954 0
M  V30 3196 O 321.196 4.7635 -3.11575 0
M  V30 3197 N 322.398 5.62705 -1.4263 0
M  V30 3198 H 325.163 1.6936 -2.4726 0
M  V30 3199 H 322.724 0.79114 -1.41254 0
M  V30 3200 H 324.716 3.87071 -1.18144 0
M  V30 3201 H 323.286 3.09217 -0.458623 0
M  V30 3202 H 322.506 2.66256 -2.90691 0
M  V30 3203 H 323.794 3.76677 -3.42041 0
M  V30 3204 H 323.192 5.59744 -0.818758 0
M  V30 3205 H 321.749 6.38252 -1.32202 0
M  V30 3206 N 325.182 1.32811 0.848464 0
M  V30 3207 C 326.593 1.21315 1.41914 0
M  V30 3208 C 326.944 -0.171847 1.95446 0
M  V30 3209 O 326.069 -1.07093 1.88043 0
M  V30 3210 C 326.664 2.19631 2.57968 0
M  V30 3211 C 325.223 2.12003 3.11017 0
M  V30 3212 C 324.37 2.07651 1.83783 0
M  V30 3213 H 327.321 1.44549 0.655071 0
M  V30 3214 H 327.342 1.79845 3.35315 0
M  V30 3215 H 326.854 3.20423 2.18976 0
M  V30 3216 H 324.955 1.14481 3.54577 0
M  V30 3217 H 325.068 3.02111 3.71841 0
M  V30 3218 H 323.432 1.52983 2.03638 0
M  V30 3219 H 324.215 3.10235 1.47 0
M  V30 3220 N 326.66 -1.06551 1.16123 0
M  V30 3221 C 327.57 -2.17484 0.879662 0
M  V30 3222 C 328.586 -1.73377 -0.147104 0
M  V30 3223 O 329.762 -2.01379 0.0289128 0
M  V30 3224 C 326.827 -3.44591 0.381829 0
M  V30 3225 C 325.888 -4.0322 1.4735 0
M  V30 3226 C 325.121 -5.24261 0.999324 0
M  V30 3227 O 325.344 -5.70198 -0.151957 0
M  V30 3228 O 324.278 -5.74775 1.78653 0
M  V30 3229 H 328.104 -2.44075 1.80724 0
M  V30 3230 H 325.689 -1.16042 0.940992 0
M  V30 3231 H 327.571 -4.21254 0.111053 0
M  V30 3232 H 326.246 -3.19532 -0.51777 0
M  V30 3233 H 325.153 -3.2806 1.79798 0
M  V30 3234 H 326.486 -4.32568 2.34831 0
M  V30 3235 N 328.138 -0.959301 -1.25041 0
M  V30 3236 C 329.086 -0.474437 -2.2771 0
M  V30 3237 C 330.08 0.457697 -1.631 0
M  V30 3238 O 331.286 0.333912 -1.76876 0
M  V30 3239 H 327.661 -0.134936 -0.739795 0
M  V30 3240 H 329.632 -1.35251 -2.65988 0
M  V30 3241 C 328.381 0.227884 -3.46952 0
M  V30 3242 H 327.704 -0.480248 -3.96905 0
M  V30 3243 H 329.144 0.531091 -4.20661 0
M  V30 3244 C 327.603 1.452 -3.04004 0
M  V30 3245 O 328.133 2.54949 -3.10426 0
M  V30 3246 N 326.339 1.31502 -2.59144 0
M  V30 3247 H 325.886 0.422065 -2.54119 0
M  V30 3248 H 325.844 2.13521 -2.30773 0
M  V30 3249 N 329.616 1.39756 -0.72842 0
M  V30 3250 C 330.841 2.05472 -0.282159 0
M  V30 3251 C 331.266 1.54549 1.07221 0
M  V30 3252 O 330.624 0.686372 1.67805 0
M  V30 3253 C 330.672 3.59462 -0.286264 0
M  V30 3254 O 329.776 4.05918 0.728298 0
M  V30 3255 H 329.117 0.651226 -0.129618 0
M  V30 3256 H 331.647 1.78915 -0.992499 0
M  V30 3257 H 331.657 4.07798 -0.128373 0
M  V30 3258 H 330.332 3.95889 -1.27456 0
M  V30 3259 H 328.909 3.69012 0.537081 0
M  V30 3260 N 331.094 0.475555 1.50254 0
M  V30 3261 C 332.041 -0.316293 2.28622 0
M  V30 3262 C 333.011 -0.983227 1.33873 0
M  V30 3263 O 334.196 -0.994805 1.62814 0
M  V30 3264 C 331.336 -1.38975 3.1588 0
M  V30 3265 C 330.449 -0.737146 4.25664 0
M  V30 3266 C 329.584 -1.78887 5.00173 0
M  V30 3267 C 328.623 -1.11676 6.01826 0
M  V30 3268 N 327.76 -2.11154 6.69596 0
M  V30 3269 H 332.6 0.358297 2.95838 0
M  V30 3270 H 330.137 0.188541 1.45887 0
M  V30 3271 H 332.095 -2.02383 3.64825 0
M  V30 3272 H 330.725 -2.03344 2.50701 0
M  V30 3273 H 329.777 0.0096065 3.80399 0
M  V30 3274 H 331.089 -0.206816 4.98371 0
M  V30 3275 H 330.243 -2.49865 5.52859 0
M  V30 3276 H 328.982 -2.35302 4.27182 0
M  V30 3277 H 327.987 -0.392633 5.48396 0
M  V30 3278 H 329.212 -0.55945 6.76792 0
M  V30 3279 H 327.158 -2.66577 5.99394 0
M  V30 3280 H 327.075 -1.63118 7.38193 0
M  V30 3281 H 328.343 -2.81497 7.26897 0
M  V30 3282 N 332.573 -1.56217 0.208337 0
M  V30 3283 C 333.536 -2.18455 -0.693557 0
M  V30 3284 C 334.536 -1.14268 -1.13135 0
M  V30 3285 O 335.726 -1.39577 -1.0423 0
M  V30 3286 C 332.858 -2.79727 -1.94848 0
M  V30 3287 H 334.051 -2.99519 -0.15114 0
M  V30 3288 H 331.604 -1.56245 -0.041287 0
M  V30 3289 H 332.339 -2.02497 -2.53309 0
M  V30 3290 H 332.124 -3.56009 -1.64316 0
M  V30 3291 H 333.614 -3.27475 -2.59133 0
M  V30 3292 N 334.051 0.0651679 -1.57465 0
M  V30 3293 C 334.981 1.07693 -2.07182 0
M  V30 3294 C 335.962 1.39962 -0.966673 0
M  V30 3295 O 337.147 1.49475 -1.2398 0
M  V30 3296 C 334.277 2.3885 -2.52127 0
M  V30 3297 C 333.231 2.20917 -3.66579 0
M  V30 3298 C 332.557 3.57515 -3.97601 0
M  V30 3299 C 333.857 1.62493 -4.9638 0
M  V30 3300 H 335.551 0.663199 -2.91962 0
M  V30 3301 H 333.097 0.317569 -1.40455 0
M  V30 3302 H 335.05 3.09928 -2.85522 0
M  V30 3303 H 333.774 2.82215 -1.64384 0
M  V30 3304 H 332.433 1.52279 -3.33477 0
M  V30 3305 H 332.081 3.98463 -3.06979 0
M  V30 3306 H 331.781 3.46353 -4.74672 0
M  V30 3307 H 333.305 4.30013 -4.33499 0
M  V30 3308 H 334.719 2.23445 -5.27963 0
M  V30 3309 H 333.116 1.62009 -5.77818 0
M  V30 3310 H 334.186 0.587041 -4.81333 0
M  V30 3311 N 335.529 1.53961 0.336706 0
M  V30 3312 C 336.945 1.44378 0.680241 0
M  V30 3313 C 337.145 0.606034 1.9217 0
M  V30 3314 O 336.201 0.099688 2.52303 0
M  V30 3315 C 337.514 2.87945 0.8665 0
M  V30 3316 C 339.062 2.97763 0.964682 0
M  V30 3317 C 339.537 4.42453 1.18321 0
M  V30 3318 N 341.028 4.46008 1.25025 0
M  V30 3319 C 341.763 5.55102 1.43697 0
M  V30 3320 N 341.259 6.7419 1.59498 0
M  V30 3321 N 343.052 5.42727 1.463 0
M  V30 3322 H 335.203 2.06918 -0.479455 0
M  V30 3323 H 337.466 0.935634 -0.152619 0
M  V30 3324 H 337.172 3.51691 0.0256937 0
M  V30 3325 H 337.046 3.33293 1.76623 0
M  V30 3326 H 339.433 2.34153 1.796 0
M  V30 3327 H 339.514 2.55766 0.041708 0
M  V30 3328 H 339.158 5.06645 0.356788 0
M  V30 3329 H 339.088 4.82048 2.11985 0
M  V30 3330 H 341.579 3.60196 1.14312 0
M  V30 3331 H 341.892 7.53095 1.734 0
M  V30 3332 H 340.237 6.77123 1.56621 0
M  V30 3333 H 343.428 4.48647 1.33543 0
M  V30 3334 H 343.601 6.27806 1.6051 0
M  V30 3335 N 337.007 -0.598083 1.45811 0
M  V30 3336 C 338.423 -0.919847 1.30426 0
M  V30 3337 C 338.623 -1.99759 0.264303 0
M  V30 3338 O 337.679 -2.50221 -0.338472 0
M  V30 3339 C 338.992 -1.35176 2.68603 0
M  V30 3340 C 340.54 -1.46546 2.76574 0
M  V30 3341 C 341.015 -1.9311 4.15298 0
M  V30 3342 N 342.506 -2.00328 4.1764 0
M  V30 3343 C 343.241 -2.37599 5.21856 0
M  V30 3344 N 342.737 -2.73771 6.36413 0
M  V30 3345 N 344.53 -2.38021 5.09218 0
M  V30 3346 H 336.681 0.114111 2.12093 0
M  V30 3347 H 338.944 -0.0116121 0.947929 0
M  V30 3348 H 338.65 -0.633969 3.45939 0
M  V30 3349 H 338.524 -2.3164 2.97696 0
M  V30 3350 H 340.911 -2.17415 1.99537 0
M  V30 3351 H 340.992 -0.483727 2.51185 0
M  V30 3352 H 340.636 -1.22824 4.92825 0
M  V30 3353 H 340.566 -2.92213 4.38086 0
M  V30 3354 H 343.057 -1.74925 3.34977 0
M  V30 3355 H 343.37 -3.0112 7.11721 0
M  V30 3356 H 341.715 -2.71445 6.39799 0
M  V30 3357 H 344.906 -2.09174 4.18765 0
M  V30 3358 H 345.079 -2.66741 5.90554 0
M  V30 3359 N 338.485 -1.33259 -0.841409 0
M  V30 3360 C 339.415 -1.25926 -1.96634 0
M  V30 3361 C 340.396 -0.140349 -1.6952 0
M  V30 3362 O 341.581 -0.329707 -1.91381 0
M  V30 3363 C 338.711 -0.99512 -3.32738 0
M  V30 3364 C 337.665 -2.0767 -3.74242 0
M  V30 3365 C 336.991 -1.66474 -5.08125 0
M  V30 3366 C 338.291 -3.49318 -3.88297 0
M  V30 3367 H 339.985 -2.20046 -2.03027 0
M  V30 3368 H 337.531 -1.05931 -0.975425 0
M  V30 3369 H 339.484 -0.930323 -4.11002 0
M  V30 3370 H 338.208 -0.0183004 -3.26595 0
M  V30 3371 H 336.867 -2.13187 -2.98239 0
M  V30 3372 H 336.515 -0.675012 -4.9845 0
M  V30 3373 H 336.215 -2.3885 -5.36865 0
M  V30 3374 H 337.739 -1.61455 -5.88867 0
M  V30 3375 H 339.153 -3.46316 -4.56879 0
M  V30 3376 H 337.55 -4.20158 -4.28471 0
M  V30 3377 H 338.62 -3.8801 -2.9082 0
M  V30 3378 N 339.963 1.05934 -1.16686 0
M  V30 3379 C 340.893 2.1546 -0.899949 0
M  V30 3380 C 341.874 1.69391 0.155154 0
M  V30 3381 O 343.059 1.94199 0.00648693 0
M  V30 3382 C 340.189 3.44939 -0.404241 0
M  V30 3383 C 339.143 4.04536 -1.39767 0
M  V30 3384 C 338.469 5.29268 -0.760216 0
M  V30 3385 C 339.769 4.42893 -2.76845 0
M  V30 3386 H 341.463 2.38046 -1.81588 0
M  V30 3387 H 339.009 1.14404 -0.874514 0
M  V30 3388 H 340.962 4.20901 -0.204971 0
M  V30 3389 H 339.686 3.21983 0.547206 0
M  V30 3390 H 338.345 3.30635 -1.58355 0
M  V30 3391 H 337.993 5.02611 0.197831 0
M  V30 3392 H 337.693 5.70101 -1.42332 0
M  V30 3393 H 339.217 6.07924 -0.57105 0
M  V30 3394 H 340.631 5.09921 -2.62019 0
M  V30 3395 H 339.028 4.94721 -3.39663 0
M  V30 3396 H 340.098 3.53584 -3.31823 0
M  V30 3397 N 341.441 0.965919 1.2453 0
M  V30 3398 C 342.351 0.502154 2.29163 0
M  V30 3399 C 343.367 -0.436017 1.68448 0
M  V30 3400 O 344.543 -0.309497 1.99008 0
M  V30 3401 C 341.608 -0.201956 3.46111 0
M  V30 3402 C 340.669 0.775821 4.22232 0
M  V30 3403 C 339.902 0.105217 5.33596 0
M  V30 3404 O 340.125 -1.10683 5.59558 0
M  V30 3405 O 339.059 0.796475 5.96607 0
M  V30 3406 H 342.885 1.37194 2.70946 0
M  V30 3407 H 340.47 0.732875 1.30189 0
M  V30 3408 H 342.352 -0.597564 4.17142 0
M  V30 3409 H 341.027 -1.04673 3.06309 0
M  V30 3410 H 339.934 1.22185 3.53584 0
M  V30 3411 H 341.267 1.58896 4.65846 0
M  V30 3412 N 342.919 -1.39368 0.735821 0
M  V30 3413 C 344.147 -2.04795 0.294393 0
M  V30 3414 C 344.562 -1.55478 -1.07107 0
M  V30 3415 O 343.919 -0.720038 -1.67695 0
M  V30 3416 C 343.97 -3.6035 0.288071 0
M  V30 3417 O 343.691 -4.07852 1.59963 0
M  V30 3418 C 345.192 -4.42976 -0.169422 0
M  V30 3419 H 342.412 -0.658571 0.128551 0
M  V30 3420 H 344.956 -1.78399 0.999701 0
M  V30 3421 H 343.111 -3.85645 -0.368355 0
M  V30 3422 H 343.525 -5.02181 1.51375 0
M  V30 3423 H 344.999 -5.51864 -0.122687 0
M  V30 3424 H 345.476 -4.22068 -1.21472 0
M  V30 3425 H 346.082 -4.22832 0.457469 0
M  V30 3426 N 344.397 -0.483516 -1.5 0
M  V30 3427 C 345.622 0.0667119 -2.07293 0
M  V30 3428 C 346.047 1.3164 -1.3436 0
M  V30 3429 O 345.405 1.76945 -0.394987 0
M  V30 3430 C 345.453 0.321126 -3.59167 0
M  V30 3431 O 344.557 1.39927 -3.87936 0
M  V30 3432 H 343.898 -0.0184758 -0.663743 0
M  V30 3433 H 346.428 -0.678125 -1.93035 0
M  V30 3434 H 346.438 0.557906 -4.04168 0
M  V30 3435 H 345.113 -0.592007 -4.11665 0
M  V30 3436 H 343.69 1.14882 -3.54763 0
M  V30 3437 N 345.875 1.56104 -0.216619 0
M  V30 3438 C 346.825 2.16703 0.708798 0
M  V30 3439 C 347.809 1.11392 1.16106 0
M  V30 3440 O 349.001 1.37395 1.11587 0
M  V30 3441 C 346.13 2.84666 1.91886 0
M  V30 3442 C 345.216 3.97195 1.48651 0
M  V30 3443 N 345.607 4.99959 0.766434 0
M  V30 3444 C 343.905 4.09193 1.77418 0
M  V30 3445 C 344.606 5.79126 0.546659 0
M  V30 3446 N 343.582 5.32315 1.10188 0
M  V30 3447 H 347.384 2.93516 0.150162 0
M  V30 3448 H 344.898 1.6239 -0.0176768 0
M  V30 3449 H 346.895 3.26486 2.59253 0
M  V30 3450 H 345.555 2.09347 2.48202 0
M  V30 3451 H 346.566 5.16197 0.419634 0
M  V30 3452 H 343.243 3.45021 2.35088 0
M  V30 3453 H 344.633 6.71895 -0.026103 0
M  V30 3454 N 347.353 -0.0568162 1.57498 0
M  V30 3455 C 348.602 -0.752001 1.87157 0
M  V30 3456 C 348.915 -1.77978 0.811375 0
M  V30 3457 O 350.121 -2.52559 0.996293 0
M  V30 3458 C 348.577 -1.38844 3.3204 0
M  V30 3459 C 348.185 -0.398456 4.46225 0
M  V30 3460 C 349.929 -2.06512 3.70882 0
M  V30 3461 C 347.836 -1.04166 5.82154 0
M  V30 3462 H 346.766 -0.28461 0.698222 0
M  V30 3463 H 349.417 -0.00561272 1.83499 0
M  V30 3464 H 347.799 -2.1836 3.30356 0
M  V30 3465 H 348.973 0.367977 4.59328 0
M  V30 3466 H 347.288 0.174592 4.16034 0
M  V30 3467 H 349.885 -2.55437 4.6974 0
M  V30 3468 H 350.228 -2.87117 3.01445 0
M  V30 3469 H 350.761 -1.33808 3.7462 0
M  V30 3470 H 347.5 -0.275614 6.5492 0
M  V30 3471 H 347.02 -1.7786 5.72823 0
M  V30 3472 H 348.699 -1.55715 6.27982 0
M  V30 3473 N 348.832 -1.54138 -0.328536 0
M  V30 3474 C 350.243 -1.63395 -0.903272 0
M  V30 3475 C 350.594 -0.524828 -1.8905 0
M  V30 3476 O 349.719 0.343068 -2.13663 0
M  V30 3477 C 350.314 -2.9618 -1.64507 0
M  V30 3478 C 348.873 -3.0765 -2.1686 0
M  V30 3479 C 348.02 -2.58933 -0.992416 0
M  V30 3480 H 350.971 -1.58344 -0.106253 0
M  V30 3481 H 350.992 -2.86061 -2.50897 0
M  V30 3482 H 350.504 -3.76884 -0.926302 0
M  V30 3483 H 348.605 -2.31611 -2.91868 0
M  V30 3484 H 348.718 -4.1337 -2.42202 0
M  V30 3485 H 347.082 -2.14706 -1.37016 0
M  V30 3486 H 347.865 -3.42089 -0.288041 0
M  V30 3487 N 350.31 0.590341 -1.46126 0
M  V30 3488 C 351.556 1.35082 -1.51264 0
M  V30 3489 C 351.889 1.93534 -0.160711 0
M  V30 3490 O 351.164 1.76045 0.826956 0
M  V30 3491 C 351.447 2.48588 -2.6053 0
M  V30 3492 C 351.3 1.95221 -4.05227 0
M  V30 3493 C 352.619 3.50662 -2.6594 0
M  V30 3494 H 349.738 0.489803 -0.550692 0
M  V30 3495 H 352.38 0.663887 -1.78024 0
M  V30 3496 H 350.53 3.07186 -2.37843 0
M  V30 3497 H 352.202 1.41139 -4.39178 0
M  V30 3498 H 350.445 1.26101 -4.15068 0
M  V30 3499 H 351.116 2.77121 -4.77397 0
M  V30 3500 H 353.592 3.01934 -2.86313 0
M  V30 3501 H 352.468 4.27551 -3.44226 0
M  V30 3502 H 352.729 4.07399 -1.71694 0
M  V30 3503 N 351.788 1.33704 0.83433 0
M  V30 3504 C 353.016 1.28467 1.62185 0
M  V30 3505 C 353.431 -0.143526 1.88254 0
M  V30 3506 O 352.788 -1.08709 1.4659 0
M  V30 3507 C 352.839 2.06174 2.96942 0
M  V30 3508 O 352.56 3.43422 2.72016 0
M  V30 3509 C 354.061 2.08201 3.91366 0
M  V30 3510 H 351.281 0.4424 0.504503 0
M  V30 3511 H 353.825 1.76145 1.03891 0
M  V30 3512 H 351.98 1.62167 3.51825 0
M  V30 3513 H 352.394 3.83453 3.57861 0
M  V30 3514 H 353.868 2.67017 4.83121 0
M  V30 3515 H 354.345 1.07343 4.2588 0
M  V30 3516 H 354.951 2.52246 3.42421 0
M  V30 3517 N 353.266 -1.05314 1.17247 0
M  V30 3518 C 354.491 -1.82509 0.985148 0
M  V30 3519 C 354.916 -1.82343 -0.461788 0
M  V30 3520 O 354.274 -1.23151 -1.33055 0
M  V30 3521 C 354.322 -3.26566 1.52929 0
M  V30 3522 O 353.426 -4.05666 0.742225 0
M  V30 3523 H 352.767 -0.564347 0.349869 0
M  V30 3524 H 355.297 -1.32718 1.55715 0
M  V30 3525 H 355.307 -3.77369 1.55103 0
M  V30 3526 H 353.982 -3.26001 2.58256 0
M  V30 3527 H 352.559 -3.64397 0.791794 0
M  V30 3528 N 354.744 -0.972509 -1.24016 0
M  V30 3529 C 355.972 -0.654803 -1.96265 0
M  V30 3530 C 356.387 0.776708 -1.72083 0
M  V30 3531 O 355.744 1.52171 -1.00748 0
M  V30 3532 C 355.795 -0.92592 -3.49441 0
M  V30 3533 O 355.516 -2.30116 -3.72798 0
M  V30 3534 C 357.017 -0.623068 -4.38899 0
M  V30 3535 H 354.237 -0.243907 -0.6251 0
M  V30 3536 H 356.781 -1.30175 -1.57717 0
M  V30 3537 H 354.936 -0.325108 -3.86033 0
M  V30 3538 H 355.35 -2.38483 -4.67147 0
M  V30 3539 H 356.824 -0.863189 -5.45209 0
M  V30 3540 H 357.301 0.442754 -4.36963 0
M  V30 3541 H 357.907 -1.204 -4.07902 0
M  V30 3542 N 356.222 1.38976 -0.743202 0
M  V30 3543 C 357.452 2.04339 -0.304807 0
M  V30 3544 C 357.86 1.56162 1.06819 0
M  V30 3545 O 357.203 0.725284 1.68776 0
M  V30 3546 C 357.265 3.58716 -0.237369 0
M  V30 3547 C 356.929 4.29905 -1.55018 0
M  V30 3548 C 357.926 4.55987 -2.49744 0
M  V30 3549 C 355.611 4.68294 -1.81675 0
M  V30 3550 C 357.605 5.19478 -3.69353 0
M  V30 3551 C 355.292 5.31512 -3.0156 0
M  V30 3552 C 356.29 5.57037 -3.9522 0
M  V30 3553 O 355.978 6.18941 -5.12998 0
M  V30 3554 H 355.71 0.663439 -0.12971 0
M  V30 3555 H 358.264 1.78852 -1.01001 0
M  V30 3556 H 356.494 3.83133 0.524003 0
M  V30 3557 H 358.183 4.05543 0.170121 0
M  V30 3558 H 358.949 4.26767 -2.30423 0
M  V30 3559 H 354.828 4.47779 -1.09615 0
M  V30 3560 H 358.372 5.39318 -4.42473 0
M  V30 3561 H 354.269 5.60153 -3.20778 0
M  V30 3562 H 355.037 6.37433 -5.13441 0
M  V30 3563 N 357.7 0.491464 1.49741 0
M  V30 3564 C 358.632 -0.328609 2.26832 0
M  V30 3565 C 359.645 -0.939113 1.32983 0
M  V30 3566 O 360.834 -0.824067 1.58339 0
M  V30 3567 C 357.934 -1.47675 3.05033 0
M  V30 3568 C 357.107 -0.975305 4.26388 0
M  V30 3569 C 356.166 -1.99991 4.86714 0
M  V30 3570 O 355.192 -1.57229 5.47054 0
M  V30 3571 N 356.394 -3.32962 4.75517 0
M  V30 3572 H 359.159 0.332377 2.97851 0
M  V30 3573 H 356.72 0.323441 1.58636 0
M  V30 3574 H 358.712 -2.15954 3.42266 0
M  V30 3575 H 357.282 -2.04206 2.36683 0
M  V30 3576 H 356.502 -0.117723 3.94024 0
M  V30 3577 H 357.79 -0.618531 5.05026 0
M  V30 3578 H 357.188 -3.70399 4.27576 0
M  V30 3579 H 355.745 -3.96982 5.16961 0
M  V30 3580 N 359.178 -1.55987 0.224894 0
M  V30 3581 C 360.141 -2.19178 -0.670348 0
M  V30 3582 C 361.141 -1.15461 -1.11917 0
M  V30 3583 O 362.331 -1.40675 -1.02743 0
M  V30 3584 C 359.463 -2.81777 -1.9187 0
M  V30 3585 H 360.656 -2.99662 -0.119364 0
M  V30 3586 H 358.209 -1.5628 -0.0247128 0
M  V30 3587 H 358.944 -2.05172 -2.51147 0
M  V30 3588 H 358.729 -3.57732 -1.60531 0
M  V30 3589 H 360.219 -3.30205 -2.55645 0
M  V30 3590 N 360.656 0.0484629 -1.57525 0
M  V30 3591 C 361.619 1.03956 -2.04269 0
M  V30 3592 C 362.619 1.30211 -0.943496 0
M  V30 3593 O 363.809 1.25539 -1.20771 0
M  V30 3594 C 360.941 2.37742 -2.44319 0
M  V30 3595 H 362.134 0.636182 -2.93075 0
M  V30 3596 H 359.687 0.294811 -1.53494 0
M  V30 3597 H 360.422 2.82866 -1.5861 0
M  V30 3598 H 360.207 2.20021 -3.24551 0
M  V30 3599 H 361.697 3.08936 -2.80978 0
M  V30 3600 N 362.134 1.5431 0.320358 0
M  V30 3601 C 363.382 1.72327 1.05583 0
M  V30 3602 C 363.703 0.50149 1.88441 0
M  V30 3603 O 362.973 -0.48448 1.89815 0
M  V30 3604 H 361.553 0.635387 0.3928 0
M  V30 3605 H 364.215 1.91621 0.356019 0
M  V30 3606 H 363.311 2.60426 1.72003 0
M  V30 3607 N 363.613 -0.582584 1.46437 0
M  V30 3608 C 364.576 -1.67366 1.56592 0
M  V30 3609 C 365.576 -1.54575 0.443072 0
M  V30 3610 O 366.766 -1.59191 0.707381 0
M  V30 3611 C 363.898 -3.06791 1.48634 0
M  V30 3612 H 365.091 -1.5972 2.5383 0
M  V30 3613 H 362.644 -0.800432 1.34249 0
M  V30 3614 H 363.379 -3.19993 0.526763 0
M  V30 3615 H 363.164 -3.17484 2.30101 0
M  V30 3616 H 364.654 -3.86218 1.58826 0
M  V30 3617 N 365.091 -1.34144 -0.827227 0
M  V30 3618 C 366.337 -1.26446 -1.58554 0
M  V30 3619 C 366.67 0.1664 -1.93486 0
M  V30 3620 O 365.945 1.1107 -1.59667 0
M  V30 3621 C 366.228 -2.15111 -2.8879 0
M  V30 3622 C 366.081 -3.66712 -2.60465 0
M  V30 3623 C 367.4 -2.03311 -3.90324 0
M  V30 3624 H 364.519 -0.46067 -0.575284 0
M  V30 3625 H 367.161 -1.64356 -0.953269 0
M  V30 3626 H 365.311 -1.8291 -3.42748 0
M  V30 3627 H 366.983 -4.09259 -2.1285 0
M  V30 3628 H 365.226 -3.88014 -1.93978 0
M  V30 3629 H 365.897 -4.24112 -3.53317 0
M  V30 3630 H 368.373 -2.31574 -3.45706 0
M  V30 3631 H 367.249 -2.67582 -4.79261 0
M  V30 3632 H 367.51 -1.00879 -4.30437 0
M  V30 3633 N 366.569 1.04691 -1.17803 0
M  V30 3634 C 367.517 2.14665 -0.895635 0
M  V30 3635 C 368.511 1.68806 0.141679 0
M  V30 3636 O 369.717 1.79999 -0.00587914 0
M  V30 3637 H 366.092 0.701038 -0.272121 0
M  V30 3638 H 368.063 2.35685 -1.83017 0
M  V30 3639 C 366.812 3.45019 -0.430962 0
M  V30 3640 H 366.135 3.8071 -1.22064 0
M  V30 3641 H 367.575 4.23125 -0.272301 0
M  V30 3642 C 366.034 3.25943 0.852207 0
M  V30 3643 O 366.564 3.5296 1.91786 0
M  V30 3644 N 364.77 2.79304 0.802346 0
M  V30 3645 H 364.317 2.57518 -0.0650788 0
M  V30 3646 H 364.275 2.66921 1.66134 0
M  V30 3647 N 368.047 0.979072 1.23499 0
M  V30 3648 C 368.979 0.476271 2.24197 0
M  V30 3649 C 369.992 -0.421166 1.57258 0
M  V30 3650 O 371.181 -0.225515 1.7707 0
M  V30 3651 C 368.281 -0.330503 3.37285 0
M  V30 3652 C 367.454 0.559744 4.33804 0
M  V30 3653 C 366.513 -0.192954 5.25846 0
M  V30 3654 O 365.539 0.416978 5.67671 0
M  V30 3655 N 366.741 -1.47932 5.61334 0
M  V30 3656 H 369.506 1.34211 2.67969 0
M  V30 3657 H 367.067 0.852189 1.37657 0
M  V30 3658 H 369.059 -0.842361 3.95836 0
M  V30 3659 H 367.629 -1.09734 2.92707 0
M  V30 3660 H 366.849 1.25245 3.73775 0
M  V30 3661 H 368.137 1.1665 4.95248 0
M  V30 3662 H 367.535 -1.9964 5.29302 0
M  V30 3663 H 366.092 -1.93664 6.22364 0
M  V30 3664 N 369.525 -1.3858 0.750561 0
M  V30 3665 C 370.802 -1.94231 0.231009 0
M  V30 3666 C 371.182 -1.68611 -1.27018 0
M  V30 3667 O 370.53 -1.02296 -2.04323 0
M  V30 3668 C 370.74 -3.44123 0.581428 0
M  V30 3669 C 372.088 -4.2116 0.539389 0
M  V30 3670 O 373.112 -3.52391 0.519541 0
M  V30 3671 O 371.971 -5.43749 0.54765 0
M  V30 3672 H 369.065 -0.825639 0.0474263 0
M  V30 3673 H 371.611 -1.4799 0.830478 0
M  V30 3674 H 370.383 -3.56267 1.61833 0
M  V30 3675 H 370.006 -3.97573 -0.0462047 0
M  V30 3676 N 371.003 -0.499398 -1.49478 0
M  V30 3677 C 371.951 0.293604 -2.3074 0
M  V30 3678 C 372.945 0.96427 -1.39277 0
M  V30 3679 O 374.151 0.892141 -1.56336 0
M  V30 3680 H 370.526 0.113541 -0.743379 0
M  V30 3681 H 372.497 -0.411772 -2.95545 0
M  V30 3682 C 371.246 1.3462 -3.20582 0
M  V30 3683 H 370.569 0.83954 -3.90886 0
M  V30 3684 H 372.009 1.87308 -3.80384 0
M  V30 3685 C 370.468 2.36351 -2.40083 0
M  V30 3686 O 370.998 3.422 -2.10385 0
M  V30 3687 N 369.204 2.0878 -2.02137 0
M  V30 3688 H 368.751 1.22723 -2.26488 0
M  V30 3689 H 368.709 2.77075 -1.48583 0
M  V30 3690 N 372.481 1.55866 -0.233164 0
M  V30 3691 C 373.728 1.98603 0.395374 0
M  V30 3692 C 374.056 1.12105 1.58942 0
M  V30 3693 O 373.311 0.168656 1.94972 0
M  V30 3694 C 373.61 3.46856 0.861724 0
M  V30 3695 C 373.276 4.50348 -0.223066 0
M  V30 3696 C 371.938 4.78371 -0.521038 0
M  V30 3697 C 374.29 5.12355 -0.956124 0
M  V30 3698 C 371.618 5.6568 -1.55638 0
M  V30 3699 C 373.97 6.00786 -1.98089 0
M  V30 3700 C 372.634 6.27148 -2.28565 0
M  V30 3701 H 371.904 0.726739 0.144677 0
M  V30 3702 H 374.551 1.88491 -0.338114 0
M  V30 3703 H 372.856 3.5423 1.67418 0
M  V30 3704 H 374.553 3.77302 1.35809 0
M  V30 3705 H 371.143 4.28596 0.0193234 0
M  V30 3706 H 375.327 4.90765 -0.739166 0
M  V30 3707 H 370.583 5.84365 -1.798 0
M  V30 3708 H 374.757 6.4788 -2.55391 0
M  V30 3709 H 372.384 6.94597 -3.08932 0
M  V30 3710 N 373.959 -0.0401083 1.57549 0
M  V30 3711 C 375.184 -0.748931 1.93406 0
M  V30 3712 C 375.609 -1.68686 0.832274 0
M  V30 3713 O 374.967 -1.80047 -0.212818 0
M  V30 3714 C 375.015 -1.4916 3.28304 0
M  V30 3715 O 374.119 -2.6042 3.19774 0
M  V30 3716 H 373.46 -0.202212 0.63246 0
M  V30 3717 H 375.99 0.00112086 2.046 0
M  V30 3718 H 376 -1.86395 3.62934 0
M  V30 3719 H 374.675 -0.80364 4.08062 0
M  V30 3720 H 373.252 -2.25808 2.96758 0
M  V30 3721 N 375.437 -1.54477 -0.31217 0
M  V30 3722 C 376.853 -1.45442 -0.657185 0
M  V30 3723 C 377.053 -0.63653 -1.91182 0
M  V30 3724 O 376.109 -0.139815 -2.52113 0
M  V30 3725 C 377.422 -2.89287 -0.82058 0
M  V30 3726 C 378.97 -2.9926 -0.917188 0
M  V30 3727 C 379.445 -4.44279 -1.11267 0
M  V30 3728 N 380.936 -4.4794 -1.17914 0
M  V30 3729 C 381.671 -5.57318 -1.34848 0
M  V30 3730 N 381.167 -6.76642 -1.48752 0
M  V30 3731 N 382.96 -5.44986 -1.37647 0
M  V30 3732 H 375.111 -2.06129 0.512313 0
M  V30 3733 H 377.374 -0.933088 0.167485 0
M  V30 3734 H 377.08 -3.51687 0.0302604 0
M  V30 3735 H 376.954 -3.36061 -1.71298 0
M  V30 3736 H 379.341 -2.36981 -1.75852 0
M  V30 3737 H 379.422 -2.558 -0.00101257 0
M  V30 3738 H 379.066 -5.07149 -0.27614 0
M  V30 3739 H 378.996 -4.85359 -2.04289 0
M  V30 3740 H 381.487 -3.61969 -1.08567 0
M  V30 3741 H 381.8 -7.55758 -1.61397 0
M  V30 3742 H 380.145 -6.79529 -1.45828 0
M  V30 3743 H 383.336 -4.50715 -1.26388 0
M  V30 3744 H 383.509 -6.3028 -1.50501 0
M  V30 3745 N 376.915 0.57481 -1.46744 0
M  V30 3746 C 378.162 1.33272 -1.52462 0
M  V30 3747 C 378.49 1.93669 -0.179572 0
M  V30 3748 O 377.745 1.7743 0.825664 0
M  V30 3749 C 378.044 2.476 -2.57738 0
M  V30 3750 C 377.71 2.05146 -4.01529 0
M  V30 3751 C 376.372 1.93284 -4.40676 0
M  V30 3752 C 378.724 1.72506 -4.91824 0
M  V30 3753 C 376.052 1.47049 -5.67973 0
M  V30 3754 C 378.404 1.27748 -6.19567 0
M  V30 3755 C 377.068 1.14468 -6.57612 0
M  V30 3756 H 376.338 0.487678 -0.557899 0
M  V30 3757 H 378.985 0.646456 -1.80259 0
M  V30 3758 H 377.29 3.21708 -2.23632 0
M  V30 3759 H 378.987 3.05807 -2.5939 0
M  V30 3760 H 375.577 2.15316 -3.7059 0
M  V30 3761 H 379.761 1.80552 -4.62293 0
M  V30 3762 H 375.017 1.35417 -5.96215 0
M  V30 3763 H 379.191 1.01547 -6.88957 0
M  V30 3764 H 376.818 0.78419 -7.56145 0
M  V30 3765 N 378.394 1.34581 0.820102 0
M  V30 3766 C 379.357 1.2628 1.91275 0
M  V30 3767 C 380.357 0.177344 1.59819 0
M  V30 3768 O 381.547 0.430156 1.68806 0
M  V30 3769 C 378.679 0.950327 3.27386 0
M  V30 3770 H 379.872 2.23421 2.00057 0
M  V30 3771 H 377.425 1.1891 1.0144 0
M  V30 3772 H 378.16 -0.0177938 3.24295 0
M  V30 3773 H 377.945 1.73549 3.51601 0
M  V30 3774 H 379.435 0.917492 4.07396 0
M  V30 3775 N 379.872 -1.04064 1.18357 0
M  V30 3776 C 381.12 -1.76915 0.977013 0
M  V30 3777 C 381.441 -1.88624 -0.494577 0
M  V30 3778 O 380.711 -1.41125 -1.3587 0
M  V30 3779 H 379.291 -0.65535 0.358504 0
M  V30 3780 H 381.953 -1.25592 1.49039 0
M  V30 3781 H 381.049 -2.78178 1.41504 0
M  V30 3782 N 381.35 -0.985608 -1.22978 0
M  V30 3783 C 382.766 -0.695104 -1.43668 0
M  V30 3784 C 382.966 0.736866 -1.87543 0
M  V30 3785 O 382.022 1.50868 -2.02473 0
M  V30 3786 C 383.335 -1.69447 -2.48412 0
M  V30 3787 C 384.883 -1.70909 -2.62219 0
M  V30 3788 C 385.358 -2.6969 -3.70178 0
M  V30 3789 N 386.849 -2.6824 -3.77626 0
M  V30 3790 C 387.584 -3.41339 -4.60733 0
M  V30 3791 N 387.08 -4.24015 -5.4789 0
M  V30 3792 N 388.873 -3.30079 -4.54977 0
M  V30 3793 H 381.024 -1.91054 -0.928016 0
M  V30 3794 H 383.287 -0.823553 -0.469536 0
M  V30 3795 H 382.993 -2.7188 -2.23102 0
M  V30 3796 H 382.867 -1.48147 -3.46889 0
M  V30 3797 H 385.254 -0.691785 -2.86877 0
M  V30 3798 H 385.335 -1.96276 -1.6404 0
M  V30 3799 H 384.979 -3.71566 -3.46268 0
M  V30 3800 H 384.909 -2.41595 -4.67909 0
M  V30 3801 H 387.4 -2.08243 -3.15346 0
M  V30 3802 H 387.713 -4.76636 -6.08308 0
M  V30 3803 H 386.058 -4.28104 -5.47496 0
M  V30 3804 H 389.249 -2.64937 -3.85909 0
M  V30 3805 H 389.422 -3.87308 -5.19516 0
M  V30 3806 N 382.828 1.3818 -0.7579 0
M  V30 3807 C 384.074 2.00316 -0.316453 0
M  V30 3808 C 384.407 1.60026 1.10025 0
M  V30 3809 O 383.682 0.839835 1.75434 0
M  V30 3810 C 383.965 3.57349 -0.444245 0
M  V30 3811 C 383.818 4.07591 -1.90236 0
M  V30 3812 C 385.137 4.3981 0.1598 0
M  V30 3813 H 382.256 0.727741 -0.116459 0
M  V30 3814 H 384.898 1.6406 -0.958352 0
M  V30 3815 H 383.048 3.88365 0.102233 0
M  V30 3816 H 384.72 3.87199 -2.50748 0
M  V30 3817 H 382.963 3.60297 -2.41595 0
M  V30 3818 H 383.634 5.16677 -1.94291 0
M  V30 3819 H 386.11 4.14971 -0.306314 0
M  V30 3820 H 384.986 5.48885 0.0401675 0
M  V30 3821 H 385.247 4.24102 1.24859 0
M  V30 3822 N 384.306 0.507319 1.49211 0
M  V30 3823 C 385.554 -0.0348839 2.0207 0
M  V30 3824 C 385.875 -1.36898 1.38866 0
M  V30 3825 O 385.145 -1.88133 0.546151 0
M  V30 3826 H 383.725 -0.0158812 0.746831 0
M  V30 3827 H 386.387 0.665998 1.83168 0
M  V30 3828 H 385.483 -0.159917 3.1169 0
M  V30 3829 N 385.784 -1.5574 0.241426 0
M  V30 3830 C 386.714 -2.24133 -0.654722 0
M  V30 3831 C 387.695 -1.21974 -1.1856 0
M  V30 3832 O 388.88 -1.50612 -1.22595 0
M  V30 3833 C 386.01 -2.93659 -1.85423 0
M  V30 3834 C 384.964 -4.0246 -1.45636 0
M  V30 3835 C 384.29 -4.59383 -2.73626 0
M  V30 3836 C 385.59 -5.18468 -0.631506 0
M  V30 3837 H 387.284 -2.99281 -0.0844353 0
M  V30 3838 H 384.83 -1.43947 -0.0391707 0
M  V30 3839 H 386.783 -3.40203 -2.48676 0
M  V30 3840 H 385.507 -2.15991 -2.44981 0
M  V30 3841 H 384.166 -3.56676 -0.847202 0
M  V30 3842 H 383.814 -3.78422 -3.3137 0
M  V30 3843 H 383.514 -5.32826 -2.4773 0
M  V30 3844 H 385.038 -5.08658 -3.37786 0
M  V30 3845 H 386.452 -5.61272 -1.1682 0
M  V30 3846 H 384.849 -5.98266 -0.468831 0
M  V30 3847 H 385.919 -4.8358 0.357506 0
M  V30 3848 N 387.262 0.0317525 -1.57568 0
M  V30 3849 C 388.509 0.723104 -1.89149 0
M  V30 3850 C 388.837 1.75504 -0.838377 0
M  V30 3851 O 388.092 1.95037 0.160982 0
M  V30 3852 C 388.391 1.43167 -3.27472 0
M  V30 3853 C 388.057 0.535972 -4.47703 0
M  V30 3854 C 386.719 0.289262 -4.8033 0
M  V30 3855 C 389.071 -0.0826125 -5.21135 0
M  V30 3856 C 386.399 -0.584853 -5.83778 0
M  V30 3857 C 388.751 -0.944414 -6.25511 0
M  V30 3858 C 387.415 -1.20061 -6.56614 0
M  V30 3859 H 386.685 0.264602 -0.692146 0
M  V30 3860 H 389.332 -0.0169496 -1.91492 0
M  V30 3861 H 387.637 2.24497 -3.21105 0
M  V30 3862 H 389.334 1.97209 -3.49155 0
M  V30 3863 H 385.924 0.738414 -4.22191 0
M  V30 3864 H 390.108 0.0950302 -4.96209 0
M  V30 3865 H 385.364 -0.79168 -6.06253 0
M  V30 3866 H 389.538 -1.43026 -6.81554 0
M  V30 3867 H 387.165 -1.87967 -7.36595 0
M  V30 3868 N 388.74 1.54641 0.303973 0
M  V30 3869 C 389.688 1.86137 1.39484 0
M  V30 3870 C 390.682 0.734854 1.52631 0
M  V30 3871 O 391.888 0.918803 1.54784 0
M  V30 3872 H 388.263 0.590324 0.465856 0
M  V30 3873 H 390.234 2.77324 1.10154 0
M  V30 3874 C 388.983 2.12274 2.75382 0
M  V30 3875 H 388.306 2.98429 2.66046 0
M  V30 3876 H 389.746 2.38254 3.5073 0
M  V30 3877 C 388.205 0.920365 3.24085 0
M  V30 3878 O 388.735 0.139377 4.01458 0
M  V30 3879 N 386.941 0.726566 2.81371 0
M  V30 3880 H 386.488 1.36332 2.18567 0
M  V30 3881 H 386.446 -0.0763799 3.14307 0
M  V30 3882 N 390.218 -0.567019 1.47046 0
M  V30 3883 C 391.166 -1.69593 1.59188 0
M  V30 3884 C 392.16 -1.63046 0.459609 0
M  V30 3885 O 393.366 -1.6835 0.637058 0
M  V30 3886 H 389.741 -0.560993 0.500791 0
M  V30 3887 H 391.712 -1.56488 2.54075 0
M  V30 3888 C 390.461 -3.07964 1.61411 0
M  V30 3889 H 389.784 -3.13679 2.47881 0
M  V30 3890 H 391.224 -3.86671 1.73958 0
M  V30 3891 C 389.683 -3.35123 0.34559 0
M  V30 3892 O 390.213 -3.97812 -0.557521 0
M  V30 3893 N 388.419 -2.89699 0.22864 0
M  V30 3894 H 387.966 -2.38863 0.964479 0
M  V30 3895 H 387.924 -3.08242 -0.619192 0
M  V30 3896 N 391.696 -1.35014 -0.812953 0
M  V30 3897 C 392.628 -1.23262 -1.93233 0
M  V30 3898 C 393.641 -0.157371 -1.62038 0
M  V30 3899 O 394.83 -0.410096 -1.73725 0
M  V30 3900 C 391.93 -0.87392 -3.27438 0
M  V30 3901 C 391.103 -2.04622 -3.86586 0
M  V30 3902 C 390.162 -1.66432 -4.99186 0
M  V30 3903 O 389.188 -2.38222 -5.16951 0
M  V30 3904 N 390.39 -0.584248 -5.77552 0
M  V30 3905 H 393.155 -2.19699 -2.03844 0
M  V30 3906 H 390.716 -1.281 -0.99005 0
M  V30 3907 H 392.708 -0.600039 -4.00227 0
M  V30 3908 H 391.278 0.00057392 -3.126 0
M  V30 3909 H 390.498 -2.48427 -3.06068 0
M  V30 3910 H 391.786 -2.82999 -4.22835 0
M  V30 3911 H 391.184 0.0123526 -5.65699 0
M  V30 3912 H 389.741 -0.37013 -6.50748 0
M  V30 3913 N 393.175 1.03435 -1.18907 0
M  V30 3914 C 394.138 2.09756 -0.923844 0
M  V30 3915 C 395.138 1.60528 0.093416 0
M  V30 3916 O 396.328 1.73631 -0.140727 0
M  V30 3917 C 393.46 3.38692 -0.387354 0
M  V30 3918 H 394.653 2.34719 -1.86674 0
M  V30 3919 H 392.206 1.19959 -1.00197 0
M  V30 3920 H 392.941 3.19396 0.561845 0
M  V30 3921 H 392.726 3.75742 -1.12074 0
M  V30 3922 H 394.216 4.17016 -0.220694 0
M  V30 3923 N 394.653 0.992116 1.22453 0
M  V30 3924 C 395.901 0.666215 1.90804 0
M  V30 3925 C 396.222 -0.804152 1.77647 0
M  V30 3926 O 395.492 -1.57629 1.16318 0
M  V30 3927 H 394.072 0.243423 0.706225 0
M  V30 3928 H 396.734 1.25845 1.48825 0
M  V30 3929 H 395.83 0.928069 2.97982 0
M  V30 3930 N 396.131 -1.37776 0.765217 0
M  V30 3931 C 397.408 -1.93975 0.251596 0
M  V30 3932 C 397.788 -1.69949 -1.25222 0
M  V30 3933 O 397.136 -1.04457 -2.03226 0
M  V30 3934 C 397.346 -3.43487 0.617895 0
M  V30 3935 C 398.694 -4.20564 0.584029 0
M  V30 3936 O 399.718 -3.5182 0.556888 0
M  V30 3937 O 398.577 -5.43138 0.605291 0
M  V30 3938 H 395.671 -0.82509 0.0561806 0
M  V30 3939 H 398.217 -1.47101 0.846128 0
M  V30 3940 H 396.989 -3.5453 1.65602 0
M  V30 3941 H 396.612 -3.976 -0.00403411 0
M  V30 3942 N 397.609 -0.515225 -1.4894 0
M  V30 3943 C 399.025 -0.172099 -1.58669 0
M  V30 3944 C 399.225 1.32405 -1.51892 0
M  V30 3945 O 398.281 2.10116 -1.40027 0
M  V30 3946 C 399.594 -0.761533 -2.90897 0
M  V30 3947 C 401.142 -0.728926 -3.04394 0
M  V30 3948 C 401.617 -1.29667 -4.39261 0
M  V30 3949 N 403.108 -1.25799 -4.4579 0
M  V30 3950 C 403.843 -1.66733 -5.48623 0
M  V30 3951 N 403.339 -2.15327 -6.58488 0
M  V30 3952 N 405.132 -1.58061 -5.39419 0
M  V30 3953 H 397.283 -1.48778 -1.51588 0
M  V30 3954 H 399.546 -0.617968 -0.718901 0
M  V30 3955 H 399.252 -1.81136 -3.01468 0
M  V30 3956 H 399.126 -0.230106 -3.76497 0
M  V30 3957 H 401.513 0.312098 -2.93445 0
M  V30 3958 H 401.594 -1.29766 -2.20442 0
M  V30 3959 H 401.238 -2.33655 -4.50963 0
M  V30 3960 H 401.168 -0.703752 -5.21876 0
M  V30 3961 H 403.659 -0.902102 -3.66975 0
M  V30 3962 H 403.972 -2.44594 -7.33071 0
M  V30 3963 H 402.317 -2.19311 -6.59491 0
M  V30 3964 H 405.508 -1.19906 -4.52482 0
M  V30 3965 H 405.681 -1.90284 -6.19432 0
M  V30 3966 N 399.087 1.5561 -0.249682 0
M  V30 3967 C 400.017 2.24477 0.642826 0
M  V30 3968 C 400.998 1.22601 1.17911 0
M  V30 3969 O 402.183 1.5126 1.21795 0
M  V30 3970 C 399.313 2.94638 1.83863 0
M  V30 3971 C 398.267 4.03227 1.435 0
M  V30 3972 C 397.593 4.60828 2.71186 0
M  V30 3973 C 398.893 5.18796 0.604002 0
M  V30 3974 H 400.587 2.99321 0.0685625 0
M  V30 3975 H 398.133 1.43965 0.0315363 0
M  V30 3976 H 400.086 3.41517 2.46868 0
M  V30 3977 H 398.81 2.17287 2.43832 0
M  V30 3978 H 397.469 3.57121 0.828275 0
M  V30 3979 H 397.117 3.80174 3.29358 0
M  V30 3980 H 396.817 5.34132 2.44901 0
M  V30 3981 H 398.341 5.10442 3.35084 0
M  V30 3982 H 399.755 5.61883 1.13842 0
M  V30 3983 H 398.152 5.98506 0.437097 0
M  V30 3984 H 399.222 4.83384 -0.383147 0
M  V30 3985 N 400.565 -0.0233959 1.57583 0
M  V30 3986 C 401.495 -1.02162 2.09965 0
M  V30 3987 C 402.476 -1.3735 1.00344 0
M  V30 3988 O 403.661 -1.46135 1.27899 0
M  V30 3989 C 400.791 -2.32081 2.58371 0
M  V30 3990 C 399.745 -2.1112 3.72307 0
M  V30 3991 C 399.071 -3.46848 4.06941 0
M  V30 3992 C 400.371 -1.49276 5.00514 0
M  V30 3993 H 402.065 -0.585557 2.93618 0
M  V30 3994 H 399.611 -0.280218 1.41247 0
M  V30 3995 H 401.564 -3.02249 2.93639 0
M  V30 3996 H 400.288 -2.77758 1.71808 0
M  V30 3997 H 398.947 -1.43384 3.37397 0
M  V30 3998 H 398.595 -3.90184 3.17436 0
M  V30 3999 H 398.295 -3.33646 4.83688 0
M  V30 4000 H 399.819 -4.18369 4.44747 0
M  V30 4001 H 401.233 -2.09368 5.33702 0
M  V30 4002 H 399.63 -1.46632 5.8191 0
M  V30 4003 H 400.7 -0.459217 4.82721 0
M  V30 4004 N 402.043 -1.548 -0.295768 0
M  V30 4005 C 402.975 -1.82492 -1.3867 0
M  V30 4006 C 403.988 -0.708134 -1.46592 0
M  V30 4007 O 405.177 -0.985686 -1.48817 0
M  V30 4008 C 402.277 -1.95256 -2.76999 0
M  V30 4009 C 401.45 -3.25709 -2.91946 0
M  V30 4010 C 400.509 -3.28824 -4.10806 0
M  V30 4011 O 399.535 -4.02328 -4.02643 0
M  V30 4012 N 400.737 -2.5459 -5.21694 0
M  V30 4013 H 403.502 -2.76646 -1.15269 0
M  V30 4014 H 401.063 -1.54438 -0.485849 0
M  V30 4015 H 403.055 -1.94736 -3.54768 0
M  V30 4016 H 401.625 -1.08072 -2.93324 0
M  V30 4017 H 400.845 -3.38959 -2.01247 0
M  V30 4018 H 402.133 -4.11786 -2.98847 0
M  V30 4019 H 401.531 -1.94512 -5.31208 0
M  V30 4020 H 400.088 -2.59818 -5.97778 0
M  V30 4021 N 403.521 0.559213 -1.47345 0
M  V30 4022 C 404.451 1.67622 -1.62558 0
M  V30 4023 C 405.432 1.63331 -0.475087 0
M  V30 4024 O 406.617 1.80983 -0.704182 0
M  V30 4025 C 403.747 3.0626 -1.63774 0
M  V30 4026 C 402.701 3.25397 -2.7803 0
M  V30 4027 C 402.027 4.64801 -2.64318 0
M  V30 4028 C 403.327 3.10965 -4.19641 0
M  V30 4029 H 405.021 1.55146 -2.56067 0
M  V30 4030 H 402.567 0.744961 -1.23233 0
M  V30 4031 H 404.52 3.84247 -1.73008 0
M  V30 4032 H 403.244 3.1969 -0.66825 0
M  V30 4033 H 401.903 2.49817 -2.68304 0
M  V30 4034 H 401.551 4.75028 -1.65401 0
M  V30 4035 H 401.251 4.78555 -3.40968 0
M  V30 4036 H 402.775 5.44926 -2.75478 0
M  V30 4037 H 404.189 3.78772 -4.30354 0
M  V30 4038 H 402.586 3.36229 -4.97062 0
M  V30 4039 H 403.656 2.07736 -4.38148 0
M  V30 4040 N 404.999 1.35443 0.805782 0
M  V30 4041 C 405.962 1.28301 1.89925 0
M  V30 4042 C 406.962 0.194285 1.59622 0
M  V30 4043 O 408.152 0.448036 1.6834 0
M  V30 4044 C 405.284 0.984997 3.2636 0
M  V30 4045 H 406.477 2.2553 1.97677 0
M  V30 4046 H 404.03 1.19979 1.00173 0
M  V30 4047 H 404.765 0.016603 3.24296 0
M  V30 4048 H 404.55 1.77269 3.4974 0
M  V30 4049 H 406.04 0.960651 4.064 0
M  V30 4050 N 406.477 -1.02803 1.19454 0
M  V30 4051 C 407.754 -1.73299 0.907013 0
M  V30 4052 C 408.134 -2.02772 -0.587086 0
M  V30 4053 O 407.482 -1.68304 -1.54551 0
M  V30 4054 C 407.692 -3.00912 1.76785 0
M  V30 4055 C 409.04 -3.74403 2.00268 0
M  V30 4056 O 410.064 -3.10841 1.73943 0
M  V30 4057 O 408.923 -4.88675 2.4466 0
M  V30 4058 H 406.017 -0.754727 0.338106 0
M  V30 4059 H 408.563 -1.08754 1.30271 0
M  V30 4060 H 407.335 -2.75366 2.7801 0
M  V30 4061 H 406.958 -3.73197 1.37149 0
M  V30 4062 N 407.956 -0.998596 -1.21925 0
M  V30 4063 C 408.886 -0.573688 -2.26343 0
M  V30 4064 C 409.867 0.402296 -1.65274 0
M  V30 4065 O 411.052 0.291683 -1.91997 0
M  V30 4066 C 408.182 0.106839 -3.47136 0
M  V30 4067 C 407.136 -0.788269 -4.20678 0
M  V30 4068 C 406.462 0.0254927 -5.34694 0
M  V30 4069 C 407.762 -2.08784 -4.78755 0
M  V30 4070 H 409.456 -1.44651 -2.62138 0
M  V30 4071 H 407.002 -0.696975 -1.26009 0
M  V30 4072 H 408.955 0.415531 -4.19346 0
M  V30 4073 H 407.679 1.01424 -3.10452 0
M  V30 4074 H 406.338 -1.08069 -3.50309 0
M  V30 4075 H 405.986 0.933989 -4.94253 0
M  V30 4076 H 405.686 -0.570437 -5.84825 0
M  V30 4077 H 407.21 0.328147 -6.09718 0
M  V30 4078 H 408.624 -1.84272 -5.42878 0
M  V30 4079 H 407.021 -2.63307 -5.39249 0
M  V30 4080 H 408.091 -2.76284 -3.98491 0
M  V30 4081 N 409.434 1.37368 -0.772513 0
M  V30 4082 C 410.68 1.99969 -0.337681 0
M  V30 4083 C 411.013 1.61184 1.08321 0
M  V30 4084 O 410.288 0.858395 1.74533 0
M  V30 4085 C 410.571 3.56858 -0.482121 0
M  V30 4086 C 410.424 4.0555 -1.94549 0
M  V30 4087 C 411.743 4.39955 0.113143 0
M  V30 4088 H 408.862 0.726464 -0.124171 0
M  V30 4089 H 411.504 1.63034 -0.975699 0
M  V30 4090 H 409.654 3.88452 0.0610361 0
M  V30 4091 H 411.326 3.84518 -2.54841 0
M  V30 4092 H 409.569 3.57715 -2.45403 0
M  V30 4093 H 410.24 5.14587 -1.9976 0
M  V30 4094 H 412.716 4.14623 -0.35031 0
M  V30 4095 H 411.592 5.48897 -0.0180514 0
M  V30 4096 H 411.853 4.25403 1.20354 0
M  V30 4097 N 410.912 0.523116 1.48665 0
M  V30 4098 C 412.161 -0.01544 2.01694 0
M  V30 4099 C 412.474 -1.35975 1.40606 0
M  V30 4100 O 413.68 -1.98627 1.85093 0
M  V30 4101 C 412.136 -0.0779303 3.59816 0
M  V30 4102 C 411.744 1.26107 4.29885 0
M  V30 4103 C 413.488 -0.565678 4.20714 0
M  V30 4104 C 411.395 1.15954 5.79921 0
M  V30 4105 H 410.325 -0.00954163 0.75394 0
M  V30 4106 H 412.976 0.665865 1.70993 0
M  V30 4107 H 411.358 -0.824165 3.87329 0
M  V30 4108 H 412.532 2.02233 4.14051 0
M  V30 4109 H 410.847 1.68401 3.80828 0
M  V30 4110 H 413.444 -0.6595 5.30617 0
M  V30 4111 H 413.787 -1.56984 3.85567 0
M  V30 4112 H 414.32 0.12467 3.97605 0
M  V30 4113 H 411.059 2.13864 6.19631 0
M  V30 4114 H 410.579 0.439529 5.98187 0
M  V30 4115 H 412.258 0.847361 6.41427 0
M  V30 4116 N 412.39 -1.55475 0.257931 0
M  V30 4117 C 413.63 -2.01112 -0.365129 0
M  V30 4118 C 413.994 -1.1423 -1.54323 0
M  V30 4119 O 415.195 -1.49371 -2.23477 0
M  V30 4120 C 413.466 -3.49353 -0.754117 0
M  V30 4121 S 415.025 -4.16992 -1.36614 0
M  V30 4122 H 411.843 -0.701737 -0.114397 0
M  V30 4123 H 414.445 -1.91855 0.375747 0
M  V30 4124 H 413.149 -4.10246 0.112441 0
M  V30 4125 H 412.68 -3.6256 -1.52689 0
M  V30 4126 H 414.695 -4.19191 -2.65505 0
M  V30 4127 N 413.868 0.0150385 -1.57593 0
M  V30 4128 C 415.117 0.702115 -1.89085 0
M  V30 4129 C 415.43 1.75764 -0.858277 0
M  V30 4130 O 416.636 2.49829 -1.0629 0
M  V30 4131 C 415.092 1.29992 -3.35604 0
M  V30 4132 C 414.7 0.280007 -4.47124 0
M  V30 4133 C 416.444 1.96606 -3.76227 0
M  V30 4134 C 414.351 0.886949 -5.84711 0
M  V30 4135 H 413.281 0.265997 -0.705522 0
M  V30 4136 H 415.932 -0.0430408 -1.8345 0
M  V30 4137 H 414.314 2.09525 -3.36029 0
M  V30 4138 H 415.488 -0.489631 -4.58191 0
M  V30 4139 H 413.803 -0.284835 -4.15425 0
M  V30 4140 H 416.4 2.42893 -4.76347 0
M  V30 4141 H 416.743 2.79024 -3.08952 0
M  V30 4142 H 417.276 1.23828 -3.78036 0
M  V30 4143 H 414.015 0.101876 -6.55421 0
M  V30 4144 H 413.535 1.6261 -5.77337 0
M  V30 4145 H 415.214 1.39011 -6.3189 0
M  V30 4146 N 415.346 1.54954 0.287554 0
M  V30 4147 C 416.594 1.74528 1.01904 0
M  V30 4148 C 416.915 0.541349 1.87335 0
M  V30 4149 O 416.185 -0.444108 1.908 0
M  V30 4150 H 414.765 0.643576 0.379235 0
M  V30 4151 H 417.427 1.92333 0.315294 0
M  V30 4152 H 416.523 2.64015 1.6644 0
M  V30 4153 N 416.824 -0.551391 1.4764 0
M  V30 4154 C 418.054 -1.33163 1.57959 0
M  V30 4155 C 418.462 -1.87785 0.23094 0
M  V30 4156 O 417.805 -1.65996 -0.786825 0
M  V30 4157 C 417.867 -2.53449 2.54958 0
M  V30 4158 C 417.531 -2.20071 4.00522 0
M  V30 4159 C 418.528 -1.77017 4.88836 0
M  V30 4160 C 416.213 -2.31252 4.45901 0
M  V30 4161 C 418.207 -1.4558 6.20552 0
M  V30 4162 C 415.894 -1.99427 5.77644 0
M  V30 4163 C 416.892 -1.56659 6.64791 0
M  V30 4164 O 416.58 -1.25242 7.94084 0
M  V30 4165 H 416.312 -0.412022 0.535923 0
M  V30 4166 H 418.866 -0.674186 1.9402 0
M  V30 4167 H 417.096 -3.22104 2.13976 0
M  V30 4168 H 418.785 -3.15523 2.55343 0
M  V30 4169 H 419.551 -1.67867 4.55023 0
M  V30 4170 H 415.43 -2.63498 3.78272 0
M  V30 4171 H 418.974 -1.12125 6.8853 0
M  V30 4172 H 414.871 -2.08211 6.10998 0
M  V30 4173 H 415.639 -1.38822 8.06642 0
M  V30 4174 N 418.302 -1.35869 -0.798587 0
M  V30 4175 C 419.527 -1.32883 -1.59238 0
M  V30 4176 C 419.952 0.0894587 -1.87887 0
M  V30 4177 O 419.31 1.05869 -1.47178 0
M  V30 4178 C 419.358 -2.14892 -2.89575 0
M  V30 4179 O 418.462 -1.53512 -3.82763 0
M  V30 4180 H 417.803 -0.455236 -0.48338 0
M  V30 4181 H 420.333 -1.79024 -0.990539 0
M  V30 4182 H 420.343 -2.27139 -3.38928 0
M  V30 4183 H 419.018 -3.17998 -2.68049 0
M  V30 4184 H 417.595 -1.50153 -3.41334 0
M  V30 4185 N 419.78 1.02168 -1.19998 0
M  V30 4186 C 421.191 1.57135 -1.00825 0
M  V30 4187 C 421.542 1.91276 0.436818 0
M  V30 4188 O 420.667 1.71679 1.3174 0
M  V30 4189 C 421.262 2.85514 -1.82393 0
M  V30 4190 C 419.821 3.37027 -1.67601 0
M  V30 4191 C 418.968 2.10388 -1.80644 0
M  V30 4192 H 421.919 0.846106 -1.34264 0
M  V30 4193 H 421.94 3.56711 -1.32429 0
M  V30 4194 H 421.452 2.60634 -2.87561 0
M  V30 4195 H 419.553 3.66878 -0.650485 0
M  V30 4196 H 419.666 4.09572 -2.4857 0
M  V30 4197 H 418.03 2.22601 -1.23778 0
M  V30 4198 H 418.813 1.8794 -2.87286 0
M  V30 4199 N 421.258 1.00505 1.21394 0
M  V30 4200 C 422.504 0.688793 1.90745 0
M  V30 4201 C 422.837 -0.778486 1.77914 0
M  V30 4202 O 422.112 -1.56433 1.15581 0
M  V30 4203 C 422.395 1.11063 3.42545 0
M  V30 4204 C 422.248 2.63737 3.64367 0
M  V30 4205 C 423.567 0.673059 4.34923 0
M  V30 4206 H 420.686 0.251702 0.692687 0
M  V30 4207 H 423.328 1.25074 1.43026 0
M  V30 4208 H 421.478 0.632508 3.83317 0
M  V30 4209 H 423.15 3.19313 3.32922 0
M  V30 4210 H 421.393 3.05248 3.08231 0
M  V30 4211 H 422.064 2.88305 4.70727 0
M  V30 4212 H 424.54 1.08392 4.01734 0
M  V30 4213 H 423.416 0.996383 5.39781 0
M  V30 4214 H 423.677 -0.425808 4.40045 0
M  V30 4215 N 422.737 -1.36956 0.779787 0
M  V30 4216 C 423.647 -2.33965 0.172491 0
M  V30 4217 C 424.663 -1.60574 -0.670222 0
M  V30 4218 O 425.839 -1.92617 -0.588263 0
M  V30 4219 C 422.904 -3.39761 -0.690173 0
M  V30 4220 C 421.965 -4.28964 0.169924 0
M  V30 4221 C 421.198 -5.29707 -0.651662 0
M  V30 4222 O 421.421 -5.38238 -1.88827 0
M  V30 4223 O 420.355 -6.01873 -0.0566264 0
M  V30 4224 H 424.181 -2.87647 0.974321 0
M  V30 4225 H 421.766 -1.39258 0.541078 0
M  V30 4226 H 423.648 -4.04471 -1.1824 0
M  V30 4227 H 422.323 -2.88394 -1.47006 0
M  V30 4228 H 421.23 -3.67326 0.708696 0
M  V30 4229 H 422.563 -4.83656 0.913085 0
M  V30 4230 N 424.215 -0.530993 -1.48385 0
M  V30 4231 C 425.445 -0.00133928 -2.066 0
M  V30 4232 C 425.853 1.28599 -1.38777 0
M  V30 4233 O 425.196 1.77599 -0.469495 0
M  V30 4234 C 425.258 0.292137 -3.58311 0
M  V30 4235 C 424.922 -0.901864 -4.48013 0
M  V30 4236 C 425.919 -1.80053 -4.87726 0
M  V30 4237 C 423.604 -1.10915 -4.89901 0
M  V30 4238 C 425.598 -2.89038 -5.68098 0
M  V30 4239 C 423.285 -2.20213 -5.70043 0
M  V30 4240 C 424.283 -3.09107 -6.0905 0
M  V30 4241 O 423.971 -4.16514 -6.87583 0
M  V30 4242 H 423.703 -0.0308475 -0.675296 0
M  V30 4243 H 426.257 -0.736335 -1.91748 0
M  V30 4244 H 424.487 1.08112 -3.7128 0
M  V30 4245 H 426.176 0.763994 -3.98645 0
M  V30 4246 H 426.942 -1.65234 -4.55986 0
M  V30 4247 H 422.821 -0.426498 -4.59023 0
M  V30 4248 H 426.365 -3.58451 -5.98464 0
M  V30 4249 H 422.262 -2.35016 -6.01197 0
M  V30 4250 H 423.03 -4.14237 -7.05939 0
M  V30 4251 N 425.693 1.55336 -0.266172 0
M  V30 4252 C 426.603 2.2583 0.635458 0
M  V30 4253 C 427.619 1.28106 1.17749 0
M  V30 4254 O 428.795 1.61024 1.20968 0
M  V30 4255 C 425.86 2.95879 1.80712 0
M  V30 4256 C 424.921 4.09059 1.30265 0
M  V30 4257 C 424.154 4.75759 2.41846 0
M  V30 4258 O 424.377 4.41622 3.61007 0
M  V30 4259 O 423.311 5.63888 2.1051 0
M  V30 4260 H 427.137 3.03631 0.0646693 0
M  V30 4261 H 424.722 1.49361 -0.0339177 0
M  V30 4262 H 426.604 3.39932 2.49047 0
M  V30 4263 H 425.279 2.21002 2.36516 0
M  V30 4264 H 424.186 3.69482 0.586019 0
M  V30 4265 H 425.519 4.85811 0.790458 0
M  V30 4266 N 427.171 -0.0066808 1.57599 0
M  V30 4267 C 428.582 -0.550379 1.78403 0
M  V30 4268 C 428.933 -1.74339 0.900014 0
M  V30 4269 O 428.058 -2.16166 0.100713 0
M  V30 4270 C 428.653 -1.00523 3.23544 0
M  V30 4271 C 427.212 -1.49428 3.45468 0
M  V30 4272 C 426.359 -0.442444 2.73748 0
M  V30 4273 H 429.31 0.219508 1.57175 0
M  V30 4274 H 429.331 -1.87157 3.31289 0
M  V30 4275 H 428.843 -0.136735 3.87859 0
M  V30 4276 H 426.944 -2.3839 2.86358 0
M  V30 4277 H 427.057 -1.52635 4.54136 0
M  V30 4278 H 425.421 -0.902578 2.38171 0
M  V30 4279 H 426.204 0.416973 3.40758 0
M  V30 4280 N 428.649 -1.55105 -0.279332 0
M  V30 4281 C 429.612 -1.86783 -1.32834 0
M  V30 4282 C 430.612 -0.74199 -1.42657 0
M  V30 4283 O 431.802 -1.0102 -1.41918 0
M  V30 4284 C 428.934 -2.06746 -2.71052 0
M  V30 4285 H 430.127 -2.8055 -1.05979 0
M  V30 4286 H 427.68 -1.47499 -0.517087 0
M  V30 4287 H 428.415 -1.15339 -3.03097 0
M  V30 4288 H 428.2 -2.88711 -2.65309 0
M  V30 4289 H 429.69 -2.32549 -3.46858 0
M  V30 4290 N 430.127 0.543554 -1.4793 0
M  V30 4291 C 431.06 1.66556 -1.55995 0
M  V30 4292 C 432.038 1.57315 -0.411205 0
M  V30 4293 O 433.222 1.7798 -0.620922 0
M  V30 4294 C 430.349 3.04883 -1.47527 0
M  V30 4295 C 429.395 3.32526 -2.67074 0
M  V30 4296 S 430.228 3.20282 -4.29162 0
M  V30 4297 C 431.384 4.61079 -4.23269 0
M  V30 4298 H 431.617 1.59462 -2.50917 0
M  V30 4299 H 429.15 0.725456 -1.36296 0
M  V30 4300 H 431.108 3.84665 -1.43328 0
M  V30 4301 H 429.769 3.09429 -0.539665 0
M  V30 4302 H 428.962 4.33403 -2.5725 0
M  V30 4303 H 428.564 2.60389 -2.68466 0
M  V30 4304 H 430.856 5.52318 -3.92365 0
M  V30 4305 H 431.799 4.75959 -5.24279 0
M  V30 4306 H 432.207 4.39766 -3.5393 0
M  V30 4307 N 431.605 1.3629 0.791371 0
M  V30 4308 C 432.851 1.31613 1.5508 0
M  V30 4309 C 433.206 -0.104372 1.92117 0
M  V30 4310 O 432.499 -1.05845 1.5971 0
M  V30 4311 C 432.693 2.17068 2.8393 0
M  V30 4312 C 432.522 3.67285 2.59484 0
M  V30 4313 C 431.292 4.36469 2.54604 0
M  V30 4314 C 433.49 4.60595 2.28816 0
M  V30 4315 N 431.472 5.7234 2.22036 0
M  V30 4316 C 432.843 5.847 2.06218 0
M  V30 4317 C 434.898 4.4918 2.14806 0
M  V30 4318 C 433.601 6.98671 1.71028 0
M  V30 4319 C 435.627 5.63017 1.81014 0
M  V30 4320 C 434.989 6.86159 1.59263 0
M  V30 4321 H 431.088 0.536878 0.568582 0
M  V30 4322 H 433.672 1.71323 0.925007 0
M  V30 4323 H 431.843 1.79605 3.44378 0
M  V30 4324 H 433.575 2.03795 3.49642 0
M  V30 4325 H 430.33 3.89249 2.69782 0
M  V30 4326 H 430.754 6.44093 2.08503 0
M  V30 4327 H 435.396 3.54564 2.30313 0
M  V30 4328 H 433.114 7.9324 1.54259 0
M  V30 4329 H 436.7 5.56146 1.70861 0
M  V30 4330 H 435.58 7.72753 1.335 0
M  V30 4331 N 433.083 -1.0153 1.20538 0
M  V30 4332 C 434.031 -2.12215 0.952235 0
M  V30 4333 C 435.025 -1.69123 -0.0968735 0
M  V30 4334 O 436.231 -1.7992 0.0536006 0
M  V30 4335 H 432.606 -0.693576 0.290613 0
M  V30 4336 H 434.577 -2.3075 1.89201 0
M  V30 4337 C 433.326 -3.43755 0.522287 0
M  V30 4338 H 432.649 -3.7734 1.32115 0
M  V30 4339 H 434.089 -4.22254 0.384389 0
M  V30 4340 C 432.548 -3.28088 -0.765489 0
M  V30 4341 O 433.078 -3.57921 -1.8236 0
M  V30 4342 N 431.284 -2.81333 -0.728011 0
M  V30 4343 H 430.831 -2.57255 0.133332 0
M  V30 4344 H 430.789 -2.71232 -1.58999 0
M  V30 4345 N 434.561 -1.01147 -1.20859 0
M  V30 4346 C 435.786 -0.716698 -1.94623 0
M  V30 4347 C 436.211 0.715415 -1.73964 0
M  V30 4348 O 435.569 1.49157 -1.03062 0
M  V30 4349 C 435.617 -1.0513 -3.44935 0
M  V30 4350 O 434.721 -0.160131 -4.12089 0
M  V30 4351 H 434.062 -0.266404 -0.608214 0
M  V30 4352 H 436.592 -1.35346 -1.53436 0
M  V30 4353 H 436.602 -1.00086 -3.95533 0
M  V30 4354 H 435.277 -2.09475 -3.59295 0
M  V30 4355 H 433.854 -0.267657 -3.71938 0
M  V30 4356 N 436.039 1.36541 -0.78704 0
M  V30 4357 C 437.287 1.98911 -0.357633 0
M  V30 4358 C 437.608 1.62778 1.07371 0
M  V30 4359 O 436.878 0.900612 1.73971 0
M  V30 4360 H 435.458 0.735734 -0.129246 0
M  V30 4361 H 438.12 1.66776 -1.00855 0
M  V30 4362 H 437.216 3.08874 -0.447549 0
M  V30 4363 N 437.518 0.538854 1.48102 0
M  V30 4364 C 438.466 -0.232325 2.31437 0
M  V30 4365 C 439.46 -0.927004 1.41785 0
M  V30 4366 O 440.666 -0.850378 1.58646 0
M  V30 4367 H 437.041 -0.0937916 0.746128 0
M  V30 4368 H 439.012 0.489986 2.9435 0
M  V30 4369 C 437.761 -1.26074 3.24038 0
M  V30 4370 H 437.084 -0.735609 3.92974 0
M  V30 4371 H 438.524 -1.77157 3.85216 0
M  V30 4372 C 436.983 -2.29902 2.46265 0
M  V30 4373 O 437.513 -3.36502 2.19384 0
M  V30 4374 N 435.719 -2.03348 2.07601 0
M  V30 4375 H 435.266 -1.16675 2.29662 0
M  V30 4376 H 435.224 -2.73038 1.55877 0
M  V30 4377 N 438.996 -1.55193 0.274407 0
M  V30 4378 C 439.959 -2.212 -0.600279 0
M  V30 4379 C 440.959 -1.18963 -1.08187 0
M  V30 4380 O 442.149 -1.43873 -0.982158 0
M  V30 4381 C 439.281 -2.87739 -1.82809 0
M  V30 4382 H 440.474 -2.9989 -0.0239682 0
M  V30 4383 H 438.027 -1.5628 0.0250192 0
M  V30 4384 H 438.762 -2.13058 -2.44493 0
M  V30 4385 H 438.547 -3.62658 -1.49069 0
M  V30 4386 H 440.037 -3.38171 -2.45011 0
M  V30 4387 N 440.474 -0.00167713 -1.576 0
M  V30 4388 C 441.702 0.693759 -1.94922 0
M  V30 4389 C 442.117 1.67215 -0.876626 0
M  V30 4390 O 441.474 1.81929 0.144279 0
M  V30 4391 C 441.525 1.42416 -3.32265 0
M  V30 4392 O 441.246 0.485014 -4.35407 0
M  V30 4393 C 442.747 2.21395 -3.84056 0
M  V30 4394 H 439.967 0.193118 -0.642609 0
M  V30 4395 H 442.511 -0.0532952 -2.04431 0
M  V30 4396 H 440.666 2.12284 -3.24059 0
M  V30 4397 H 441.08 1.00053 -5.14868 0
M  V30 4398 H 442.554 2.67996 -4.82578 0
M  V30 4399 H 443.031 3.04142 -3.16851 0
M  V30 4400 H 443.637 1.56542 -3.95443 0
M  V30 4401 N 441.952 1.55251 0.271103 0
M  V30 4402 C 442.882 1.9127 1.33933 0
M  V30 4403 C 443.863 0.77478 1.5143 0
M  V30 4404 O 445.048 1.03307 1.64442 0
M  V30 4405 C 442.178 2.18627 2.69851 0
M  V30 4406 C 441.132 3.34442 2.67081 0
M  V30 4407 C 440.458 3.47284 4.06569 0
M  V30 4408 C 441.758 4.70784 2.26185 0
M  V30 4409 H 443.452 2.80744 1.04035 0
M  V30 4410 H 440.998 1.35077 0.499017 0
M  V30 4411 H 442.951 2.42413 3.44694 0
M  V30 4412 H 441.675 1.25955 3.01335 0
M  V30 4413 H 440.334 3.10627 1.94695 0
M  V30 4414 H 439.982 2.52074 4.35279 0
M  V30 4415 H 439.682 4.25152 4.0561 0
M  V30 4416 H 441.206 3.73363 4.83148 0
M  V30 4417 H 442.62 4.94102 2.90751 0
M  V30 4418 H 441.017 5.51582 2.36384 0
M  V30 4419 H 442.087 4.69478 1.21319 0
M  V30 4420 N 443.43 -0.535701 1.48216 0
M  V30 4421 C 444.676 -1.29375 1.56173 0
M  V30 4422 C 445.009 -1.92804 0.232429 0
M  V30 4423 O 444.284 -1.78992 -0.761048 0
M  V30 4424 C 444.567 -2.38747 2.69577 0
M  V30 4425 C 444.42 -1.80046 4.12193 0
M  V30 4426 C 445.739 -3.40551 2.78771 0
M  V30 4427 H 442.858 -0.469027 0.568491 0
M  V30 4428 H 445.5 -0.597358 1.80365 0
M  V30 4429 H 443.65 -2.98147 2.4908 0
M  V30 4430 H 445.322 -1.24742 4.44114 0
M  V30 4431 H 443.565 -1.10609 4.19462 0
M  V30 4432 H 444.236 -2.59212 4.87353 0
M  V30 4433 H 446.712 -2.91099 2.97322 0
M  V30 4434 H 445.588 -4.1448 3.59857 0
M  V30 4435 H 445.849 -4.00746 1.86696 0
M  V30 4436 N 444.908 -1.36708 -0.784132 0
M  V30 4437 C 445.858 -1.2799 -1.88686 0
M  V30 4438 C 446.842 -0.170282 -1.59996 0
M  V30 4439 O 448.034 -0.403571 -1.72338 0
M  V30 4440 C 445.163 -1.07674 -3.25977 0
M  V30 4441 C 444.249 -2.23127 -3.60659 0
M  V30 4442 N 444.64 -3.48467 -3.66612 0
M  V30 4443 C 442.938 -2.15009 -3.90752 0
M  V30 4444 C 443.639 -4.24525 -3.97685 0
M  V30 4445 N 442.615 -3.53524 -4.12943 0
M  V30 4446 H 446.417 -2.22927 -1.91522 0
M  V30 4447 H 443.931 -1.29503 -0.979933 0
M  V30 4448 H 445.928 -0.995151 -4.04849 0
M  V30 4449 H 444.588 -0.13643 -3.24413 0
M  V30 4450 H 445.599 -3.82534 -3.49125 0
M  V30 4451 H 442.276 -1.28963 -3.97083 0
M  V30 4452 H 443.666 -5.32944 -4.0917 0
M  V30 4453 N 446.386 1.0089 -1.21074 0
M  V30 4454 C 447.635 1.74019 -1.01981 0
M  V30 4455 C 447.948 1.90408 0.447665 0
M  V30 4456 O 449.154 2.60707 0.757906 0
M  V30 4457 C 447.61 3.13026 -1.77603 0
M  V30 4458 C 447.218 3.04623 -3.28495 0
M  V30 4459 C 448.962 3.90312 -1.66904 0
M  V30 4460 C 446.869 4.38685 -3.96623 0
M  V30 4461 H 445.799 0.652422 -0.377971 0
M  V30 4462 H 448.45 1.12755 -1.44771 0
M  V30 4463 H 446.832 3.74878 -1.27604 0
M  V30 4464 H 448.006 2.52032 -3.85767 0
M  V30 4465 H 446.321 2.40827 -3.39693 0
M  V30 4466 H 448.918 4.8951 -2.15138 0
M  V30 4467 H 449.261 4.11558 -0.62658 0
M  V30 4468 H 449.794 3.35104 -2.14359 0
M  V30 4469 H 446.533 4.22641 -5.01054 0
M  V30 4470 H 446.053 4.91252 -3.4414 0
M  V30 4471 H 447.732 5.075 -4.01314 0
M  V30 4472 N 447.864 1.01787 1.20321 0
M  V30 4473 C 449.141 0.622978 1.85414 0
M  V30 4474 C 449.521 -0.898887 1.91006 0
M  V30 4475 O 448.869 -1.79112 1.41884 0
M  V30 4476 C 449.079 1.27226 3.24984 0
M  V30 4477 C 450.427 1.3885 4.01255 0
M  V30 4478 O 451.451 1.22857 3.34342 0
M  V30 4479 O 450.31 1.64705 5.2109 0
M  V30 4480 H 447.404 0.215116 0.798533 0
M  V30 4481 H 449.95 1.11533 1.27901 0
M  V30 4482 H 448.722 2.31209 3.15687 0
M  V30 4483 H 448.345 0.767069 3.90131 0
M  V30 4484 N 449.342 -1.36122 0.79427 0
M  V30 4485 C 450.588 -1.99406 0.369452 0
M  V30 4486 C 450.921 -1.62886 -1.05743 0
M  V30 4487 O 450.196 -0.886053 -1.73145 0
M  V30 4488 C 450.479 -3.56046 0.538833 0
M  V30 4489 C 450.332 -4.02404 2.00976 0
M  V30 4490 C 451.651 -4.40079 -0.0431359 0
M  V30 4491 H 448.77 -0.724397 0.135712 0
M  V30 4492 H 451.412 -1.61461 1.00151 0
M  V30 4493 H 449.562 -3.885 0.000771004 0
M  V30 4494 H 451.234 -3.80415 2.60926 0
M  V30 4495 H 449.477 -3.53765 2.51063 0
M  V30 4496 H 450.148 -5.11344 2.07922 0
M  V30 4497 H 452.624 -4.14013 0.416228 0
M  V30 4498 H 451.5 -5.48799 0.105374 0
M  V30 4499 H 451.761 -4.27264 -1.13571 0
M  V30 4500 N 450.82 -0.546701 -1.47814 0
M  V30 4501 C 451.75 0.195317 -2.32682 0
M  V30 4502 C 452.731 0.918981 -1.43139 0
M  V30 4503 O 453.916 0.901501 -1.72008 0
M  V30 4504 C 451.046 1.23237 -3.247 0
M  V30 4505 C 450 0.625818 -4.234 0
M  V30 4506 C 449.326 1.76674 -5.04669 0
M  V30 4507 C 450.626 -0.413515 -5.2066 0
M  V30 4508 H 452.32 -0.513184 -2.94969 0
M  V30 4509 H 449.866 -0.248241 -1.41844 0
M  V30 4510 H 451.819 1.75955 -3.82907 0
M  V30 4511 H 450.543 1.97067 -2.60446 0
M  V30 4512 H 449.202 0.120023 -3.66403 0
M  V30 4513 H 448.85 2.49383 -4.36826 0
M  V30 4514 H 448.55 1.36673 -5.71484 0
M  V30 4515 H 450.074 2.29738 -5.65732 0
M  V30 4516 H 451.488 0.0272042 -5.73294 0
M  V30 4517 H 449.885 -0.731825 -5.95621 0
M  V30 4518 H 450.955 -1.31325 -4.66778 0
M  V30 4519 N 452.299 1.55045 -0.282633 0
M  V30 4520 C 453.71 1.85473 0.213655 0
M  V30 4521 C 454.061 1.20465 1.54863 0
M  V30 4522 O 453.186 0.495676 2.10647 0
M  V30 4523 C 453.781 3.36496 0.394445 0
M  V30 4524 C 452.34 3.67022 0.834961 0
M  V30 4525 C 451.487 2.77218 -0.0674081 0
M  V30 4526 H 454.438 1.50478 -0.504202 0
M  V30 4527 H 454.459 3.60007 1.23186 0
M  V30 4528 H 453.971 3.83782 -0.577326 0
M  V30 4529 H 452.072 3.25241 1.81794 0
M  V30 4530 H 452.185 4.74433 0.667075 0
M  V30 4531 H 450.549 2.5069 0.450196 0
M  V30 4532 H 451.332 3.2732 -1.0352 0
M  V30 4533 N 453.777 0.010035 1.57597 0
M  V30 4534 C 454.74 -0.963029 2.07986 0
M  V30 4535 C 455.74 -1.26619 0.991173 0
M  V30 4536 O 456.93 -1.2097 1.25347 0
M  V30 4537 C 454.062 -2.2851 2.52974 0
M  V30 4538 H 455.255 -0.526971 2.95234 0
M  V30 4539 H 452.808 -0.237639 1.54483 0
M  V30 4540 H 453.543 -2.76784 1.69 0
M  V30 4541 H 453.328 -2.07824 3.32493 0
M  V30 4542 H 454.818 -2.98294 2.9225 0
M  V30 4543 N 455.255 -1.55392 -0.262866 0
M  V30 4544 C 456.485 -1.80251 -1.00961 0
M  V30 4545 C 456.893 -0.58117 -1.80053 0
M  V30 4546 O 456.236 0.459427 -1.77862 0
M  V30 4547 C 456.298 -2.98207 -2.00781 0
M  V30 4548 C 455.962 -4.34856 -1.40533 0
M  V30 4549 C 456.959 -5.13459 -0.815853 0
M  V30 4550 C 454.644 -4.8153 -1.42948 0
M  V30 4551 C 456.638 -6.36875 -0.258562 0
M  V30 4552 C 454.325 -6.04899 -0.868334 0
M  V30 4553 C 455.323 -6.8241 -0.283884 0
M  V30 4554 O 455.011 -8.03451 0.268644 0
M  V30 4555 H 454.743 -0.604049 -0.303482 0
M  V30 4556 H 457.297 -2.03257 -0.295926 0
M  V30 4557 H 455.527 -2.70917 -2.75936 0
M  V30 4558 H 457.216 -3.10299 -2.61667 0
M  V30 4559 H 457.982 -4.78526 -0.789812 0
M  V30 4560 H 453.861 -4.21201 -1.87378 0
M  V30 4561 H 457.405 -6.97318 0.198257 0
M  V30 4562 H 453.302 -6.39312 -0.891649 0
M  V30 4563 H 454.07 -8.18346 0.158974 0
M  V30 4564 N 456.733 0.527833 -1.48498 0
M  V30 4565 C 457.643 1.65907 -1.65867 0
M  V30 4566 C 458.659 1.6537 -0.541192 0
M  V30 4567 O 459.835 1.84282 -0.812534 0
M  V30 4568 C 456.9 3.02364 -1.69637 0
M  V30 4569 C 455.961 3.1374 -2.93028 0
M  V30 4570 C 455.194 4.43688 -2.96609 0
M  V30 4571 O 455.417 5.30913 -2.08538 0
M  V30 4572 O 454.351 4.59475 -3.88802 0
M  V30 4573 H 458.177 1.5419 -2.61647 0
M  V30 4574 H 455.762 0.701163 -1.31924 0
M  V30 4575 H 457.644 3.83515 -1.74625 0
M  V30 4576 H 456.319 3.14401 -0.770312 0
M  V30 4577 H 455.226 2.31877 -2.93571 0
M  V30 4578 H 456.559 3.06621 -3.85026 0
M  V30 4579 N 458.211 1.37122 0.776871 0
M  V30 4580 C 459.121 1.34651 1.9211 0
M  V30 4581 C 460.137 0.246824 1.7224 0
M  V30 4582 O 461.313 0.48134 1.95563 0
M  V30 4583 C 458.378 1.14748 3.2716 0
M  V30 4584 C 457.439 2.34308 3.5972 0
M  V30 4585 C 456.672 2.15345 4.88326 0
M  V30 4586 O 456.895 1.13507 5.58992 0
M  V30 4587 O 455.829 3.03414 5.1983 0
M  V30 4588 H 459.655 2.31013 1.97146 0
M  V30 4589 H 457.24 1.17799 0.918901 0
M  V30 4590 H 459.122 1.05616 4.0795 0
M  V30 4591 H 457.797 0.214562 3.22988 0
M  V30 4592 H 456.704 2.49011 2.79185 0
M  V30 4593 H 458.037 3.26149 3.68629 0
M  V30 4594 N 459.689 -1.00246 1.21608 0
M  V30 4595 C 461.105 -1.26435 0.973975 0
M  V30 4596 C 461.305 -1.98642 -0.338143 0
M  V30 4597 O 460.361 -2.29026 -1.06317 0
M  V30 4598 C 461.674 -2.08551 2.16626 0
M  V30 4599 C 463.222 -2.21769 2.20879 0
M  V30 4600 C 463.697 -3.07267 3.39633 0
M  V30 4601 N 465.188 -3.14855 3.39736 0
M  V30 4602 C 465.923 -3.81274 4.28273 0
M  V30 4603 N 465.419 -4.497 5.27012 0
M  V30 4604 N 467.212 -3.7794 4.16074 0
M  V30 4605 H 459.363 -0.518089 2.05984 0
M  V30 4606 H 461.626 -0.291368 0.902113 0
M  V30 4607 H 461.332 -1.62847 3.11727 0
M  V30 4608 H 461.206 -3.09303 2.15897 0
M  V30 4609 H 463.593 -2.66691 1.26332 0
M  V30 4610 H 463.674 -1.20478 2.25652 0
M  V30 4611 H 463.318 -2.63047 4.34475 0
M  V30 4612 H 463.248 -4.08678 3.321 0
M  V30 4613 H 465.739 -2.66147 2.6828 0
M  V30 4614 H 466.052 -4.98092 5.90867 0
M  V30 4615 H 464.397 -4.48479 5.30935 0
M  V30 4616 H 467.588 -3.23638 3.38195 0
M  V30 4617 H 467.761 -4.29424 4.85282 0
M  V30 4618 N 461.167 -1.02423 -1.1978 0
M  V30 4619 C 462.115 -0.594474 -2.24875 0
M  V30 4620 C 463.109 0.370598 -1.65296 0
M  V30 4621 O 464.315 0.239684 -1.78397 0
M  V30 4622 H 460.69 -0.173961 -0.731602 0
M  V30 4623 H 462.661 -1.4916 -2.58445 0
M  V30 4624 C 461.41 0.0436512 -3.47673 0
M  V30 4625 H 460.733 -0.689963 -3.93801 0
M  V30 4626 H 462.173 0.307362 -4.22884 0
M  V30 4627 C 460.632 1.28881 -3.11274 0
M  V30 4628 O 461.162 2.38135 -3.23503 0
M  V30 4629 N 459.368 1.1758 -2.6575 0
M  V30 4630 H 458.915 0.286769 -2.55999 0
M  V30 4631 H 458.873 2.00988 -2.41767 0
M  V30 4632 N 462.645 1.35699 -0.801477 0
M  V30 4633 C 463.875 2.02862 -0.3912 0
M  V30 4634 C 464.283 1.60552 1.00099 0
M  V30 4635 O 463.626 0.796215 1.65548 0
M  V30 4636 C 463.688 3.57386 -0.389299 0
M  V30 4637 C 463.352 4.22943 -1.73113 0
M  V30 4638 C 464.349 4.44984 -2.68859 0
M  V30 4639 C 462.034 4.60167 -2.01373 0
M  V30 4640 C 464.028 5.03345 -3.91053 0
M  V30 4641 C 461.715 5.18243 -3.23832 0
M  V30 4642 C 462.713 5.39773 -4.1849 0
M  V30 4643 O 462.401 5.96626 -5.38788 0
M  V30 4644 H 462.133 0.657341 -0.157732 0
M  V30 4645 H 464.687 1.74407 -1.08496 0
M  V30 4646 H 462.917 3.85011 0.361031 0
M  V30 4647 H 464.606 4.059 -0.0020365 0
M  V30 4648 H 465.372 4.1661 -2.48316 0
M  V30 4649 H 461.251 4.42726 -1.28508 0
M  V30 4650 H 464.795 5.20065 -4.64949 0
M  V30 4651 H 460.692 5.46044 -3.44248 0
M  V30 4652 H 461.46 6.15082 -5.40015 0
M  V30 4653 N 464.123 0.554532 1.47522 0
M  V30 4654 C 465.351 0.034257 2.06872 0
M  V30 4655 C 465.766 -1.25826 1.40759 0
M  V30 4656 O 465.123 -1.75425 0.503217 0
M  V30 4657 C 465.174 -0.167827 3.6111 0
M  V30 4658 O 464.895 1.07351 4.24744 0
M  V30 4659 C 466.396 -0.72569 4.3732 0
M  V30 4660 H 463.616 0.0446275 0.669514 0
M  V30 4661 H 466.16 0.767181 1.89564 0
M  V30 4662 H 464.315 -0.850872 3.7794 0
M  V30 4663 H 464.729 0.869563 5.17242 0
M  V30 4664 H 466.203 -0.816394 5.45929 0
M  V30 4665 H 466.68 -1.73635 4.0342 0
M  V30 4666 H 467.286 -0.0784292 4.25228 0
M  V30 4667 N 465.601 -1.54893 0.290851 0
M  V30 4668 C 467.012 -1.85584 -0.203816 0
M  V30 4669 C 467.363 -1.21285 -1.54222 0
M  V30 4670 O 466.488 -0.506841 -2.10381 0
M  V30 4671 C 467.083 -3.367 -0.376595 0
M  V30 4672 C 465.642 -3.6746 -0.815485 0
M  V30 4673 C 464.789 -2.77178 0.0821087 0
M  V30 4674 H 467.74 -1.50208 0.512175 0
M  V30 4675 H 467.761 -3.60656 -1.21275 0
M  V30 4676 H 467.273 -3.8347 0.59767 0
M  V30 4677 H 465.374 -3.26201 -1.80066 0
M  V30 4678 H 465.487 -4.7478 -0.641905 0
M  V30 4679 H 463.851 -2.50925 -0.436895 0
M  V30 4680 H 464.634 -3.26767 1.05254 0
M  V30 4681 N 467.08 -0.0183926 -1.57589 0
M  V30 4682 C 468.357 0.700621 -1.82622 0
M  V30 4683 C 468.737 1.90951 -0.90005 0
M  V30 4684 O 468.085 2.28452 0.0469145 0
M  V30 4685 C 468.295 1.08899 -3.31575 0
M  V30 4686 C 469.643 1.48514 -3.9778 0
M  V30 4687 O 470.667 1.18227 -3.36007 0
M  V30 4688 O 469.526 2.04903 -5.06633 0
M  V30 4689 H 466.62 0.342743 -0.752633 0
M  V30 4690 H 469.166 -0.0452548 -1.6964 0
M  V30 4691 H 467.938 0.228113 -3.90635 0
M  V30 4692 H 467.561 1.89338 -3.49624 0
M  V30 4693 N 468.558 1.5553 0.254621 0
M  V30 4694 C 469.804 1.77262 0.985193 0
M  V30 4695 C 470.137 0.582286 1.85265 0
M  V30 4696 O 469.412 -0.419666 1.89919 0
M  V30 4697 C 469.695 3.0881 1.85225 0
M  V30 4698 C 469.548 4.38233 1.0135 0
M  V30 4699 C 470.867 3.3653 2.83612 0
M  V30 4700 H 467.986 0.644906 0.356742 0
M  V30 4701 H 470.628 1.88264 0.256236 0
M  V30 4702 H 468.778 2.99562 2.47376 0
M  V30 4703 H 470.45 4.59463 0.411269 0
M  V30 4704 H 468.693 4.32636 0.317574 0
M  V30 4705 H 469.364 5.26644 1.65379 0
M  V30 4706 H 471.84 3.45691 2.31596 0
M  V30 4707 H 470.716 4.29805 3.41407 0
M  V30 4708 H 470.977 2.57064 3.59681 0
M  V30 4709 N 470.036 -0.519951 1.48776 0
M  V30 4710 C 470.946 -1.65025 1.66745 0
M  V30 4711 C 471.962 -1.6508 0.549954 0
M  V30 4712 O 473.138 -1.83848 0.822295 0
M  V30 4713 C 470.203 -3.0146 1.71238 0
M  V30 4714 C 469.264 -3.12182 2.94688 0
M  V30 4715 C 468.497 -4.42109 2.98958 0
M  V30 4716 O 468.72 -5.29799 2.1135 0
M  V30 4717 O 467.654 -4.57406 3.91233 0
M  V30 4718 H 471.48 -1.52801 2.62461 0
M  V30 4719 H 469.065 -0.694157 1.32294 0
M  V30 4720 H 470.947 -3.82584 1.76657 0
M  V30 4721 H 469.622 -3.13988 0.786975 0
M  V30 4722 H 468.529 -2.30316 2.94797 0
M  V30 4723 H 469.862 -3.04574 3.86646 0
M  V30 4724 N 471.514 -1.37532 -0.769588 0
M  V30 4725 C 472.444 -1.36172 -1.89682 0
M  V30 4726 C 473.425 -0.23001 -1.68538 0
M  V30 4727 O 474.61 -0.43069 -1.89364 0
M  V30 4728 C 471.74 -1.1701 -3.26995 0
M  V30 4729 C 470.694 -2.27216 -3.62708 0
M  V30 4730 C 470.02 -1.93174 -4.98586 0
M  V30 4731 C 471.32 -3.6941 -3.69234 0
M  V30 4732 H 473.014 -2.30499 -1.91078 0
M  V30 4733 H 470.56 -1.10953 -0.917902 0
M  V30 4734 H 472.513 -1.14688 -4.05493 0
M  V30 4735 H 471.237 -0.191395 -3.26039 0
M  V30 4736 H 469.896 -2.28697 -2.86519 0
M  V30 4737 H 469.544 -0.938281 -4.94171 0
M  V30 4738 H 469.244 -2.66973 -5.23449 0
M  V30 4739 H 470.768 -1.92443 -5.79481 0
M  V30 4740 H 472.182 -3.70047 -4.37879 0
M  V30 4741 H 470.579 -4.4228 -4.05597 0
M  V30 4742 H 471.649 -4.0288 -2.69844 0
M  V30 4743 N 472.992 0.995999 -1.22138 0
M  V30 4744 C 474.238 1.73767 -1.04561 0
M  V30 4745 C 474.571 1.89633 0.418698 0
M  V30 4746 O 473.846 1.43723 1.3105 0
M  V30 4747 C 474.129 3.14505 -1.75382 0
M  V30 4748 C 473.982 3.06306 -3.29388 0
M  V30 4749 C 475.301 4.13615 -1.50369 0
M  V30 4750 H 472.42 0.630728 -0.38125 0
M  V30 4751 H 475.062 1.16057 -1.50435 0
M  V30 4752 H 473.212 3.63775 -1.36383 0
M  V30 4753 H 474.884 2.64681 -3.77812 0
M  V30 4754 H 473.127 2.43186 -3.59226 0
M  V30 4755 H 473.798 4.05884 -3.74116 0
M  V30 4756 H 476.274 3.73089 -1.84239 0
M  V30 4757 H 475.15 5.10212 -2.02421 0
M  V30 4758 H 475.411 4.39949 -0.435611 0
M  V30 4759 N 474.47 1.03057 1.19235 0
M  V30 4760 C 475.718 0.726581 1.88587 0
M  V30 4761 C 476.039 -0.747227 1.80115 0
M  V30 4762 O 475.309 -1.53849 1.21274 0
M  V30 4763 H 473.889 0.265768 0.698124 0
M  V30 4764 H 476.551 1.30516 1.44746 0
M  V30 4765 H 475.647 1.0224 2.94879 0
M  V30 4766 N 475.948 -1.35272 0.808662 0
M  V30 4767 C 477.225 -1.93077 0.313181 0
M  V30 4768 C 477.605 -1.73847 -1.19752 0
M  V30 4769 O 476.953 -1.1087 -1.998 0
M  V30 4770 C 477.163 -3.41347 0.726859 0
M  V30 4771 C 478.511 -4.18493 0.717532 0
M  V30 4772 O 479.535 -3.4987 0.668535 0
M  V30 4773 O 478.394 -5.40937 0.777779 0
M  V30 4774 H 475.488 -0.822885 0.0824018 0
M  V30 4775 H 478.034 -1.44335 0.892499 0
M  V30 4776 H 476.806 -3.49082 1.76797 0
M  V30 4777 H 476.429 -3.97411 0.122461 0
M  V30 4778 N 477.426 -0.562348 -1.47226 0
M  V30 4779 C 478.675 -0.038041 -2.01664 0
M  V30 4780 C 478.988 1.32199 -1.44162 0
M  V30 4781 O 480.194 1.9365 -1.90294 0
M  V30 4782 C 478.65 -0.0174958 -3.59896 0
M  V30 4783 C 478.258 -1.3746 -4.2639 0
M  V30 4784 C 480.002 0.453934 -4.22066 0
M  V30 4785 C 477.909 -1.31289 -5.76643 0
M  V30 4786 H 476.839 -0.0104511 -0.753928 0
M  V30 4787 H 479.49 -0.710966 -1.69167 0
M  V30 4788 H 477.872 0.721182 -3.89378 0
M  V30 4789 H 479.046 -2.1314 -4.08544 0
M  V30 4790 H 477.361 -1.78438 -3.7623 0
M  V30 4791 H 479.958 0.518584 -5.32179 0
M  V30 4792 H 480.301 1.46706 -3.89594 0
M  V30 4793 H 480.834 -0.230044 -3.97134 0
M  V30 4794 H 477.573 -2.30217 -6.13743 0
M  V30 4795 H 477.093 -0.597973 -5.96812 0
M  V30 4796 H 478.772 -1.01713 -6.38955 0
M  V30 4797 N 478.904 1.54736 -0.299062 0
M  V30 4798 C 479.867 2.22127 0.565012 0
M  V30 4799 C 480.867 1.20669 1.06281 0
M  V30 4800 O 482.057 1.45417 0.959145 0
M  V30 4801 C 479.189 2.90611 1.78208 0
M  V30 4802 H 480.382 2.99891 -0.0237448 0
M  V30 4803 H 477.935 1.5622 -0.0498788 0
M  V30 4804 H 478.67 2.16921 2.41072 0
M  V30 4805 H 478.455 3.64984 1.43281 0
M  V30 4806 H 479.945 3.42026 2.396 0
M  V30 4807 N 480.382 0.0267497 1.57577 0
M  V30 4808 C 481.63 -0.651116 1.91324 0
M  V30 4809 C 481.951 -1.72804 0.90353 0
M  V30 4810 O 481.221 -1.95822 -0.0552946 0
M  V30 4811 H 479.801 -0.243491 0.706202 0
M  V30 4812 H 482.463 0.0739935 1.94759 0
M  V30 4813 H 481.559 -1.10536 2.9187 0
M  V30 4814 N 481.861 -1.55662 -0.24637 0
M  V30 4815 C 483.089 -1.81575 -0.991876 0
M  V30 4816 C 483.504 -0.602545 -1.78927 0
M  V30 4817 O 482.861 0.428795 -1.77391 0
M  V30 4818 C 482.912 -3.05711 -1.92933 0
M  V30 4819 O 482.633 -4.22348 -1.1642 0
M  V30 4820 C 484.134 -3.44428 -2.79078 0
M  V30 4821 H 481.354 -0.604209 -0.291844 0
M  V30 4822 H 483.898 -2.02722 -0.269095 0
M  V30 4823 H 482.053 -2.86612 -2.60638 0
M  V30 4824 H 482.467 -4.92706 -1.79835 0
M  V30 4825 H 483.941 -4.34388 -3.40603 0
M  V30 4826 H 484.418 -2.65037 -3.50217 0
M  V30 4827 H 485.024 -3.65879 -2.16824 0
M  V30 4828 N 483.339 0.512053 -1.4905 0
M  V30 4829 C 484.269 1.62365 -1.67809 0
M  V30 4830 C 485.25 1.61737 -0.526809 0
M  V30 4831 O 486.435 1.78651 -0.761404 0
M  V30 4832 C 483.565 3.00895 -1.73435 0
M  V30 4833 C 482.519 3.16387 -2.88242 0
M  V30 4834 C 481.845 4.56157 -2.78971 0
M  V30 4835 C 483.145 2.97457 -4.29321 0
M  V30 4836 H 484.839 1.46921 -2.60873 0
M  V30 4837 H 482.385 0.705379 -1.2554 0
M  V30 4838 H 484.338 3.78549 -1.85145 0
M  V30 4839 H 483.062 3.17403 -0.769619 0
M  V30 4840 H 481.721 2.41155 -2.76116 0
M  V30 4841 H 481.369 4.69525 -1.8043 0
M  V30 4842 H 481.069 4.67465 -3.5602 0
M  V30 4843 H 482.593 5.35886 -2.92675 0
M  V30 4844 H 484.007 3.64888 -4.42187 0
M  V30 4845 H 482.404 3.20245 -5.07507 0
M  V30 4846 H 483.474 1.93692 -4.44535 0
M  V30 4847 N 484.817 1.37938 0.762283 0
M  V30 4848 C 485.765 1.34569 1.89721 0
M  V30 4849 C 486.759 0.232929 1.67791 0
M  V30 4850 O 487.965 0.401485 1.75465 0
M  V30 4851 H 484.34 0.419594 0.624055 0
M  V30 4852 H 486.311 2.30357 1.8968 0
M  V30 4853 C 485.06 1.17898 3.27101 0
M  V30 4854 H 484.383 2.02781 3.44558 0
M  V30 4855 H 485.823 1.19593 4.06784 0
M  V30 4856 C 484.282 -0.114728 3.36705 0
M  V30 4857 O 484.812 -1.0949 3.8649 0
M  V30 4858 N 483.018 -0.16863 2.9011 0
M  V30 4859 H 482.565 0.62967 2.49786 0
M  V30 4860 H 482.523 -1.03383 2.96916 0
M  V30 4861 N 486.295 -0.989507 1.22664 0
M  V30 4862 C 487.242 -2.08024 0.999733 0
M  V30 4863 C 488.212 -1.65909 -0.0797047 0
M  V30 4864 O 489.397 -1.90669 0.0705715 0
M  V30 4865 C 486.537 -3.40067 0.587234 0
M  V30 4866 C 485.65 -3.95505 1.73781 0
M  V30 4867 C 484.785 -5.15722 1.27297 0
M  V30 4868 C 483.824 -5.63305 2.39488 0
M  V30 4869 N 482.961 -6.74758 1.94026 0
M  V30 4870 H 487.801 -2.26768 1.9334 0
M  V30 4871 H 485.338 -1.11171 0.963297 0
M  V30 4872 H 487.296 -4.15899 0.329227 0
M  V30 4873 H 485.926 -3.21314 -0.309426 0
M  V30 4874 H 484.978 -3.16513 2.11006 0
M  V30 4875 H 486.29 -4.26797 2.58158 0
M  V30 4876 H 485.444 -5.98854 0.972546 0
M  V30 4877 H 484.183 -4.86061 0.399445 0
M  V30 4878 H 483.188 -4.78759 2.70315 0
M  V30 4879 H 484.413 -5.94988 3.27362 0
M  V30 4880 H 482.359 -6.46874 1.09041 0
M  V30 4881 H 482.276 -7.05386 2.71968 0
M  V30 4882 H 483.544 -7.61387 1.67062 0
M  V30 4883 N 487.773 -1.03688 -1.18687 0
M  V30 4884 C 488.703 -0.645407 -2.24403 0
M  V30 4885 C 489.684 0.349511 -1.66471 0
M  V30 4886 O 490.869 0.230453 -1.92828 0
M  V30 4887 C 487.999 -0.00365337 -3.473 0
M  V30 4888 C 486.953 -0.921705 -4.17958 0
M  V30 4889 C 486.279 -0.144629 -5.34504 0
M  V30 4890 C 487.579 -2.23909 -4.71871 0
M  V30 4891 H 489.273 -1.52917 -2.57404 0
M  V30 4892 H 486.819 -0.736711 -1.23728 0
M  V30 4893 H 488.772 0.281908 -4.20456 0
M  V30 4894 H 487.496 0.914963 -3.13522 0
M  V30 4895 H 486.155 -1.19159 -3.46694 0
M  V30 4896 H 485.803 0.776274 -4.96974 0
M  V30 4897 H 485.503 -0.756206 -5.82714 0
M  V30 4898 H 487.027 0.134004 -6.10453 0
M  V30 4899 H 488.441 -2.0145 -5.36741 0
M  V30 4900 H 486.838 -2.8033 -5.30599 0
M  V30 4901 H 487.908 -2.88822 -3.895 0
M  V30 4902 N 489.251 1.34841 -0.815825 0
M  V30 4903 C 490.214 2.27959 -0.238185 0
M  V30 4904 C 491.214 1.49983 0.579816 0
M  V30 4905 O 492.404 1.69617 0.396953 0
M  V30 4906 C 489.536 3.34314 0.666876 0
M  V30 4907 H 490.729 2.80558 -1.05958 0
M  V30 4908 H 488.282 1.44852 -0.587156 0
M  V30 4909 H 489.017 2.86916 1.5116 0
M  V30 4910 H 488.802 3.92014 0.0819106 0
M  V30 4911 H 490.292 4.0379 1.06506 0
M  V30 4912 N 490.729 0.570148 1.46925 0
M  V30 4913 C 491.661 -0.207909 2.28255 0
M  V30 4914 C 492.674 -0.867301 1.37774 0
M  V30 4915 O 493.863 -0.738976 1.62485 0
M  V30 4916 C 490.963 -1.31298 3.12433 0
M  V30 4917 C 490.136 -0.747915 4.30958 0
M  V30 4918 C 489.195 -1.7391 4.9663 0
M  V30 4919 O 488.221 -1.2801 5.54619 0
M  V30 4920 N 489.423 -3.07288 4.92498 0
M  V30 4921 H 492.188 0.489794 2.95671 0
M  V30 4922 H 489.749 0.407076 1.56699 0
M  V30 4923 H 491.741 -1.97507 3.53232 0
M  V30 4924 H 490.311 -1.91373 2.47175 0
M  V30 4925 H 489.531 0.0913066 3.94094 0
M  V30 4926 H 490.819 -0.349958 5.07595 0
M  V30 4927 H 490.217 -3.47213 4.46609 0
M  V30 4928 H 488.774 -3.69021 5.37277 0
M  V30 4929 N 492.207 -1.54576 0.307264 0
M  V30 4930 C 493.155 -2.25208 -0.581723 0
M  V30 4931 C 494.149 -1.26031 -1.13192 0
M  V30 4932 O 495.355 -1.43862 -1.08184 0
M  V30 4933 H 491.73 -0.723173 -0.206214 0
M  V30 4934 H 493.701 -2.98378 0.0364663 0
M  V30 4935 C 492.45 -3.01086 -1.73904 0
M  V30 4936 H 491.773 -3.77208 -1.32491 0
M  V30 4937 H 493.213 -3.5378 -2.33701 0
M  V30 4938 C 491.672 -2.08422 -2.64692 0
M  V30 4939 O 492.202 -1.65636 -3.65961 0
M  V30 4940 N 490.408 -1.74247 -2.32564 0
M  V30 4941 H 489.955 -2.09238 -1.50257 0
M  V30 4942 H 489.913 -1.12524 -2.93574 0
M  V30 4943 N 493.685 -0.035106 -1.57561 0
M  V30 4944 C 494.934 0.641604 -1.91223 0
M  V30 4945 C 495.247 1.72944 -0.913761 0
M  V30 4946 O 496.453 2.46321 -1.14185 0
M  V30 4947 C 494.909 1.19249 -3.3957 0
M  V30 4948 C 494.517 0.137616 -4.47789 0
M  V30 4949 C 496.261 1.84537 -3.82291 0
M  V30 4950 C 494.168 0.700478 -5.87237 0
M  V30 4951 H 493.098 0.243417 -0.713627 0
M  V30 4952 H 495.749 -0.101382 -1.8322 0
M  V30 4953 H 494.131 1.98728 -3.42525 0
M  V30 4954 H 495.305 -0.635153 -4.56402 0
M  V30 4955 H 493.62 -0.416855 -4.14308 0
M  V30 4956 H 496.217 2.27616 -4.83834 0
M  V30 4957 H 496.56 2.69054 -3.17672 0
M  V30 4958 H 497.093 1.11739 -3.81784 0
M  V30 4959 H 493.832 -0.106693 -6.55413 0
M  V30 4960 H 493.352 1.4416 -5.82218 0
M  V30 4961 H 495.031 1.18837 -6.35993 0
M  V30 4962 N 495.163 1.55791 0.238111 0
M  V30 4963 C 496.44 1.68798 0.98826 0
M  V30 4964 C 496.82 0.577562 2.03045 0
M  V30 4965 O 496.168 -0.41778 2.24648 0
M  V30 4966 C 496.378 3.09454 1.61367 0
M  V30 4967 C 497.726 3.68335 2.11221 0
M  V30 4968 O 498.75 3.1231 1.71292 0
M  V30 4969 O 497.609 4.6657 2.84561 0
M  V30 4970 H 494.703 0.686881 0.460568 0
M  V30 4971 H 497.249 1.68118 0.231202 0
M  V30 4972 H 496.021 3.81726 0.860295 0
M  V30 4973 H 495.644 3.14182 2.4367 0
M  V30 4974 N 496.642 -0.504142 1.49319 0
M  V30 4975 C 497.592 -1.60284 1.62151 0
M  V30 4976 C 498.576 -1.53657 0.477315 0
M  V30 4977 O 499.768 -1.6124 0.730108 0
M  V30 4978 C 496.897 -2.98909 1.68844 0
M  V30 4979 C 495.983 -3.10544 2.8883 0
M  V30 4980 N 496.374 -2.92078 4.12946 0
M  V30 4981 C 494.672 -3.4164 2.86702 0
M  V30 4982 C 495.373 -3.07812 4.93585 0
M  V30 4983 N 494.349 -3.36549 4.26891 0
M  V30 4984 H 498.151 -1.44656 2.55835 0
M  V30 4985 H 495.665 -0.710198 1.46048 0
M  V30 4986 H 497.662 -3.77865 1.76134 0
M  V30 4987 H 496.322 -3.15609 0.762943 0
M  V30 4988 H 497.333 -2.68316 4.42975 0
M  V30 4989 H 494.01 -3.64537 2.03517 0
M  V30 4990 H 495.4 -2.98054 6.02174 0
M  V30 4991 N 498.12 -1.38341 -0.754957 0
M  V30 4992 C 499.536 -1.19508 -1.05783 0
M  V30 4993 C 499.736 -0.0428005 -2.01455 0
M  V30 4994 O 498.792 0.611861 -2.44975 0
M  V30 4995 C 500.105 -2.52091 -1.63923 0
M  V30 4996 C 501.653 -2.58762 -1.76101 0
M  V30 4997 C 502.128 -3.91517 -2.37652 0
M  V30 4998 N 503.619 -3.93049 -2.45085 0
M  V30 4999 C 504.354 -4.9253 -2.93602 0
M  V30 5000 N 503.85 -6.02408 -3.42165 0
M  V30 5001 N 505.643 -4.79921 -2.92629 0
M  V30 5002 H 497.794 -2.1206 -0.120056 0
M  V30 5003 H 500.057 -0.94089 -0.11589 0
M  V30 5004 H 499.763 -3.36858 -1.01093 0
M  V30 5005 H 499.637 -2.70388 -2.63003 0
M  V30 5006 H 502.024 -1.74391 -2.38058 0
M  V30 5007 H 502.105 -2.44333 -0.757294 0
M  V30 5008 H 501.749 -4.76309 -1.76329 0
M  V30 5009 H 501.679 -4.03256 -3.38662 0
M  V30 5010 H 504.17 -3.13685 -2.10736 0
M  V30 5011 H 504.483 -6.74248 -3.77637 0
M  V30 5012 H 502.828 -6.0603 -3.40225 0
M  V30 5013 H 506.019 -3.93194 -2.54001 0
M  V30 5014 H 506.192 -5.57601 -3.30128 0
M  V30 5015 N 499.598 0.982988 -1.23187 0
M  V30 5016 C 500.528 2.09301 -1.03515 0
M  V30 5017 C 501.509 1.70035 0.0471136 0
M  V30 5018 O 502.694 1.93847 -0.117029 0
M  V30 5019 C 499.824 3.4167 -0.622791 0
M  V30 5020 C 498.778 3.94828 -1.65211 0
M  V30 5021 C 498.104 5.23362 -1.09527 0
M  V30 5022 C 499.404 4.2439 -3.04451 0
M  V30 5023 H 501.098 2.26016 -1.96359 0
M  V30 5024 H 498.644 1.08611 -0.945501 0
M  V30 5025 H 500.597 4.18746 -0.472233 0
M  V30 5026 H 499.321 3.24811 0.341329 0
M  V30 5027 H 497.98 3.19895 -1.79061 0
M  V30 5028 H 497.628 5.02852 -0.122211 0
M  V30 5029 H 497.328 5.59895 -1.783 0
M  V30 5030 H 498.852 6.03062 -0.956511 0
M  V30 5031 H 500.266 4.92225 -2.93917 0
M  V30 5032 H 498.663 4.72118 -3.70438 0
M  V30 5033 H 499.733 3.31765 -3.53638 0
M  V30 5034 N 501.076 1.04316 1.18135 0
M  V30 5035 C 502.322 0.749128 1.88457 0
M  V30 5036 C 502.655 -0.72149 1.803 0
M  V30 5037 O 501.93 -1.52676 1.205 0
M  V30 5038 C 502.213 1.21905 3.38838 0
M  V30 5039 C 502.066 2.75195 3.55792 0
M  V30 5040 C 503.385 0.811085 4.32561 0
M  V30 5041 H 500.504 0.273611 0.684329 0
M  V30 5042 H 503.146 1.29561 1.38975 0
M  V30 5043 H 501.296 0.754137 3.8111 0
M  V30 5044 H 502.968 3.29743 3.22595 0
M  V30 5045 H 501.211 3.14899 2.98364 0
M  V30 5046 H 501.882 3.03135 4.61317 0
M  V30 5047 H 504.358 1.21118 3.98082 0
M  V30 5048 H 503.234 1.16761 5.36338 0
M  V30 5049 H 503.495 -0.285596 4.41177 0
M  V30 5050 N 502.554 -1.34406 0.822964 0
M  V30 5051 C 503.484 -2.32052 0.259608 0
M  V30 5052 C 504.465 -1.58243 -0.623961 0
M  V30 5053 O 505.65 -1.86224 -0.55083 0
M  V30 5054 C 502.78 -3.42434 -0.579314 0
M  V30 5055 C 501.734 -4.27499 0.20712 0
M  V30 5056 C 501.06 -5.29349 -0.754547 0
M  V30 5057 C 502.36 -5.02758 1.41533 0
M  V30 5058 H 504.054 -2.79418 1.07545 0
M  V30 5059 H 501.6 -1.34338 0.518593 0
M  V30 5060 H 503.553 -4.0976 -0.983612 0
M  V30 5061 H 502.277 -2.93717 -1.4282 0
M  V30 5062 H 500.936 -3.61776 0.592787 0
M  V30 5063 H 500.584 -4.76895 -1.59939 0
M  V30 5064 H 500.284 -5.8714 -0.232561 0
M  V30 5065 H 501.808 -5.99544 -1.1567 0
M  V30 5066 H 503.222 -5.62938 1.08504 0
M  V30 5067 H 501.619 -5.70123 1.87296 0
M  V30 5068 H 502.689 -4.32451 2.1935 0
M  V30 5069 N 504.032 -0.577932 -1.46621 0
M  V30 5070 C 505.257 -0.0652536 -2.07297 0
M  V30 5071 C 505.682 1.22828 -1.4246 0
M  V30 5072 O 505.04 1.74075 -0.506718 0
M  V30 5073 C 505.088 0.0920589 -3.60482 0
M  V30 5074 O 504.192 1.14972 -3.96049 0
M  V30 5075 H 503.533 -0.06065 -0.661224 0
M  V30 5076 H 506.063 -0.799515 -1.88332 0
M  V30 5077 H 506.073 0.299741 -4.06897 0
M  V30 5078 H 504.748 -0.852612 -4.07067 0
M  V30 5079 H 503.325 0.920879 -3.61351 0
M  V30 5080 N 505.51 1.54411 -0.315457 0
M  V30 5081 C 506.921 1.85885 0.174265 0
M  V30 5082 C 507.272 1.23723 1.52273 0
M  V30 5083 O 506.397 0.540246 2.09548 0
M  V30 5084 C 506.992 3.37257 0.322981 0
M  V30 5085 C 505.551 3.68711 0.756922 0
M  V30 5086 C 504.698 2.77013 -0.126195 0
M  V30 5087 H 507.649 1.49374 -0.536007 0
M  V30 5088 H 507.67 3.62539 1.15522 0
M  V30 5089 H 507.182 3.82471 -0.658602 0
M  V30 5090 H 505.283 3.29024 1.74854 0
M  V30 5091 H 505.396 4.75741 0.566291 0
M  V30 5092 H 503.76 2.51588 0.39692 0
M  V30 5093 H 504.543 3.25051 -1.1044 0
M  V30 5094 N 506.988 0.0434614 1.5754 0
M  V30 5095 C 507.92 -0.962586 2.08007 0
M  V30 5096 C 508.933 -1.27972 1.00634 0
M  V30 5097 O 510.122 -1.24186 1.28219 0
M  V30 5098 C 507.222 -2.28621 2.50171 0
M  V30 5099 C 506.395 -2.15214 3.80791 0
M  V30 5100 C 505.454 -3.30633 4.09351 0
M  V30 5101 O 504.48 -3.0688 4.79388 0
M  V30 5102 N 505.682 -4.54873 3.60654 0
M  V30 5103 H 508.447 -0.531891 2.94942 0
M  V30 5104 H 506.008 -0.142965 1.61268 0
M  V30 5105 H 508 -3.04689 2.66359 0
M  V30 5106 H 506.57 -2.63283 1.68525 0
M  V30 5107 H 505.79 -1.23785 3.74261 0
M  V30 5108 H 507.078 -2.03475 4.66343 0
M  V30 5109 H 506.476 -4.77063 3.04019 0
M  V30 5110 H 505.033 -5.2806 3.82094 0
M  V30 5111 N 508.466 -1.55915 -0.229846 0
M  V30 5112 C 509.429 -1.90914 -1.26824 0
M  V30 5113 C 510.429 -0.786999 -1.40225 0
M  V30 5114 O 511.619 -1.05484 -1.38632 0
M  V30 5115 C 508.751 -2.15264 -2.64337 0
M  V30 5116 H 509.944 -2.8378 -0.969998 0
M  V30 5117 H 507.497 -1.49069 -0.4699 0
M  V30 5118 H 508.232 -1.24923 -2.99274 0
M  V30 5119 H 508.017 -2.97005 -2.55989 0
M  V30 5120 H 509.507 -2.43467 -3.39284 0
M  V30 5121 N 509.944 0.496216 -1.49584 0
M  V30 5122 C 510.907 1.57952 -1.66084 0
M  V30 5123 C 511.907 1.51729 -0.53244 0
M  V30 5124 O 513.097 1.54796 -0.79899 0
M  V30 5125 C 510.229 2.97604 -1.66268 0
M  V30 5126 H 511.422 1.44649 -2.6271 0
M  V30 5127 H 508.975 0.7208 -1.38687 0
M  V30 5128 H 509.71 3.16378 -0.712432 0
M  V30 5129 H 509.495 3.03528 -2.4822 0
M  V30 5130 H 510.985 3.76301 -1.81073 0
M  V30 5131 N 511.423 1.38739 0.74761 0
M  V30 5132 C 512.333 1.38696 1.89211 0
M  V30 5133 C 513.349 0.283303 1.71678 0
M  V30 5134 O 514.525 0.522713 1.94498 0
M  V30 5135 C 511.59 1.21662 3.24653 0
M  V30 5136 C 510.651 2.41886 3.54669 0
M  V30 5137 C 509.884 2.25655 4.83648 0
M  V30 5138 O 510.107 1.25339 5.56459 0
M  V30 5139 O 509.041 3.14372 5.13277 0
M  V30 5140 H 512.867 2.35143 1.92202 0
M  V30 5141 H 510.452 1.19721 0.893708 0
M  V30 5142 H 512.334 1.14246 4.05618 0
M  V30 5143 H 511.009 0.283024 3.2246 0
M  V30 5144 H 509.916 2.54877 2.73841 0
M  V30 5145 H 511.249 3.33895 3.61628 0
M  V30 5146 N 512.901 -0.976442 1.23707 0
M  V30 5147 C 514.15 -1.71254 1.06559 0
M  V30 5148 C 514.463 -1.91528 -0.397024 0
M  V30 5149 O 515.669 -2.62625 -0.688518 0
M  V30 5150 C 514.125 -3.08207 1.8584 0
M  V30 5151 C 513.733 -2.95806 3.36456 0
M  V30 5152 C 515.477 -3.85749 1.77194 0
M  V30 5153 C 513.384 -4.28015 4.08114 0
M  V30 5154 H 512.314 -0.642171 0.395136 0
M  V30 5155 H 514.965 -1.08877 1.4771 0
M  V30 5156 H 513.347 -3.71363 1.37498 0
M  V30 5157 H 514.521 -2.41716 3.92314 0
M  V30 5158 H 512.836 -2.31736 3.45959 0
M  V30 5159 H 515.433 -4.83633 2.28041 0
M  V30 5160 H 515.776 -4.09752 0.735477 0
M  V30 5161 H 516.309 -3.29303 2.23169 0
M  V30 5162 H 513.048 -4.09208 5.12083 0
M  V30 5163 H 512.568 -4.81955 3.57043 0
M  V30 5164 H 514.247 -4.96681 4.14629 0
M  V30 5165 N 514.379 -1.04941 -1.1758 0
M  V30 5166 C 515.309 -0.669172 -2.23706 0
M  V30 5167 C 516.29 0.331835 -1.66832 0
M  V30 5168 O 517.475 0.209988 -1.93061 0
M  V30 5169 C 514.605 -0.0404889 -3.47276 0
M  V30 5170 C 513.559 -0.965983 -4.16957 0
M  V30 5171 C 512.885 -0.201312 -5.34321 0
M  V30 5172 C 514.185 -2.28902 -4.69469 0
M  V30 5173 H 515.879 -1.55639 -2.55767 0
M  V30 5174 H 513.425 -0.749793 -1.22939 0
M  V30 5175 H 515.378 0.237298 -4.20731 0
M  V30 5176 H 514.102 0.881658 -3.14475 0
M  V30 5177 H 512.761 -1.22829 -3.45411 0
M  V30 5178 H 512.409 0.723519 -4.97769 0
M  V30 5179 H 512.109 -0.817968 -5.81879 0
M  V30 5180 H 513.633 0.0692499 -6.10561 0
M  V30 5181 H 515.047 -2.07132 -5.34574 0
M  V30 5182 H 513.444 -2.85942 -5.27596 0
M  V30 5183 H 514.514 -2.92937 -3.86414 0
M  V30 5184 N 515.857 1.33968 -0.830081 0
M  V30 5185 C 517.273 1.51003 -0.516742 0
M  V30 5186 C 517.473 1.77286 0.957694 0
M  V30 5187 O 516.529 1.82797 1.74188 0
M  V30 5188 C 517.842 2.67036 -1.38247 0
M  V30 5189 C 519.39 2.80919 -1.38034 0
M  V30 5190 C 519.865 4.00004 -2.23071 0
M  V30 5191 N 521.356 4.07224 -2.20733 0
M  V30 5192 C 522.091 4.98541 -2.83275 0
M  V30 5193 N 521.587 5.95033 -3.54835 0
M  V30 5194 N 523.38 4.91469 -2.72791 0
M  V30 5195 H 515.531 1.15168 -1.78466 0
M  V30 5196 H 517.794 0.565443 -0.760906 0
M  V30 5197 H 517.5 2.54266 -2.42985 0
M  V30 5198 H 517.374 3.62226 -1.05225 0
M  V30 5199 H 519.761 2.93127 -0.340713 0
M  V30 5200 H 519.842 1.86517 -1.75057 0
M  V30 5201 H 519.486 3.88557 -3.27087 0
M  V30 5202 H 519.416 4.93634 -1.83394 0
M  V30 5203 H 521.907 3.38162 -1.68687 0
M  V30 5204 H 522.22 6.61357 -3.99784 0
M  V30 5205 H 520.565 5.95135 -3.58942 0
M  V30 5206 H 523.756 4.15048 -2.16456 0
M  V30 5207 H 523.929 5.62439 -3.21818 0
M  V30 5208 N 517.335 0.585699 1.46312 0
M  V30 5209 C 518.612 0.00542031 1.95599 0
M  V30 5210 C 518.992 -1.45619 1.52834 0
M  V30 5211 O 518.34 -2.14759 0.780446 0
M  V30 5212 C 518.55 0.180601 3.48532 0
M  V30 5213 C 519.898 0.049979 4.24571 0
M  V30 5214 O 520.922 0.109589 3.56031 0
M  V30 5215 O 519.781 -0.0832226 5.46437 0
M  V30 5216 H 516.875 -0.0481281 0.825598 0
M  V30 5217 H 519.421 0.654227 1.56582 0
M  V30 5218 H 518.193 1.19657 3.72556 0
M  V30 5219 H 517.816 -0.504498 3.94386 0
M  V30 5220 N 518.813 -1.54241 0.323641 0
M  V30 5221 C 520.229 -1.59574 -0.0290018 0
M  V30 5222 C 520.429 -1.34017 -1.50472 0
M  V30 5223 O 519.485 -1.12464 -2.26071 0
M  V30 5224 C 520.798 -2.98169 0.389295 0
M  V30 5225 C 522.346 -3.11148 0.339958 0
M  V30 5226 C 522.821 -4.5209 0.733418 0
M  V30 5227 N 524.312 -4.5808 0.686827 0
M  V30 5228 C 525.047 -5.65248 0.963464 0
M  V30 5229 N 524.543 -6.80355 1.30724 0
M  V30 5230 N 526.336 -5.55025 0.88902 0
M  V30 5231 H 518.487 -1.6911 1.28512 0
M  V30 5232 H 520.75 -0.790972 0.522558 0
M  V30 5233 H 520.456 -3.21871 1.41746 0
M  V30 5234 H 520.33 -3.76399 -0.245657 0
M  V30 5235 H 522.717 -2.87182 -0.679002 0
M  V30 5236 H 522.798 -2.35023 1.00985 0
M  V30 5237 H 522.442 -4.76788 1.75029 0
M  V30 5238 H 522.372 -5.26584 0.0412189 0
M  V30 5239 H 524.863 -3.75411 0.43298 0
M  V30 5240 H 525.176 -7.58029 1.5037 0
M  V30 5241 H 523.521 -6.81851 1.3455 0
M  V30 5242 H 526.712 -4.63977 0.619939 0
M  V30 5243 H 526.885 -6.38458 1.10797 0
M  V30 5244 N 520.291 -0.0518155 -1.57515 0
M  V30 5245 C 521.223 0.951542 -2.08515 0
M  V30 5246 C 522.236 1.27436 -1.01311 0
M  V30 5247 O 523.425 1.23504 -1.28876 0
M  V30 5248 C 520.525 2.27291 -2.5138 0
M  V30 5249 C 519.698 2.13191 -3.81927 0
M  V30 5250 C 518.757 3.28458 -4.11098 0
M  V30 5251 O 517.783 3.04334 -4.81009 0
M  V30 5252 N 518.985 4.52954 -3.63061 0
M  V30 5253 H 521.75 0.516242 -2.9522 0
M  V30 5254 H 519.311 0.13441 -1.61341 0
M  V30 5255 H 521.303 3.03272 -2.67971 0
M  V30 5256 H 519.873 2.62386 -1.69919 0
M  V30 5257 H 519.093 1.21798 -3.74912 0
M  V30 5258 H 520.381 2.00999 -4.67415 0
M  V30 5259 H 519.779 4.75444 -3.06545 0
M  V30 5260 H 518.336 5.26026 -3.84889 0
M  V30 5261 N 521.769 1.56035 0.221574 0
M  V30 5262 C 522.719 1.8881 1.27807 0
M  V30 5263 C 523.703 0.751177 1.42289 0
M  V30 5264 O 524.895 1.01359 1.45104 0
M  V30 5265 C 522.024 2.20828 2.6285 0
M  V30 5266 C 521.11 3.40912 2.52269 0
M  V30 5267 N 521.501 4.59531 2.1134 0
M  V30 5268 C 519.799 3.44526 2.83228 0
M  V30 5269 C 520.5 5.41689 2.1201 0
M  V30 5270 N 519.476 4.814 2.52497 0
M  V30 5271 H 523.278 2.78036 0.952529 0
M  V30 5272 H 520.792 1.566 0.430134 0
M  V30 5273 H 522.789 2.42483 3.39127 0
M  V30 5274 H 521.449 1.32914 2.9625 0
M  V30 5275 H 522.46 4.8469 1.82472 0
M  V30 5276 H 519.137 2.66956 3.21 0
M  V30 5277 H 520.527 6.46643 1.82491 0
M  V30 5278 N 523.247 -0.488276 1.49845 0
M  V30 5279 C 524.179 -1.60539 1.63584 0
M  V30 5280 C 525.192 -1.5434 0.517972 0
M  V30 5281 O 526.381 -1.60041 0.790516 0
M  V30 5282 C 523.481 -2.99374 1.58835 0
M  V30 5283 C 522.654 -3.30624 2.86368 0
M  V30 5284 C 521.713 -4.4893 2.74496 0
M  V30 5285 O 520.739 -4.50085 3.48443 0
M  V30 5286 N 521.941 -5.49591 1.86894 0
M  V30 5287 H 524.706 -1.49176 2.59936 0
M  V30 5288 H 522.267 -0.67639 1.47094 0
M  V30 5289 H 524.259 -3.76459 1.48529 0
M  V30 5290 H 522.829 -3.04595 0.702892 0
M  V30 5291 H 522.049 -2.42314 3.1093 0
M  V30 5292 H 523.337 -3.48305 3.70892 0
M  V30 5293 H 522.735 -5.51467 1.26097 0
M  V30 5294 H 521.292 -6.25728 1.82503 0
M  V30 5295 N 524.725 -1.39134 -0.740242 0
M  V30 5296 C 526.141 -1.20623 -1.0451 0
M  V30 5297 C 526.341 -0.0641651 -2.01398 0
M  V30 5298 O 525.397 0.585843 -2.4561 0
M  V30 5299 C 526.71 -2.53815 -1.6124 0
M  V30 5300 C 528.258 -2.60615 -1.73346 0
M  V30 5301 C 528.733 -3.94015 -2.33486 0
M  V30 5302 N 530.224 -3.95627 -2.40902 0
M  V30 5303 C 530.959 -4.95616 -2.88361 0
M  V30 5304 N 530.455 -6.06003 -3.35756 0
M  V30 5305 N 532.248 -4.82998 -2.87523 0
M  V30 5306 H 524.399 -2.12176 -0.0975576 0
M  V30 5307 H 526.662 -0.942066 -0.105904 0
M  V30 5308 H 526.368 -3.37911 -0.975144 0
M  V30 5309 H 526.242 -2.73162 -2.6012 0
M  V30 5310 H 528.629 -1.76906 -2.36195 0
M  V30 5311 H 528.71 -2.45123 -0.731336 0
M  V30 5312 H 528.354 -4.78153 -1.71267 0
M  V30 5313 H 528.284 -4.06825 -3.34366 0
M  V30 5314 H 530.775 -3.15903 -2.07398 0
M  V30 5315 H 531.088 -6.78215 -3.70464 0
M  V30 5316 H 529.433 -6.09604 -3.33778 0
M  V30 5317 H 532.624 -3.95866 -2.49816 0
M  V30 5318 H 532.797 -5.61072 -3.24196 0
M  V30 5319 N 526.204 0.969867 -1.24223 0
M  V30 5320 C 527.114 2.09806 -1.0497 0
M  V30 5321 C 528.13 1.73998 0.00886455 0
M  V30 5322 O 529.306 2.00513 -0.188848 0
M  V30 5323 C 526.371 3.40467 -0.654452 0
M  V30 5324 C 525.432 3.90236 -1.78926 0
M  V30 5325 C 524.665 5.14662 -1.41277 0
M  V30 5326 O 524.888 5.69602 -0.301632 0
M  V30 5327 O 523.822 5.58761 -2.23763 0
M  V30 5328 H 527.648 2.28942 -1.99548 0
M  V30 5329 H 525.233 1.08197 -1.03023 0
M  V30 5330 H 527.115 4.19039 -0.445452 0
M  V30 5331 H 525.79 3.22636 0.262216 0
M  V30 5332 H 524.697 3.12735 -2.05299 0
M  V30 5333 H 526.03 4.1254 -2.68462 0
M  V30 5334 N 527.682 1.05563 1.17022 0
M  V30 5335 C 528.612 0.681026 2.23348 0
M  V30 5336 C 529.593 -0.322983 1.67005 0
M  V30 5337 O 530.778 -0.199746 1.9317 0
M  V30 5338 C 527.908 0.0589053 3.4725 0
M  V30 5339 C 526.862 0.988082 4.16438 0
M  V30 5340 C 526.188 0.229646 5.34207 0
M  V30 5341 C 527.488 2.31388 4.68249 0
M  V30 5342 H 529.182 1.56993 2.54938 0
M  V30 5343 H 526.728 0.756302 1.2254 0
M  V30 5344 H 528.681 -0.214982 4.20851 0
M  V30 5345 H 527.405 -0.864968 3.14938 0
M  V30 5346 H 526.064 1.24659 3.44754 0
M  V30 5347 H 525.712 -0.697111 4.98146 0
M  V30 5348 H 525.412 0.848815 5.81437 0
M  V30 5349 H 526.936 -0.0368694 6.10589 0
M  V30 5350 H 528.35 2.09964 5.33468 0
M  V30 5351 H 526.747 2.88736 5.26072 0
M  V30 5352 H 527.817 2.94982 3.84855 0
M  V30 5353 N 529.16 -1.33526 0.837174 0
M  V30 5354 C 530.09 -2.31764 0.284206 0
M  V30 5355 C 531.071 -1.58896 -0.607142 0
M  V30 5356 O 532.256 -1.86798 -0.531047 0
M  V30 5357 C 529.386 -3.43029 -0.542962 0
M  V30 5358 C 528.34 -4.27255 0.252451 0
M  V30 5359 C 527.666 -5.3012 -0.69836 0
M  V30 5360 C 528.966 -5.01229 1.46858 0
M  V30 5361 H 530.66 -2.78262 1.10502 0
M  V30 5362 H 528.206 -1.3378 0.532812 0
M  V30 5363 H 530.159 -4.1078 -0.940096 0
M  V30 5364 H 528.883 -2.95216 -1.39697 0
M  V30 5365 H 527.542 -3.61127 0.631124 0
M  V30 5366 H 527.19 -4.78564 -1.54872 0
M  V30 5367 H 526.89 -5.87353 -0.170274 0
M  V30 5368 H 528.414 -6.00737 -1.09305 0
M  V30 5369 H 529.828 -5.61756 1.14469 0
M  V30 5370 H 528.225 -5.68104 1.93333 0
M  V30 5371 H 529.295 -4.301 2.23924 0
M  V30 5372 N 530.638 -0.59345 -1.46 0
M  V30 5373 C 531.915 -0.0157933 -1.95594 0
M  V30 5374 C 532.295 1.44807 -1.53604 0
M  V30 5375 O 531.643 2.14342 -0.791824 0
M  V30 5376 C 531.853 -0.199081 -3.48432 0
M  V30 5377 C 533.201 -0.0724943 -4.24538 0
M  V30 5378 O 534.225 -0.128469 -3.55968 0
M  V30 5379 O 533.084 0.0542426 -5.46473 0
M  V30 5380 H 530.178 0.043749 -0.825842 0
M  V30 5381 H 532.724 -0.662522 -1.56233 0
M  V30 5382 H 531.496 -1.21631 -3.71916 0
M  V30 5383 H 531.119 0.483576 -3.94648 0
M  V30 5384 N 532.116 1.54067 -0.331816 0
M  V30 5385 C 533.532 1.59587 0.0205388 0
M  V30 5386 C 533.732 1.34813 1.49759 0
M  V30 5387 O 532.788 1.13661 2.25471 0
M  V30 5388 C 534.101 2.97959 -0.405103 0
M  V30 5389 C 535.649 3.10964 -0.356454 0
M  V30 5390 C 536.124 4.51694 -0.757384 0
M  V30 5391 N 537.615 4.57709 -0.71111 0
M  V30 5392 C 538.35 5.64729 -0.993427 0
M  V30 5393 N 537.846 6.79652 -1.3433 0
M  V30 5394 N 539.639 5.54546 -0.918442 0
M  V30 5395 H 531.79 1.68426 -1.29407 0
M  V30 5396 H 534.053 0.78819 -0.526745 0
M  V30 5397 H 533.759 3.21115 -1.43451 0
M  V30 5398 H 533.633 3.76524 0.225692 0
M  V30 5399 H 536.02 2.87538 0.663763 0
M  V30 5400 H 536.101 2.34484 -1.02229 0
M  V30 5401 H 535.745 4.75853 -1.77555 0
M  V30 5402 H 535.675 5.26555 -0.0691444 0
M  V30 5403 H 538.166 3.75176 -0.452883 0
M  V30 5404 H 538.479 7.57221 -1.54388 0
M  V30 5405 H 536.824 6.81128 -1.38164 0
M  V30 5406 H 540.015 4.63641 -0.644536 0
M  V30 5407 H 540.188 6.37861 -1.14181 0
M  V30 5408 N 533.594 0.0601682 1.57485 0
M  V30 5409 C 535.01 -0.296422 1.56823 0
M  V30 5410 C 535.21 -1.70831 1.0686 0
M  V30 5411 O 534.266 -2.4174 0.729245 0
M  V30 5412 C 535.579 -0.116681 3.00474 0
M  V30 5413 C 537.127 -0.187103 3.1244 0
M  V30 5414 C 537.602 -0.035783 4.57986 0
M  V30 5415 N 539.093 -0.0917676 4.63109 0
M  V30 5416 C 539.828 0.00107251 5.734 0
M  V30 5417 N 539.324 0.146773 6.92645 0
M  V30 5418 N 541.117 -0.0551577 5.62073 0
M  V30 5419 H 533.268 0.983055 1.88281 0
M  V30 5420 H 535.531 0.382386 0.867459 0
M  V30 5421 H 535.237 0.85712 3.41096 0
M  V30 5422 H 535.111 -0.873929 3.66936 0
M  V30 5423 H 537.498 -1.15138 2.71712 0
M  V30 5424 H 537.579 0.601052 2.48638 0
M  V30 5425 H 537.223 0.925212 4.99402 0
M  V30 5426 H 537.153 -0.843196 5.19806 0
M  V30 5427 H 539.644 -0.203261 3.77353 0
M  V30 5428 H 539.957 0.210076 7.72514 0
M  V30 5429 H 538.302 0.181979 6.94762 0
M  V30 5430 H 541.493 -0.167605 4.678 0
M  V30 5431 H 541.666 0.020652 6.47997 0
M  V30 5432 N 535.072 -1.5615 -0.213296 0
M  V30 5433 C 536.32 -1.79191 -0.934612 0
M  V30 5434 C 536.641 -0.630112 -1.84539 0
M  V30 5435 O 535.911 0.35257 -1.92701 0
M  V30 5436 H 534.491 -0.660937 -0.348097 0
M  V30 5437 H 537.153 -1.93618 -0.22317 0
M  V30 5438 H 536.249 -2.71656 -1.53654 0
M  V30 5439 N 536.55 0.480323 -1.50102 0
M  V30 5440 C 537.513 1.56181 -1.6775 0
M  V30 5441 C 538.513 1.51156 -0.548503 0
M  V30 5442 O 539.703 1.5394 -0.815363 0
M  V30 5443 C 536.835 2.95823 -1.69415 0
M  V30 5444 H 538.028 1.41855 -2.6423 0
M  V30 5445 H 535.581 0.70605 -1.39444 0
M  V30 5446 H 536.316 3.15604 -0.745948 0
M  V30 5447 H 536.101 3.00878 -2.51425 0
M  V30 5448 H 537.591 3.74359 -1.85054 0
M  V30 5449 N 538.028 1.39524 0.732853 0
M  V30 5450 C 538.96 1.34318 1.85718 0
M  V30 5451 C 539.973 0.251576 1.60844 0
M  V30 5452 O 541.162 0.510685 1.71039 0
M  V30 5453 C 538.262 1.06334 3.21786 0
M  V30 5454 C 537.435 2.26813 3.73998 0
M  V30 5455 C 536.494 1.95253 4.88634 0
M  V30 5456 O 535.52 2.67957 5.02183 0
M  V30 5457 N 536.722 0.919984 5.73164 0
M  V30 5458 H 539.487 2.3121 1.90688 0
M  V30 5459 H 537.048 1.33654 0.91368 0
M  V30 5460 H 539.04 0.832363 3.96048 0
M  V30 5461 H 537.61 0.181682 3.12072 0
M  V30 5462 H 536.83 2.65849 2.91064 0
M  V30 5463 H 538.118 3.0717 4.05616 0
M  V30 5464 H 537.516 0.317487 5.64808 0
M  V30 5465 H 536.073 0.748905 6.47483 0
M  V30 5466 N 539.506 -0.963266 1.24736 0
M  V30 5467 C 540.436 -2.07628 1.06832 0
M  V30 5468 C 541.417 -1.70088 -0.0200566 0
M  V30 5469 O 542.602 -1.93636 0.147854 0
M  V30 5470 C 539.732 -3.40636 0.677069 0
M  V30 5471 C 538.686 -3.9215 1.71471 0
M  V30 5472 C 538.012 -5.21553 1.1784 0
M  V30 5473 C 539.312 -4.19493 3.11164 0
M  V30 5474 H 541.006 -2.22864 1.9993 0
M  V30 5475 H 538.552 -1.07093 0.96266 0
M  V30 5476 H 540.505 -4.17941 0.538792 0
M  V30 5477 H 539.229 -3.25313 -0.289612 0
M  V30 5478 H 537.888 -3.17005 1.84128 0
M  V30 5479 H 537.536 -5.02593 0.202195 0
M  V30 5480 H 537.236 -5.56988 1.87185 0
M  V30 5481 H 538.76 -6.01463 1.05233 0
M  V30 5482 H 540.174 -4.87487 3.01711 0
M  V30 5483 H 538.571 -4.66165 3.77902 0
M  V30 5484 H 539.641 -3.26097 3.58871 0
M  V30 5485 N 540.985 -1.06182 -1.16461 0
M  V30 5486 C 541.933 -0.665716 -2.2287 0
M  V30 5487 C 542.927 0.317822 -1.66392 0
M  V30 5488 O 544.133 0.182807 -1.79069 0
M  V30 5489 H 540.508 -0.197148 -0.725697 0
M  V30 5490 H 542.479 -1.57307 -2.53569 0
M  V30 5491 C 541.228 -0.0669803 -3.47635 0
M  V30 5492 H 540.551 -0.814899 -3.91407 0
M  V30 5493 H 541.991 0.172669 -4.23648 0
M  V30 5494 C 540.45 1.18913 -3.15216 0
M  V30 5495 O 540.98 2.27723 -3.30916 0
M  V30 5496 N 539.186 1.09066 -2.69357 0
M  V30 5497 H 538.733 0.20518 -2.56782 0
M  V30 5498 H 538.691 1.93195 -2.48039 0
M  V30 5499 N 542.463 1.3308 -0.844243 0
M  V30 5500 C 543.395 2.27954 -0.238671 0
M  V30 5501 C 544.408 1.51978 0.583665 0
M  V30 5502 O 545.597 1.73731 0.409857 0
M  V30 5503 C 542.697 3.31963 0.682185 0
M  V30 5504 C 541.87 4.37281 -0.101998 0
M  V30 5505 C 540.929 5.20928 0.743022 0
M  V30 5506 O 539.955 5.68914 0.180285 0
M  V30 5507 N 541.157 5.42738 2.0595 0
M  V30 5508 H 543.922 2.8056 -1.05386 0
M  V30 5509 H 541.483 1.4583 -0.70322 0
M  V30 5510 H 543.475 3.84828 1.25259 0
M  V30 5511 H 542.045 2.79594 1.39808 0
M  V30 5512 H 541.265 3.84843 -0.853802 0
M  V30 5513 H 542.553 5.04746 -0.641015 0
M  V30 5514 H 541.951 5.05463 2.54016 0
M  V30 5515 H 540.508 5.98639 2.57827 0
M  V30 5516 N 543.941 0.601185 1.45683 0
M  V30 5517 C 545.188 0.0938811 2.02282 0
M  V30 5518 C 545.516 -1.27315 1.47041 0
M  V30 5519 O 544.771 -1.85193 0.632623 0
M  V30 5520 C 545.07 -0.00222425 3.574 0
M  V30 5521 C 544.736 1.29963 4.31764 0
M  V30 5522 C 543.398 1.65625 4.51798 0
M  V30 5523 C 545.75 2.1603 4.74321 0
M  V30 5524 C 543.078 2.87119 5.11644 0
M  V30 5525 C 545.43 3.36766 5.3551 0
M  V30 5526 C 544.094 3.72689 5.53768 0
M  V30 5527 H 543.364 0.0343535 0.740203 0
M  V30 5528 H 546.011 0.781522 1.74827 0
M  V30 5529 H 544.316 -0.773096 3.84097 0
M  V30 5530 H 546.013 -0.410794 3.9889 0
M  V30 5531 H 542.603 1.01204 4.1648 0
M  V30 5532 H 546.787 1.89778 4.58582 0
M  V30 5533 H 542.043 3.15065 5.2397 0
M  V30 5534 H 546.217 4.03713 5.67441 0
M  V30 5535 H 543.844 4.66918 5.99909 0
M  V30 5536 N 545.419 -1.53889 0.339982 0
M  V30 5537 C 546.382 -2.23547 -0.50592 0
M  V30 5538 C 547.382 -1.23445 -1.03044 0
M  V30 5539 O 548.572 -1.47909 -0.920253 0
M  V30 5540 C 545.704 -2.95234 -1.7044 0
M  V30 5541 H 546.897 -2.99722 0.103247 0
M  V30 5542 H 544.45 -1.56033 0.0912804 0
M  V30 5543 H 545.185 -2.23236 -2.35236 0
M  V30 5544 H 544.97 -3.68654 -1.33553 0
M  V30 5545 H 546.46 -3.48258 -2.30447 0
M  V30 5546 N 546.897 -0.0685191 -1.57451 0
M  V30 5547 C 547.827 0.89747 -2.15564 0
M  V30 5548 C 548.808 1.31266 -1.08181 0
M  V30 5549 O 549.993 1.38429 -1.36202 0
M  V30 5550 C 547.123 2.16623 -2.71463 0
M  V30 5551 C 546.077 1.89054 -3.83982 0
M  V30 5552 C 545.403 3.22532 -4.26471 0
M  V30 5553 C 546.703 1.1984 -5.08366 0
M  V30 5554 H 548.397 0.413373 -2.96533 0
M  V30 5555 H 545.943 0.197391 -1.42641 0
M  V30 5556 H 547.896 2.84614 -3.10761 0
M  V30 5557 H 546.62 2.67269 -1.8771 0
M  V30 5558 H 545.279 1.23469 -3.45183 0
M  V30 5559 H 544.927 3.71013 -3.39644 0
M  V30 5560 H 544.627 3.04879 -5.02317 0
M  V30 5561 H 546.151 3.91727 -4.68383 0
M  V30 5562 H 547.565 1.77896 -5.45001 0
M  V30 5563 H 545.962 1.12456 -5.89469 0
M  V30 5564 H 547.032 0.176996 -4.84577 0
M  V30 5565 N 548.375 1.56261 0.205012 0
M  V30 5566 C 549.325 1.90155 1.25798 0
M  V30 5567 C 550.309 0.766227 1.41484 0
M  V30 5568 O 551.501 1.02893 1.44021 0
M  V30 5569 C 548.63 2.23603 2.60493 0
M  V30 5570 C 547.716 3.43568 2.48639 0
M  V30 5571 N 548.107 4.61747 2.06455 0
M  V30 5572 C 546.405 3.4751 2.79558 0
M  V30 5573 C 547.106 5.43907 2.06253 0
M  V30 5574 N 546.082 4.84051 2.47377 0
M  V30 5575 H 549.884 2.79031 0.922986 0
M  V30 5576 H 547.398 1.57048 0.413501 0
M  V30 5577 H 549.395 2.46067 3.36537 0
M  V30 5578 H 548.055 1.36049 2.94823 0
M  V30 5579 H 549.066 4.86598 1.77321 0
M  V30 5580 H 545.743 2.70345 3.18151 0
M  V30 5581 H 547.133 6.48542 1.75622 0
M  V30 5582 N 549.853 -0.472356 1.50355 0
M  V30 5583 C 551.264 -1.05326 1.54154 0
M  V30 5584 C 551.615 -1.93155 0.344303 0
M  V30 5585 O 550.74 -2.09479 -0.542928 0
M  V30 5586 C 551.335 -1.91691 2.79356 0
M  V30 5587 C 549.894 -2.44892 2.8584 0
M  V30 5588 C 549.041 -1.23205 2.48426 0
M  V30 5589 H 551.992 -0.255027 1.56637 0
M  V30 5590 H 552.013 -2.76742 2.6114 0
M  V30 5591 H 551.525 -1.27741 3.66475 0
M  V30 5592 H 549.626 -3.12399 2.0307 0
M  V30 5593 H 549.739 -2.80086 3.88701 0
M  V30 5594 H 548.103 -1.56643 2.00836 0
M  V30 5595 H 548.886 -0.609194 3.37852 0
M  V30 5596 N 551.331 -1.39911 -0.725443 0
M  V30 5597 C 552.261 -1.42138 -1.85254 0
M  V30 5598 C 553.242 -0.283513 -1.67721 0
M  V30 5599 O 554.427 -0.490717 -1.87898 0
M  V30 5600 C 551.557 -1.27354 -3.23107 0
M  V30 5601 C 550.511 -2.3864 -3.55296 0
M  V30 5602 C 549.837 -2.08939 -4.92188 0
M  V30 5603 C 551.137 -3.8097 -3.57295 0
M  V30 5604 H 552.831 -2.36461 -1.83648 0
M  V30 5605 H 550.377 -1.13817 -0.882138 0
M  V30 5606 H 552.33 -1.2753 -4.01639 0
M  V30 5607 H 551.054 -0.295025 -3.25265 0
M  V30 5608 H 549.713 -2.37696 -2.79099 0
M  V30 5609 H 549.361 -1.09502 -4.90936 0
M  V30 5610 H 549.061 -2.83491 -5.14691 0
M  V30 5611 H 550.585 -2.10781 -5.73065 0
M  V30 5612 H 551.999 -3.8379 -4.25885 0
M  V30 5613 H 550.396 -4.5496 -3.9132 0
M  V30 5614 H 551.466 -4.11261 -2.5689 0
M  V30 5615 N 552.809 0.956637 -1.25245 0
M  V30 5616 C 554.225 1.22733 -1.02023 0
M  V30 5617 C 554.425 1.99761 0.264186 0
M  V30 5618 O 553.481 2.32814 0.977436 0
M  V30 5619 C 554.794 2.00367 -2.24217 0
M  V30 5620 C 556.342 2.13418 -2.28958 0
M  V30 5621 C 556.817 2.9445 -3.50803 0
M  V30 5622 N 558.308 3.02029 -3.51187 0
M  V30 5623 C 559.043 3.65116 -4.42129 0
M  V30 5624 N 558.539 4.2983 -5.43339 0
M  V30 5625 N 560.332 3.62237 -4.29815 0
M  V30 5626 H 552.483 0.441282 -2.07765 0
M  V30 5627 H 554.746 0.257686 -0.912306 0
M  V30 5628 H 554.452 1.51165 -3.17556 0
M  V30 5629 H 554.326 3.01077 -2.27228 0
M  V30 5630 H 556.713 2.61819 -1.36143 0
M  V30 5631 H 556.794 1.1202 -2.29968 0
M  V30 5632 H 556.438 2.46741 -4.43939 0
M  V30 5633 H 556.368 3.9607 -3.47039 0
M  V30 5634 H 558.859 2.56007 -2.77973 0
M  V30 5635 H 559.172 4.75819 -6.08947 0
M  V30 5636 H 557.517 4.28465 -5.47214 0
M  V30 5637 H 560.708 3.10863 -3.49974 0
M  V30 5638 H 560.881 4.11117 -5.00886 0
M  V30 5639 N 554.287 1.06798 1.15896 0
M  V30 5640 C 555.536 0.782796 1.8589 0
M  V30 5641 C 555.849 -0.693498 1.82893 0
M  V30 5642 O 557.055 -1.09325 2.48516 0
M  V30 5643 C 555.511 1.3502 3.33613 0
M  V30 5644 C 555.119 2.8571 3.45071 0
M  V30 5645 C 556.863 1.14278 4.08829 0
M  V30 5646 C 554.77 3.35669 4.86909 0
M  V30 5647 H 553.7 0.289149 0.696354 0
M  V30 5648 H 556.351 1.28734 1.30766 0
M  V30 5649 H 554.733 0.773407 3.88374 0
M  V30 5650 H 555.907 3.49385 3.00445 0
M  V30 5651 H 554.222 3.05178 2.83294 0
M  V30 5652 H 556.819 1.49087 5.13495 0
M  V30 5653 H 557.162 0.0814575 4.1622 0
M  V30 5654 H 557.695 1.68563 3.60321 0
M  V30 5655 H 554.434 4.41302 4.84698 0
M  V30 5656 H 553.954 2.76745 5.32139 0
M  V30 5657 H 555.633 3.31296 5.55745 0
M  V30 5658 N 555.766 -1.3263 0.851289 0
M  V30 5659 C 557.012 -1.9766 0.453694 0
M  V30 5660 C 557.345 -1.67225 -0.987396 0
M  V30 5661 O 556.62 -0.958693 -1.69232 0
M  V30 5662 C 556.903 -3.5344 0.68936 0
M  V30 5663 C 556.756 -3.93517 2.17862 0
M  V30 5664 C 558.075 -4.39866 0.143555 0
M  V30 5665 H 555.194 -0.717989 0.166314 0
M  V30 5666 H 557.836 -1.57068 1.06909 0
M  V30 5667 H 555.986 -3.88147 0.165546 0
M  V30 5668 H 557.658 -3.69006 2.76826 0
M  V30 5669 H 555.901 -3.42798 2.65841 0
M  V30 5670 H 556.572 -5.02065 2.29422 0
M  V30 5671 H 559.048 -4.11875 0.591451 0
M  V30 5672 H 557.924 -5.47858 0.338043 0
M  V30 5673 H 558.185 -4.31696 -0.953466 0
M  V30 5674 N 557.244 -0.608902 -1.45362 0
M  V30 5675 C 558.66 -0.272659 -1.57254 0
M  V30 5676 C 558.86 1.22477 -1.60005 0
M  V30 5677 O 557.916 2.00785 -1.53106 0
M  V30 5678 C 559.229 -0.944991 -2.85465 0
M  V30 5679 C 560.777 -0.921033 -2.99142 0
M  V30 5680 C 561.252 -1.5734 -4.30126 0
M  V30 5681 N 562.743 -1.53895 -4.36887 0
M  V30 5682 C 563.478 -2.01286 -5.36909 0
M  V30 5683 N 562.974 -2.56768 -6.43461 0
M  V30 5684 N 564.767 -1.92046 -5.28275 0
M  V30 5685 H 556.918 -1.58117 -1.4182 0
M  V30 5686 H 559.181 -0.662437 -0.678146 0
M  V30 5687 H 558.887 -1.99941 -2.89338 0
M  V30 5688 H 558.761 -0.469079 -3.74272 0
M  V30 5689 H 561.148 0.124846 -2.94836 0
M  V30 5690 H 561.229 -1.43522 -2.11743 0
M  V30 5691 H 560.873 -2.61862 -4.35191 0
M  V30 5692 H 560.803 -1.03422 -5.16344 0
M  V30 5693 H 563.294 -1.13366 -3.60495 0
M  V30 5694 H 563.607 -2.9072 -7.16032 0
M  V30 5695 H 561.952 -2.60808 -6.44208 0
M  V30 5696 H 565.143 -1.48439 -4.43941 0
M  V30 5697 H 565.316 -2.29293 -6.06077 0
M  V30 5698 N 558.722 1.53707 -0.348139 0
M  V30 5699 C 559.685 2.23812 0.494058 0
M  V30 5700 C 560.685 1.23989 1.02388 0
M  V30 5701 O 561.875 1.48395 0.912396 0
M  V30 5702 C 559.007 2.96133 1.68872 0
M  V30 5703 H 560.2 2.99663 -0.119141 0
M  V30 5704 H 557.753 1.55983 -0.0995539 0
M  V30 5705 H 558.488 2.24481 2.34049 0
M  V30 5706 H 558.273 3.69357 1.31596 0
M  V30 5707 H 559.763 3.49475 2.28597 0
M  V30 5708 N 560.2 0.0768682 1.57412 0
M  V30 5709 C 561.133 -0.924685 2.08626 0
M  V30 5710 C 562.111 -1.28792 0.992542 0
M  V30 5711 O 563.295 -1.39634 1.26628 0
M  V30 5712 C 560.422 -2.23131 2.54814 0
M  V30 5713 C 559.468 -2.01928 3.75669 0
M  V30 5714 S 560.301 -1.27397 5.20125 0
M  V30 5715 C 561.457 -2.59329 5.69648 0
M  V30 5716 H 561.69 -0.488928 2.93252 0
M  V30 5717 H 559.223 -0.136014 1.538 0
M  V30 5718 H 561.181 -2.98226 2.82084 0
M  V30 5719 H 559.842 -2.63831 1.70447 0
M  V30 5720 H 559.035 -2.98639 4.05993 0
M  V30 5721 H 558.637 -1.34967 3.48798 0
M  V30 5722 H 560.929 -3.55394 5.76803 0
M  V30 5723 H 561.872 -2.33608 6.68456 0
M  V30 5724 H 562.28 -2.66767 4.9749 0
M  V30 5725 N 561.678 -1.56367 -0.196722 0
M  V30 5726 C 562.61 -1.90941 -1.26784 0
M  V30 5727 C 563.623 -0.799928 -1.41792 0
M  V30 5728 O 564.812 -1.07833 -1.42247 0
M  V30 5729 C 561.912 -2.12477 -2.6402 0
M  V30 5730 C 561.085 -3.43616 -2.70641 0
M  V30 5731 C 560.144 -3.54284 -3.89062 0
M  V30 5732 O 559.17 -4.2712 -3.76241 0
M  V30 5733 N 560.372 -2.87252 -5.04447 0
M  V30 5734 H 563.137 -2.83417 -0.974417 0
M  V30 5735 H 560.698 -1.57215 -0.386649 0
M  V30 5736 H 562.69 -2.16904 -3.41665 0
M  V30 5737 H 561.26 -1.26508 -2.85857 0
M  V30 5738 H 560.48 -3.51072 -1.79283 0
M  V30 5739 H 561.768 -4.29958 -2.72054 0
M  V30 5740 H 561.166 -2.27901 -5.17762 0
M  V30 5741 H 559.723 -2.97308 -5.80044 0
M  V30 5742 N 563.156 0.464375 -1.50603 0
M  V30 5743 C 564.433 1.22549 -1.5245 0
M  V30 5744 C 564.813 2.09327 -0.273035 0
M  V30 5745 O 564.161 2.16074 0.743242 0
M  V30 5746 C 564.371 2.05074 -2.82393 0
M  V30 5747 C 565.719 2.63036 -3.33313 0
M  V30 5748 O 566.743 2.1531 -2.8376 0
M  V30 5749 O 565.602 3.5001 -4.19709 0
M  V30 5750 H 562.696 0.556471 -0.611775 0
M  V30 5751 H 565.242 0.475648 -1.62898 0
M  V30 5752 H 564.014 1.41169 -3.64948 0
M  V30 5753 H 563.637 2.87179 -2.7498 0
M  V30 5754 N 564.634 1.40294 0.718013 0
M  V30 5755 C 565.883 1.37746 1.4734 0
M  V30 5756 C 566.196 -0.0180754 1.95592 0
M  V30 5757 O 567.402 -0.166166 2.70991 0
M  V30 5758 C 565.858 2.4208 2.66318 0
M  V30 5759 C 565.466 3.87432 2.24945 0
M  V30 5760 C 567.21 2.48635 3.44065 0
M  V30 5761 C 565.117 4.83368 3.40748 0
M  V30 5762 H 564.047 0.512165 0.553356 0
M  V30 5763 H 566.698 1.66019 0.781661 0
M  V30 5764 H 565.08 2.06903 3.3765 0
M  V30 5765 H 566.254 4.3174 1.6105 0
M  V30 5766 H 564.569 3.8433 1.60249 0
M  V30 5767 H 567.166 3.17499 4.30231 0
M  V30 5768 H 567.509 1.51611 3.87711 0
M  V30 5769 H 568.042 2.82791 2.79775 0
M  V30 5770 H 564.781 5.81716 3.02136 0
M  V30 5771 H 564.301 4.43726 4.03568 0
M  V30 5772 H 565.98 5.03074 4.06848 0
M  V30 5773 N 566.112 -0.949982 1.2575 0
M  V30 5774 C 567.358 -1.69766 1.10938 0
M  V30 5775 C 567.691 -1.91056 -0.348028 0
M  V30 5776 O 566.966 -1.48488 -1.25625 0
M  V30 5777 C 567.249 -3.07779 1.86933 0
M  V30 5778 C 567.102 -2.9387 3.4053 0
M  V30 5779 C 568.421 -4.07749 1.65616 0
M  V30 5780 H 565.54 -0.616144 0.404396 0
M  V30 5781 H 568.182 -1.10394 1.54639 0
M  V30 5782 H 566.332 -3.58462 1.4979 0
M  V30 5783 H 568.004 -2.50476 3.87375 0
M  V30 5784 H 566.247 -2.29686 3.68004 0
M  V30 5785 H 566.918 -3.91719 3.88922 0
M  V30 5786 H 569.394 -3.65994 1.97959 0
M  V30 5787 H 568.27 -5.02348 2.21218 0
M  V30 5788 H 568.531 -4.38029 0.598595 0
M  V30 5789 N 567.59 -1.07411 -1.15328 0
M  V30 5790 C 568.538 -0.689316 -2.22151 0
M  V30 5791 C 569.532 0.300156 -1.6672 0
M  V30 5792 O 570.738 0.163804 -1.79253 0
M  V30 5793 H 567.113 -0.204834 -0.723566 0
M  V30 5794 H 569.084 -1.59988 -2.51886 0
M  V30 5795 C 567.833 -0.103848 -3.47545 0
M  V30 5796 H 567.156 -0.856367 -3.90521 0
M  V30 5797 H 568.596 0.127725 -4.23808 0
M  V30 5798 C 567.055 1.15563 -3.1646 0
M  V30 5799 O 567.585 2.242 -3.33312 0
M  V30 5800 N 565.791 1.06203 -2.70498 0
M  V30 5801 H 565.338 0.177933 -2.56985 0
M  V30 5802 H 565.296 1.90553 -2.50074 0
M  V30 5803 N 569.068 1.32177 -0.85831 0
M  V30 5804 C 570.293 2.01847 -0.476718 0
M  V30 5805 C 570.718 1.64065 0.920021 0
M  V30 5806 O 570.076 0.843189 1.60499 0
M  V30 5807 C 570.124 3.55097 -0.627578 0
M  V30 5808 O 569.228 4.11012 0.338086 0
M  V30 5809 H 568.569 0.635907 -0.191099 0
M  V30 5810 H 571.099 1.68641 -1.15851 0
M  V30 5811 H 571.109 4.04718 -0.516476 0
M  V30 5812 H 569.784 3.81938 -1.64609 0
M  V30 5813 H 568.361 3.72451 0.182917 0
M  V30 5814 N 570.547 0.616602 1.45037 0
M  V30 5815 C 571.824 0.0469086 1.95544 0
M  V30 5816 C 572.204 -1.42345 1.55888 0
M  V30 5817 O 571.552 -2.13055 0.825824 0
M  V30 5818 C 571.762 0.254489 3.48071 0
M  V30 5819 C 573.11 0.140025 4.24369 0
M  V30 5820 O 574.134 0.185084 3.55719 0
M  V30 5821 O 572.993 0.0327034 5.4649 0
M  V30 5822 H 570.087 -0.0306051 0.826433 0
M  V30 5823 H 572.633 0.687293 1.55159 0
M  V30 5824 H 571.405 1.27532 3.69934 0
M  V30 5825 H 571.028 -0.42073 3.95368 0
M  V30 5826 N 572.025 -1.5352 0.356285 0
M  V30 5827 C 573.271 -2.01414 -0.236653 0
M  V30 5828 C 573.604 -1.24339 -1.49176 0
M  V30 5829 O 572.879 -0.334496 -1.91602 0
M  V30 5830 C 573.162 -3.56059 -0.537982 0
M  V30 5831 C 573.015 -4.43835 0.730112 0
M  V30 5832 C 574.334 -4.19127 -1.34239 0
M  V30 5833 H 571.453 -0.732135 -0.0845386 0
M  V30 5834 H 574.095 -1.83854 0.479341 0
M  V30 5835 H 572.245 -3.71153 -1.14795 0
M  V30 5836 H 573.917 -4.40555 1.36782 0
M  V30 5837 H 572.16 -4.1218 1.3524 0
M  V30 5838 H 572.831 -5.49958 0.474358 0
M  V30 5839 H 575.307 -4.07809 -0.826498 0
M  V30 5840 H 574.183 -5.27378 -1.52198 0
M  V30 5841 H 574.444 -3.74581 -2.34822 0
M  V30 5842 N 573.503 -0.0852151 -1.57369 0
M  V30 5843 C 574.731 0.58946 -1.98325 0
M  V30 5844 C 575.146 1.62333 -0.96403 0
M  V30 5845 O 574.503 1.82438 0.0476395 0
M  V30 5846 C 574.554 1.24604 -3.39347 0
M  V30 5847 O 574.275 0.253532 -4.37366 0
M  V30 5848 C 575.776 2.00726 -3.95252 0
M  V30 5849 H 572.996 0.158783 -0.651942 0
M  V30 5850 H 575.54 -0.161584 -2.03861 0
M  V30 5851 H 573.695 1.94808 -3.34856 0
M  V30 5852 H 574.109 0.726207 -5.19448 0
M  V30 5853 H 575.583 2.42039 -4.96106 0
M  V30 5854 H 576.06 2.86919 -3.32527 0
M  V30 5855 H 576.666 1.3536 -4.03185 0
M  V30 5856 N 574.981 1.5647 0.188427 0
M  V30 5857 C 575.911 1.98101 1.23606 0
M  V30 5858 C 576.892 0.853961 1.47111 0
M  V30 5859 O 578.077 1.11879 1.58735 0
M  V30 5860 C 575.207 2.32624 2.57882 0
M  V30 5861 C 574.161 3.48129 2.48978 0
M  V30 5862 C 573.487 3.68347 3.87588 0
M  V30 5863 C 574.787 4.82112 2.00911 0
M  V30 5864 H 576.481 2.85864 0.890068 0
M  V30 5865 H 574.027 1.37532 0.426714 0
M  V30 5866 H 575.98 2.60343 3.3136 0
M  V30 5867 H 574.704 1.41751 2.94235 0
M  V30 5868 H 573.363 3.20511 1.77956 0
M  V30 5869 H 573.011 2.74793 4.21305 0
M  V30 5870 H 572.711 4.46055 3.82503 0
M  V30 5871 H 574.235 3.98449 4.62678 0
M  V30 5872 H 575.649 5.08819 2.64151 0
M  V30 5873 H 574.046 5.63337 2.06814 0
M  V30 5874 H 575.116 4.75249 0.96262 0
M  V30 5875 N 576.459 -0.456382 1.50847 0
M  V30 5876 C 577.687 -1.23026 1.66349 0
M  V30 5877 C 578.102 -1.85473 0.352868 0
M  V30 5878 O 577.459 -1.69885 -0.666739 0
M  V30 5879 C 577.51 -2.32827 2.76539 0
M  V30 5880 O 577.231 -1.72938 4.02522 0
M  V30 5881 C 578.732 -3.23448 3.03144 0
M  V30 5882 H 575.952 -0.371527 0.558756 0
M  V30 5883 H 578.496 -0.543082 1.97157 0
M  V30 5884 H 576.651 -2.97294 2.48384 0
M  V30 5885 H 577.065 -2.45357 4.63573 0
M  V30 5886 H 578.539 -3.96669 3.83872 0
M  V30 5887 H 579.016 -3.83094 2.14793 0
M  V30 5888 H 579.622 -2.64702 3.32886 0
M  V30 5889 N 577.937 -1.40673 -0.710563 0
M  V30 5890 C 579.183 -1.39428 -1.47267 0
M  V30 5891 C 579.516 0.00182129 -1.942 0
M  V30 5892 O 578.791 0.971387 -1.68506 0
M  V30 5893 C 579.074 -2.38812 -2.6952 0
M  V30 5894 C 578.927 -3.87467 -2.28449 0
M  V30 5895 C 580.246 -2.3566 -3.71689 0
M  V30 5896 H 577.365 -0.507768 -0.534173 0
M  V30 5897 H 580.007 -1.71843 -0.810547 0
M  V30 5898 H 578.157 -2.113 -3.26013 0
M  V30 5899 H 579.829 -4.25825 -1.77399 0
M  V30 5900 H 578.072 -4.03058 -1.60395 0
M  V30 5901 H 578.743 -4.5253 -3.16103 0
M  V30 5902 H 581.219 -2.6004 -3.24836 0
M  V30 5903 H 580.095 -3.07237 -4.54859 0
M  V30 5904 H 580.356 -1.36996 -4.20339 0
M  V30 5905 N 579.415 0.9433 -1.26252 0
M  V30 5906 C 580.692 1.66639 -1.02424 0
M  V30 5907 C 581.072 2.06335 0.446006 0
M  V30 5908 O 580.42 1.78551 1.42589 0
M  V30 5909 C 580.63 2.88019 -1.97094 0
M  V30 5910 C 581.978 3.59718 -2.25584 0
M  V30 5911 O 583.002 2.9812 -1.94943 0
M  V30 5912 O 581.861 4.7066 -2.77743 0
M  V30 5913 H 578.955 0.729643 -0.389294 0
M  V30 5914 H 581.501 0.995218 -1.37454 0
M  V30 5915 H 580.273 2.5556 -2.96319 0
M  V30 5916 H 579.896 3.62863 -1.62532 0
M  V30 5917 N 580.893 1.08022 1.14757 0
M  V30 5918 C 581.826 0.650738 2.18725 0
M  V30 5919 C 582.804 -0.335496 1.59101 0
M  V30 5920 O 583.988 -0.240295 1.86962 0
M  V30 5921 C 581.115 -0.0434377 3.38672 0
M  V30 5922 C 580.161 0.90232 4.16846 0
M  V30 5923 S 580.994 2.40693 4.78359 0
M  V30 5924 C 582.15 1.72475 6.01667 0
M  V30 5925 H 582.383 1.53152 2.54817 0
M  V30 5926 H 579.916 0.894823 1.25826 0
M  V30 5927 H 581.874 -0.437684 4.0816 0
M  V30 5928 H 580.535 -0.900659 3.0091 0
M  V30 5929 H 579.728 0.363445 5.02688 0
M  V30 5930 H 579.33 1.23728 3.52941 0
M  V30 5931 H 581.622 1.0404 6.69464 0
M  V30 5932 H 582.565 2.56175 6.60136 0
M  V30 5933 H 582.973 1.19979 5.51602 0
M  V30 5934 N 582.371 -1.3172 0.865308 0
M  V30 5935 C 583.619 -1.96487 0.472995 0
M  V30 5936 C 583.94 -1.68761 -0.976975 0
M  V30 5937 O 583.21 -1.00051 -1.68424 0
M  V30 5938 H 581.79 -0.726947 0.171922 0
M  V30 5939 H 584.452 -1.60612 1.10407 0
M  V30 5940 H 583.548 -3.0574 0.62687 0
M  V30 5941 N 583.85 -0.624285 -1.44708 0
M  V30 5942 C 585.075 -0.131171 -2.06985 0
M  V30 5943 C 585.5 1.18234 -1.46295 0
M  V30 5944 O 584.858 1.72375 -0.561842 0
M  V30 5945 C 584.906 -0.0226724 -3.60593 0
M  V30 5946 O 584.01 1.02314 -3.99507 0
M  V30 5947 H 583.351 -0.0816556 -0.65896 0
M  V30 5948 H 585.88 -0.859027 -1.85693 0
M  V30 5949 H 585.891 0.170138 -4.07645 0
M  V30 5950 H 584.566 -0.981685 -4.04148 0
M  V30 5951 H 583.143 0.805452 -3.64097 0
M  V30 5952 N 585.328 1.53329 -0.364422 0
M  V30 5953 C 586.575 2.01239 0.225634 0
M  V30 5954 C 586.903 1.25172 1.48869 0
M  V30 5955 O 586.158 0.333289 1.92841 0
M  V30 5956 C 586.457 3.52911 0.564661 0
M  V30 5957 C 586.123 4.46837 -0.603936 0
M  V30 5958 C 584.785 4.72234 -0.924585 0
M  V30 5959 C 587.137 5.02409 -1.38691 0
M  V30 5960 C 584.465 5.50454 -2.0302 0
M  V30 5961 C 586.817 5.81836 -2.48293 0
M  V30 5962 C 585.481 6.0552 -2.80894 0
M  V30 5963 H 584.751 0.736386 0.0825654 0
M  V30 5964 H 587.398 1.84948 -0.496645 0
M  V30 5965 H 585.703 3.67144 1.36794 0
M  V30 5966 H 587.4 3.87455 1.03344 0
M  V30 5967 H 583.99 4.27217 -0.343983 0
M  V30 5968 H 588.174 4.82735 -1.15243 0
M  V30 5969 H 583.43 5.67024 -2.28678 0
M  V30 5970 H 587.604 6.23905 -3.0938 0
M  V30 5971 H 585.231 6.65916 -3.66688 0
M  V30 5972 N 586.806 0.0935595 1.57322 0
M  V30 5973 C 587.756 -0.876521 2.10478 0
M  V30 5974 C 588.74 -1.24482 1.01946 0
M  V30 5975 O 589.932 -1.22016 1.28223 0
M  V30 5976 C 587.061 -2.13615 2.68745 0
M  V30 5977 C 586.147 -1.79335 3.84317 0
M  V30 5978 N 586.538 -1.15606 4.92411 0
M  V30 5979 C 584.836 -2.08954 3.94023 0
M  V30 5980 C 585.537 -0.999036 5.73057 0
M  V30 5981 N 584.513 -1.51585 5.22037 0
M  V30 5982 H 588.315 -0.379829 2.91435 0
M  V30 5983 H 585.829 -0.109699 1.62029 0
M  V30 5984 H 587.826 -2.84053 3.05155 0
M  V30 5985 H 586.486 -2.63851 1.89242 0
M  V30 5986 H 587.497 -0.823063 5.11318 0
M  V30 5987 H 584.174 -2.61416 3.25527 0
M  V30 5988 H 585.564 -0.500772 6.70031 0
M  V30 5989 N 588.284 -1.56567 -0.180126 0
M  V30 5990 C 589.533 -1.80685 -0.896426 0
M  V30 5991 C 589.846 -0.669335 -1.83791 0
M  V30 5992 O 591.052 -0.795209 -2.59593 0
M  V30 5993 C 589.508 -3.20132 -1.6445 0
M  V30 5994 C 589.116 -4.41727 -0.747088 0
M  V30 5995 C 590.86 -3.53549 -2.34955 0
M  V30 5996 C 588.767 -5.72195 -1.49489 0
M  V30 5997 H 587.697 -0.673758 -0.338477 0
M  V30 5998 H 590.348 -1.8289 -0.149467 0
M  V30 5999 H 588.73 -3.12218 -2.43589 0
M  V30 6000 H 589.904 -4.608 0.00671129 0
M  V30 6001 H 588.219 -4.16122 -0.152134 0
M  V30 6002 H 590.816 -4.48267 -2.91481 0
M  V30 6003 H 591.159 -2.78006 -3.09868 0
M  V30 6004 H 591.692 -3.62976 -1.62768 0
M  V30 6005 H 588.431 -6.50743 -0.788251 0
M  V30 6006 H 587.951 -5.57115 -2.22224 0
M  V30 6007 H 589.63 -6.1384 -2.04472 0
M  V30 6008 N 589.762 0.448376 -1.51087 0
M  V30 6009 C 591.008 1.19748 -1.64414 0
M  V30 6010 C 591.363 1.89177 -0.350715 0
M  V30 6011 O 590.656 1.80135 0.652834 0
M  V30 6012 C 590.85 2.24866 -2.77795 0
M  V30 6013 C 590.679 1.65753 -4.18038 0
M  V30 6014 C 589.449 1.44728 -4.8413 0
M  V30 6015 C 591.647 1.13985 -5.0151 0
M  V30 6016 N 589.629 0.810962 -6.0852 0
M  V30 6017 C 591 0.628141 -6.1681 0
M  V30 6018 C 593.055 1.03055 -4.87118 0
M  V30 6019 C 591.758 0.0178906 -7.19298 0
M  V30 6020 C 593.784 0.434212 -5.89804 0
M  V30 6021 C 593.146 -0.0670069 -7.04368 0
M  V30 6022 H 589.245 0.426254 -0.655615 0
M  V30 6023 H 591.829 0.495806 -1.88281 0
M  V30 6024 H 590 2.92434 -2.55611 0
M  V30 6025 H 591.732 2.91857 -2.8036 0
M  V30 6026 H 588.487 1.70593 -4.41809 0
M  V30 6027 H 588.911 0.510563 -6.75072 0
M  V30 6028 H 593.553 1.40395 -3.9881 0
M  V30 6029 H 591.271 -0.367662 -8.07263 0
M  V30 6030 H 594.857 0.3517 -5.80736 0
M  V30 6031 H 593.737 -0.521209 -7.82466 0
M  V30 6032 N 591.24 1.41047 0.703093 0
M  V30 6033 C 592.489 1.39301 1.4587 0
M  V30 6034 C 592.802 0.00267077 1.956 0
M  V30 6035 O 594.008 -0.137414 2.71152 0
M  V30 6036 C 592.464 2.44891 2.63735 0
M  V30 6037 C 592.072 3.89796 2.20824 0
M  V30 6038 C 593.816 2.5227 3.41409 0
M  V30 6039 C 591.723 4.86955 3.35602 0
M  V30 6040 H 590.653 0.518005 0.547893 0
M  V30 6041 H 593.304 1.66839 0.764009 0
M  V30 6042 H 591.686 2.10472 3.35436 0
M  V30 6043 H 592.86 4.33424 1.56461 0
M  V30 6044 H 591.175 3.86008 1.56163 0
M  V30 6045 H 593.772 3.22044 4.26839 0
M  V30 6046 H 594.115 1.55714 3.86081 0
M  V30 6047 H 594.648 2.85742 2.7676 0
M  V30 6048 H 591.387 5.84888 2.9595 0
M  V30 6049 H 590.907 4.47982 3.98839 0
M  V30 6050 H 592.586 5.07361 4.01489 0
M  V30 6051 N 592.718 -0.936591 1.26751 0
M  V30 6052 C 593.681 -2.01752 1.08761 0
M  V30 6053 C 594.681 -1.60763 0.0344435 0
M  V30 6054 O 595.871 -1.71963 0.278258 0
M  V30 6055 C 593.003 -3.34543 0.655271 0
M  V30 6056 H 594.196 -2.19143 2.04735 0
M  V30 6057 H 591.749 -1.11618 1.09413 0
M  V30 6058 H 592.484 -3.22851 -0.30626 0
M  V30 6059 H 592.269 -3.65647 1.41578 0
M  V30 6060 H 593.759 -4.13944 0.551378 0
M  V30 6061 N 594.196 -1.08629 -1.14182 0
M  V30 6062 C 595.612 -0.814363 -1.3726 0
M  V30 6063 C 595.812 0.575271 -1.93114 0
M  V30 6064 O 594.868 1.33165 -2.1453 0
M  V30 6065 C 596.181 -1.8989 -2.33157 0
M  V30 6066 C 597.729 -1.92518 -2.46791 0
M  V30 6067 C 598.204 -3.00092 -3.45989 0
M  V30 6068 N 599.695 -2.99279 -3.53534 0
M  V30 6069 C 600.43 -3.79158 -4.30147 0
M  V30 6070 N 599.926 -4.68923 -5.09983 0
M  V30 6071 N 601.719 -3.67451 -4.25366 0
M  V30 6072 H 593.87 -1.98232 -0.762758 0
M  V30 6073 H 596.133 -0.860383 -0.398051 0
M  V30 6074 H 595.839 -2.89809 -1.99257 0
M  V30 6075 H 595.713 -1.77013 -3.33086 0
M  V30 6076 H 598.1 -0.932425 -2.79982 0
M  V30 6077 H 598.181 -2.09473 -1.46816 0
M  V30 6078 H 597.825 -3.99575 -3.13532 0
M  V30 6079 H 597.755 -2.80382 -4.45751 0
M  V30 6080 H 600.246 -2.3422 -2.96563 0
M  V30 6081 H 600.559 -5.26475 -5.65724 0
M  V30 6082 H 598.904 -4.72964 -5.09244 0
M  V30 6083 H 602.095 -2.9669 -3.62067 0
M  V30 6084 H 602.268 -4.29944 -4.84822 0
M  V30 6085 N 595.674 1.31259 -0.872281 0
M  V30 6086 C 596.904 2.00504 -0.498183 0
M  V30 6087 C 597.312 1.65632 0.914479 0
M  V30 6088 O 596.655 0.882849 1.61095 0
M  V30 6089 C 596.717 3.5482 -0.578194 0
M  V30 6090 C 596.381 4.13172 -1.95289 0
M  V30 6091 C 597.378 4.30107 -2.92069 0
M  V30 6092 C 595.063 4.48846 -2.25483 0
M  V30 6093 C 597.057 4.81908 -4.17185 0
M  V30 6094 C 594.744 5.00349 -3.50847 0
M  V30 6095 C 595.742 5.16831 -4.46514 0
M  V30 6096 O 595.43 5.67228 -5.69656 0
M  V30 6097 H 595.162 0.648055 -0.192354 0
M  V30 6098 H 597.716 1.6841 -1.17589 0
M  V30 6099 H 595.946 3.86383 0.156438 0
M  V30 6100 H 597.635 4.05318 -0.217192 0
M  V30 6101 H 598.401 4.02862 -2.7005 0
M  V30 6102 H 594.28 4.35292 -1.51795 0
M  V30 6103 H 597.824 4.94688 -4.91863 0
M  V30 6104 H 593.721 5.27028 -3.72708 0
M  V30 6105 H 594.489 5.85592 -5.7186 0
M  V30 6106 N 597.152 0.631951 1.44375 0
M  V30 6107 C 598.082 -0.0593243 2.33425 0
M  V30 6108 C 599.063 -0.833964 1.48253 0
M  V30 6109 O 600.248 -0.799682 1.76971 0
M  V30 6110 C 597.378 -1.04096 3.31333 0
M  V30 6111 C 596.332 -0.377899 4.26328 0
M  V30 6112 C 595.658 -1.4695 5.14111 0
M  V30 6113 C 596.958 0.716371 5.17364 0
M  V30 6114 H 598.652 0.684287 2.91475 0
M  V30 6115 H 596.198 0.330518 1.40156 0
M  V30 6116 H 598.151 -1.53331 3.92514 0
M  V30 6117 H 596.875 -1.81547 2.71493 0
M  V30 6118 H 595.534 0.0938054 3.6648 0
M  V30 6119 H 595.182 -2.2349 4.50623 0
M  V30 6120 H 594.882 -1.03121 5.78481 0
M  V30 6121 H 596.406 -1.96363 5.78164 0
M  V30 6122 H 597.82 0.307089 5.72477 0
M  V30 6123 H 596.217 1.07784 5.90341 0
M  V30 6124 H 597.287 1.58316 4.58327 0
M  V30 6125 N 598.631 -1.53133 0.372548 0
M  V30 6126 C 599.861 -2.05476 -0.215202 0
M  V30 6127 C 600.269 -1.24534 -1.42436 0
M  V30 6128 O 599.612 -0.280771 -1.81542 0
M  V30 6129 C 599.674 -3.53276 -0.666068 0
M  V30 6130 C 599.338 -4.54998 0.427342 0
M  V30 6131 C 600.335 -5.03911 1.27944 0
M  V30 6132 C 598.02 -4.98828 0.589579 0
M  V30 6133 C 600.014 -5.95263 2.27905 0
M  V30 6134 C 597.701 -5.89984 1.59255 0
M  V30 6135 C 598.699 -6.38093 2.43571 0
M  V30 6136 O 598.387 -7.27451 3.42156 0
M  V30 6137 H 598.119 -0.67481 -0.040099 0
M  V30 6138 H 600.673 -1.98409 0.531312 0
M  V30 6139 H 598.903 -3.57904 -1.4643 0
M  V30 6140 H 600.592 -3.88442 -1.1776 0
M  V30 6141 H 601.358 -4.70792 1.16532 0
M  V30 6142 H 597.237 -4.60965 -0.0569456 0
M  V30 6143 H 600.781 -6.32736 2.93753 0
M  V30 6144 H 596.678 -6.22518 1.70711 0
M  V30 6145 H 597.446 -7.45467 3.37967 0
M  V30 6146 N 600.109 -0.101901 -1.5727 0
M  V30 6147 C 601.337 0.568392 -1.98939 0
M  V30 6148 C 601.752 1.61301 -0.981194 0
M  V30 6149 O 601.109 1.82478 0.0282869 0
M  V30 6150 C 601.16 1.20997 -3.40649 0
M  V30 6151 O 600.881 0.207129 -4.3761 0
M  V30 6152 C 602.382 1.96523 -3.97358 0
M  V30 6153 H 599.602 0.15186 -0.65359 0
M  V30 6154 H 602.146 -0.183198 -2.03678 0
M  V30 6155 H 600.301 1.91245 -3.36904 0
M  V30 6156 H 600.715 0.671071 -5.20189 0
M  V30 6157 H 602.189 2.36764 -4.98645 0
M  V30 6158 H 602.666 2.83376 -3.35552 0
M  V30 6159 H 603.272 1.31076 -4.04598 0
M  V30 6160 N 601.587 1.56661 0.17182 0
M  V30 6161 C 602.834 1.81965 0.888529 0
M  V30 6162 C 603.162 0.6789 1.82267 0
M  V30 6163 O 602.417 -0.333875 1.92831 0
M  V30 6164 C 602.716 3.13435 1.71736 0
M  V30 6165 C 602.382 4.41159 0.932184 0
M  V30 6166 C 601.044 4.75851 0.715481 0
M  V30 6167 C 603.396 5.19803 0.381387 0
M  V30 6168 C 600.724 5.86666 -0.063126 0
M  V30 6169 C 603.076 6.31433 -0.384129 0
M  V30 6170 C 601.74 6.64692 -0.611637 0
M  V30 6171 H 601.01 0.665859 0.325136 0
M  V30 6172 H 603.657 1.90884 0.153495 0
M  V30 6173 H 601.962 2.99857 2.52177 0
M  V30 6174 H 603.659 3.30224 2.27493 0
M  V30 6175 H 600.249 4.13947 1.11112 0
M  V30 6176 H 604.433 4.93396 0.536148 0
M  V30 6177 H 599.689 6.10892 -0.249136 0
M  V30 6178 H 603.863 6.91577 -0.818185 0
M  V30 6179 H 601.49 7.50398 -1.21684 0
M  V30 6180 N 603.065 -0.440357 1.51323 0
M  V30 6181 C 604.481 -0.7766 1.39431 0
M  V30 6182 C 604.681 -1.95838 0.474296 0
M  V30 6183 O 603.737 -2.52398 -0.0716692 0
M  V30 6184 C 605.05 -1.05981 2.81405 0
M  V30 6185 C 606.598 -1.16442 2.90534 0
M  V30 6186 C 607.073 -1.48058 4.33408 0
M  V30 6187 N 608.564 -1.54988 4.36501 0
M  V30 6188 C 609.299 -1.81017 5.44078 0
M  V30 6189 N 608.795 -2.04858 6.61819 0
M  V30 6190 N 610.588 -1.82774 5.31554 0
M  V30 6191 H 602.739 0.338006 2.09693 0
M  V30 6192 H 605.002 0.0888072 0.943831 0
M  V30 6193 H 604.708 -0.264173 3.50706 0
M  V30 6194 H 604.582 -1.98822 3.20546 0
M  V30 6195 H 606.969 -1.95068 2.21432 0
M  V30 6196 H 607.05 -0.215088 2.54894 0
M  V30 6197 H 606.694 -0.699605 5.03059 0
M  V30 6198 H 606.624 -2.44192 4.66559 0
M  V30 6199 H 609.115 -1.38479 3.51613 0
M  V30 6200 H 609.428 -2.2408 7.396 0
M  V30 6201 H 607.773 -2.02187 6.6494 0
M  V30 6202 H 610.964 -1.63665 4.38556 0
M  V30 6203 H 611.137 -2.02722 6.15474 0
M  V30 6204 N 604.543 -1.41418 -0.695603 0
M  V30 6205 C 605.506 -1.42988 -1.79129 0
M  V30 6206 C 606.506 -0.320514 -1.57573 0
M  V30 6207 O 607.696 -0.58039 -1.64247 0
M  V30 6208 C 604.828 -1.24122 -3.175 0
M  V30 6209 H 606.021 -2.40526 -1.7913 0
M  V30 6210 H 603.574 -1.2756 -0.903225 0
M  V30 6211 H 604.309 -0.274253 -3.23138 0
M  V30 6212 H 604.094 -2.045 -3.34547 0
M  V30 6213 H 605.584 -1.28056 -3.97481 0
M  V30 6214 N 606.021 0.929856 -1.27246 0
M  V30 6215 C 607.437 1.20542 -1.04603 0
M  V30 6216 C 607.637 2.00276 0.221754 0
M  V30 6217 O 606.693 2.34835 0.927833 0
M  V30 6218 C 608.006 1.95566 -2.28417 0
M  V30 6219 C 609.554 2.08513 -2.33433 0
M  V30 6220 C 610.029 2.86943 -3.5697 0
M  V30 6221 N 611.52 2.94512 -3.57515 0
M  V30 6222 C 612.255 3.55656 -4.49774 0
M  V30 6223 N 611.751 4.18209 -5.52334 0
M  V30 6224 N 613.544 3.53038 -4.37402 0
M  V30 6225 H 605.695 0.397113 -2.08655 0
M  V30 6226 H 607.958 0.238277 -0.917566 0
M  V30 6227 H 607.664 1.44395 -3.20691 0
M  V30 6228 H 607.538 2.9619 -2.33563 0
M  V30 6229 H 609.925 2.58872 -1.41666 0
M  V30 6230 H 610.006 1.07117 -2.32292 0
M  V30 6231 H 609.65 2.37268 -4.49072 0
M  V30 6232 H 609.58 3.8862 -3.55362 0
M  V30 6233 H 612.071 2.50053 -2.83341 0
M  V30 6234 H 612.384 4.62796 -6.18902 0
M  V30 6235 H 610.729 4.16761 -5.56179 0
M  V30 6236 H 613.92 3.0337 -3.56489 0
M  V30 6237 H 614.093 4.004 -5.09493 0
M  V30 6238 N 607.499 1.09233 1.13605 0
M  V30 6239 C 608.431 0.687794 2.18637 0
M  V30 6240 C 609.444 -0.26936 1.60556 0
M  V30 6241 O 610.633 -0.0557162 1.78413 0
M  V30 6242 C 607.733 -0.00751901 3.38899 0
M  V30 6243 C 606.906 0.97067 4.26494 0
M  V30 6244 C 605.965 0.309129 5.25291 0
M  V30 6245 O 604.991 0.956149 5.61112 0
M  V30 6246 N 606.193 -0.937555 5.72879 0
M  V30 6247 H 608.958 1.59141 2.53957 0
M  V30 6248 H 606.519 0.979515 1.28907 0
M  V30 6249 H 608.511 -0.461238 4.02063 0
M  V30 6250 H 607.081 -0.813353 3.01833 0
M  V30 6251 H 606.301 1.603 3.60135 0
M  V30 6252 H 607.589 1.63323 4.81875 0
M  V30 6253 H 606.987 -1.48281 5.4592 0
M  V30 6254 H 605.544 -1.33463 6.3799 0
M  V30 6255 N 608.977 -1.30795 0.87923 0
M  V30 6256 C 610.223 -1.96653 0.495519 0
M  V30 6257 C 610.556 -1.69282 -0.951703 0
M  V30 6258 O 609.831 -0.994374 -1.6716 0
M  V30 6259 C 610.114 -3.51898 0.764174 0
M  V30 6260 C 609.967 -3.88808 2.2616 0
M  V30 6261 C 611.286 -4.39462 0.236825 0
M  V30 6262 H 608.405 -0.7143 0.181507 0
M  V30 6263 H 611.047 -1.54765 1.10217 0
M  V30 6264 H 609.197 -3.87709 0.247841 0
M  V30 6265 H 610.869 -3.63051 2.8459 0
M  V30 6266 H 609.112 -3.37082 2.73053 0
M  V30 6267 H 609.783 -4.97086 2.4002 0
M  V30 6268 H 612.259 -4.10528 0.678683 0
M  V30 6269 H 611.135 -5.47018 0.454176 0
M  V30 6270 H 611.396 -4.33621 -0.861683 0
M  V30 6271 N 610.455 -0.639598 -1.44038 0
M  V30 6272 C 611.388 0.109736 -2.27936 0
M  V30 6273 C 612.366 0.843095 -1.39035 0
M  V30 6274 O 613.55 0.845456 -1.68476 0
M  V30 6275 C 610.677 1.16173 -3.18153 0
M  V30 6276 C 609.723 0.527954 -4.2322 0
M  V30 6277 S 610.556 -0.688318 -5.31058 0
M  V30 6278 C 611.712 0.363481 -6.24844 0
M  V30 6279 H 611.945 -0.601986 -2.91142 0
M  V30 6280 H 609.478 -0.42802 -1.48349 0
M  V30 6281 H 611.436 1.76372 -3.7068 0
M  V30 6282 H 610.097 1.84569 -2.54151 0
M  V30 6283 H 609.29 1.32054 -4.86393 0
M  V30 6284 H 608.892 0.000396444 -3.74 0
M  V30 6285 H 611.184 1.23362 -6.66174 0
M  V30 6286 H 612.127 -0.23288 -7.07717 0
M  V30 6287 H 612.535 0.693179 -5.60228 0
M  V30 6288 N 611.933 1.52934 -0.380664 0
M  V30 6289 C 613.182 2.00651 0.205477 0
M  V30 6290 C 613.495 1.27164 1.48623 0
M  V30 6291 O 614.701 1.65547 2.15189 0
M  V30 6292 C 613.157 3.57479 0.416726 0
M  V30 6293 C 612.765 4.39857 -0.850268 0
M  V30 6294 C 614.509 4.13509 0.959702 0
M  V30 6295 C 612.416 5.88269 -0.607773 0
M  V30 6296 H 611.346 0.749684 0.0805614 0
M  V30 6297 H 613.997 1.76508 -0.501732 0
M  V30 6298 H 612.379 3.77836 1.18557 0
M  V30 6299 H 613.553 4.31269 -1.62307 0
M  V30 6300 H 611.868 3.95005 -1.31756 0
M  V30 6301 H 614.465 5.22039 1.15669 0
M  V30 6302 H 614.808 3.69054 1.92626 0
M  V30 6303 H 615.341 3.9701 0.250645 0
M  V30 6304 H 612.08 6.3703 -1.54509 0
M  V30 6305 H 611.6 5.99667 0.126247 0
M  V30 6306 H 613.279 6.46558 -0.239014 0
M  V30 6307 N 613.412 0.11024 1.57214 0
M  V30 6308 C 614.637 -0.561179 1.99664 0
M  V30 6309 C 615.062 -1.59985 0.989266 0
M  V30 6310 O 614.42 -1.81255 -0.0402399 0
M  V30 6311 C 614.468 -1.17189 3.41027 0
M  V30 6312 O 613.572 -2.28755 3.4314 0
M  V30 6313 H 612.913 -0.14101 0.648855 0
M  V30 6314 H 615.443 0.196128 2.03658 0
M  V30 6315 H 615.453 -1.50954 3.79047 0
M  V30 6316 H 614.128 -0.411041 4.13864 0
M  V30 6317 H 612.705 -1.96495 3.16929 0
M  V30 6318 N 614.89 -1.56749 -0.16351 0
M  V30 6319 C 615.838 -1.97939 -1.22159 0
M  V30 6320 C 616.832 -0.869288 -1.45395 0
M  V30 6321 O 618.038 -1.05443 -1.45883 0
M  V30 6322 H 614.413 -0.629869 -0.410815 0
M  V30 6323 H 616.384 -2.86115 -0.847381 0
M  V30 6324 C 615.133 -2.36206 -2.55151 0
M  V30 6325 H 614.456 -3.2117 -2.38097 0
M  V30 6326 H 615.896 -2.68863 -3.27854 0
M  V30 6327 C 614.355 -1.20841 -3.14482 0
M  V30 6328 O 614.885 -0.500258 -3.98573 0
M  V30 6329 N 613.091 -0.976943 -2.73686 0
M  V30 6330 H 612.638 -1.55457 -2.05404 0
M  V30 6331 H 612.596 -0.206912 -3.13718 0
M  V30 6332 N 616.368 0.432326 -1.51554 0
M  V30 6333 C 617.616 1.17901 -1.64146 0
M  V30 6334 C 617.937 1.91604 -0.362367 0
M  V30 6335 O 617.207 1.85764 0.621968 0
M  V30 6336 H 615.787 0.438206 -0.604966 0
M  V30 6337 H 618.449 0.495172 -1.88505 0
M  V30 6338 H 617.545 1.90584 -2.47152 0
M  V30 6339 N 617.846 1.41785 0.688094 0
M  V30 6340 C 618.778 1.40159 1.81351 0
M  V30 6341 C 619.791 0.30262 1.59963 0
M  V30 6342 O 620.98 0.564841 1.69327 0
M  V30 6343 C 618.08 1.16517 3.1824 0
M  V30 6344 C 617.253 2.38597 3.66593 0
M  V30 6345 C 616.312 2.10699 4.82174 0
M  V30 6346 O 615.338 2.83798 4.93404 0
M  V30 6347 N 616.54 1.10187 5.69947 0
M  V30 6348 H 619.305 2.3716 1.83236 0
M  V30 6349 H 616.866 1.36494 0.870697 0
M  V30 6350 H 618.858 0.957941 3.93199 0
M  V30 6351 H 617.428 0.280873 3.11336 0
M  V30 6352 H 616.648 2.74974 2.82459 0
M  V30 6353 H 617.936 3.19919 3.95638 0
M  V30 6354 H 617.334 0.497016 5.63512 0
M  V30 6355 H 615.891 0.954518 6.44773 0
M  V30 6356 N 619.324 -0.923095 1.27737 0
M  V30 6357 C 620.256 -2.02871 1.06658 0
M  V30 6358 C 621.269 -1.62786 0.0212095 0
M  V30 6359 O 622.458 -1.76548 0.263267 0
M  V30 6360 C 619.558 -3.33603 0.59682 0
M  V30 6361 C 618.731 -4.02354 1.71551 0
M  V30 6362 C 617.79 -5.11364 1.24071 0
M  V30 6363 O 616.816 -5.35075 1.94123 0
M  V30 6364 N 618.018 -5.80416 0.0988444 0
M  V30 6365 H 620.783 -2.21515 2.01869 0
M  V30 6366 H 618.344 -1.09378 1.19365 0
M  V30 6367 H 620.336 -4.03845 0.262984 0
M  V30 6368 H 618.906 -3.11499 -0.262187 0
M  V30 6369 H 618.126 -3.25786 2.2194 0
M  V30 6370 H 619.414 -4.45035 2.46619 0
M  V30 6371 H 618.812 -5.63611 -0.485743 0
M  V30 6372 H 617.369 -6.51563 -0.17578 0
M  V30 6373 N 620.802 -1.09834 -1.13024 0
M  V30 6374 C 622.03 -0.858902 -1.8823 0
M  V30 6375 C 622.445 0.590164 -1.79339 0
M  V30 6376 O 621.802 1.4065 -1.16292 0
M  V30 6377 C 621.853 -1.29066 -3.37675 0
M  V30 6378 O 621.574 -2.6829 -3.46341 0
M  V30 6379 C 623.075 -1.08421 -4.29837 0
M  V30 6380 H 620.295 -0.308713 -0.595766 0
M  V30 6381 H 622.839 -1.4614 -1.4305 0
M  V30 6382 H 620.994 -0.731961 -3.80422 0
M  V30 6383 H 621.408 -2.86598 -4.39274 0
M  V30 6384 H 622.882 -1.43553 -5.33007 0
M  V30 6385 H 623.359 -0.0223315 -4.39194 0
M  V30 6386 H 623.965 -1.62907 -3.92863 0
M  V30 6387 N 622.28 1.30327 -0.886154 0
M  V30 6388 C 623.213 2.26241 -0.298407 0
M  V30 6389 C 624.191 1.51839 0.581704 0
M  V30 6390 O 625.375 1.80851 0.531536 0
M  V30 6391 C 622.502 3.33768 0.575888 0
M  V30 6392 C 621.548 4.25852 -0.235057 0
M  V30 6393 S 622.381 5.10277 -1.62411 0
M  V30 6394 C 623.537 6.21313 -0.756368 0
M  V30 6395 H 623.77 2.75744 -1.11141 0
M  V30 6396 H 621.303 1.38341 -0.685651 0
M  V30 6397 H 623.261 3.96186 1.07458 0
M  V30 6398 H 621.922 2.82986 1.363 0
M  V30 6399 H 621.115 5.02143 0.432198 0
M  V30 6400 H 620.717 3.68015 -0.666409 0
M  V30 6401 H 623.009 6.77495 0.0261451 0
M  V30 6402 H 623.952 6.92226 -1.49093 0
M  V30 6403 H 624.36 5.63611 -0.316749 0
M  V30 6404 N 623.758 0.647228 1.43697 0
M  V30 6405 C 625.006 0.157876 2.01482 0
M  V30 6406 C 625.327 -1.23039 1.51282 0
M  V30 6407 O 624.597 -1.82071 0.722982 0
M  V30 6408 H 623.177 0.0553745 0.744945 0
M  V30 6409 H 625.839 0.83755 1.75986 0
M  V30 6410 H 624.935 0.137895 3.11795 0
M  V30 6411 N 625.236 -1.5273 0.388769 0
M  V30 6412 C 626.482 -2.01871 -0.193877 0
M  V30 6413 C 626.815 -1.27475 -1.46505 0
M  V30 6414 O 626.09 -0.375063 -1.90849 0
M  V30 6415 C 626.373 -3.5712 -0.462336 0
M  V30 6416 C 626.226 -4.42186 0.824091 0
M  V30 6417 C 627.545 -4.21881 -1.25319 0
M  V30 6418 H 624.664 -0.733764 -0.0689899 0
M  V30 6419 H 627.306 -1.82796 0.518231 0
M  V30 6420 H 625.456 -3.73504 -1.06896 0
M  V30 6421 H 627.128 -4.37554 1.46096 0
M  V30 6422 H 625.371 -4.09219 1.43952 0
M  V30 6423 H 626.042 -5.48828 0.590905 0
M  V30 6424 H 628.518 -4.0947 -0.73981 0
M  V30 6425 H 627.394 -5.30487 -1.40977 0
M  V30 6426 H 627.655 -3.79478 -2.26824 0
M  V30 6427 N 626.714 -0.118576 -1.57153 0
M  V30 6428 C 627.677 0.817464 -2.14127 0
M  V30 6429 C 628.677 1.1949 -1.07604 0
M  V30 6430 O 629.867 1.12048 -1.33382 0
M  V30 6431 C 626.999 2.10541 -2.68115 0
M  V30 6432 H 628.192 0.322339 -2.98163 0
M  V30 6433 H 625.745 0.130655 -1.55753 0
M  V30 6434 H 626.48 2.64485 -1.87665 0
M  V30 6435 H 626.265 1.84425 -3.4602 0
M  V30 6436 H 627.755 2.77453 -3.12105 0
M  V30 6437 N 628.193 1.56834 0.155195 0
M  V30 6438 C 629.123 2.00678 1.19376 0
M  V30 6439 C 630.104 0.884973 1.45266 0
M  V30 6440 O 631.289 1.1522 1.56326 0
M  V30 6441 C 628.419 2.38042 2.5289 0
M  V30 6442 C 627.373 3.53332 2.41538 0
M  V30 6443 C 626.699 3.76485 3.79688 0
M  V30 6444 C 627.999 4.86265 1.9064 0
M  V30 6445 H 629.693 2.87688 0.829232 0
M  V30 6446 H 627.239 1.38407 0.397445 0
M  V30 6447 H 629.192 2.67314 3.25763 0
M  V30 6448 H 627.916 1.4796 2.91162 0
M  V30 6449 H 626.575 3.24213 1.71117 0
M  V30 6450 H 626.223 2.83667 4.15382 0
M  V30 6451 H 625.923 4.54068 3.72956 0
M  V30 6452 H 627.447 4.08174 4.54122 0
M  V30 6453 H 628.861 5.14308 2.53299 0
M  V30 6454 H 627.258 5.67597 1.94818 0
M  V30 6455 H 628.328 4.77184 0.861596 0
M  V30 6456 N 629.671 -0.424282 1.51781 0
M  V30 6457 C 631.082 -1.00368 1.57427 0
M  V30 6458 C 631.433 -1.91962 0.40558 0
M  V30 6459 O 630.558 -2.111 -0.47601 0
M  V30 6460 C 631.153 -1.82707 2.85313 0
M  V30 6461 C 629.712 -2.35675 2.93487 0
M  V30 6462 C 628.859 -1.1524 2.5222 0
M  V30 6463 H 631.81 -0.205064 1.5737 0
M  V30 6464 H 631.831 -2.68294 2.69812 0
M  V30 6465 H 631.343 -1.16017 3.70353 0
M  V30 6466 H 629.444 -3.05781 2.12906 0
M  V30 6467 H 629.557 -2.67578 3.97415 0
M  V30 6468 H 627.921 -1.50174 2.05718 0
M  V30 6469 H 628.704 -0.5014 3.39619 0
M  V30 6470 N 631.149 -1.42148 -0.680565 0
M  V30 6471 C 632.395 -1.4352 -1.44131 0
M  V30 6472 C 632.75 -0.0486244 -1.92339 0
M  V30 6473 O 632.043 0.92819 -1.67616 0
M  V30 6474 C 632.237 -2.38945 -2.65782 0
M  V30 6475 C 632.066 -3.86743 -2.29477 0
M  V30 6476 C 630.836 -4.5532 -2.19115 0
M  V30 6477 C 633.034 -4.77321 -1.91491 0
M  V30 6478 N 631.016 -5.88174 -1.75853 0
M  V30 6479 C 632.387 -5.99238 -1.59103 0
M  V30 6480 C 634.442 -4.64829 -1.78432 0
M  V30 6481 C 633.145 -7.10053 -1.14968 0
M  V30 6482 C 635.171 -5.75621 -1.35702 0
M  V30 6483 C 634.533 -6.96645 -1.04234 0
M  V30 6484 H 630.632 -0.580363 -0.524121 0
M  V30 6485 H 633.216 -1.78132 -0.785939 0
M  V30 6486 H 631.387 -2.06403 -3.29017 0
M  V30 6487 H 633.119 -2.30935 -3.32342 0
M  V30 6488 H 629.874 -4.09456 -2.37998 0
M  V30 6489 H 630.298 -6.58625 -1.56661 0
M  V30 6490 H 634.94 -3.71745 -2.01409 0
M  V30 6491 H 632.658 -8.0299 -0.907365 0
M  V30 6492 H 636.244 -5.67964 -1.26126 0
M  V30 6493 H 635.124 -7.80918 -0.716707 0
M  V30 6494 N 632.627 0.916307 -1.28225 0
M  V30 6495 C 633.59 1.99996 -1.11957 0
M  V30 6496 C 634.59 1.60688 -0.0600152 0
M  V30 6497 O 635.78 1.71499 -0.30558 0
M  V30 6498 C 632.912 3.33458 -0.708411 0
M  V30 6499 H 634.105 2.15858 -2.08196 0
M  V30 6500 H 631.658 1.09863 -1.11175 0
M  V30 6501 H 632.393 3.23297 0.254859 0
M  V30 6502 H 632.178 3.63349 -1.47377 0
M  V30 6503 H 633.668 4.13014 -0.617164 0
M  V30 6504 N 634.105 1.10431 1.1244 0
M  V30 6505 C 635.354 0.841539 1.83306 0
M  V30 6506 C 635.667 -0.634961 1.85007 0
M  V30 6507 O 636.873 -1.01363 2.51869 0
M  V30 6508 C 635.329 1.45565 3.29149 0
M  V30 6509 C 634.937 2.96544 3.35806 0
M  V30 6510 C 636.681 1.27227 4.04986 0
M  V30 6511 C 634.588 3.5099 4.75983 0
M  V30 6512 H 633.518 0.311156 0.686803 0
M  V30 6513 H 636.169 1.32829 1.26604 0
M  V30 6514 H 634.551 0.896574 3.85717 0
M  V30 6515 H 635.725 3.58766 2.89177 0
M  V30 6516 H 634.04 3.14036 2.73442 0
M  V30 6517 H 636.637 1.65348 5.08492 0
M  V30 6518 H 636.98 0.213834 4.1575 0
M  V30 6519 H 637.513 1.79941 3.54776 0
M  V30 6520 H 634.252 4.56499 4.70413 0
M  V30 6521 H 633.772 2.93535 5.23065 0
M  V30 6522 H 635.451 3.48808 5.44924 0
M  V30 6523 N 635.583 -1.29855 0.893053 0
M  V30 6524 C 636.831 -1.9544 0.514566 0
M  V30 6525 C 637.152 -1.70795 -0.940959 0
M  V30 6526 O 636.422 -1.03601 -1.66264 0
M  V30 6527 H 635.002 -0.723137 0.187302 0
M  V30 6528 H 637.664 -1.58234 1.13789 0
M  V30 6529 H 636.76 -3.04341 0.691581 0
M  V30 6530 N 637.061 -0.65484 -1.43351 0
M  V30 6531 C 638.024 0.0263562 -2.29185 0
M  V30 6532 C 639.024 0.748951 -1.42293 0
M  V30 6533 O 640.214 0.589957 -1.63906 0
M  V30 6534 C 637.346 1.04806 -3.2439 0
M  V30 6535 H 638.539 -0.728883 -2.90908 0
M  V30 6536 H 636.092 -0.416149 -1.50658 0
M  V30 6537 H 636.827 1.83247 -2.67565 0
M  V30 6538 H 636.612 0.533554 -3.88453 0
M  V30 6539 H 638.102 1.52372 -3.88809 0
M  V30 6540 N 638.539 1.52521 -0.396863 0
M  V30 6541 C 639.785 2.02641 0.175606 0
M  V30 6542 C 640.14 1.27782 1.43839 0
M  V30 6543 O 639.433 0.371921 1.87956 0
M  V30 6544 C 639.627 3.5403 0.489677 0
M  V30 6545 C 639.456 4.43551 -0.741113 0
M  V30 6546 C 638.226 4.8927 -1.26265 0
M  V30 6547 C 640.424 4.88263 -1.61565 0
M  V30 6548 N 638.406 5.62884 -2.4502 0
M  V30 6549 C 639.777 5.60534 -2.64955 0
M  V30 6550 C 641.832 4.70294 -1.63486 0
M  V30 6551 C 640.535 6.16744 -3.70162 0
M  V30 6552 C 642.561 5.27392 -2.67603 0
M  V30 6553 C 641.923 5.99575 -3.69715 0
M  V30 6554 H 638.022 0.781563 0.0261477 0
M  V30 6555 H 640.606 1.86816 -0.548454 0
M  V30 6556 H 638.777 3.69952 1.18279 0
M  V30 6557 H 640.509 3.90843 1.04996 0
M  V30 6558 H 637.264 4.66403 -0.822509 0
M  V30 6559 H 637.688 6.04339 -3.05128 0
M  V30 6560 H 642.33 4.13985 -0.858848 0
M  V30 6561 H 640.048 6.72131 -4.48626 0
M  V30 6562 H 643.634 5.15365 -2.69982 0
M  V30 6563 H 642.514 6.42967 -4.48958 0
M  V30 6564 N 640.017 0.126909 1.57088 0
M  V30 6565 C 640.947 -0.816847 2.18746 0
M  V30 6566 C 641.928 -1.27161 1.12979 0
M  V30 6567 O 643.113 -1.33279 1.41246 0
M  V30 6568 C 640.243 -2.06398 2.79315 0
M  V30 6569 C 639.197 -1.74673 3.90735 0
M  V30 6570 C 638.523 -3.06482 4.38147 0
M  V30 6571 C 639.823 -1.0089 5.12463 0
M  V30 6572 H 641.517 -0.303032 2.97863 0
M  V30 6573 H 639.063 -0.144314 1.43275 0
M  V30 6574 H 641.016 -2.72885 3.2111 0
M  V30 6575 H 639.74 -2.60118 1.975 0
M  V30 6576 H 638.399 -1.10572 3.49527 0
M  V30 6577 H 638.047 -3.58152 3.5318 0
M  V30 6578 H 637.747 -2.86025 5.13287 0
M  V30 6579 H 639.271 -3.74073 4.82599 0
M  V30 6580 H 640.685 -1.57546 5.51228 0
M  V30 6581 H 639.082 -0.905006 5.93237 0
M  V30 6582 H 640.152 0.00297335 4.849 0
M  V30 6583 N 641.495 -1.56914 -0.146875 0
M  V30 6584 C 642.741 -1.83628 -0.860741 0
M  V30 6585 C 643.074 -0.708528 -1.80813 0
M  V30 6586 O 642.349 0.287838 -1.92358 0
M  V30 6587 C 642.632 -3.20836 -1.63511 0
M  V30 6588 C 642.485 -4.44174 -0.709199 0
M  V30 6589 C 643.804 -3.55268 -2.59756 0
M  V30 6590 H 640.923 -0.667949 -0.311468 0
M  V30 6591 H 643.565 -1.89582 -0.125936 0
M  V30 6592 H 641.715 -3.15891 -2.26153 0
M  V30 6593 H 643.387 -4.61205 -0.0937781 0
M  V30 6594 H 641.63 -4.33796 -0.0187856 0
M  V30 6595 H 642.301 -5.36785 -1.28707 0
M  V30 6596 H 644.777 -3.60824 -2.07232 0
M  V30 6597 H 643.653 -4.52303 -3.10987 0
M  V30 6598 H 643.914 -2.81231 -3.41118 0
M  V30 6599 N 642.974 0.416227 -1.52004 0
M  V30 6600 C 643.922 1.5272 -1.7544 0
M  V30 6601 C 644.916 1.57596 -0.621289 0
M  V30 6602 O 646.122 1.61087 -0.803172 0
M  V30 6603 H 642.497 0.507772 -0.554682 0
M  V30 6604 H 644.468 1.30136 -2.68528 0
M  V30 6605 C 643.217 2.90165 -1.91571 0
M  V30 6606 H 642.54 2.87154 -2.78178 0
M  V30 6607 H 643.98 3.67211 -2.11972 0
M  V30 6608 C 642.439 3.29947 -0.680942 0
M  V30 6609 O 642.969 4.01403 0.154527 0
M  V30 6610 N 641.175 2.8593 -0.518894 0
M  V30 6611 H 640.722 2.2795 -1.19986 0
M  V30 6612 H 640.68 3.12907 0.305985 0
M  V30 6613 N 644.452 1.42507 0.673017 0
M  V30 6614 C 645.863 1.38347 1.25367 0
M  V30 6615 C 646.214 0.0776327 1.96046 0
M  V30 6616 O 645.339 -0.823571 2.00116 0
M  V30 6617 C 645.934 2.506 2.28002 0
M  V30 6618 C 644.493 2.49767 2.81591 0
M  V30 6619 C 643.64 2.293 1.55938 0
M  V30 6620 H 646.591 1.51695 0.466288 0
M  V30 6621 H 646.612 2.20953 3.09774 0
M  V30 6622 H 646.124 3.45627 1.76532 0
M  V30 6623 H 644.225 1.58563 3.37177 0
M  V30 6624 H 644.338 3.46867 3.30485 0
M  V30 6625 H 642.702 1.77594 1.82572 0
M  V30 6626 H 643.485 3.26385 1.06431 0
M  V30 6627 N 645.93 -0.909495 1.28709 0
M  V30 6628 C 646.84 -2.04558 1.14861 0
M  V30 6629 C 647.856 -1.73842 0.0741621 0
M  V30 6630 O 649.032 -1.99383 0.2843 0
M  V30 6631 C 646.097 -3.36957 0.816148 0
M  V30 6632 C 645.158 -3.81255 1.97341 0
M  V30 6633 C 644.391 -5.07335 1.65671 0
M  V30 6634 O 644.614 -5.67514 0.573053 0
M  V30 6635 O 643.548 -5.47449 2.50167 0
M  V30 6636 H 647.374 -2.19161 2.10243 0
M  V30 6637 H 644.959 -1.03159 1.08068 0
M  V30 6638 H 646.841 -4.16436 0.644873 0
M  V30 6639 H 645.516 -3.2352 -0.107983 0
M  V30 6640 H 644.423 -3.02584 2.19986 0
M  V30 6641 H 645.756 -3.99261 2.87839 0
M  V30 6642 N 647.408 -1.11026 -1.11852 0
M  V30 6643 C 648.824 -0.843294 -1.35502 0
M  V30 6644 C 649.024 0.534179 -1.9429 0
M  V30 6645 O 648.08 1.28585 -2.17307 0
M  V30 6646 C 649.393 -1.94793 -2.29077 0
M  V30 6647 C 650.941 -1.97709 -2.42652 0
M  V30 6648 C 651.416 -3.07364 -3.39546 0
M  V30 6649 N 652.907 -3.0671 -3.47107 0
M  V30 6650 C 653.642 -3.88197 -4.22008 0
M  V30 6651 N 653.138 -4.79635 -4.99922 0
M  V30 6652 N 654.931 -3.76391 -4.17476 0
M  V30 6653 H 647.082 -1.99805 -0.720538 0
M  V30 6654 H 649.345 -0.868633 -0.379711 0
M  V30 6655 H 649.051 -2.93971 -1.93065 0
M  V30 6656 H 648.925 -1.84039 -3.29256 0
M  V30 6657 H 651.312 -0.991604 -2.77941 0
M  V30 6658 H 651.393 -2.1254 -1.4234 0
M  V30 6659 H 651.037 -4.06136 -3.04985 0
M  V30 6660 H 650.967 -2.89774 -4.39703 0
M  V30 6661 H 653.458 -2.40457 -2.91528 0
M  V30 6662 H 653.771 -5.38357 -5.54429 0
M  V30 6663 H 652.116 -4.8366 -4.99097 0
M  V30 6664 H 655.307 -3.04303 -3.55693 0
M  V30 6665 H 655.48 -4.40131 -4.75593 0
M  V30 6666 N 648.886 1.2938 -0.899927 0
M  V30 6667 C 649.833 2.27713 -0.376243 0
M  V30 6668 C 650.803 1.57016 0.541774 0
M  V30 6669 O 651.988 1.84997 0.466966 0
M  V30 6670 C 649.128 3.42889 0.39 0
M  V30 6671 C 648.241 4.28369 -0.558938 0
M  V30 6672 C 647.376 5.30726 0.224379 0
M  V30 6673 C 646.415 6.07862 -0.719068 0
M  V30 6674 N 645.552 7.02094 0.0298569 0
M  V30 6675 H 650.392 2.71888 -1.21988 0
M  V30 6676 H 647.929 1.33724 -0.612879 0
M  V30 6677 H 649.887 4.08443 0.850314 0
M  V30 6678 H 648.517 2.99743 1.19809 0
M  V30 6679 H 647.569 3.62986 -1.13777 0
M  V30 6680 H 648.881 4.82068 -1.2811 0
M  V30 6681 H 648.035 6.02098 0.745881 0
M  V30 6682 H 646.774 4.77759 0.979674 0
M  V30 6683 H 645.779 5.35353 -1.25207 0
M  V30 6684 H 647.004 6.62917 -1.4737 0
M  V30 6685 H 644.95 6.51496 0.767415 0
M  V30 6686 H 644.867 7.5335 -0.632391 0
M  V30 6687 H 646.135 7.77685 0.531615 0
M  V30 6688 N 650.364 0.662433 1.43002 0
M  V30 6689 C 651.61 0.179857 2.02001 0
M  V30 6690 C 651.943 -1.20625 1.52195 0
M  V30 6691 O 651.218 -1.80726 0.718911 0
M  V30 6692 C 651.501 0.200845 3.59539 0
M  V30 6693 C 651.354 1.62153 4.19555 0
M  V30 6694 C 652.673 -0.457738 4.37713 0
M  V30 6695 H 649.792 0.0668305 0.733964 0
M  V30 6696 H 652.434 0.84487 1.70182 0
M  V30 6697 H 650.584 -0.365411 3.86778 0
M  V30 6698 H 652.256 2.23908 4.03315 0
M  V30 6699 H 650.499 2.16601 3.75854 0
M  V30 6700 H 651.17 1.58799 5.28665 0
M  V30 6701 H 653.646 0.0241495 4.16093 0
M  V30 6702 H 652.522 -0.412363 5.47349 0
M  V30 6703 H 652.783 -1.53336 4.14657 0
M  V30 6704 N 651.842 -1.52309 0.404946 0
M  V30 6705 C 653.088 -2.02065 -0.172455 0
M  V30 6706 C 653.421 -1.29022 -1.45145 0
M  V30 6707 O 652.696 -0.395284 -1.90441 0
M  V30 6708 C 652.979 -3.5759 -0.424433 0
M  V30 6709 C 652.832 -4.41287 0.870945 0
M  V30 6710 C 654.151 -4.23186 -1.20837 0
M  V30 6711 H 651.27 -0.734454 -0.0612035 0
M  V30 6712 H 653.912 -1.82236 0.53759 0
M  V30 6713 H 652.062 -3.74617 -1.02929 0
M  V30 6714 H 653.734 -4.3598 1.50729 0
M  V30 6715 H 651.977 -4.07669 1.48284 0
M  V30 6716 H 652.648 -5.48171 0.649083 0
M  V30 6717 H 655.124 -4.10232 -0.696338 0
M  V30 6718 H 654 -5.31953 -1.35343 0
M  V30 6719 H 654.261 -3.81862 -2.22786 0
M  V30 6720 N 653.32 -0.135238 -1.57019 0
M  V30 6721 C 654.545 0.529343 -2.00531 0
M  V30 6722 C 654.97 1.58391 -1.01459 0
M  V30 6723 O 654.328 1.81296 0.0113986 0
M  V30 6724 C 654.376 1.11748 -3.42848 0
M  V30 6725 O 653.48 2.23267 -3.46736 0
M  V30 6726 H 652.821 0.130669 -0.651016 0
M  V30 6727 H 655.351 -0.228503 -2.0332 0
M  V30 6728 H 655.361 1.44905 -3.81401 0
M  V30 6729 H 654.036 0.345147 -4.14465 0
M  V30 6730 H 652.613 1.91428 -3.20015 0
M  V30 6731 N 654.798 1.5699 0.138552 0
M  V30 6732 C 656.044 1.84081 0.85099 0
M  V30 6733 C 656.377 0.718107 1.80435 0
M  V30 6734 O 655.652 -0.277633 1.92508 0
M  V30 6735 C 655.935 3.21699 1.61808 0
M  V30 6736 C 655.788 4.44544 0.685633 0
M  V30 6737 C 657.107 3.5664 2.57868 0
M  V30 6738 H 654.226 0.669592 0.307922 0
M  V30 6739 H 656.868 1.89646 0.11588 0
M  V30 6740 H 655.018 3.17086 2.24474 0
M  V30 6741 H 656.69 4.61248 0.0693179 0
M  V30 6742 H 654.933 4.338 -0.00421993 0
M  V30 6743 H 655.604 5.3746 1.25858 0
M  V30 6744 H 658.08 3.61918 2.05316 0
M  V30 6745 H 656.956 4.53946 3.08584 0
M  V30 6746 H 657.217 2.83036 3.39622 0
M  V30 6747 N 656.276 -0.40816 1.52223 0
M  V30 6748 C 657.501 -1.18127 1.70472 0
M  V30 6749 C 657.926 -1.83491 0.41384 0
M  V30 6750 O 657.284 -1.70047 -0.628778 0
M  V30 6751 C 657.332 -2.21935 2.84213 0
M  V30 6752 O 656.436 -3.28099 2.4985 0
M  V30 6753 H 655.777 -0.344781 0.56747 0
M  V30 6754 H 658.307 -0.478328 1.9893 0
M  V30 6755 H 658.317 -2.66248 3.09153 0
M  V30 6756 H 656.992 -1.73744 3.7787 0
M  V30 6757 H 655.569 -2.89058 2.35584 0
M  V30 6758 N 657.755 -1.42862 -0.66545 0
M  V30 6759 C 659.003 -1.43546 -1.42264 0
M  V30 6760 C 659.324 -0.0563116 -1.94919 0
M  V30 6761 O 658.594 0.906568 -1.73661 0
M  V30 6762 H 657.174 -0.528464 -0.527953 0
M  V30 6763 H 659.836 -1.78363 -0.785665 0
M  V30 6764 H 658.932 -2.14079 -2.27105 0
M  V30 6765 N 659.233 0.902656 -1.29189 0
M  V30 6766 C 660.51 1.63296 -1.07674 0
M  V30 6767 C 660.89 2.07649 0.380137 0
M  V30 6768 O 660.238 1.82997 1.36837 0
M  V30 6769 C 660.448 2.81603 -2.06158 0
M  V30 6770 C 661.796 3.52359 -2.36914 0
M  V30 6771 O 662.82 2.91767 -2.04329 0
M  V30 6772 O 661.679 4.61586 -2.92576 0
M  V30 6773 H 658.773 0.716889 -0.41231 0
M  V30 6774 H 661.319 0.950984 -1.4055 0
M  V30 6775 H 660.091 2.46004 -3.04299 0
M  V30 6776 H 659.714 3.57508 -1.73993 0
M  V30 6777 N 660.711 1.11618 1.11262 0
M  V30 6778 C 661.959 0.864469 1.82678 0
M  V30 6779 C 662.28 -0.611564 1.85162 0
M  V30 6780 O 661.55 -1.44429 1.32352 0
M  V30 6781 H 660.13 0.316821 0.676486 0
M  V30 6782 H 662.792 1.40894 1.34666 0
M  V30 6783 H 661.888 1.23832 2.86482 0
M  V30 6784 N 662.189 -1.289 0.906776 0
M  V30 6785 C 663.437 -1.94883 0.535266 0
M  V30 6786 C 663.758 -1.71784 -0.922791 0
M  V30 6787 O 663.028 -1.05359 -1.65156 0
M  V30 6788 H 661.608 -0.721109 0.194962 0
M  V30 6789 H 664.27 -1.57018 1.15461 0
M  V30 6790 H 663.366 -3.03591 0.723821 0
M  V30 6791 N 663.667 -0.670007 -1.42649 0
M  V30 6792 C 664.914 -0.190286 -2.01604 0
M  V30 6793 C 665.242 1.20155 -1.52948 0
M  V30 6794 O 664.497 1.81964 -0.72026 0
M  V30 6795 C 664.796 -0.168298 -3.57004 0
M  V30 6796 C 664.462 -1.50415 -4.25072 0
M  V30 6797 C 663.124 -1.86992 -4.43382 0
M  V30 6798 C 665.476 -2.38414 -4.63474 0
M  V30 6799 C 662.804 -3.11203 -4.97363 0
M  V30 6800 C 665.156 -3.61933 -5.18833 0
M  V30 6801 C 663.82 -3.98685 -5.35356 0
M  V30 6802 H 663.09 -0.0696305 -0.737721 0
M  V30 6803 H 665.737 -0.864044 -1.70899 0
M  V30 6804 H 664.042 0.588958 -3.87348 0
M  V30 6805 H 665.739 0.22001 -4.00396 0
M  V30 6806 H 662.329 -1.20959 -4.11177 0
M  V30 6807 H 666.513 -2.11442 -4.49006 0
M  V30 6808 H 661.769 -3.39705 -5.08341 0
M  V30 6809 H 665.943 -4.30326 -5.47533 0
M  V30 6810 H 663.57 -4.95009 -5.76949 0
M  V30 6811 N 665.145 1.52092 -0.413018 0
M  V30 6812 C 666.075 2.30021 0.401567 0
M  V30 6813 C 667.056 1.34395 1.04269 0
M  V30 6814 O 668.241 1.63304 1.05097 0
M  V30 6815 C 665.371 3.12447 1.51638 0
M  V30 6816 C 664.325 4.16153 1.00005 0
M  V30 6817 C 663.651 4.86948 2.20875 0
M  V30 6818 C 664.951 5.22275 0.0513757 0
M  V30 6819 H 666.645 2.98365 -0.248704 0
M  V30 6820 H 664.191 1.4349 -0.121052 0
M  V30 6821 H 666.144 3.65733 2.09326 0
M  V30 6822 H 664.868 2.41879 2.19458 0
M  V30 6823 H 663.527 3.63882 0.445549 0
M  V30 6824 H 663.175 4.12905 2.8726 0
M  V30 6825 H 662.875 5.57057 1.86978 0
M  V30 6826 H 664.399 5.43048 2.79162 0
M  V30 6827 H 665.813 5.70778 0.537176 0
M  V30 6828 H 664.21 5.9977 -0.198977 0
M  V30 6829 H 665.28 4.76611 -0.892736 0
M  V30 6830 N 666.623 0.143563 1.56945 0
M  V30 6831 C 667.555 -0.828353 2.13708 0
M  V30 6832 C 668.568 -1.21313 1.08568 0
M  V30 6833 O 669.757 -1.1578 1.35857 0
M  V30 6834 C 666.857 -2.12248 2.64204 0
M  V30 6835 C 666.03 -1.90561 3.93707 0
M  V30 6836 C 665.089 -3.03931 4.29549 0
M  V30 6837 O 664.115 -2.75772 4.97934 0
M  V30 6838 N 665.317 -4.31016 3.88852 0
M  V30 6839 H 668.082 -0.343242 2.97728 0
M  V30 6840 H 665.643 -0.0401152 1.6185 0
M  V30 6841 H 667.635 -2.87132 2.85197 0
M  V30 6842 H 666.205 -2.52033 1.84928 0
M  V30 6843 H 665.425 -0.997327 3.81375 0
M  V30 6844 H 666.713 -1.73405 4.78339 0
M  V30 6845 H 666.111 -4.56762 3.33743 0
M  V30 6846 H 664.668 -5.02691 4.14903 0
M  V30 6847 N 668.101 -1.57061 -0.130224 0
M  V30 6848 C 669.326 -1.88802 -0.858409 0
M  V30 6849 C 669.751 -0.734353 -1.73173 0
M  V30 6850 O 669.109 0.315529 -1.78533 0
M  V30 6851 C 669.157 -3.19228 -1.67708 0
M  V30 6852 O 668.261 -3.04343 -2.78297 0
M  V30 6853 H 667.602 -0.619849 -0.238083 0
M  V30 6854 H 670.132 -2.04271 -0.115995 0
M  V30 6855 H 670.142 -3.51669 -2.06864 0
M  V30 6856 H 668.817 -4.02793 -1.0359 0
M  V30 6857 H 667.394 -2.83346 -2.42425 0
M  V30 6858 N 669.579 0.400081 -1.52437 0
M  V30 6859 C 670.804 1.17221 -1.71096 0
M  V30 6860 C 671.229 1.83269 -0.423565 0
M  V30 6861 O 670.587 1.70378 0.619751 0
M  V30 6862 C 670.635 2.20425 -2.85386 0
M  V30 6863 O 669.739 3.26769 -2.51586 0
M  V30 6864 H 669.08 0.341766 -0.569291 0
M  V30 6865 H 671.61 0.467772 -1.99181 0
M  V30 6866 H 671.62 2.64605 -3.10561 0
M  V30 6867 H 670.295 1.71737 -3.78786 0
M  V30 6868 H 668.872 2.87804 -2.37114 0
M  V30 6869 N 671.057 1.43213 0.657864 0
M  V30 6870 C 671.99 1.42456 1.78273 0
M  V30 6871 C 672.968 0.286598 1.60054 0
M  V30 6872 O 674.152 0.479467 1.823 0
M  V30 6873 C 671.279 1.23169 3.15511 0
M  V30 6874 C 670.325 2.40181 3.52442 0
M  V30 6875 S 671.158 4.02729 3.52944 0
M  V30 6876 C 672.314 3.85816 4.92846 0
M  V30 6877 H 672.547 2.37642 1.78644 0
M  V30 6878 H 670.08 1.30188 0.830084 0
M  V30 6879 H 672.038 1.12728 3.94719 0
M  V30 6880 H 670.699 0.295398 3.12708 0
M  V30 6881 H 669.892 2.22478 4.52239 0
M  V30 6882 H 669.494 2.47224 2.80636 0
M  V30 6883 H 671.786 3.47853 5.81381 0
M  V30 6884 H 672.729 4.85348 5.15599 0
M  V30 6885 H 673.137 3.18361 4.66162 0
M  V30 6886 N 672.536 -0.895792 1.29666 0
M  V30 6887 C 673.446 -2.03329 1.17024 0
M  V30 6888 C 674.462 -1.73753 0.0925962 0
M  V30 6889 O 675.638 -1.99071 0.305431 0
M  V30 6890 C 672.703 -3.36072 0.851841 0
M  V30 6891 C 671.764 -3.7914 2.01373 0
M  V30 6892 C 670.997 -5.05549 1.71043 0
M  V30 6893 O 671.22 -5.66874 0.633213 0
M  V30 6894 O 670.154 -5.44764 2.5596 0
M  V30 6895 H 673.98 -2.16918 2.12556 0
M  V30 6896 H 671.565 -1.02007 1.09156 0
M  V30 6897 H 673.447 -4.15729 0.689006 0
M  V30 6898 H 672.122 -3.23616 -0.0736634 0
M  V30 6899 H 671.029 -3.00233 2.23183 0
M  V30 6900 H 672.362 -3.96186 2.92058 0
M  V30 6901 N 674.014 -1.12206 -1.10668 0
M  V30 6902 C 674.944 -0.810086 -2.18997 0
M  V30 6903 C 675.925 0.225065 -1.68604 0
M  V30 6904 O 677.11 0.086783 -1.94006 0
M  V30 6905 C 674.24 -0.261262 -3.46316 0
M  V30 6906 C 673.194 -1.2292 -4.09969 0
M  V30 6907 C 672.52 -0.540713 -5.31959 0
M  V30 6908 C 673.82 -2.58295 -4.53962 0
M  V30 6909 H 675.514 -1.7159 -2.45352 0
M  V30 6910 H 673.06 -0.82646 -1.17922 0
M  V30 6911 H 675.013 -0.0307522 -4.21389 0
M  V30 6912 H 673.737 0.679879 -3.19445 0
M  V30 6913 H 672.396 -1.44548 -3.369 0
M  V30 6914 H 672.044 0.405492 -5.01363 0
M  V30 6915 H 671.744 -1.18637 -5.75499 0
M  V30 6916 H 673.268 -0.319184 -6.09765 0
M  V30 6917 H 674.682 -2.40709 -5.20319 0
M  V30 6918 H 673.079 -3.18916 -5.08343 0
M  V30 6919 H 674.149 -3.16918 -3.67002 0
M  V30 6920 N 675.492 1.28418 -0.913599 0
M  V30 6921 C 676.402 2.31043 -0.406965 0
M  V30 6922 C 677.418 1.66501 0.505298 0
M  V30 6923 O 678.594 1.97558 0.391522 0
M  V30 6924 C 675.659 3.4498 0.344901 0
M  V30 6925 C 674.72 4.25078 -0.600563 0
M  V30 6926 C 673.953 5.33575 0.115516 0
M  V30 6927 O 674.176 5.54503 1.33727 0
M  V30 6928 O 673.11 5.9939 -0.549095 0
M  V30 6929 H 676.936 2.76387 -1.25873 0
M  V30 6930 H 674.521 1.33109 -0.678415 0
M  V30 6931 H 676.403 4.14314 0.769542 0
M  V30 6932 H 675.078 3.01719 1.1725 0
M  V30 6933 H 673.985 3.58334 -1.0746 0
M  V30 6934 H 675.318 4.72018 -1.39497 0
M  V30 6935 N 676.97 0.677563 1.42291 0
M  V30 6936 C 678.198 0.209459 2.05837 0
M  V30 6937 C 678.613 -1.13444 1.50917 0
M  V30 6938 O 677.97 -1.70529 0.65008 0
M  V30 6939 C 678.021 0.138819 3.61233 0
M  V30 6940 O 677.742 1.42962 4.14118 0
M  V30 6941 C 679.243 -0.352449 4.41897 0
M  V30 6942 H 676.463 0.101209 0.663323 0
M  V30 6943 H 679.007 0.925077 1.8238 0
M  V30 6944 H 677.162 -0.527505 3.83792 0
M  V30 6945 H 677.576 1.3048 5.08011 0
M  V30 6946 H 679.05 -0.350778 5.50884 0
M  V30 6947 H 679.527 -1.3882 4.16684 0
M  V30 6948 H 680.133 0.282236 4.24362 0
M  V30 6949 N 678.448 -1.51871 0.421078 0
M  V30 6950 C 679.411 -2.25914 -0.386712 0
M  V30 6951 C 680.411 -1.28733 -0.963555 0
M  V30 6952 O 681.601 -1.52579 -0.840556 0
M  V30 6953 C 678.733 -3.03853 -1.54551 0
M  V30 6954 H 679.926 -2.98754 0.261978 0
M  V30 6955 H 677.479 -1.5533 0.173862 0
M  V30 6956 H 678.214 -2.35392 -2.23072 0
M  V30 6957 H 677.999 -3.75215 -1.13824 0
M  V30 6958 H 679.489 -3.59984 -2.11663 0
M  V30 6959 N 679.926 -0.151884 -1.56866 0
M  V30 6960 C 681.172 0.498742 -1.96572 0
M  V30 6961 C 681.505 1.64194 -1.03702 0
M  V30 6962 O 680.78 1.94334 -0.0803432 0
M  V30 6963 C 681.063 1.00027 -3.45929 0
M  V30 6964 C 680.916 -0.141767 -4.49577 0
M  V30 6965 C 682.235 1.88044 -3.97904 0
M  V30 6966 H 679.354 0.17982 -0.714726 0
M  V30 6967 H 681.996 -0.234097 -1.88552 0
M  V30 6968 H 680.146 1.62476 -3.52894 0
M  V30 6969 H 681.818 -0.778269 -4.54687 0
M  V30 6970 H 680.061 -0.80019 -4.26356 0
M  V30 6971 H 680.732 0.250947 -5.51429 0
M  V30 6972 H 683.208 1.35416 -3.93449 0
M  V30 6973 H 682.084 2.20043 -5.02864 0
M  V30 6974 H 682.345 2.81916 -3.40552 0
M  V30 6975 N 681.404 1.57128 0.121893 0
M  V30 6976 C 682.82 1.52357 0.47534 0
M  V30 6977 C 683.02 0.864417 1.82017 0
M  V30 6978 O 682.076 0.445529 2.48538 0
M  V30 6979 C 683.389 2.97122 0.4625 0
M  V30 6980 C 684.937 3.08196 0.546255 0
M  V30 6981 C 685.412 4.54516 0.563833 0
M  V30 6982 N 686.903 4.58959 0.625353 0
M  V30 6983 C 687.638 5.69585 0.660354 0
M  V30 6984 N 687.134 6.89714 0.653175 0
M  V30 6985 N 688.927 5.57685 0.703143 0
M  V30 6986 H 681.078 1.98364 -0.75931 0
M  V30 6987 H 683.341 0.905777 -0.279772 0
M  V30 6988 H 683.047 3.48706 -0.457943 0
M  V30 6989 H 682.921 3.54406 1.29136 0
M  V30 6990 H 685.308 2.56617 1.45712 0
M  V30 6991 H 685.389 2.53912 -0.310234 0
M  V30 6992 H 685.033 5.06741 -0.342974 0
M  V30 6993 H 684.963 5.06609 1.43716 0
M  V30 6994 H 687.454 3.72489 0.637182 0
M  V30 6995 H 687.767 7.69781 0.682425 0
M  V30 6996 H 686.112 6.92223 0.620646 0
M  V30 6997 H 689.303 4.62744 0.706095 0
M  V30 6998 H 689.476 6.43909 0.726952 0
M  V30 6999 N 682.882 -0.391992 1.52647 0
M  V30 7000 C 683.812 -1.48517 1.8018 0
M  V30 7001 C 684.793 -1.57039 0.653667 0
M  V30 7002 O 685.978 -1.72036 0.900962 0
M  V30 7003 C 683.108 -2.86161 1.96797 0
M  V30 7004 C 682.062 -2.92481 3.12472 0
M  V30 7005 C 681.388 -4.32546 3.14338 0
M  V30 7006 C 682.688 -2.624 4.51601 0
M  V30 7007 H 684.382 -1.25726 2.71723 0
M  V30 7008 H 681.928 -0.603387 1.30749 0
M  V30 7009 H 683.881 -3.62639 2.14641 0
M  V30 7010 H 682.605 -3.10283 1.01941 0
M  V30 7011 H 681.264 -2.18451 2.94406 0
M  V30 7012 H 680.912 -4.53703 2.1717 0
M  V30 7013 H 680.612 -4.37695 3.92042 0
M  V30 7014 H 682.136 -5.10934 3.34333 0
M  V30 7015 H 683.55 -3.28596 4.69785 0
M  V30 7016 H 681.947 -2.78903 5.3135 0
M  V30 7017 H 683.017 -1.57754 4.58521 0
M  V30 7018 N 684.36 -1.4356 -0.65026 0
M  V30 7019 C 685.307 -1.48948 -1.76304 0
M  V30 7020 C 686.277 -0.338919 -1.62605 0
M  V30 7021 O 687.462 -0.54649 -1.82806 0
M  V30 7022 C 684.602 -1.42131 -3.14472 0
M  V30 7023 C 683.715 -2.67415 -3.39284 0
M  V30 7024 C 682.85 -2.52565 -4.67316 0
M  V30 7025 C 681.889 -3.73103 -4.85243 0
M  V30 7026 N 681.026 -3.57046 -6.04535 0
M  V30 7027 H 685.866 -2.44032 -1.71034 0
M  V30 7028 H 683.403 -1.21131 -0.834601 0
M  V30 7029 H 685.361 -1.36172 -3.94351 0
M  V30 7030 H 683.991 -0.506273 -3.18805 0
M  V30 7031 H 683.043 -2.8364 -2.53481 0
M  V30 7032 H 684.355 -3.56943 -3.48415 0
M  V30 7033 H 683.509 -2.44331 -5.55326 0
M  V30 7034 H 682.248 -1.60566 -4.60511 0
M  V30 7035 H 681.253 -3.81743 -3.95667 0
M  V30 7036 H 682.478 -4.66115 -4.93876 0
M  V30 7037 H 680.424 -2.67783 -5.98856 0
M  V30 7038 H 680.341 -4.40178 -6.14638 0
M  V30 7039 H 681.609 -3.52669 -6.95158 0
M  V30 7040 N 685.838 0.888903 -1.30139 0
M  V30 7041 C 686.801 1.97576 -1.16174 0
M  V30 7042 C 687.801 1.60525 -0.094086 0
M  V30 7043 O 688.991 1.70812 -0.341889 0
M  V30 7044 C 686.123 3.3188 -0.778983 0
M  V30 7045 H 687.316 2.11393 -2.12728 0
M  V30 7046 H 684.869 1.0748 -1.1348 0
M  V30 7047 H 685.604 3.23765 0.186225 0
M  V30 7048 H 685.389 3.60141 -1.55051 0
M  V30 7049 H 686.879 4.11612 -0.704631 0
M  V30 7050 N 687.317 1.12792 1.10072 0
M  V30 7051 C 688.265 0.794523 2.18609 0
M  V30 7052 C 689.259 -0.220271 1.67962 0
M  V30 7053 O 690.465 -0.0780938 1.79831 0
M  V30 7054 H 686.84 0.239123 0.712969 0
M  V30 7055 H 688.811 1.71823 2.43966 0
M  V30 7056 C 687.56 0.269548 3.46654 0
M  V30 7057 H 686.883 1.04171 3.8599 0
M  V30 7058 H 688.323 0.0746242 4.23934 0
M  V30 7059 C 686.782 -1.00333 3.21613 0
M  V30 7060 O 687.312 -2.08042 3.4363 0
M  V30 7061 N 685.518 -0.931763 2.75257 0
M  V30 7062 H 685.065 -0.0551197 2.57541 0
M  V30 7063 H 685.023 -1.78405 2.58881 0
M  V30 7064 N 688.795 -1.27931 0.920396 0
M  V30 7065 C 690.041 -1.94977 0.557832 0
M  V30 7066 C 690.374 -1.72224 -0.897365 0
M  V30 7067 O 689.649 -1.04705 -1.63912 0
M  V30 7068 C 689.932 -3.49289 0.875741 0
M  V30 7069 C 689.785 -3.81416 2.38416 0
M  V30 7070 C 691.104 -4.38486 0.376517 0
M  V30 7071 H 688.223 -0.708164 0.20414 0
M  V30 7072 H 690.865 -1.5118 1.15085 0
M  V30 7073 H 689.015 -3.86724 0.371062 0
M  V30 7074 H 690.687 -3.53813 2.95997 0
M  V30 7075 H 688.93 -3.28225 2.83639 0
M  V30 7076 H 689.601 -4.89198 2.55713 0
M  V30 7077 H 692.077 -4.08161 0.808945 0
M  V30 7078 H 690.953 -5.45296 0.627976 0
M  V30 7079 H 691.214 -4.36143 -0.723293 0
M  V30 7080 N 690.273 -0.685099 -1.4193 0
M  V30 7081 C 691.203 -0.0273506 -2.33484 0
M  V30 7082 C 692.184 0.778366 -1.51246 0
M  V30 7083 O 693.369 0.733449 -1.79817 0
M  V30 7084 C 690.499 0.917272 -3.34968 0
M  V30 7085 C 689.453 0.21941 -4.27437 0
M  V30 7086 C 688.779 1.27768 -5.1921 0
M  V30 7087 C 690.079 -0.907894 -5.14349 0
M  V30 7088 H 691.773 -0.791994 -2.88735 0
M  V30 7089 H 689.319 -0.382308 -1.38832 0
M  V30 7090 H 691.272 1.38657 -3.97935 0
M  V30 7091 H 689.996 1.71346 -2.78043 0
M  V30 7092 H 688.655 -0.229757 -3.65879 0
M  V30 7093 H 688.303 2.06612 -4.58607 0
M  V30 7094 H 688.003 0.815803 -5.81909 0
M  V30 7095 H 689.527 1.7477 -5.85054 0
M  V30 7096 H 690.941 -0.519348 -5.70943 0
M  V30 7097 H 689.338 -1.2962 -5.85934 0
M  V30 7098 H 690.408 -1.75218 -4.52136 0
M  V30 7099 N 691.751 1.51645 -0.429126 0
M  V30 7100 C 692.701 2.24388 0.404217 0
M  V30 7101 C 693.685 1.26294 0.996933 0
M  V30 7102 O 694.877 1.51428 0.916434 0
M  V30 7103 C 692.006 3.08338 1.50938 0
M  V30 7104 C 691.092 4.13857 0.926464 0
M  V30 7105 N 691.483 5.05749 0.0719732 0
M  V30 7106 C 689.781 4.29695 1.19491 0
M  V30 7107 C 690.482 5.81143 -0.254528 0
M  V30 7108 N 689.458 5.42408 0.359763 0
M  V30 7109 H 693.26 2.92794 -0.254697 0
M  V30 7110 H 690.774 1.60606 -0.240712 0
M  V30 7111 H 692.771 3.59022 2.11918 0
M  V30 7112 H 691.431 2.41475 2.17072 0
M  V30 7113 H 692.442 5.17066 -0.293854 0
M  V30 7114 H 689.119 3.74059 1.85434 0
M  V30 7115 H 690.509 6.65159 -0.949365 0
M  V30 7116 N 693.229 0.160201 1.56784 0
M  V30 7117 C 694.159 -0.770264 2.2043 0
M  V30 7118 C 695.14 -1.24736 1.15651 0
M  V30 7119 O 696.325 -1.30253 1.44041 0
M  V30 7120 C 693.455 -2.00427 2.83631 0
M  V30 7121 C 692.409 -1.66345 3.94352 0
M  V30 7122 C 691.735 -2.97119 4.4455 0
M  V30 7123 C 693.035 -0.899972 5.14488 0
M  V30 7124 H 694.729 -0.239783 2.98438 0
M  V30 7125 H 692.275 -0.113891 1.43549 0
M  V30 7126 H 694.228 -2.66012 3.26827 0
M  V30 7127 H 692.952 -2.5587 2.02973 0
M  V30 7128 H 691.611 -1.03133 3.51794 0
M  V30 7129 H 691.259 -3.5058 3.60698 0
M  V30 7130 H 690.959 -2.75073 5.19238 0
M  V30 7131 H 692.483 -3.63753 4.90425 0
M  V30 7132 H 693.897 -1.45818 5.54446 0
M  V30 7133 H 692.294 -0.778968 5.95023 0
M  V30 7134 H 693.364 0.105827 4.84785 0
M  V30 7135 N 694.707 -1.5719 -0.113559 0
M  V30 7136 C 695.956 -1.84325 -0.818984 0
M  V30 7137 C 696.269 -0.746685 -1.80787 0
M  V30 7138 O 697.475 -0.904596 -2.55987 0
M  V30 7139 C 695.931 -3.26818 -1.50724 0
M  V30 7140 C 695.539 -4.44498 -0.559065 0
M  V30 7141 C 697.283 -3.63196 -2.19748 0
M  V30 7142 C 695.19 -5.7802 -1.25086 0
M  V30 7143 H 694.12 -0.687507 -0.309596 0
M  V30 7144 H 696.771 -1.8336 -0.0717621 0
M  V30 7145 H 695.153 -3.22269 -2.30128 0
M  V30 7146 H 696.327 -4.60356 0.202146 0
M  V30 7147 H 694.642 -4.16393 0.024495 0
M  V30 7148 H 697.239 -4.60226 -2.72206 0
M  V30 7149 H 697.582 -2.90899 -2.97798 0
M  V30 7150 H 698.115 -3.69553 -1.47226 0
M  V30 7151 H 694.854 -6.53501 -0.511539 0
M  V30 7152 H 694.374 -5.66038 -1.98395 0
M  V30 7153 H 696.053 -6.2196 -1.78253 0
M  V30 7154 N 696.185 0.383891 -1.52853 0
M  V30 7155 C 697.431 1.12667 -1.69345 0
M  V30 7156 C 697.786 1.87519 -0.430635 0
M  V30 7157 O 697.079 1.82742 0.575846 0
M  V30 7158 C 697.273 2.12881 -2.87082 0
M  V30 7159 C 697.102 1.47873 -4.24692 0
M  V30 7160 C 695.872 1.24064 -4.89833 0
M  V30 7161 C 698.07 0.926118 -5.05893 0
M  V30 7162 N 696.052 0.552138 -6.11412 0
M  V30 7163 C 697.423 0.365966 -6.18919 0
M  V30 7164 C 699.478 0.823023 -4.91051 0
M  V30 7165 C 698.181 -0.287204 -7.18726 0
M  V30 7166 C 700.207 0.183666 -5.91115 0
M  V30 7167 C 699.569 -0.365693 -7.0345 0
M  V30 7168 H 695.668 0.398064 -0.673104 0
M  V30 7169 H 698.252 0.415504 -1.90215 0
M  V30 7170 H 696.423 2.81329 -2.67784 0
M  V30 7171 H 698.155 2.79703 -2.92486 0
M  V30 7172 H 694.91 1.51701 -4.48647 0
M  V30 7173 H 695.334 0.223783 -6.7663 0
M  V30 7174 H 699.976 1.23354 -4.04405 0
M  V30 7175 H 697.694 -0.709719 -8.04977 0
M  V30 7176 H 701.28 0.105074 -5.81705 0
M  V30 7177 H 700.16 -0.85261 -7.79551 0
M  V30 7178 N 697.663 1.43903 0.642637 0
M  V30 7179 C 698.909 1.46296 1.40447 0
M  V30 7180 C 699.242 0.0908361 1.93987 0
M  V30 7181 O 698.517 -0.889884 1.72949 0
M  V30 7182 C 698.8 2.51399 2.57819 0
M  V30 7183 C 698.653 3.97926 2.09702 0
M  V30 7184 C 699.972 2.53125 3.60022 0
M  V30 7185 H 697.091 0.532676 0.509338 0
M  V30 7186 H 699.733 1.75515 0.727635 0
M  V30 7187 H 697.883 2.26614 3.1556 0
M  V30 7188 H 699.555 4.33804 1.5688 0
M  V30 7189 H 697.798 4.10252 1.40982 0
M  V30 7190 H 698.469 4.67096 2.94152 0
M  V30 7191 H 700.945 2.75242 3.12059 0
M  V30 7192 H 699.821 3.28589 4.39682 0
M  V30 7193 H 700.082 1.56895 4.13324 0
M  V30 7194 N 699.141 -0.881989 1.30609 0
M  V30 7195 C 700.418 -1.61563 1.10258 0
M  V30 7196 C 700.798 -2.08228 -0.347053 0
M  V30 7197 O 700.146 -1.85151 -1.33908 0
M  V30 7198 C 700.356 -2.78287 2.10612 0
M  V30 7199 C 701.704 -3.48545 2.4249 0
M  V30 7200 O 702.728 -2.88479 2.08945 0
M  V30 7201 O 701.587 -4.56873 2.99883 0
M  V30 7202 H 698.681 -0.710238 0.423663 0
M  V30 7203 H 701.227 -0.928503 1.42045 0
M  V30 7204 H 699.999 -2.41131 3.08174 0
M  V30 7205 H 699.622 -3.54695 1.79659 0
M  V30 7206 N 700.619 -1.13374 -1.09472 0
M  V30 7207 C 701.567 -0.806105 -2.18185 0
M  V30 7208 C 702.561 0.21136 -1.68076 0
M  V30 7209 O 703.767 0.0685558 -1.79869 0
M  V30 7210 H 700.142 -0.242901 -0.71169 0
M  V30 7211 H 702.113 -1.73115 -2.43051 0
M  V30 7212 C 700.862 -0.287928 -3.46506 0
M  V30 7213 H 700.185 -1.06217 -3.85432 0
M  V30 7214 H 701.625 -0.0971054 -4.23889 0
M  V30 7215 C 700.084 0.986256 -3.22141 0
M  V30 7216 O 700.614 2.06217 -3.44728 0
M  V30 7217 N 698.82 0.917153 -2.75747 0
M  V30 7218 H 698.367 0.0414609 -2.57567 0
M  V30 7219 H 698.325 1.77029 -2.59823 0
M  V30 7220 N 702.098 1.27442 -0.927168 0
M  V30 7221 C 703.346 1.94007 -0.566203 0
M  V30 7222 C 703.667 1.7323 0.895345 0
M  V30 7223 O 702.937 1.07973 1.63459 0
M  V30 7224 H 701.517 0.717917 -0.206409 0
M  V30 7225 H 704.179 1.55161 -1.17945 0
M  V30 7226 H 703.275 3.02401 -0.772028 0
M  V30 7227 N 703.576 0.692616 1.41565 0
M  V30 7228 C 704.806 0.230943 2.05305 0
M  V30 7229 C 705.214 -1.12379 1.52209 0
M  V30 7230 O 704.557 -1.71281 0.663968 0
M  V30 7231 C 704.619 0.107894 3.59338 0
M  V30 7232 C 704.283 1.39419 4.35214 0
M  V30 7233 C 705.28 2.33143 4.64694 0
M  V30 7234 C 702.965 1.64674 4.74539 0
M  V30 7235 C 704.959 3.50385 5.32456 0
M  V30 7236 C 702.646 2.82202 5.42038 0
M  V30 7237 C 703.644 3.74881 5.70923 0
M  V30 7238 O 703.332 4.90351 6.37033 0
M  V30 7239 H 703.064 0.105708 0.667684 0
M  V30 7240 H 705.618 0.94488 1.82376 0
M  V30 7241 H 703.848 -0.661785 3.80995 0
M  V30 7242 H 705.537 -0.316213 4.04666 0
M  V30 7243 H 706.303 2.14887 4.34797 0
M  V30 7244 H 702.182 0.934007 4.51439 0
M  V30 7245 H 705.726 4.22743 5.54918 0
M  V30 7246 H 701.623 3.00376 5.71353 0
M  V30 7247 H 702.391 4.90128 6.55528 0
M  V30 7248 N 705.054 -1.51416 0.437162 0
M  V30 7249 C 706.002 -2.29328 -0.388765 0
M  V30 7250 C 706.996 -1.35171 -1.02104 0
M  V30 7251 O 708.202 -1.52513 -0.956024 0
M  V30 7252 H 704.577 -0.738048 -0.144183 0
M  V30 7253 H 706.548 -2.96995 0.289212 0
M  V30 7254 C 705.297 -3.14741 -1.47761 0
M  V30 7255 H 704.62 -3.8708 -1.00045 0
M  V30 7256 H 706.06 -3.72313 -2.02877 0
M  V30 7257 C 704.519 -2.30105 -2.46076 0
M  V30 7258 O 705.049 -1.96055 -3.50607 0
M  V30 7259 N 703.255 -1.93331 -2.1696 0
M  V30 7260 H 702.802 -2.2122 -1.31983 0
M  V30 7261 H 702.76 -1.36999 -2.82982 0
M  V30 7262 N 706.532 -0.168513 -1.56696 0
M  V30 7263 C 707.465 0.801477 -2.13662 0
M  V30 7264 C 708.443 1.22786 -1.06594 0
M  V30 7265 O 709.627 1.32014 -1.34554 0
M  V30 7266 C 706.754 2.07896 -2.6739 0
M  V30 7267 C 705.8 1.79681 -3.86803 0
M  V30 7268 S 706.633 0.968556 -5.26668 0
M  V30 7269 C 707.789 2.25676 -5.83799 0
M  V30 7270 H 708.022 0.317121 -2.95604 0
M  V30 7271 H 705.555 0.0461132 -1.54331 0
M  V30 7272 H 707.513 2.81272 -2.98992 0
M  V30 7273 H 706.174 2.53445 -1.85539 0
M  V30 7274 H 705.367 2.74461 -4.22714 0
M  V30 7275 H 704.969 1.14402 -3.56073 0
M  V30 7276 H 707.261 3.2116 -5.96542 0
M  V30 7277 H 708.204 1.94238 -6.80939 0
M  V30 7278 H 708.612 2.37308 -5.12197 0
M  V30 7279 N 708.01 1.57248 0.105221 0
M  V30 7280 C 709.256 1.85845 0.811753 0
M  V30 7281 C 709.589 0.756219 1.78871 0
M  V30 7282 O 708.864 -0.236736 1.93054 0
M  V30 7283 C 709.147 3.25059 1.54947 0
M  V30 7284 C 709 4.45898 0.591185 0
M  V30 7285 C 710.319 3.6203 2.50245 0
M  V30 7286 H 707.438 0.675973 0.293649 0
M  V30 7287 H 710.08 1.89849 0.0756269 0
M  V30 7288 H 708.23 3.21776 2.17698 0
M  V30 7289 H 709.902 4.61291 -0.0285352 0
M  V30 7290 H 708.145 4.33693 -0.0962343 0
M  V30 7291 H 708.816 5.40009 1.1443 0
M  V30 7292 H 711.292 3.66192 1.97593 0
M  V30 7293 H 710.168 4.60389 2.98886 0
M  V30 7294 H 710.429 2.90176 3.33542 0
M  V30 7295 N 709.488 -0.375779 1.53054 0
M  V30 7296 C 710.451 -1.44254 1.7811 0
M  V30 7297 C 711.451 -1.47018 0.651328 0
M  V30 7298 O 712.641 -1.47957 0.919472 0
M  V30 7299 C 709.773 -2.8345 1.89391 0
M  V30 7300 H 710.966 -1.23316 2.73374 0
M  V30 7301 H 708.519 -0.608312 1.43977 0
M  V30 7302 H 709.254 -3.09716 0.961589 0
M  V30 7303 H 709.039 -2.82844 2.71555 0
M  V30 7304 H 710.529 -3.60722 2.10404 0
M  V30 7305 N 710.966 -1.44241 -0.634997 0
M  V30 7306 C 712.215 -1.46102 -1.39058 0
M  V30 7307 C 712.528 -0.0959909 -1.95364 0
M  V30 7308 O 713.734 0.00788751 -2.71499 0
M  V30 7309 C 712.19 -2.57195 -2.51751 0
M  V30 7310 C 711.798 -3.99888 -2.01974 0
M  V30 7311 C 713.542 -2.68272 -3.28984 0
M  V30 7312 C 711.449 -5.02412 -3.11987 0
M  V30 7313 H 710.379 -0.543556 -0.522554 0
M  V30 7314 H 713.03 -1.70294 -0.683538 0
M  V30 7315 H 711.412 -2.26237 -3.25012 0
M  V30 7316 H 712.586 -4.40396 -1.35604 0
M  V30 7317 H 710.901 -3.93019 -1.37568 0
M  V30 7318 H 713.498 -3.42042 -4.10988 0
M  V30 7319 H 713.841 -1.73957 -3.78212 0
M  V30 7320 H 714.374 -2.98622 -2.62812 0
M  V30 7321 H 711.113 -5.98342 -2.67707 0
M  V30 7322 H 710.633 -4.66501 -3.77011 0
M  V30 7323 H 712.312 -5.25939 -3.76825 0
M  V30 7324 N 712.444 0.87505 -1.31075 0
M  V30 7325 C 713.376 1.98773 -1.14114 0
M  V30 7326 C 714.389 1.62595 -0.0816119 0
M  V30 7327 O 715.578 1.75449 -0.32861 0
M  V30 7328 C 712.678 3.31159 -0.720224 0
M  V30 7329 C 711.851 3.9571 -1.86366 0
M  V30 7330 C 710.91 5.06407 -1.42965 0
M  V30 7331 O 709.936 5.27501 -2.13848 0
M  V30 7332 N 711.138 5.79649 -0.314194 0
M  V30 7333 H 713.903 2.1387 -2.09951 0
M  V30 7334 H 711.464 1.04873 -1.23342 0
M  V30 7335 H 713.456 4.0259 -0.412687 0
M  V30 7336 H 712.026 3.12257 0.146396 0
M  V30 7337 H 711.246 3.17324 -2.33879 0
M  V30 7338 H 712.534 4.35576 -2.62966 0
M  V30 7339 H 711.932 5.65025 0.276228 0
M  V30 7340 H 710.489 6.51766 -0.0661641 0
M  V30 7341 N 713.922 1.13953 1.08869 0
M  V30 7342 C 714.832 0.835666 2.19212 0
M  V30 7343 C 715.848 -0.182005 1.73045 0
M  V30 7344 O 717.024 -0.0116661 2.01397 0
M  V30 7345 C 714.089 0.312325 3.4529 0
M  V30 7346 C 713.15 1.39196 4.06107 0
M  V30 7347 C 712.383 0.893496 5.26168 0
M  V30 7348 O 712.606 -0.266807 5.69776 0
M  V30 7349 O 711.54 1.67037 5.78258 0
M  V30 7350 H 715.366 1.75769 2.47667 0
M  V30 7351 H 712.951 0.917421 1.17914 0
M  V30 7352 H 714.833 0.0261582 4.21392 0
M  V30 7353 H 713.508 -0.582042 3.18424 0
M  V30 7354 H 712.415 1.73152 3.31616 0
M  V30 7355 H 713.748 2.26068 4.37212 0
M  V30 7356 N 715.4 -1.26948 0.933913 0
M  V30 7357 C 716.31 -2.30366 0.443671 0
M  V30 7358 C 717.326 -1.67284 -0.478745 0
M  V30 7359 O 718.502 -1.98156 -0.360043 0
M  V30 7360 C 715.567 -3.45485 -0.289974 0
M  V30 7361 C 714.628 -4.24069 0.668114 0
M  V30 7362 C 713.861 -5.33691 -0.0306138 0
M  V30 7363 O 714.084 -5.5656 -1.24888 0
M  V30 7364 O 713.018 -5.98441 0.644384 0
M  V30 7365 H 716.844 -2.74349 1.30254 0
M  V30 7366 H 714.429 -1.32012 0.699506 0
M  V30 7367 H 716.311 -4.15486 -0.70353 0
M  V30 7368 H 714.986 -3.03546 -1.12435 0
M  V30 7369 H 713.893 -3.56579 1.13147 0
M  V30 7370 H 715.226 -4.69739 1.46989 0
M  V30 7371 N 716.879 -0.700114 -1.41195 0
M  V30 7372 C 717.826 -0.0376652 -2.30769 0
M  V30 7373 C 718.796 0.766544 -1.47354 0
M  V30 7374 O 719.981 0.73365 -1.76131 0
M  V30 7375 C 717.121 0.889452 -3.33441 0
M  V30 7376 C 716.234 0.076373 -4.31932 0
M  V30 7377 C 715.369 1.00155 -5.21673 0
M  V30 7378 C 714.408 0.181644 -6.1183 0
M  V30 7379 N 713.545 1.06087 -6.94039 0
M  V30 7380 H 718.385 -0.80726 -2.86858 0
M  V30 7381 H 715.922 -0.409798 -1.41277 0
M  V30 7382 H 717.88 1.44107 -3.91522 0
M  V30 7383 H 716.51 1.6254 -2.78892 0
M  V30 7384 H 715.562 -0.592223 -3.75762 0
M  V30 7385 H 716.874 -0.559076 -4.95657 0
M  V30 7386 H 716.028 1.62223 -5.8461 0
M  V30 7387 H 714.767 1.67085 -4.58186 0
M  V30 7388 H 713.772 -0.452085 -5.47938 0
M  V30 7389 H 714.997 -0.483925 -6.77374 0
M  V30 7390 H 712.943 1.7161 -6.33156 0
M  V30 7391 H 712.86 0.481094 -7.54468 0
M  V30 7392 H 714.128 1.66822 -7.6144 0
M  V30 7393 N 718.357 1.51182 -0.445186 0
M  V30 7394 C 719.304 2.27939 0.362291 0
M  V30 7395 C 720.274 1.31864 1.01 0
M  V30 7396 O 721.459 1.60776 1.02741 0
M  V30 7397 C 718.599 3.13016 1.45311 0
M  V30 7398 C 717.712 4.24093 0.822757 0
M  V30 7399 C 716.847 4.96467 1.88928 0
M  V30 7400 C 715.886 5.99454 1.23778 0
M  V30 7401 N 715.023 6.65206 2.24602 0
M  V30 7402 H 719.863 2.965 -0.29862 0
M  V30 7403 H 717.4 1.46237 -0.15911 0
M  V30 7404 H 719.358 3.60673 2.09692 0
M  V30 7405 H 717.988 2.46553 2.08354 0
M  V30 7406 H 717.04 3.80341 0.0670364 0
M  V30 7407 H 718.352 4.97853 0.307184 0
M  V30 7408 H 717.506 5.47712 2.60953 0
M  V30 7409 H 716.245 4.22355 2.4386 0
M  V30 7410 H 715.25 5.47494 0.503042 0
M  V30 7411 H 716.475 6.75527 0.695694 0
M  V30 7412 H 714.421 5.93901 2.78599 0
M  V30 7413 H 714.338 7.34756 1.77958 0
M  V30 7414 H 715.606 7.21078 2.96085 0
M  V30 7415 N 719.835 0.176821 1.56605 0
M  V30 7416 C 721.065 -0.472142 2.01133 0
M  V30 7417 C 721.473 -1.56979 1.05614 0
M  V30 7418 O 720.816 -1.83632 0.0500137 0
M  V30 7419 C 720.878 -1.10547 3.42081 0
M  V30 7420 C 720.542 -0.148806 4.56758 0
M  V30 7421 C 721.539 0.634939 5.16008 0
M  V30 7422 C 719.224 -0.0430325 5.02282 0
M  V30 7423 C 721.218 1.5116 6.19217 0
M  V30 7424 C 718.905 0.83721 6.05338 0
M  V30 7425 C 719.903 1.61311 6.63677 0
M  V30 7426 O 719.591 2.47863 7.64735 0
M  V30 7427 H 719.323 -0.124725 0.664394 0
M  V30 7428 H 721.877 0.277329 2.03519 0
M  V30 7429 H 720.107 -1.90318 3.36625 0
M  V30 7430 H 721.796 -1.6572 3.70529 0
M  V30 7431 H 722.562 0.563424 4.81716 0
M  V30 7432 H 718.441 -0.636753 4.56581 0
M  V30 7433 H 721.985 2.11767 6.64681 0
M  V30 7434 H 717.882 0.909908 6.39055 0
M  V30 7435 H 718.65 2.4144 7.8208 0
M  V30 7436 N 721.313 -1.57302 -0.09688 0
M  V30 7437 C 722.245 -1.98618 -1.14384 0
M  V30 7438 C 723.258 -0.888483 -1.36418 0
M  V30 7439 O 724.447 -1.16661 -1.35101 0
M  V30 7440 C 721.547 -2.28838 -2.49973 0
M  V30 7441 C 720.72 -3.60132 -2.48241 0
M  V30 7442 C 719.779 -3.7831 -3.65743 0
M  V30 7443 O 718.805 -4.50183 -3.48316 0
M  V30 7444 N 720.007 -3.18752 -4.85157 0
M  V30 7445 H 722.772 -2.8904 -0.792202 0
M  V30 7446 H 720.333 -1.59356 -0.285883 0
M  V30 7447 H 722.325 -2.38193 -3.27179 0
M  V30 7448 H 720.895 -1.44431 -2.77233 0
M  V30 7449 H 720.115 -3.61763 -1.56593 0
M  V30 7450 H 721.403 -4.46389 -2.4416 0
M  V30 7451 H 720.801 -2.60368 -5.0222 0
M  V30 7452 H 719.358 -3.33595 -5.59962 0
M  V30 7453 N 722.791 0.367657 -1.53252 0
M  V30 7454 C 724.207 0.709191 -1.42978 0
M  V30 7455 C 724.407 1.93352 -0.567193 0
M  V30 7456 O 723.463 2.52453 -0.0488349 0
M  V30 7457 C 724.776 0.924338 -2.86141 0
M  V30 7458 C 726.324 1.02448 -2.95759 0
M  V30 7459 C 726.799 1.27211 -4.39979 0
M  V30 7460 N 728.29 1.33986 -4.43398 0
M  V30 7461 C 729.025 1.54852 -5.52095 0
M  V30 7462 N 728.521 1.73049 -6.7084 0
M  V30 7463 N 730.314 1.57205 -5.39669 0
M  V30 7464 H 722.465 -0.437669 -2.07842 0
M  V30 7465 H 724.728 -0.133737 -0.938519 0
M  V30 7466 H 724.434 0.0965455 -3.51567 0
M  V30 7467 H 724.308 1.83302 -3.29667 0
M  V30 7468 H 726.695 1.84282 -2.30487 0
M  V30 7469 H 726.776 0.0932301 -2.5563 0
M  V30 7470 H 726.42 0.458792 -5.05824 0
M  V30 7471 H 726.35 2.21654 -4.77679 0
M  V30 7472 H 728.841 1.21545 -3.5782 0
M  V30 7473 H 729.154 1.88538 -7.49449 0
M  V30 7474 H 727.499 1.70231 -6.7383 0
M  V30 7475 H 730.69 1.42555 -4.45865 0
M  V30 7476 H 730.863 1.73126 -6.24445 0
M  V30 7477 N 724.269 1.44576 0.627338 0
M  V30 7478 C 725.199 1.54562 1.75022 0
M  V30 7479 C 726.18 0.398378 1.65369 0
M  V30 7480 O 727.365 0.61899 1.84071 0
M  V30 7481 C 724.495 1.49309 3.13567 0
M  V30 7482 C 723.449 2.62549 3.38012 0
M  V30 7483 C 722.775 2.42348 4.76625 0
M  V30 7484 C 724.075 4.04678 3.30202 0
M  V30 7485 H 725.769 2.4855 1.66922 0
M  V30 7486 H 723.315 1.19624 0.801636 0
M  V30 7487 H 725.268 1.54895 3.919 0
M  V30 7488 H 723.992 0.518392 3.2246 0
M  V30 7489 H 722.651 2.56358 2.62061 0
M  V30 7490 H 722.299 1.43062 4.82226 0
M  V30 7491 H 721.999 3.18273 4.93939 0
M  V30 7492 H 723.523 2.49758 5.57183 0
M  V30 7493 H 724.937 4.12217 3.98435 0
M  V30 7494 H 723.334 4.80836 3.5905 0
M  V30 7495 H 724.404 4.2798 2.27949 0
M  V30 7496 N 725.747 -0.868086 1.31537 0
M  V30 7497 C 726.972 -1.65926 1.24432 0
M  V30 7498 C 727.397 -1.87169 -0.186936 0
M  V30 7499 O 726.755 -1.4148 -1.13371 0
M  V30 7500 C 726.803 -3.00347 1.9956 0
M  V30 7501 O 725.907 -3.90221 1.33422 0
M  V30 7502 H 725.248 -0.506375 0.429512 0
M  V30 7503 H 727.778 -1.0822 1.73637 0
M  V30 7504 H 727.788 -3.50269 2.09226 0
M  V30 7505 H 726.463 -2.84205 3.03645 0
M  V30 7506 H 725.04 -3.48672 1.32219 0
M  V30 7507 N 727.225 -1.14528 -1.08264 0
M  V30 7508 C 728.473 -0.912599 -1.80322 0
M  V30 7509 C 728.794 0.562256 -1.86718 0
M  V30 7510 O 728.064 1.40869 -1.36135 0
M  V30 7511 H 726.644 -0.334645 -0.667849 0
M  V30 7512 H 729.306 -1.44415 -1.30883 0
M  V30 7513 H 728.402 -1.31384 -2.83098 0
M  V30 7514 N 728.703 1.26451 -0.940633 0
M  V30 7515 C 729.949 1.94065 -0.58878 0
M  V30 7516 C 730.282 1.7363 0.869853 0
M  V30 7517 O 729.557 1.073 1.62225 0
M  V30 7518 C 729.84 3.47852 -0.931199 0
M  V30 7519 C 729.693 3.77575 -2.44453 0
M  V30 7520 C 731.012 4.37832 -0.446229 0
M  V30 7521 H 728.131 0.704827 -0.21538 0
M  V30 7522 H 730.773 1.4933 -1.17475 0
M  V30 7523 H 728.923 3.86085 -0.432539 0
M  V30 7524 H 730.595 3.49059 -3.01588 0
M  V30 7525 H 728.838 3.23671 -2.88825 0
M  V30 7526 H 729.509 4.85068 -2.63464 0
M  V30 7527 H 731.985 4.06822 -0.873778 0
M  V30 7528 H 730.861 5.44228 -0.714648 0
M  V30 7529 H 731.122 4.37239 0.653815 0
M  V30 7530 N 730.181 0.707592 1.40822 0
M  V30 7531 C 731.091 0.0507246 2.34545 0
M  V30 7532 C 732.107 -0.752727 1.56876 0
M  V30 7533 O 733.283 -0.687524 1.89302 0
M  V30 7534 C 730.348 -0.865731 3.35717 0
M  V30 7535 C 729.409 -0.0531313 4.29267 0
M  V30 7536 C 728.642 -0.925939 5.25606 0
M  V30 7537 O 728.865 -2.16531 5.27703 0
M  V30 7538 O 727.799 -0.369194 6.00767 0
M  V30 7539 H 731.625 0.823587 2.9232 0
M  V30 7540 H 729.21 0.46801 1.4188 0
M  V30 7541 H 731.092 -1.39091 3.97783 0
M  V30 7542 H 729.767 -1.61788 2.80368 0
M  V30 7543 H 728.674 0.516931 3.70511 0
M  V30 7544 H 730.007 0.660617 4.87747 0
M  V30 7545 N 731.66 -1.50943 0.453197 0
M  V30 7546 C 732.907 -2.02212 -0.107922 0
M  V30 7547 C 733.235 -1.33639 -1.41318 0
M  V30 7548 O 732.49 -0.445154 -1.9057 0
M  V30 7549 C 732.789 -3.55603 -0.357944 0
M  V30 7550 C 732.455 -4.42556 0.863427 0
M  V30 7551 C 731.117 -4.6604 1.19834 0
M  V30 7552 C 733.469 -4.93468 1.67747 0
M  V30 7553 C 730.797 -5.37681 2.34768 0
M  V30 7554 C 733.149 -5.6637 2.81793 0
M  V30 7555 C 731.813 -5.88113 3.1572 0
M  V30 7556 H 731.083 -0.739947 -0.0394916 0
M  V30 7557 H 733.73 -1.81738 0.60363 0
M  V30 7558 H 732.035 -3.74495 -1.15156 0
M  V30 7559 H 733.732 -3.92821 -0.805781 0
M  V30 7560 H 730.322 -4.24485 0.592478 0
M  V30 7561 H 734.506 -4.75194 1.43192 0
M  V30 7562 H 729.762 -5.52727 2.61348 0
M  V30 7563 H 733.936 -6.04806 3.45229 0
M  V30 7564 H 731.563 -6.43404 4.04889 0
M  V30 7565 N 733.138 -0.185124 -1.56509 0
M  V30 7566 C 734.386 0.455357 -1.96903 0
M  V30 7567 C 734.707 1.62839 -1.07277 0
M  V30 7568 O 733.977 1.95385 -0.141966 0
M  V30 7569 H 732.557 0.171218 -0.727113 0
M  V30 7570 H 735.219 -0.26953 -1.93027 0
M  V30 7571 H 734.315 0.80616 -3.01509 0
M  V30 7572 N 734.616 1.57351 0.0885366 0
M  V30 7573 C 736.027 1.75303 0.642308 0
M  V30 7574 C 736.378 0.808238 1.78779 0
M  V30 7575 O 735.503 -0.01171 2.16397 0
M  V30 7576 C 736.098 3.17885 1.17194 0
M  V30 7577 C 734.657 3.37239 1.67172 0
M  V30 7578 C 733.804 2.7108 0.584045 0
M  V30 7579 H 736.755 1.58103 -0.137567 0
M  V30 7580 H 736.776 3.2112 2.04114 0
M  V30 7581 H 736.288 3.86625 0.338024 0
M  V30 7582 H 734.389 2.73588 2.52943 0
M  V30 7583 H 734.502 4.45594 1.76019 0
M  V30 7584 H 732.866 2.33161 1.02508 0
M  V30 7585 H 733.649 3.42464 -0.239403 0
M  V30 7586 N 736.094 -0.359525 1.53444 0
M  V30 7587 C 737.027 -1.46338 1.75101 0
M  V30 7588 C 738.005 -1.51142 0.599559 0
M  V30 7589 O 739.189 -1.69102 0.832862 0
M  V30 7590 C 736.316 -2.84667 1.83527 0
M  V30 7591 C 735.362 -2.9756 3.05549 0
M  V30 7592 S 736.195 -2.65685 4.64943 0
M  V30 7593 C 737.351 -4.06153 4.76225 0
M  V30 7594 H 737.584 -1.27747 2.68455 0
M  V30 7595 H 735.117 -0.554231 1.4411 0
M  V30 7596 H 737.075 -3.64368 1.89067 0
M  V30 7597 H 735.736 -3.00564 0.912147 0
M  V30 7598 H 734.929 -3.98883 3.08072 0
M  V30 7599 H 734.531 -2.25789 2.98153 0
M  V30 7600 H 736.823 -5.00475 4.56652 0
M  V30 7601 H 737.766 -4.08632 5.78295 0
M  V30 7602 H 738.174 -3.93435 4.04808 0
M  V30 7603 N 737.572 -1.44907 -0.619662 0
M  V30 7604 C 738.849 -1.38766 -1.37852 0
M  V30 7605 C 739.229 -0.0521393 -2.11036 0
M  V30 7606 O 738.577 0.965613 -2.07095 0
M  V30 7607 C 738.787 -2.59344 -2.33541 0
M  V30 7608 C 740.135 -3.03909 -2.96521 0
M  V30 7609 O 741.159 -2.59631 -2.43865 0
M  V30 7610 O 740.018 -3.80713 -3.92071 0
M  V30 7611 H 737.112 -0.550083 -0.617525 0
M  V30 7612 H 739.658 -1.57015 -0.643759 0
M  V30 7613 H 738.43 -3.48142 -1.78642 0
M  V30 7614 H 738.053 -2.43367 -3.14417 0
M  V30 7615 N 739.05 0.861098 -1.31996 0
M  V30 7616 C 740.297 1.61481 -1.22188 0
M  V30 7617 C 740.625 1.93276 0.217853 0
M  V30 7618 O 739.88 1.56942 1.16909 0
M  V30 7619 C 740.179 2.94822 -2.02027 0
M  V30 7620 C 739.845 2.82483 -3.51446 0
M  V30 7621 C 738.507 2.78825 -3.92186 0
M  V30 7622 C 740.859 2.68878 -4.46491 0
M  V30 7623 C 738.187 2.59433 -5.26224 0
M  V30 7624 C 740.539 2.51022 -5.80664 0
M  V30 7625 C 739.203 2.45753 -6.20614 0
M  V30 7626 H 738.473 0.590902 -0.447119 0
M  V30 7627 H 741.12 0.999376 -1.63355 0
M  V30 7628 H 739.425 3.6045 -1.53569 0
M  V30 7629 H 741.122 3.52149 -1.91812 0
M  V30 7630 H 737.712 2.86152 -3.19085 0
M  V30 7631 H 741.896 2.70754 -4.1594 0
M  V30 7632 H 737.152 2.53784 -5.5624 0
M  V30 7633 H 741.326 2.39473 -6.53931 0
M  V30 7634 H 738.953 2.30485 -7.24417 0
M  V30 7635 N 740.528 1.15101 1.07655 0
M  V30 7636 C 741.475 0.844958 2.14777 0
M  V30 7637 C 742.445 -0.200798 1.64882 0
M  V30 7638 O 743.63 -0.0690278 1.90675 0
M  V30 7639 C 740.77 0.337018 3.4345 0
M  V30 7640 C 739.883 1.44398 4.07153 0
M  V30 7641 C 739.018 0.892487 5.23649 0
M  V30 7642 C 738.057 1.9766 5.79307 0
M  V30 7643 N 737.194 1.44171 6.87138 0
M  V30 7644 H 742.034 1.76242 2.40297 0
M  V30 7645 H 739.571 0.879435 1.17917 0
M  V30 7646 H 741.529 0.024256 4.17193 0
M  V30 7647 H 740.159 -0.543531 3.18191 0
M  V30 7648 H 739.211 1.87299 3.31094 0
M  V30 7649 H 740.523 2.26262 4.4453 0
M  V30 7650 H 739.677 0.532083 6.04362 0
M  V30 7651 H 738.416 0.0429854 4.87681 0
M  V30 7652 H 737.421 2.34586 4.97242 0
M  V30 7653 H 738.646 2.82982 6.17331 0
M  V30 7654 H 736.592 0.614518 6.53115 0
M  V30 7655 H 736.509 2.19665 7.23383 0
M  V30 7656 H 737.777 1.10945 7.71564 0
M  V30 7657 N 742.006 -1.2595 0.947325 0
M  V30 7658 C 742.969 -2.24407 0.466285 0
M  V30 7659 C 743.969 -1.55054 -0.426005 0
M  V30 7660 O 745.159 -1.7275 -0.224319 0
M  V30 7661 C 742.291 -3.39326 -0.327201 0
M  V30 7662 H 743.484 -2.68477 1.33642 0
M  V30 7663 H 741.037 -1.38211 0.729887 0
M  V30 7664 H 741.772 -3.00667 -1.21532 0
M  V30 7665 H 741.557 -3.9085 0.312839 0
M  V30 7666 H 743.047 -4.12455 -0.653477 0
M  V30 7667 N 743.484 -0.715051 -1.40445 0
M  V30 7668 C 744.714 -0.263576 -2.04912 0
M  V30 7669 C 745.122 1.09943 -1.53978 0
M  V30 7670 O 744.465 1.70203 -0.691133 0
M  V30 7671 C 744.527 -0.165048 -3.59121 0
M  V30 7672 C 744.191 -1.46325 -4.32941 0
M  V30 7673 C 745.188 -2.40506 -4.60926 0
M  V30 7674 C 742.873 -1.72203 -4.7186 0
M  V30 7675 C 744.867 -3.58812 -5.26814 0
M  V30 7676 C 742.554 -2.9079 -5.3748 0
M  V30 7677 C 743.552 -3.83917 -5.64887 0
M  V30 7678 O 743.24 -5.00424 -6.29151 0
M  V30 7679 H 742.972 -0.116317 -0.665918 0
M  V30 7680 H 745.526 -0.973774 -1.8085 0
M  V30 7681 H 743.756 0.601088 -3.82 0
M  V30 7682 H 745.445 0.251794 -4.05118 0
M  V30 7683 H 746.211 -2.21778 -4.31323 0
M  V30 7684 H 742.09 -1.00571 -4.49896 0
M  V30 7685 H 745.634 -4.31517 -5.48123 0
M  V30 7686 H 741.531 -3.09428 -5.66502 0
M  V30 7687 H 742.299 -5.00494 -6.47648 0
M  V30 7688 N 744.962 1.50701 -0.461195 0
M  V30 7689 C 745.925 2.2686 0.326679 0
M  V30 7690 C 746.925 1.31243 0.929085 0
M  V30 7691 O 748.115 1.54754 0.799807 0
M  V30 7692 C 745.247 3.07844 1.46441 0
M  V30 7693 H 746.44 2.97954 -0.341095 0
M  V30 7694 H 743.993 1.54814 -0.214984 0
M  V30 7695 H 744.728 2.41223 2.16753 0
M  V30 7696 H 744.513 3.78101 1.03836 0
M  V30 7697 H 746.003 3.65469 2.02044 0
M  V30 7698 N 746.441 0.193421 1.56409 0
M  V30 7699 C 747.351 -0.740112 2.2262 0
M  V30 7700 C 748.367 -1.23597 1.22474 0
M  V30 7701 O 749.543 -1.28348 1.55206 0
M  V30 7702 C 746.608 -1.94317 2.87127 0
M  V30 7703 C 745.669 -1.49205 4.02538 0
M  V30 7704 C 744.902 -2.63776 4.63959 0
M  V30 7705 O 745.125 -3.81215 4.24301 0
M  V30 7706 O 744.059 -2.36585 5.53454 0
M  V30 7707 H 747.885 -0.206238 3.02999 0
M  V30 7708 H 745.47 -0.0357938 1.49357 0
M  V30 7709 H 747.352 -2.64633 3.27944 0
M  V30 7710 H 746.027 -2.46568 2.09728 0
M  V30 7711 H 744.934 -0.757738 3.66346 0
M  V30 7712 H 746.267 -1.01622 4.81595 0
M  V30 7713 N 747.919 -1.57396 -0.0801906 0
M  V30 7714 C 749.144 -1.91437 -0.797909 0
M  V30 7715 C 749.569 -0.789075 -1.70749 0
M  V30 7716 O 748.927 0.25857 -1.79447 0
M  V30 7717 C 748.975 -3.24402 -1.57467 0
M  V30 7718 O 748.079 -3.13043 -2.68473 0
M  V30 7719 H 747.42 -0.627109 -0.218243 0
M  V30 7720 H 749.95 -2.04537 -0.050949 0
M  V30 7721 H 749.96 -3.58072 -1.95571 0
M  V30 7722 H 748.635 -4.05884 -0.907229 0
M  V30 7723 H 747.212 -2.90915 -2.33287 0
M  V30 7724 N 749.397 0.351382 -1.53633 0
M  V30 7725 C 750.644 1.0925 -1.70502 0
M  V30 7726 C 750.972 1.88881 -0.464123 0
M  V30 7727 O 750.227 1.87693 0.554077 0
M  V30 7728 C 750.526 2.06744 -2.91533 0
M  V30 7729 C 750.192 1.43484 -4.27461 0
M  V30 7730 C 748.854 1.2596 -4.64422 0
M  V30 7731 C 751.206 0.978436 -5.11934 0
M  V30 7732 C 748.534 0.614017 -5.83478 0
M  V30 7733 C 750.886 0.346795 -6.31649 0
M  V30 7734 C 749.55 0.15917 -6.6731 0
M  V30 7735 H 748.82 0.399773 -0.623909 0
M  V30 7736 H 751.467 0.372656 -1.87839 0
M  V30 7737 H 749.772 2.85082 -2.68767 0
M  V30 7738 H 751.469 2.64066 -3.01778 0
M  V30 7739 H 748.059 1.5812 -3.98367 0
M  V30 7740 H 752.243 1.1017 -4.83918 0
M  V30 7741 H 747.499 0.457194 -6.09688 0
M  V30 7742 H 751.673 -0.0149864 -6.96398 0
M  V30 7743 H 749.3 -0.343129 -7.59425 0
M  V30 7744 N 750.875 1.45233 0.611969 0
M  V30 7745 C 752.123 1.48727 1.36838 0
M  V30 7746 C 752.444 0.128616 1.94575 0
M  V30 7747 O 751.714 -0.84149 1.76906 0
M  V30 7748 H 750.294 0.547695 0.507976 0
M  V30 7749 H 752.956 1.81156 0.718925 0
M  V30 7750 H 752.052 2.2236 2.19003 0
M  V30 7751 N 752.353 -0.854086 1.3245 0
M  V30 7752 C 753.316 -1.94427 1.21371 0
M  V30 7753 C 754.316 -1.60219 0.136613 0
M  V30 7754 O 755.506 -1.69846 0.387057 0
M  V30 7755 C 752.638 -3.29698 0.866701 0
M  V30 7756 H 753.831 -2.05679 2.18257 0
M  V30 7757 H 751.384 -1.04434 1.1629 0
M  V30 7758 H 752.119 -3.24145 -0.100319 0
M  V30 7759 H 751.904 -3.55903 1.64545 0
M  V30 7760 H 753.394 -4.09599 0.813515 0
M  V30 7761 N 753.831 -1.1567 -1.07043 0
M  V30 7762 C 754.778 -0.856336 -2.14326 0
M  V30 7763 C 755.748 0.192051 -1.64986 0
M  V30 7764 O 756.933 0.0589148 -1.90709 0
M  V30 7765 C 754.073 -0.355227 -3.43267 0
M  V30 7766 C 753.186 -1.46555 -4.06381 0
M  V30 7767 C 752.321 -0.920245 -5.23168 0
M  V30 7768 C 751.36 -2.00729 -5.78251 0
M  V30 7769 N 750.497 -1.47813 -6.86364 0
M  V30 7770 H 755.337 -1.77514 -2.39359 0
M  V30 7771 H 752.874 -0.885676 -1.17449 0
M  V30 7772 H 754.832 -0.0463804 -4.17174 0
M  V30 7773 H 753.462 0.526649 -3.18475 0
M  V30 7774 H 752.514 -1.89052 -3.30096 0
M  V30 7775 H 753.826 -2.28616 -4.43324 0
M  V30 7776 H 752.98 -0.564127 -6.04072 0
M  V30 7777 H 751.719 -0.0688477 -4.87651 0
M  V30 7778 H 750.724 -2.3722 -4.95991 0
M  V30 7779 H 751.949 -2.86252 -6.15822 0
M  V30 7780 H 749.895 -0.649145 -6.5278 0
M  V30 7781 H 749.812 -2.23498 -7.22208 0
M  V30 7782 H 751.08 -1.15036 -7.70965 0
M  V30 7783 N 755.309 1.25446 -0.953992 0
M  V30 7784 C 756.557 1.92762 -0.607227 0
M  V30 7785 C 756.878 1.7509 0.858399 0
M  V30 7786 O 756.148 1.11416 1.61132 0
M  V30 7787 H 754.728 0.713377 -0.221591 0
M  V30 7788 H 757.39 1.52625 -1.21209 0
M  V30 7789 H 756.486 3.00695 -0.835998 0
M  V30 7790 N 756.787 0.722489 1.40064 0
M  V30 7791 C 758.034 0.264979 2.00759 0
M  V30 7792 C 758.362 -1.14395 1.57302 0
M  V30 7793 O 757.617 -1.79165 0.787298 0
M  V30 7794 C 757.916 0.300682 3.56133 0
M  V30 7795 C 757.582 1.66087 4.19197 0
M  V30 7796 C 756.244 2.03319 4.36136 0
M  V30 7797 C 758.596 2.55452 4.54306 0
M  V30 7798 C 755.924 3.29448 4.8547 0
M  V30 7799 C 758.276 3.8094 5.05042 0
M  V30 7800 C 756.94 4.1828 5.2019 0
M  V30 7801 H 756.21 0.0969625 0.734629 0
M  V30 7802 H 758.857 0.926877 1.67575 0
M  V30 7803 H 757.162 -0.44479 3.89267 0
M  V30 7804 H 758.859 -0.0712542 4.00937 0
M  V30 7805 H 755.449 1.36137 4.06405 0
M  V30 7806 H 759.633 2.27961 4.40849 0
M  V30 7807 H 754.889 3.58338 4.95382 0
M  V30 7808 H 759.063 4.50351 5.31184 0
M  V30 7809 H 756.69 5.16081 5.58179 0
M  V30 7810 N 758.265 -1.50454 0.469181 0
M  V30 7811 C 759.228 -2.2703 -0.314643 0
M  V30 7812 C 760.228 -1.31734 -0.922111 0
M  V30 7813 O 761.418 -1.55176 -0.791588 0
M  V30 7814 C 758.55 -3.08616 -1.44806 0
M  V30 7815 H 759.743 -2.97769 0.356892 0
M  V30 7816 H 757.296 -1.54698 0.223191 0
M  V30 7817 H 758.031 -2.42369 -2.1547 0
M  V30 7818 H 757.816 -3.78647 -1.01829 0
M  V30 7819 H 759.306 -3.66536 -2.00103 0
M  V30 7820 N 759.743 -0.201713 -1.56304 0
M  V30 7821 C 760.989 0.435952 -1.98059 0
M  V30 7822 C 761.322 1.60811 -1.08873 0
M  V30 7823 O 760.597 1.9398 -0.142128 0
M  V30 7824 C 760.88 0.889706 -3.48936 0
M  V30 7825 C 760.733 -0.284725 -4.48898 0
M  V30 7826 C 762.052 1.7529 -4.03685 0
M  V30 7827 H 759.171 0.15699 -0.720085 0
M  V30 7828 H 761.813 -0.293965 -1.87712 0
M  V30 7829 H 759.963 1.51166 -3.57884 0
M  V30 7830 H 761.635 -0.922531 -4.51981 0
M  V30 7831 H 759.878 -0.935427 -4.23594 0
M  V30 7832 H 760.549 0.0753865 -5.51949 0
M  V30 7833 H 763.025 1.2283 -3.97558 0
M  V30 7834 H 761.901 2.03933 -5.0961 0
M  V30 7835 H 762.162 2.70939 -3.49348 0
M  V30 7836 N 761.222 1.57436 0.0718424 0
M  V30 7837 C 762.132 2.07039 1.10326 0
M  V30 7838 C 763.148 0.999918 1.424 0
M  V30 7839 O 764.324 1.31462 1.52577 0
M  V30 7840 C 761.389 2.50439 2.39752 0
M  V30 7841 C 760.45 3.71784 2.14651 0
M  V30 7842 C 759.683 4.13104 3.37906 0
M  V30 7843 O 759.906 3.54298 4.47023 0
M  V30 7844 O 758.84 5.05894 3.26121 0
M  V30 7845 H 762.666 2.95239 0.711872 0
M  V30 7846 H 760.251 1.46638 0.28597 0
M  V30 7847 H 762.133 2.78876 3.15921 0
M  V30 7848 H 760.808 1.65368 2.78271 0
M  V30 7849 H 759.715 3.48431 1.36187 0
M  V30 7850 H 761.048 4.57707 1.81012 0
M  V30 7851 N 762.7 -0.34323 1.53817 0
M  V30 7852 C 763.925 -1.1079 1.75329 0
M  V30 7853 C 764.35 -1.81571 0.491293 0
M  V30 7854 O 763.708 -1.72561 -0.556089 0
M  V30 7855 C 763.756 -2.09681 2.9337 0
M  V30 7856 O 762.86 -3.17207 2.63541 0
M  V30 7857 H 762.201 -0.320402 0.581583 0
M  V30 7858 H 764.731 -0.393525 2.0078 0
M  V30 7859 H 764.741 -2.52897 3.20168 0
M  V30 7860 H 763.416 -1.5756 3.84899 0
M  V30 7861 H 761.993 -2.78806 2.47632 0
M  V30 7862 N 764.178 -1.45556 -0.604258 0
M  V30 7863 C 765.141 -1.54091 -1.69672 0
M  V30 7864 C 766.141 -0.420076 -1.55216 0
M  V30 7865 O 767.331 -0.683671 -1.60224 0
M  V30 7866 C 764.463 -1.44063 -3.08964 0
M  V30 7867 H 765.656 -2.51431 -1.6347 0
M  V30 7868 H 763.209 -1.33046 -0.820273 0
M  V30 7869 H 763.944 -0.479201 -3.2074 0
M  V30 7870 H 763.729 -2.25362 -3.20865 0
M  V30 7871 H 765.219 -1.53075 -3.88533 0
M  V30 7872 N 765.656 0.84705 -1.32902 0
M  V30 7873 C 766.566 1.98845 -1.2449 0
M  V30 7874 C 767.582 1.7329 -0.15702 0
M  V30 7875 O 768.758 1.978 -0.379104 0
M  V30 7876 C 765.823 3.32679 -0.975985 0
M  V30 7877 C 764.884 3.71405 -2.15306 0
M  V30 7878 C 764.117 4.98853 -1.89688 0
M  V30 7879 O 764.34 5.64134 -0.843168 0
M  V30 7880 O 763.274 5.34889 -2.76002 0
M  V30 7881 H 767.1 2.0888 -2.2046 0
M  V30 7882 H 764.685 0.978852 -1.12867 0
M  V30 7883 H 766.567 4.12885 -0.842826 0
M  V30 7884 H 765.242 3.23667 -0.0464954 0
M  V30 7885 H 764.149 2.91743 -2.34172 0
M  V30 7886 H 765.482 3.85073 -3.06561 0
M  V30 7887 N 767.134 1.16236 1.06428 0
M  V30 7888 C 768.097 0.870163 2.1204 0
M  V30 7889 C 769.097 -0.134239 1.60239 0
M  V30 7890 O 770.287 0.0964932 1.73933 0
M  V30 7891 C 767.419 0.301033 3.39568 0
M  V30 7892 H 768.612 1.8064 2.39394 0
M  V30 7893 H 766.165 0.971116 1.2247 0
M  V30 7894 H 766.9 -0.642948 3.17863 0
M  V30 7895 H 766.685 1.02475 3.78472 0
M  V30 7896 H 768.175 0.114494 4.17443 0
M  V30 7897 N 768.612 -1.24939 0.960631 0
M  V30 7898 C 769.542 -2.28 0.503815 0
M  V30 7899 C 770.523 -1.63959 -0.452928 0
M  V30 7900 O 771.708 -1.91009 -0.350585 0
M  V30 7901 C 768.838 -3.46643 -0.213535 0
M  V30 7902 C 767.792 -4.22903 0.658535 0
M  V30 7903 C 767.118 -5.34363 -0.189902 0
M  V30 7904 C 768.418 -4.84949 1.93963 0
M  V30 7905 H 770.112 -2.66462 1.36521 0
M  V30 7906 H 767.658 -1.28093 0.657897 0
M  V30 7907 H 769.611 -4.1787 -0.544286 0
M  V30 7908 H 768.335 -3.07187 -1.10923 0
M  V30 7909 H 766.994 -3.53467 0.972455 0
M  V30 7910 H 766.642 -4.91147 -1.08553 0
M  V30 7911 H 766.342 -5.86302 0.390331 0
M  V30 7912 H 767.866 -6.0842 -0.515484 0
M  V30 7913 H 769.28 -5.48288 1.67491 0
M  V30 7914 H 767.677 -5.47091 2.46601 0
M  V30 7915 H 768.747 -4.06799 2.639 0
M  V30 7916 N 770.09 -0.729906 -1.39679 0
M  V30 7917 C 771 -0.0880322 -2.34435 0
M  V30 7918 C 772.016 0.727674 -1.58053 0
M  V30 7919 O 773.192 0.657321 -1.90371 0
M  V30 7920 C 770.257 0.812211 -3.37052 0
M  V30 7921 C 769.318 -0.0151681 -4.29297 0
M  V30 7922 C 768.551 0.842202 -5.27013 0
M  V30 7923 O 768.774 2.08108 -5.31081 0
M  V30 7924 O 767.708 0.27357 -6.01278 0
M  V30 7925 H 771.534 -0.869989 -2.90972 0
M  V30 7926 H 769.119 -0.490522 -1.41118 0
M  V30 7927 H 771.001 1.32745 -3.99946 0
M  V30 7928 H 769.676 1.57307 -2.82907 0
M  V30 7929 H 768.583 -0.575811 -3.69642 0
M  V30 7930 H 769.916 -0.738129 -4.86634 0
M  V30 7931 N 771.568 1.50203 -0.477153 0
M  V30 7932 C 772.979 1.86685 -0.0235041 0
M  V30 7933 C 773.33 1.39148 1.38319 0
M  V30 7934 O 772.455 0.759051 2.02651 0
M  V30 7935 C 773.05 3.38781 -0.0358767 0
M  V30 7936 C 771.609 3.74652 0.362327 0
M  V30 7937 C 770.756 2.7412 -0.41875 0
M  V30 7938 H 773.707 1.4286 -0.691133 0
M  V30 7939 H 773.728 3.72732 0.764924 0
M  V30 7940 H 773.24 3.73349 -1.05981 0
M  V30 7941 H 771.341 3.45686 1.39039 0
M  V30 7942 H 771.454 4.79063 0.059457 0
M  V30 7943 H 769.818 2.54376 0.128341 0
M  V30 7944 H 770.601 3.11532 -1.44231 0
M  V30 7945 N 773.046 0.209999 1.56195 0
M  V30 7946 C 774.274 -0.429996 2.02382 0
M  V30 7947 C 774.689 -1.54159 1.08998 0
M  V30 7948 O 774.046 -1.82239 0.0974856 0
M  V30 7949 C 774.097 -0.972433 3.48175 0
M  V30 7950 O 773.818 0.0948231 4.37997 0
M  V30 7951 C 775.319 -1.68683 4.09952 0
M  V30 7952 H 772.539 -0.106475 0.662498 0
M  V30 7953 H 775.083 0.323072 2.01932 0
M  V30 7954 H 773.238 -1.67582 3.49278 0
M  V30 7955 H 773.652 -0.31113 5.23576 0
M  V30 7956 H 775.126 -2.01851 5.13771 0
M  V30 7957 H 775.603 -2.59587 3.54276 0
M  V30 7958 H 776.209 -1.02893 4.12666 0
M  V30 7959 N 774.524 -1.57472 -0.0634922 0
M  V30 7960 C 775.454 -2.07297 -1.07473 0
M  V30 7961 C 776.435 -0.968162 -1.39859 0
M  V30 7962 O 777.62 -1.24139 -1.49343 0
M  V30 7963 C 774.75 -2.52381 -2.38581 0
M  V30 7964 C 773.704 -3.66813 -2.20526 0
M  V30 7965 C 773.03 -3.97982 -3.57092 0
M  V30 7966 C 774.33 -4.96553 -1.61965 0
M  V30 7967 H 776.024 -2.92033 -0.660092 0
M  V30 7968 H 773.57 -1.40488 -0.316074 0
M  V30 7969 H 775.523 -2.85852 -3.09624 0
M  V30 7970 H 774.247 -1.64684 -2.8204 0
M  V30 7971 H 772.906 -3.33639 -1.51924 0
M  V30 7972 H 772.554 -3.07403 -3.98136 0
M  V30 7973 H 772.254 -4.7504 -3.45848 0
M  V30 7974 H 773.778 -4.33956 -4.29552 0
M  V30 7975 H 775.192 -5.28201 -2.22883 0
M  V30 7976 H 773.589 -5.7799 -1.61394 0
M  V30 7977 H 774.659 -4.81396 -0.581918 0
M  V30 7978 N 776.003 0.335068 -1.53997 0
M  V30 7979 C 777.419 0.678704 -1.4445 0
M  V30 7980 C 777.619 1.92106 -0.608078 0
M  V30 7981 O 776.675 2.52292 -0.102373 0
M  V30 7982 C 777.988 0.863435 -2.88037 0
M  V30 7983 C 779.536 0.961513 -2.97866 0
M  V30 7984 C 780.011 1.1785 -4.42578 0
M  V30 7985 N 781.502 1.2455 -4.46141 0
M  V30 7986 C 782.237 1.43106 -5.55255 0
M  V30 7987 N 781.733 1.5878 -6.74359 0
M  V30 7988 N 783.526 1.45722 -5.42883 0
M  V30 7989 H 775.677 -0.481656 -2.06867 0
M  V30 7990 H 777.94 -0.153615 -0.935471 0
M  V30 7991 H 777.646 0.0219511 -3.51693 0
M  V30 7992 H 777.52 1.76268 -3.33481 0
M  V30 7993 H 779.907 1.79351 -2.34344 0
M  V30 7994 H 779.988 0.0389862 -2.5577 0
M  V30 7995 H 779.632 0.351397 -5.06683 0
M  V30 7996 H 779.562 2.11472 -4.82273 0
M  V30 7997 H 782.053 1.13928 -3.60318 0
M  V30 7998 H 782.366 1.72599 -7.53279 0
M  V30 7999 H 780.711 1.559 -6.77289 0
M  V30 8000 H 783.902 1.33065 -4.48789 0
M  V30 8001 H 784.075 1.59841 -6.27977 0
M  V30 8002 N 777.481 1.45874 0.596531 0
M  V30 8003 C 778.444 1.54988 1.68853 0
M  V30 8004 C 779.444 0.428302 1.54991 0
M  V30 8005 O 780.634 0.692158 1.59859 0
M  V30 8006 C 777.766 1.457 3.08195 0
M  V30 8007 H 778.959 2.52294 1.62135 0
M  V30 8008 H 776.512 1.33479 0.813206 0
M  V30 8009 H 777.247 0.496204 3.20481 0
M  V30 8010 H 777.032 2.27061 3.19665 0
M  V30 8011 H 778.522 1.55133 3.87716 0
M  V30 8012 N 778.959 -0.83999 1.33349 0
M  V30 8013 C 779.922 -1.93128 1.23426 0
M  V30 8014 C 780.922 -1.60065 0.153599 0
M  V30 8015 O 782.112 -1.69425 0.405049 0
M  V30 8016 C 779.244 -3.28761 0.901622 0
M  V30 8017 H 780.437 -2.03352 2.20427 0
M  V30 8018 H 777.99 -1.03194 1.17391 0
M  V30 8019 H 778.725 -3.24233 -0.0659337 0
M  V30 8020 H 778.51 -3.54138 1.68311 0
M  V30 8021 H 780 -4.08714 0.856913 0
M  V30 8022 N 780.437 -1.16799 -1.0581 0
M  V30 8023 C 781.37 -0.822491 -2.12862 0
M  V30 8024 C 782.348 0.208006 -1.61264 0
M  V30 8025 O 783.532 0.0909652 -1.8828 0
M  V30 8026 C 780.659 -0.225826 -3.37946 0
M  V30 8027 C 779.705 -1.23071 -4.08357 0
M  V30 8028 S 780.538 -2.77944 -4.5772 0
M  V30 8029 C 781.694 -2.19741 -5.86059 0
M  V30 8030 H 781.927 -1.72917 -2.41841 0
M  V30 8031 H 779.46 -0.991982 -1.18318 0
M  V30 8032 H 781.418 0.111955 -4.10347 0
M  V30 8033 H 780.079 0.658692 -3.07116 0
M  V30 8034 H 779.272 -0.761758 -4.9821 0
M  V30 8035 H 778.874 -1.51383 -3.41993 0
M  V30 8036 H 781.166 -1.5691 -6.59079 0
M  V30 8037 H 782.109 -3.07823 -6.37692 0
M  V30 8038 H 782.517 -1.63433 -5.40324 0
M  V30 8039 N 781.915 1.24427 -0.967243 0
M  V30 8040 C 783.192 1.87831 -0.545776 0
M  V30 8041 C 783.572 1.87126 0.977099 0
M  V30 8042 O 782.92 1.34357 1.84826 0
M  V30 8043 C 783.13 3.29967 -1.13679 0
M  V30 8044 C 784.478 4.06654 -1.22139 0
M  V30 8045 O 785.502 3.39136 -1.08926 0
M  V30 8046 O 784.361 5.27455 -1.43017 0
M  V30 8047 H 781.455 0.806745 -0.181912 0
M  V30 8048 H 784.001 1.32403 -1.06148 0
M  V30 8049 H 782.773 3.24977 -2.17958 0
M  V30 8050 H 782.396 3.92969 -0.605093 0
M  V30 8051 N 783.393 0.737304 1.3929 0
M  V30 8052 C 784.639 0.286681 2.00763 0
M  V30 8053 C 784.972 -1.12388 1.58375 0
M  V30 8054 O 784.247 -1.76661 0.813699 0
M  V30 8055 C 784.53 0.391147 3.57969 0
M  V30 8056 C 784.383 1.84165 4.1037 0
M  V30 8057 C 785.702 -0.225072 4.39524 0
M  V30 8058 H 782.821 0.105642 0.729389 0
M  V30 8059 H 785.463 0.933892 1.65464 0
M  V30 8060 H 783.613 -0.159875 3.88171 0
M  V30 8061 H 785.285 2.44972 3.90879 0
M  V30 8062 H 783.528 2.3622 3.63844 0
M  V30 8063 H 784.199 1.866 5.19504 0
M  V30 8064 H 786.675 0.244677 4.1538 0
M  V30 8065 H 785.551 -0.121646 5.48765 0
M  V30 8066 H 785.812 -1.31141 4.22202 0
M  V30 8067 N 784.871 -1.49948 0.485112 0
M  V30 8068 C 786.148 -1.95186 -0.12726 0
M  V30 8069 C 786.528 -1.42605 -1.5565 0
M  V30 8070 O 785.876 -0.632986 -2.19558 0
M  V30 8071 C 786.086 -3.48955 -0.0562117 0
M  V30 8072 C 787.434 -4.23932 -0.238106 0
M  V30 8073 O 788.458 -3.55955 -0.132145 0
M  V30 8074 O 787.317 -5.44614 -0.453658 0
M  V30 8075 H 784.411 -0.820433 -0.104014 0
M  V30 8076 H 786.957 -1.60659 0.546517 0
M  V30 8077 H 785.729 -3.79814 0.941122 0
M  V30 8078 H 785.352 -3.90056 -0.770834 0
M  V30 8079 N 786.349 -0.21828 -1.56081 0
M  V30 8080 C 787.597 0.413488 -1.97825 0
M  V30 8081 C 787.918 1.60527 -1.10707 0
M  V30 8082 O 787.188 1.9504 -0.183378 0
M  V30 8083 H 785.768 0.155757 -0.730581 0
M  V30 8084 H 788.43 -0.310413 -1.92412 0
M  V30 8085 H 787.526 0.742024 -3.03151 0
M  V30 8086 N 787.827 1.57504 0.0551401 0
M  V30 8087 C 789.238 1.76626 0.604979 0
M  V30 8088 C 789.589 0.845978 1.77024 0
M  V30 8089 O 788.714 0.0341936 2.16373 0
M  V30 8090 C 789.309 3.203 1.10425 0
M  V30 8091 C 787.868 3.4071 1.59981 0
M  V30 8092 C 787.015 2.72258 0.526414 0
M  V30 8093 H 789.966 1.57775 -0.171072 0
M  V30 8094 H 789.987 3.25377 1.97256 0
M  V30 8095 H 789.499 3.87255 0.255939 0
M  V30 8096 H 787.6 2.78892 2.47083 0
M  V30 8097 H 787.713 4.49227 1.66528 0
M  V30 8098 H 786.077 2.35283 0.97539 0
M  V30 8099 H 786.86 3.41879 -0.311991 0
M  V30 8100 N 789.305 -0.326896 1.54172 0
M  V30 8101 C 790.268 -1.38515 1.8261 0
M  V30 8102 C 791.268 -1.44872 0.697771 0
M  V30 8103 O 792.458 -1.44957 0.966078 0
M  V30 8104 C 789.59 -2.77281 1.98313 0
M  V30 8105 H 790.783 -1.14556 2.77159 0
M  V30 8106 H 788.336 -0.562199 1.45839 0
M  V30 8107 H 789.071 -3.065 1.05964 0
M  V30 8108 H 788.856 -2.74061 2.80416 0
M  V30 8109 H 790.346 -3.53845 2.21773 0
M  V30 8110 N 790.784 -1.46188 -0.588786 0
M  V30 8111 C 792.03 -1.51407 -1.34921 0
M  V30 8112 C 792.363 -0.162771 -1.93517 0
M  V30 8113 O 791.638 0.825082 -1.76132 0
M  V30 8114 C 791.921 -2.60795 -2.48311 0
M  V30 8115 C 791.774 -4.05435 -1.94789 0
M  V30 8116 C 793.093 -2.66313 -3.50379 0
M  V30 8117 H 790.212 -0.551213 -0.489217 0
M  V30 8118 H 792.854 -1.78095 -0.661993 0
M  V30 8119 H 791.004 -2.3817 -3.06932 0
M  V30 8120 H 792.676 -4.39328 -1.40672 0
M  V30 8121 H 790.919 -4.15202 -1.25659 0
M  V30 8122 H 791.59 -4.77691 -2.76613 0
M  V30 8123 H 794.066 -2.86634 -3.01629 0
M  V30 8124 H 792.942 -3.44681 -4.27184 0
M  V30 8125 H 793.203 -1.72127 -4.07216 0
M  V30 8126 N 792.262 0.832906 -1.33792 0
M  V30 8127 C 793.508 1.59089 -1.25772 0
M  V30 8128 C 793.841 1.93414 0.174601 0
M  V30 8129 O 793.116 1.59195 1.11746 0
M  V30 8130 C 793.399 2.89699 -2.13885 0
M  V30 8131 C 793.252 2.62017 -3.65605 0
M  V30 8132 C 794.571 3.91182 -2.01654 0
M  V30 8133 H 791.69 0.577232 -0.458227 0
M  V30 8134 H 794.332 0.960227 -1.6395 0
M  V30 8135 H 792.482 3.4352 -1.81456 0
M  V30 8136 H 794.154 2.14582 -4.08353 0
M  V30 8137 H 792.397 1.95621 -3.87189 0
M  V30 8138 H 793.068 3.55112 -4.2261 0
M  V30 8139 H 795.544 3.46684 -2.30107 0
M  V30 8140 H 794.42 4.80391 -2.65548 0
M  V30 8141 H 794.681 4.30861 -0.990536 0
M  V30 8142 N 793.74 1.17359 1.05189 0
M  V30 8143 C 794.703 0.892604 2.11105 0
M  V30 8144 C 795.703 -0.117236 1.60372 0
M  V30 8145 O 796.893 0.114936 1.7382 0
M  V30 8146 C 794.025 0.337032 3.3923 0
M  V30 8147 H 795.218 1.83169 2.37464 0
M  V30 8148 H 792.771 0.984051 1.21434 0
M  V30 8149 H 793.506 -0.609198 3.18527 0
M  V30 8150 H 793.291 1.06484 3.77364 0
M  V30 8151 H 794.781 0.158763 4.17298 0
M  V30 8152 N 795.218 -1.23913 0.973828 0
M  V30 8153 C 796.467 -1.91455 0.63464 0
M  V30 8154 C 796.78 -1.76893 -0.834759 0
M  V30 8155 O 797.986 -2.3918 -1.28473 0
M  V30 8156 C 796.442 -3.43172 1.08447 0
M  V30 8157 C 796.05 -3.66409 2.57776 0
M  V30 8158 C 797.794 -4.1653 0.818721 0
M  V30 8159 C 795.701 -5.11728 2.9646 0
M  V30 8160 H 794.631 -0.716881 0.233661 0
M  V30 8161 H 797.282 -1.40457 1.18085 0
M  V30 8162 H 795.664 -3.93242 0.466524 0
M  V30 8163 H 796.838 -3.26913 3.24753 0
M  V30 8164 H 795.153 -3.06349 2.82027 0
M  V30 8165 H 797.75 -5.23603 1.08367 0
M  V30 8166 H 798.093 -4.15578 -0.245128 0
M  V30 8167 H 798.626 -3.72428 1.39793 0
M  V30 8168 H 795.365 -5.17806 4.01941 0
M  V30 8169 H 794.885 -5.52199 2.34172 0
M  V30 8170 H 796.564 -5.80009 2.86703 0
M  V30 8171 N 796.696 -0.74468 -1.38897 0
M  V30 8172 C 798.107 -0.36568 -1.83084 0
M  V30 8173 C 798.458 1.10436 -1.62168 0
M  V30 8174 O 797.583 1.85281 -1.11804 0
M  V30 8175 C 798.178 -0.656946 -3.3237 0
M  V30 8176 C 796.737 -0.331329 -3.74939 0
M  V30 8177 C 795.884 -0.914661 -2.61781 0
M  V30 8178 H 798.835 -0.941551 -1.27752 0
M  V30 8179 H 798.856 0.0679546 -3.80439 0
M  V30 8180 H 798.368 -1.72693 -3.47561 0
M  V30 8181 H 796.469 0.732426 -3.6533 0
M  V30 8182 H 796.582 -0.820655 -4.72019 0
M  V30 8183 H 794.946 -0.34063 -2.52412 0
M  V30 8184 H 795.729 -1.98949 -2.79775 0
M  V30 8185 N 798.174 1.49689 -0.493057 0
M  V30 8186 C 799.42 2.02727 0.0543518 0
M  V30 8187 C 799.753 1.37264 1.37376 0
M  V30 8188 O 799.028 0.505644 1.87812 0
M  V30 8189 C 799.311 3.59456 0.215226 0
M  V30 8190 C 799.164 4.35459 -1.12675 0
M  V30 8191 C 800.483 4.29511 0.959586 0
M  V30 8192 H 797.602 0.736773 0.0182786 0
M  V30 8193 H 800.244 1.78792 -0.642924 0
M  V30 8194 H 798.394 3.79981 0.809122 0
M  V30 8195 H 800.066 4.2645 -1.75891 0
M  V30 8196 H 798.309 3.9833 -1.71801 0
M  V30 8197 H 798.98 5.43454 -0.967578 0
M  V30 8198 H 801.456 4.13594 0.455977 0
M  V30 8199 H 800.332 5.38939 1.04098 0
M  V30 8200 H 800.593 3.94202 2.00144 0
M  V30 8201 N 799.652 0.226554 1.55963 0
M  V30 8202 C 800.929 -0.453058 1.90281 0
M  V30 8203 C 801.309 -1.77377 1.14458 0
M  V30 8204 O 800.657 -2.27067 0.255496 0
M  V30 8205 C 800.867 -0.641108 3.43061 0
M  V30 8206 C 802.215 -0.946265 4.13921 0
M  V30 8207 O 803.239 -0.727713 3.48687 0
M  V30 8208 O 802.098 -1.36131 5.29274 0
M  V30 8209 H 799.192 -0.240242 0.791336 0
M  V30 8210 H 801.738 0.26911 1.67553 0
M  V30 8211 H 800.51 0.290283 3.90222 0
M  V30 8212 H 800.133 -1.41458 3.71585 0
M  V30 8213 N 801.13 -1.57531 -0.0467866 0
M  V30 8214 C 802.36 -1.92417 -0.752279 0
M  V30 8215 C 802.768 -0.823134 -1.70356 0
M  V30 8216 O 802.111 0.210598 -1.82489 0
M  V30 8217 C 802.173 -3.22974 -1.57887 0
M  V30 8218 C 801.837 -4.50045 -0.794285 0
M  V30 8219 C 802.834 -5.19799 -0.102368 0
M  V30 8220 C 800.519 -4.96608 -0.754061 0
M  V30 8221 C 802.513 -6.34385 0.619267 0
M  V30 8222 C 800.2 -6.11093 -0.0286682 0
M  V30 8223 C 801.198 -6.79835 0.656772 0
M  V30 8224 O 800.886 -7.92133 1.37042 0
M  V30 8225 H 800.618 -0.640029 -0.217576 0
M  V30 8226 H 803.172 -2.05395 -0.0137438 0
M  V30 8227 H 801.402 -3.06273 -2.3608 0
M  V30 8228 H 803.091 -3.43319 -2.16533 0
M  V30 8229 H 803.857 -4.8484 -0.124589 0
M  V30 8230 H 799.736 -4.42958 -1.27706 0
M  V30 8231 H 803.28 -6.87975 1.15483 0
M  V30 8232 H 799.177 -6.455 -0.00446214 0
M  V30 8233 H 799.945 -8.08394 1.28227 0
M  V30 8234 N 802.608 0.318715 -1.54344 0
M  V30 8235 C 804.024 0.663345 -1.45162 0
M  V30 8236 C 804.224 1.9145 -0.62842 0
M  V30 8237 O 803.28 2.5217 -0.129126 0
M  V30 8238 C 804.593 0.832836 -2.88937 0
M  V30 8239 C 806.141 0.929866 -2.98869 0
M  V30 8240 C 806.616 1.13149 -4.43803 0
M  V30 8241 N 808.107 1.19811 -4.47437 0
M  V30 8242 C 808.842 1.37209 -5.56742 0
M  V30 8243 N 808.338 1.51619 -6.76006 0
M  V30 8244 N 810.131 1.39956 -5.44398 0
M  V30 8245 H 802.282 -0.50357 -2.06344 0
M  V30 8246 H 804.545 -0.163528 -0.933789 0
M  V30 8247 H 804.251 -0.0153519 -3.51697 0
M  V30 8248 H 804.125 1.72721 -3.35332 0
M  V30 8249 H 806.512 1.76855 -2.36233 0
M  V30 8250 H 806.593 0.0118561 -2.55797 0
M  V30 8251 H 806.237 0.297636 -5.07027 0
M  V30 8252 H 806.167 2.06345 -4.84489 0
M  V30 8253 H 808.658 1.101 -3.61506 0
M  V30 8254 H 808.971 1.64599 -7.55067 0
M  V30 8255 H 807.316 1.48708 -6.78904 0
M  V30 8256 H 810.507 1.28298 -4.50175 0
M  V30 8257 H 810.68 1.53172 -6.29637 0
M  V30 8258 N 804.086 1.46499 0.581025 0
M  V30 8259 C 805.363 1.42372 1.34125 0
M  V30 8260 C 805.743 0.108073 2.10823 0
M  V30 8261 O 805.091 -0.910366 2.09582 0
M  V30 8262 C 805.301 2.65445 2.26583 0
M  V30 8263 C 806.649 3.11664 2.88359 0
M  V30 8264 O 807.673 2.66006 2.36896 0
M  V30 8265 O 806.532 3.90974 3.81839 0
M  V30 8266 H 803.626 0.566262 0.602724 0
M  V30 8267 H 806.172 1.58667 0.601903 0
M  V30 8268 H 804.944 3.52756 1.69348 0
M  V30 8269 H 804.567 2.51618 3.07854 0
M  V30 8270 N 805.565 -0.825799 1.34232 0
M  V30 8271 C 806.513 -1.95792 1.25572 0
M  V30 8272 C 807.507 -1.68695 0.154404 0
M  V30 8273 O 808.713 -1.77147 0.319196 0
M  V30 8274 H 805.088 -0.642949 0.390027 0
M  V30 8275 H 807.059 -2.00219 2.21258 0
M  V30 8276 C 805.808 -3.32245 1.02511 0
M  V30 8277 H 805.131 -3.53642 1.86487 0
M  V30 8278 H 806.571 -4.1192 1.00487 0
M  V30 8279 C 805.03 -3.35803 -0.27167 0
M  V30 8280 O 805.56 -3.80962 -1.274 0
M  V30 8281 N 803.766 -2.89008 -0.303778 0
M  V30 8282 H 803.313 -2.52451 0.512464 0
M  V30 8283 H 803.271 -2.9177 -1.17121 0
M  V30 8284 N 807.043 -1.17915 -1.04565 0
M  V30 8285 C 808.454 -0.976383 -1.59134 0
M  V30 8286 C 808.805 0.475267 -1.90357 0
M  V30 8287 O 807.93 1.35172 -1.6899 0
M  V30 8288 C 808.525 -1.76604 -2.89131 0
M  V30 8289 C 807.084 -1.60777 -3.40335 0
M  V30 8290 C 806.231 -1.76369 -2.13985 0
M  V30 8291 H 809.182 -1.32532 -0.872985 0
M  V30 8292 H 809.203 -1.25215 -3.59307 0
M  V30 8293 H 808.715 -2.82252 -2.66375 0
M  V30 8294 H 806.816 -0.576436 -3.68114 0
M  V30 8295 H 806.929 -2.40268 -4.14497 0
M  V30 8296 H 805.293 -1.19268 -2.25049 0
M  V30 8297 H 806.076 -2.83441 -1.9369 0
M  V30 8298 N 808.521 1.23394 -0.980386 0
M  V30 8299 C 809.451 2.2717 -0.540024 0
M  V30 8300 C 810.432 1.64659 0.426787 0
M  V30 8301 O 811.617 1.91543 0.320153 0
M  V30 8302 C 808.747 3.46939 0.15836 0
M  V30 8303 C 807.701 4.21802 -0.725732 0
M  V30 8304 C 807.027 5.34597 0.104866 0
M  V30 8305 C 808.327 4.81802 -2.01654 0
M  V30 8306 H 810.021 2.64257 -1.40743 0
M  V30 8307 H 807.567 1.2703 -0.678193 0
M  V30 8308 H 809.52 4.18683 0.477737 0
M  V30 8309 H 808.244 3.08912 1.06022 0
M  V30 8310 H 806.903 3.51875 -1.02857 0
M  V30 8311 H 806.551 4.92812 1.00726 0
M  V30 8312 H 806.251 5.85607 -0.483557 0
M  V30 8313 H 807.775 6.09163 0.418624 0
M  V30 8314 H 809.189 5.45554 -1.76193 0
M  V30 8315 H 807.586 5.43098 -2.55273 0
M  V30 8316 H 808.656 4.02549 -2.70338 0
M  V30 8317 N 809.999 0.752036 1.385 0
M  V30 8318 C 810.929 0.138718 2.33088 0
M  V30 8319 C 811.91 -0.705318 1.54788 0
M  V30 8320 O 813.095 -0.646821 1.83112 0
M  V30 8321 C 810.225 -0.75641 3.38963 0
M  V30 8322 C 809.179 -0.0152239 4.27997 0
M  V30 8323 C 808.505 -1.0285 5.24715 0
M  V30 8324 C 809.805 1.15226 5.09431 0
M  V30 8325 H 811.499 0.928852 2.84627 0
M  V30 8326 H 809.045 0.448111 1.3685 0
M  V30 8327 H 810.998 -1.19513 4.04097 0
M  V30 8328 H 809.722 -1.57885 2.85902 0
M  V30 8329 H 808.381 0.404061 3.64366 0
M  V30 8330 H 808.029 -1.84496 4.67943 0
M  V30 8331 H 807.729 -0.537238 5.85139 0
M  V30 8332 H 809.253 -1.46657 5.92726 0
M  V30 8333 H 810.667 0.791161 5.67815 0
M  V30 8334 H 809.064 1.57428 5.79082 0
M  V30 8335 H 810.134 1.9659 4.43261 0
M  V30 8336 N 811.477 -1.49425 0.500989 0
M  V30 8337 C 812.41 -2.25887 -0.324087 0
M  V30 8338 C 813.388 -1.30469 -0.970388 0
M  V30 8339 O 814.572 -1.59758 -1.00049 0
M  V30 8340 C 811.699 -3.05787 -1.45643 0
M  V30 8341 C 810.745 -4.16359 -0.924508 0
M  V30 8342 S 811.578 -5.35181 0.184707 0
M  V30 8343 C 812.734 -6.18636 -0.950806 0
M  V30 8344 H 812.967 -2.95519 0.324891 0
M  V30 8345 H 810.5 -1.51723 0.286289 0
M  V30 8346 H 812.458 -3.52405 -2.10525 0
M  V30 8347 H 811.119 -2.35624 -2.07703 0
M  V30 8348 H 810.312 -4.71781 -1.77311 0
M  V30 8349 H 809.914 -3.72331 -0.352907 0
M  V30 8350 H 812.206 -6.51581 -1.85603 0
M  V30 8351 H 813.149 -7.06761 -0.435212 0
M  V30 8352 H 813.557 -5.512 -1.21813 0
M  V30 8353 N 812.955 -0.234822 -1.55841 0
M  V30 8354 C 814.203 0.392483 -1.98252 0
M  V30 8355 C 814.524 1.59344 -1.12404 0
M  V30 8356 O 813.794 1.94834 -0.204055 0
M  V30 8357 H 812.374 0.147999 -0.732192 0
M  V30 8358 H 815.036 -0.330804 -1.92072 0
M  V30 8359 H 814.132 0.709829 -3.03921 0
M  V30 8360 N 814.433 1.57553 0.0384317 0
M  V30 8361 C 815.365 2.02726 1.06934 0
M  V30 8362 C 816.378 0.938502 1.33026 0
M  V30 8363 O 817.567 1.21595 1.30678 0
M  V30 8364 C 814.667 2.37958 2.41308 0
M  V30 8365 C 813.84 3.69098 2.34703 0
M  V30 8366 C 812.899 3.91623 3.51451 0
M  V30 8367 O 811.925 4.628 3.31368 0
M  V30 8368 N 813.127 3.36538 4.72993 0
M  V30 8369 H 815.892 2.91781 0.684381 0
M  V30 8370 H 813.453 1.60307 0.226542 0
M  V30 8371 H 815.445 2.50172 3.18113 0
M  V30 8372 H 814.015 1.54621 2.71682 0
M  V30 8373 H 813.235 3.67325 1.43059 0
M  V30 8374 H 814.523 4.55144 2.27424 0
M  V30 8375 H 813.921 2.78828 4.92211 0
M  V30 8376 H 812.478 3.54148 5.47195 0
M  V30 8377 N 815.911 -0.310526 1.54511 0
M  V30 8378 C 816.841 -1.38757 1.878 0
M  V30 8379 C 817.822 -1.53353 0.735991 0
M  V30 8380 O 819.007 -1.67018 0.990887 0
M  V30 8381 C 816.137 -2.75327 2.11689 0
M  V30 8382 C 815.091 -2.75506 3.27537 0
M  V30 8383 C 814.417 -4.15275 3.36824 0
M  V30 8384 C 815.717 -2.38093 4.64875 0
M  V30 8385 H 817.411 -1.11146 2.78005 0
M  V30 8386 H 814.957 -0.533232 1.33763 0
M  V30 8387 H 816.91 -3.50752 2.33562 0
M  V30 8388 H 815.634 -3.04443 1.18245 0
M  V30 8389 H 814.293 -2.02538 3.05572 0
M  V30 8390 H 813.941 -4.41553 2.40915 0
M  V30 8391 H 813.641 -4.16299 4.14692 0
M  V30 8392 H 815.165 -4.92493 3.60947 0
M  V30 8393 H 816.579 -3.03232 4.86542 0
M  V30 8394 H 814.976 -2.50345 5.45387 0
M  V30 8395 H 816.046 -1.33227 4.66239 0
M  V30 8396 N 817.389 -1.46805 -0.573248 0
M  V30 8397 C 818.339 -1.54497 -1.67674 0
M  V30 8398 C 819.323 -0.405117 -1.55716 0
M  V30 8399 O 820.515 -0.654097 -1.64471 0
M  V30 8400 C 817.644 -1.54717 -3.0646 0
M  V30 8401 C 816.73 -2.7403 -3.2368 0
M  V30 8402 N 817.121 -3.98871 -3.11023 0
M  V30 8403 C 815.419 -2.70453 -3.54642 0
M  V30 8404 C 816.12 -4.78689 -3.30502 0
M  V30 8405 N 815.096 -4.10727 -3.56096 0
M  V30 8406 H 818.898 -2.48809 -1.56433 0
M  V30 8407 H 816.412 -1.42576 -0.777554 0
M  V30 8408 H 818.409 -1.58316 -3.8567 0
M  V30 8409 H 817.069 -0.614886 -3.18825 0
M  V30 8410 H 818.08 -4.29976 -2.88688 0
M  V30 8411 H 814.757 -1.86291 -3.73633 0
M  V30 8412 H 816.147 -5.87615 -3.2582 0
M  V30 8413 N 818.867 0.818669 -1.34668 0
M  V30 8414 C 819.797 1.94468 -1.29245 0
M  V30 8415 C 820.778 1.69257 -0.169101 0
M  V30 8416 O 821.963 1.90794 -0.362143 0
M  V30 8417 C 819.093 3.31001 -1.05145 0
M  V30 8418 C 818.047 3.70663 -2.13992 0
M  V30 8419 C 817.373 5.05226 -1.75074 0
M  V30 8420 C 818.673 3.82312 -3.55858 0
M  V30 8421 H 820.367 1.99263 -2.2346 0
M  V30 8422 H 817.913 0.957304 -1.07572 0
M  V30 8423 H 819.866 4.09364 -0.999949 0
M  V30 8424 H 818.59 3.26517 -0.0737312 0
M  V30 8425 H 817.249 2.94578 -2.18219 0
M  V30 8426 H 816.897 4.97233 -0.759518 0
M  V30 8427 H 816.597 5.32734 -2.47928 0
M  V30 8428 H 818.121 5.86042 -1.71427 0
M  V30 8429 H 819.535 4.50935 -3.5402 0
M  V30 8430 H 817.932 4.21278 -4.2737 0
M  V30 8431 H 819.002 2.84193 -3.9289 0
M  V30 8432 N 820.346 1.18468 1.03938 0
M  V30 8433 C 821.571 1.00638 1.81347 0
M  V30 8434 C 821.996 -0.440477 1.8287 0
M  V30 8435 O 821.354 -1.31609 1.24695 0
M  V30 8436 C 821.402 1.5673 3.24759 0
M  V30 8437 O 820.506 0.789517 4.04772 0
M  V30 8438 H 819.847 0.356432 0.560225 0
M  V30 8439 H 822.377 1.57253 1.30891 0
M  V30 8440 H 822.387 1.59496 3.75533 0
M  V30 8441 H 821.062 2.62043 3.22965 0
M  V30 8442 H 819.639 0.834267 3.63448 0
M  V30 8443 N 821.824 -1.22873 0.986916 0
M  V30 8444 C 822.756 -2.23889 0.490537 0
M  V30 8445 C 823.769 -1.57523 -0.411144 0
M  V30 8446 O 824.958 -1.7721 -0.214236 0
M  V30 8447 C 822.058 -3.37488 -0.30902 0
M  V30 8448 C 821.231 -4.33438 0.587354 0
M  V30 8449 C 820.29 -5.25958 -0.159467 0
M  V30 8450 O 819.316 -5.67394 0.453115 0
M  V30 8451 N 820.518 -5.62265 -1.44355 0
M  V30 8452 H 823.283 -2.67109 1.35914 0
M  V30 8453 H 820.844 -1.37111 0.860937 0
M  V30 8454 H 822.836 -3.96365 -0.817139 0
M  V30 8455 H 821.406 -2.934 -1.07868 0
M  V30 8456 H 820.626 -3.72969 1.27622 0
M  V30 8457 H 821.914 -4.94495 1.19801 0
M  V30 8458 H 821.312 -5.30562 -1.96266 0
M  V30 8459 H 819.869 -6.23585 -1.89698 0
M  V30 8460 N 823.302 -0.75937 -1.38099 0
M  V30 8461 C 824.551 -0.314864 -1.99227 0
M  V30 8462 C 824.864 1.1113 -1.60964 0
M  V30 8463 O 826.07 1.65657 -2.15105 0
M  V30 8464 C 824.526 -0.512001 -3.56239 0
M  V30 8465 C 824.134 -1.94762 -4.0345 0
M  V30 8466 C 825.878 -0.130497 -4.24299 0
M  V30 8467 C 823.785 -2.09301 -5.53125 0
M  V30 8468 H 822.715 -0.113978 -0.745335 0
M  V30 8469 H 825.366 -0.936736 -1.57789 0
M  V30 8470 H 823.748 0.179144 -3.95595 0
M  V30 8471 H 824.922 -2.67271 -3.75371 0
M  V30 8472 H 823.237 -2.28457 -3.48133 0
M  V30 8473 H 825.834 -0.21781 -5.34256 0
M  V30 8474 H 826.177 0.917644 -4.0606 0
M  V30 8475 H 826.71 -0.773716 -3.90203 0
M  V30 8476 H 823.449 -3.1239 -5.76275 0
M  V30 8477 H 822.969 -1.41261 -5.82928 0
M  V30 8478 H 824.648 -1.88571 -6.1891 0
M  V30 8479 N 824.78 1.49157 -0.508906 0
M  V30 8480 C 825.71 2.32109 0.254469 0
M  V30 8481 C 826.691 1.40754 0.955111 0
M  V30 8482 O 827.876 1.69658 0.944983 0
M  V30 8483 C 825.006 3.21458 1.3146 0
M  V30 8484 C 823.96 4.2167 0.733368 0
M  V30 8485 C 823.286 5.00009 1.8946 0
M  V30 8486 C 824.586 5.21544 -0.280875 0
M  V30 8487 H 826.28 2.9618 -0.43795 0
M  V30 8488 H 823.826 1.4243 -0.212062 0
M  V30 8489 H 825.779 3.78305 1.85643 0
M  V30 8490 H 824.503 2.55346 2.03632 0
M  V30 8491 H 823.162 3.65979 0.213231 0
M  V30 8492 H 822.81 4.30338 2.60419 0
M  V30 8493 H 822.51 5.67821 1.51173 0
M  V30 8494 H 824.034 5.59702 2.44061 0
M  V30 8495 H 825.448 5.73039 0.173095 0
M  V30 8496 H 823.845 5.97291 -0.580006 0
M  V30 8497 H 824.915 4.69969 -1.19404 0
M  V30 8498 O 826.297 0.384829 1.56848 0
M  V30 8499 H 826.988 -0.161361 1.93027 0
M  V30 END ATOM
M  V30 BEGIN BOND
M  V30 END BOND
M  V30 END CTAB
M  END
$$$$
