drugbank_drug|DB06759 Whole oligonucleotide:
 OpenBabel12092119133D

  0  0  0     0  0            999 V3000
M  V30 BEGIN CTAB
M  V30 COUNTS 1339 1442 0 0 0
M  V30 BEGIN ATOM
M  V30 1 H -1.547 9.37743 -1.21644 0
M  V30 2 O -1.44 8.89599 -0.40059 0
M  V30 3 P 0 8.91 0 0
M  V30 4 O 0.22 10.1726 0.733694 0
M  V30 5 O 0.79 8.73148 -1.23936 0
M  V30 6 O 0.25 7.66872 0.971405 0
M  V30 7 C -0.69 7.42309 2.04641 0
M  V30 8 C 0.04 6.86059 3.24661 0
M  V30 9 O 0.25 5.42847 3.03646 0
M  V30 10 C 1.44 7.41196 3.50753 0
M  V30 11 O 1.83 7.27073 4.86816 0
M  V30 12 C 2.32 6.5273 2.63741 0
M  V30 13 C 1.61 5.1842 2.73198 0
M  V30 14 N 1.66 4.38762 1.4784 0
M  V30 15 C 1.58 4.81605 0.168631 0
M  V30 16 N 1.66 3.85454 -0.713363 0
M  V30 17 C 1.8 2.6994 0.0566958 0
M  V30 18 C 1.93 1.34815 -0.338502 0
M  V30 19 O 1.95 0.869548 -1.47125 0
M  V30 20 N 2.05 0.496304 0.77465 0
M  V30 21 C 2.05 0.908403 2.09122 0
M  V30 22 N 2.18 -0.0517805 3.00955 0
M  V30 23 N 1.92 2.17875 2.46519 0
M  V30 24 C 1.8 3.01988 1.4033 0
M  V30 25 H -1.179 8.36803 2.32493 0
M  V30 26 H -1.449 6.70197 1.71129 0
M  V30 27 H -0.582 7.03551 4.13168 0
M  V30 28 H 2.073 4.59498 3.54415 0
M  V30 29 H 2.352 6.88898 1.59848 0
M  V30 30 H 3.344 6.46749 3.03687 0
M  V30 31 H 1.51 8.46908 3.20714 0
M  V30 32 H 1.461 5.86405 -0.105564 0
M  V30 33 H 2.143 -0.483664 0.597855 0
M  V30 34 H 2.18 0.187865 4.0116 0
M  V30 35 H 2.281 -1.03585 2.71726 0
M  V30 36 P 3.37998 7.20834 5.23717 0
M  V30 37 O 3.59998 7.7993 6.57351 0
M  V30 38 O 4.16998 7.79328 4.13004 0
M  V30 39 O 3.62998 5.63315 5.29344 0
M  V30 40 C 2.68998 4.80255 6.01876 0
M  V30 41 C 3.41998 3.64202 6.65911 0
M  V30 42 O 3.62998 2.60694 5.64732 0
M  V30 43 C 4.81998 3.93473 7.1943 0
M  V30 44 O 5.20998 3.02071 8.21205 0
M  V30 45 C 5.69998 3.73047 5.97036 0
M  V30 46 C 4.98998 2.58828 5.25741 0
M  V30 47 N 5.03998 2.6801 3.77422 0
M  V30 48 C 5.18998 1.50173 3.05038 0
M  V30 49 O 5.27998 0.428832 3.665 0
M  V30 50 N 5.23998 1.70922 1.55541 0
M  V30 51 C 5.13998 2.7407 1.06402 0
M  V30 52 N 5.18998 2.74764 -0.260931 0
M  V30 53 C 4.98998 3.96781 1.78296 0
M  V30 54 C 4.93998 3.87909 3.13891 0
M  V30 55 H 2.19998 5.4027 6.79873 0
M  V30 56 H 1.93098 4.41549 5.32301 0
M  V30 57 H 2.79798 3.26371 7.47889 0
M  V30 58 H 5.45298 1.63978 5.5665 0
M  V30 59 H 5.73198 4.63439 5.3432 0
M  V30 60 H 6.72398 3.44728 6.25838 0
M  V30 61 H 4.88998 4.96652 7.57263 0
M  V30 62 H 4.81798 4.78425 3.73088 0
M  V30 63 H 4.91998 4.92593 1.26997 0
M  V30 64 H 5.30798 1.86285 -0.77595 0
M  V30 65 H 5.11098 3.63657 -0.773896 0
M  V30 66 P 6.75996 2.75334 8.47391 0
M  V30 67 O 6.97996 2.44571 9.90142 0
M  V30 68 O 7.54996 3.87688 7.92115 0
M  V30 69 O 7.00996 1.4459 7.59357 0
M  V30 70 C 6.06996 0.347608 7.69215 0
M  V30 71 C 6.79996 -0.96767 7.52806 0
M  V30 72 O 7.00996 -1.21036 6.1011 0
M  V30 73 C 8.19996 -1.04544 8.13308 0
M  V30 74 O 8.58996 -2.38311 8.41922 0
M  V30 75 C 9.07996 -0.491279 7.02284 0
M  V30 76 C 8.36996 -0.996264 5.77469 0
M  V30 77 N 8.41996 -0.0501916 4.62973 0
M  V30 78 C 8.33996 1.32786 4.63244 0
M  V30 79 N 8.41996 1.86957 3.44545 0
M  V30 80 C 8.55996 0.780241 2.58481 0
M  V30 81 C 8.68996 0.738536 1.17757 0
M  V30 82 O 8.70996 1.66794 0.372349 0
M  V30 83 N 8.80996 -0.58337 0.711393 0
M  V30 84 C 8.80996 -1.70816 1.51017 0
M  V30 85 N 8.93996 -2.87826 0.880757 0
M  V30 86 N 8.67996 -1.67126 2.8339 0
M  V30 87 C 8.55996 -0.401421 3.30572 0
M  V30 88 H 5.58096 0.374722 8.67691 0
M  V30 89 H 5.31096 0.443485 6.90277 0
M  V30 90 H 6.17796 -1.75537 7.96793 0
M  V30 91 H 8.83296 -1.95076 5.46529 0
M  V30 92 H 9.11196 0.608565 7.04577 0
M  V30 93 H 10.104 -0.889672 7.08939 0
M  V30 94 H 8.26996 -0.43308 9.04564 0
M  V30 95 H 8.22096 1.91249 5.54442 0
M  V30 96 H 8.90296 -0.718054 -0.275244 0
M  V30 97 H 8.93996 -3.75721 1.41832 0
M  V30 98 H 9.04096 -2.90436 -0.145468 0
M  V30 99 P 10.1399 -2.75334 8.47391 0
M  V30 100 O 10.3599 -3.84166 9.4489 0
M  V30 101 O 10.9299 -1.51964 8.6881 0
M  V30 102 O 10.3899 -3.29363 6.99321 0
M  V30 103 C 9.44994 -4.23956 6.42656 0
M  V30 104 C 10.1799 -5.20775 5.52155 0
M  V30 105 O 10.3899 -4.56534 4.22446 0
M  V30 106 C 11.5799 -5.62629 5.96531 0
M  V30 107 O 11.9699 -6.87667 5.41053 0
M  V30 108 C 12.4599 -4.52537 5.39283 0
M  V30 109 C 11.7499 -4.20027 4.08623 0
M  V30 110 N 11.7999 -2.7613 3.71522 0
M  V30 111 C 11.9499 -2.45612 2.37989 0
M  V30 112 O 12.0399 -3.30919 1.51621 0
M  V30 113 N 11.9899 -1.10684 2.08435 0
M  V30 114 C 11.8999 -0.0690084 2.9792 0
M  V30 115 O 11.9499 1.10553 2.59426 0
M  V30 116 C 11.7499 -0.481522 4.35345 0
M  V30 117 C 11.6399 0.618778 5.36443 0
M  V30 118 C 11.6999 -1.78906 4.67968 0
M  V30 119 H 8.95994 -4.797 7.24003 0
M  V30 120 H 8.69094 -3.69802 5.84429 0
M  V30 121 H 9.55794 -6.10356 5.41441 0
M  V30 122 H 12.2129 -4.78651 3.27911 0
M  V30 123 H 12.4919 -3.64957 6.05871 0
M  V30 124 H 13.4839 -4.8868 5.2125 0
M  V30 125 H 11.6499 -5.66726 7.06352 0
M  V30 126 H 11.5789 -2.07737 5.72367 0
M  V30 127 H 12.6089 0.754375 5.86871 0
M  V30 128 H 10.8719 0.359721 6.10641 0
M  V30 129 H 11.3599 1.55533 4.8581 0
M  V30 130 H 12.0959 -0.862651 1.12037 0
M  V30 131 P 13.5199 -7.20834 5.23717 0
M  V30 132 O 13.7399 -8.66189 5.38625 0
M  V30 133 O 14.3099 -6.33615 6.1356 0
M  V30 134 O 13.7699 -6.7751 3.72168 0
M  V30 135 C 12.8299 -7.20732 2.70725 0
M  V30 136 C 13.5599 -7.45864 1.40599 0
M  V30 137 O 13.7699 -6.17651 0.734225 0
M  V30 138 C 14.9599 -8.05808 1.51899 0
M  V30 139 O 15.3499 -8.74358 0.335205 0
M  V30 140 C 15.8399 -6.83093 1.70294 0
M  V30 141 C 15.1299 -5.79992 0.836974 0
M  V30 142 N 15.1799 -4.41769 1.38263 0
M  V30 143 C 15.3299 -3.38591 0.481702 0
M  V30 144 O 15.4199 -3.56839 -0.718452 0
M  V30 145 N 15.3699 -2.1206 1.03569 0
M  V30 146 C 15.2799 -1.80696 2.36966 0
M  V30 147 O 15.3299 -0.630473 2.74862 0
M  V30 148 C 15.1299 -2.94845 3.23898 0
M  V30 149 C 15.0199 -2.65253 4.70362 0
M  V30 150 C 15.0799 -4.19803 2.73435 0
M  V30 151 H 12.3399 -8.13644 3.0377 0
M  V30 152 H 12.0709 -6.42695 2.55448 0
M  V30 153 H 12.9379 -8.12039 0.792769 0
M  V30 154 H 15.5929 -5.79978 -0.160587 0
M  V30 155 H 15.8719 -6.51379 2.75643 0
M  V30 156 H 16.8639 -7.01734 1.34462 0
M  V30 157 H 15.0299 -8.73674 2.38337 0
M  V30 158 H 14.9589 -5.04492 3.4095 0
M  V30 159 H 15.9889 -2.83924 5.1913 0
M  V30 160 H 14.2519 -3.29824 5.15163 0
M  V30 161 H 14.7399 -1.59723 4.84449 0
M  V30 162 H 15.4759 -1.35644 0.399345 0
M  V30 163 P 16.8999 -8.91 1.09116e-15 0
M  V30 164 O 17.1199 -10.1736 -0.733766 0
M  V30 165 O 17.6899 -8.73247 1.2395 0
M  V30 166 O 17.1499 -7.66872 -0.971405 0
M  V30 167 C 16.2099 -7.42212 -2.04614 0
M  V30 168 C 16.9399 -6.86059 -3.24661 0
M  V30 169 O 17.1499 -5.42847 -3.03646 0
M  V30 170 C 18.3399 -7.41196 -3.50753 0
M  V30 171 O 18.7299 -7.27073 -4.86816 0
M  V30 172 C 19.2199 -6.5273 -2.63741 0
M  V30 173 C 18.5099 -5.1842 -2.73198 0
M  V30 174 N 18.5599 -4.38668 -1.47808 0
M  V30 175 C 18.7099 -3.02239 -1.60048 0
M  V30 176 O 18.7999 -2.46459 -2.67869 0
M  V30 177 N 18.7499 -2.32436 -0.408571 0
M  V30 178 C 18.6599 -2.85471 0.854993 0
M  V30 179 O 18.7099 -2.12566 1.8531 0
M  V30 180 C 18.5099 -4.28918 0.887335 0
M  V30 181 C 18.3999 -4.91066 2.24619 0
M  V30 182 C 18.4599 -5.00349 -0.255399 0
M  V30 183 H 15.7199 -8.36803 -2.32493 0
M  V30 184 H 15.4509 -6.701 -1.71105 0
M  V30 185 H 16.3179 -7.03551 -4.13168 0
M  V30 186 H 18.9729 -4.59773 -3.53894 0
M  V30 187 H 19.2519 -6.88995 -1.59871 0
M  V30 188 H 20.2439 -6.46749 -3.03687 0
M  V30 189 H 18.4099 -8.46908 -3.20714 0
M  V30 190 H 18.3389 -6.08548 -0.206986 0
M  V30 191 H 19.3689 -5.34836 2.53099 0
M  V30 192 H 17.6319 -5.69638 2.2291 0
M  V30 193 H 18.1199 -4.13971 2.98044 0
M  V30 194 H 18.8559 -1.33211 -0.474216 0
M  V30 195 P 20.2799 -7.20834 -5.23717 0
M  V30 196 O 20.4999 -7.79853 -6.57286 0
M  V30 197 O 21.0699 -7.79239 -4.12957 0
M  V30 198 O 20.5299 -5.63315 -5.29344 0
M  V30 199 C 19.5899 -4.80255 -6.01876 0
M  V30 200 C 20.3199 -3.64202 -6.65911 0
M  V30 201 O 20.5299 -2.60694 -5.64732 0
M  V30 202 C 21.7199 -3.93473 -7.1943 0
M  V30 203 O 22.1099 -3.02071 -8.21205 0
M  V30 204 C 22.5999 -3.73047 -5.97036 0
M  V30 205 C 21.8899 -2.58828 -5.25741 0
M  V30 206 N 21.9399 -2.68068 -3.77503 0
M  V30 207 C 21.8599 -3.79715 -2.96723 0
M  V30 208 N 21.9399 -3.5377 -1.68852 0
M  V30 209 C 22.0799 -2.15054 -1.63254 0
M  V30 210 C 22.2099 -1.28964 -0.518571 0
M  V30 211 O 22.2299 -1.56826 0.679156 0
M  V30 212 N 22.3299 0.0538097 -0.918425 0
M  V30 213 C 22.3299 0.494275 -2.22578 0
M  V30 214 N 22.4599 1.81086 -2.40434 0
M  V30 215 N 22.1999 -0.313645 -3.27502 0
M  V30 216 C 22.0799 -1.61829 -2.91033 0
M  V30 217 H 19.1009 -5.40332 -6.79951 0
M  V30 218 H 18.8309 -4.41613 -5.32378 0
M  V30 219 H 19.6979 -3.26331 -7.47797 0
M  V30 220 H 22.3529 -1.63422 -5.56814 0
M  V30 221 H 22.6319 -4.63374 -5.34244 0
M  V30 222 H 23.6239 -3.44728 -6.25838 0
M  V30 223 H 21.7899 -4.96652 -7.57263 0
M  V30 224 H 21.7409 -4.80617 -3.3614 0
M  V30 225 H 22.4229 0.742702 -0.199384 0
M  V30 226 H 22.4599 2.20598 -3.35588 0
M  V30 227 H 22.5609 2.43518 -1.58945 0
M  V30 228 P 23.6599 -2.75334 -8.47391 0
M  V30 229 O 23.8799 -2.44595 -9.90239 0
M  V30 230 O 24.4499 -3.87732 -7.92204 0
M  V30 231 O 23.9099 -1.4459 -7.59357 0
M  V30 232 C 22.9699 -0.347608 -7.69215 0
M  V30 233 C 23.6999 0.96767 -7.52806 0
M  V30 234 O 23.9099 1.21036 -6.1011 0
M  V30 235 C 25.0999 1.04544 -8.13308 0
M  V30 236 O 25.4899 2.38311 -8.41922 0
M  V30 237 C 25.9799 0.491279 -7.02284 0
M  V30 238 C 25.2699 0.996264 -5.77469 0
M  V30 239 N 25.3199 0.0501808 -4.62873 0
M  V30 240 C 25.4699 0.578037 -3.3505 0
M  V30 241 O 25.5599 1.8073 -3.21711 0
M  V30 242 N 25.5199 -0.468541 -2.263 0
M  V30 243 C 25.4199 -1.59186 -2.47176 0
M  V30 244 N 25.4699 -2.37626 -1.40392 0
M  V30 245 C 25.2699 -2.16203 -3.77467 0
M  V30 246 C 25.2199 -1.29324 -4.8195 0
M  V30 247 H 22.4799 -0.374679 -8.67591 0
M  V30 248 H 22.2109 -0.443421 -6.90177 0
M  V30 249 H 23.0779 1.75559 -7.96891 0
M  V30 250 H 25.7329 1.94529 -5.46723 0
M  V30 251 H 26.0119 -0.608651 -7.04676 0
M  V30 252 H 27.0039 0.889672 -7.08939 0
M  V30 253 H 25.1699 0.43308 -9.04564 0
M  V30 254 H 25.0979 -1.67758 -5.83046 0
M  V30 255 H 25.1999 -3.23869 -3.92281 0
M  V30 256 H 25.5879 -1.96317 -0.467202 0
M  V30 257 H 25.3909 -3.39693 -1.51142 0
M  V30 258 P 27.0398 2.75334 -8.47391 0
M  V30 259 O 27.2598 3.84166 -9.4489 0
M  V30 260 O 27.8298 1.51964 -8.6881 0
M  V30 261 O 27.2898 3.29363 -6.99321 0
M  V30 262 C 26.3498 4.23956 -6.42656 0
M  V30 263 C 27.0798 5.20775 -5.52155 0
M  V30 264 O 27.2898 4.56534 -4.22446 0
M  V30 265 C 28.4798 5.62629 -5.96531 0
M  V30 266 O 28.8698 6.87667 -5.41053 0
M  V30 267 C 29.3598 4.52537 -5.39283 0
M  V30 268 C 28.6498 4.20027 -4.08623 0
M  V30 269 N 28.6998 2.7613 -3.71522 0
M  V30 270 C 28.8498 2.45612 -2.37989 0
M  V30 271 O 28.9398 3.30919 -1.51621 0
M  V30 272 N 28.8898 1.10684 -2.08435 0
M  V30 273 C 28.7998 0.0690084 -2.9792 0
M  V30 274 O 28.8498 -1.10553 -2.59426 0
M  V30 275 C 28.6498 0.481522 -4.35345 0
M  V30 276 C 28.5398 -0.618778 -5.36443 0
M  V30 277 C 28.5998 1.78906 -4.67968 0
M  V30 278 H 25.8598 4.797 -7.24003 0
M  V30 279 H 25.5908 3.69802 -5.84429 0
M  V30 280 H 26.4578 6.10356 -5.41441 0
M  V30 281 H 29.1128 4.78651 -3.27911 0
M  V30 282 H 29.3918 3.64957 -6.05871 0
M  V30 283 H 30.3838 4.8868 -5.2125 0
M  V30 284 H 28.5498 5.66726 -7.06352 0
M  V30 285 H 28.4788 2.07737 -5.72367 0
M  V30 286 H 29.5088 -0.754375 -5.86871 0
M  V30 287 H 27.7718 -0.359721 -6.10641 0
M  V30 288 H 28.2598 -1.55533 -4.8581 0
M  V30 289 H 28.9958 0.862651 -1.12037 0
M  V30 290 P 30.4198 7.20834 -5.23717 0
M  V30 291 O 30.6398 8.66189 -5.38625 0
M  V30 292 O 31.2098 6.33615 -6.1356 0
M  V30 293 O 30.6698 6.7751 -3.72168 0
M  V30 294 C 29.7298 7.20825 -2.7076 0
M  V30 295 C 30.4598 7.45864 -1.40599 0
M  V30 296 O 30.6698 6.17651 -0.734225 0
M  V30 297 C 31.8598 8.05808 -1.51899 0
M  V30 298 O 32.2498 8.74358 -0.335205 0
M  V30 299 C 32.7398 6.83093 -1.70294 0
M  V30 300 C 32.0298 5.79992 -0.836974 0
M  V30 301 N 32.0798 4.41769 -1.38263 0
M  V30 302 C 32.2298 3.36514 -0.485617 0
M  V30 303 O 32.3198 3.61814 0.724703 0
M  V30 304 N 32.2798 2.00746 -1.14492 0
M  V30 305 C 32.1798 1.85887 -2.27776 0
M  V30 306 N 32.2298 0.600907 -2.69379 0
M  V30 307 C 32.0298 2.92182 -3.22265 0
M  V30 308 C 31.9798 4.18399 -2.71925 0
M  V30 309 H 29.2398 8.1355 -3.03735 0
M  V30 310 H 28.9708 6.42695 -2.55448 0
M  V30 311 H 29.8378 8.12139 -0.792866 0
M  V30 312 H 32.4928 5.80078 0.160615 0
M  V30 313 H 32.7718 6.51379 -2.75643 0
M  V30 314 H 33.7638 7.01734 -1.34462 0
M  V30 315 H 31.9298 8.73674 -2.38337 0
M  V30 316 H 31.8578 5.02669 -3.39718 0
M  V30 317 H 31.9598 2.73001 -4.29239 0
M  V30 318 H 32.3478 -0.162318 -2.01146 0
M  V30 319 H 32.1508 0.387742 -3.69773 0
M  V30 320 P 33.7998 8.91 -2.18232e-15 0
M  V30 321 O 34.0198 10.1736 0.733766 0
M  V30 322 O 34.5898 8.73247 -1.2395 0
M  V30 323 O 34.0498 7.66872 0.971405 0
M  V30 324 C 33.1098 7.42212 2.04614 0
M  V30 325 C 33.8398 6.86059 3.24661 0
M  V30 326 O 34.0498 5.42847 3.03646 0
M  V30 327 C 35.2398 7.41196 3.50753 0
M  V30 328 O 35.6298 7.27073 4.86816 0
M  V30 329 C 36.1198 6.5273 2.63741 0
M  V30 330 C 35.4098 5.1842 2.73198 0
M  V30 331 N 35.4598 4.38668 1.47808 0
M  V30 332 C 35.6098 3.02239 1.60048 0
M  V30 333 O 35.6998 2.46459 2.67869 0
M  V30 334 N 35.6498 2.32436 0.408571 0
M  V30 335 C 35.5598 2.85471 -0.854993 0
M  V30 336 O 35.6098 2.12566 -1.8531 0
M  V30 337 C 35.4098 4.28918 -0.887335 0
M  V30 338 C 35.2998 4.91066 -2.24619 0
M  V30 339 C 35.3598 5.00349 0.255399 0
M  V30 340 H 32.6198 8.36803 2.32493 0
M  V30 341 H 32.3508 6.701 1.71105 0
M  V30 342 H 33.2178 7.03551 4.13168 0
M  V30 343 H 35.8728 4.59773 3.53894 0
M  V30 344 H 36.1518 6.88995 1.59871 0
M  V30 345 H 37.1438 6.46749 3.03687 0
M  V30 346 H 35.3098 8.46908 3.20714 0
M  V30 347 H 35.2388 6.08548 0.206986 0
M  V30 348 H 36.2688 5.34836 -2.53099 0
M  V30 349 H 34.5318 5.69638 -2.2291 0
M  V30 350 H 35.0198 4.13971 -2.98044 0
M  V30 351 H 35.7558 1.33211 0.474216 0
M  V30 352 P 37.1798 7.20834 5.23717 0
M  V30 353 O 37.3998 7.7993 6.57351 0
M  V30 354 O 37.9698 7.79328 4.13004 0
M  V30 355 O 37.4298 5.63315 5.29344 0
M  V30 356 C 36.4898 4.80193 6.01798 0
M  V30 357 C 37.2198 3.64202 6.65911 0
M  V30 358 O 37.4298 2.60694 5.64732 0
M  V30 359 C 38.6198 3.93473 7.1943 0
M  V30 360 O 39.0098 3.02071 8.21205 0
M  V30 361 C 39.4998 3.73047 5.97036 0
M  V30 362 C 38.7898 2.58828 5.25741 0
M  V30 363 N 38.8398 2.6801 3.77422 0
M  V30 364 C 38.9898 1.50443 3.07133 0
M  V30 365 O 39.0798 0.419406 3.61576 0
M  V30 366 N 39.0298 1.6403 1.69677 0
M  V30 367 C 38.9398 2.81206 0.986255 0
M  V30 368 O 38.9898 2.80892 -0.249754 0
M  V30 369 C 38.7898 3.99158 1.80325 0
M  V30 370 C 38.6798 5.29309 1.06921 0
M  V30 371 C 38.7398 3.89779 3.1476 0
M  V30 372 H 35.9998 5.40332 6.79951 0
M  V30 373 H 35.7308 4.41549 5.32301 0
M  V30 374 H 36.5978 3.26331 7.47797 0
M  V30 375 H 39.2528 1.6395 5.56554 0
M  V30 376 H 39.5318 4.63439 5.3432 0
M  V30 377 H 40.5238 3.44728 6.25838 0
M  V30 378 H 38.6898 4.96652 7.57263 0
M  V30 379 H 38.6188 4.80159 3.74441 0
M  V30 380 H 39.6488 5.81459 1.09608 0
M  V30 381 H 37.9118 5.9187 1.54487 0
M  V30 382 H 38.3998 5.10095 0.0220288 0
M  V30 383 H 39.1358 0.798962 1.16664 0
M  V30 384 P 40.5598 2.75334 8.47391 0
M  V30 385 O 40.7798 2.44595 9.90239 0
M  V30 386 O 41.3498 3.87732 7.92204 0
M  V30 387 O 40.8098 1.4459 7.59357 0
M  V30 388 C 39.8698 0.347608 7.69215 0
M  V30 389 C 40.5998 -0.96767 7.52806 0
M  V30 390 O 40.8098 -1.21036 6.1011 0
M  V30 391 C 41.9998 -1.04544 8.13308 0
M  V30 392 O 42.3898 -2.38311 8.41922 0
M  V30 393 C 42.8798 -0.491279 7.02284 0
M  V30 394 C 42.1698 -0.996264 5.77469 0
M  V30 395 N 42.2198 -0.0501808 4.62873 0
M  V30 396 C 42.3698 -0.578037 3.3505 0
M  V30 397 O 42.4598 -1.8073 3.21711 0
M  V30 398 N 42.4198 0.468541 2.263 0
M  V30 399 C 42.3198 1.59186 2.47176 0
M  V30 400 N 42.3698 2.37626 1.40392 0
M  V30 401 C 42.1698 2.16203 3.77467 0
M  V30 402 C 42.1198 1.29324 4.8195 0
M  V30 403 H 39.3798 0.374679 8.67591 0
M  V30 404 H 39.1108 0.443421 6.90177 0
M  V30 405 H 39.9778 -1.75559 7.96891 0
M  V30 406 H 42.6328 -1.94529 5.46723 0
M  V30 407 H 42.9118 0.608651 7.04676 0
M  V30 408 H 43.9038 -0.889672 7.08939 0
M  V30 409 H 42.0698 -0.43308 9.04564 0
M  V30 410 H 41.9978 1.67758 5.83046 0
M  V30 411 H 42.0998 3.23869 3.92281 0
M  V30 412 H 42.4878 1.96317 0.467202 0
M  V30 413 H 42.2908 3.39693 1.51142 0
M  V30 414 P 43.9397 -2.75334 8.47391 0
M  V30 415 O 44.1597 -3.84166 9.4489 0
M  V30 416 O 44.7297 -1.51964 8.6881 0
M  V30 417 O 44.1897 -3.29363 6.99321 0
M  V30 418 C 43.2497 -4.23956 6.42656 0
M  V30 419 C 43.9797 -5.20775 5.52155 0
M  V30 420 O 44.1897 -4.56534 4.22446 0
M  V30 421 C 45.3797 -5.62629 5.96531 0
M  V30 422 O 45.7697 -6.87667 5.41053 0
M  V30 423 C 46.2597 -4.52537 5.39283 0
M  V30 424 C 45.5497 -4.20027 4.08623 0
M  V30 425 N 45.5997 -2.7613 3.71522 0
M  V30 426 C 45.7497 -2.45612 2.37989 0
M  V30 427 O 45.8397 -3.30919 1.51621 0
M  V30 428 N 45.7897 -1.10684 2.08435 0
M  V30 429 C 45.6997 -0.0690084 2.9792 0
M  V30 430 O 45.7497 1.10553 2.59426 0
M  V30 431 C 45.5497 -0.481522 4.35345 0
M  V30 432 C 45.4397 0.618778 5.36443 0
M  V30 433 C 45.4997 -1.78906 4.67968 0
M  V30 434 H 42.7597 -4.797 7.24003 0
M  V30 435 H 42.4907 -3.69802 5.84429 0
M  V30 436 H 43.3577 -6.10356 5.41441 0
M  V30 437 H 46.0127 -4.78651 3.27911 0
M  V30 438 H 46.2917 -3.64957 6.05871 0
M  V30 439 H 47.2837 -4.8868 5.2125 0
M  V30 440 H 45.4497 -5.66726 7.06352 0
M  V30 441 H 45.3787 -2.07737 5.72367 0
M  V30 442 H 46.4087 0.754375 5.86871 0
M  V30 443 H 44.6717 0.359721 6.10641 0
M  V30 444 H 45.1597 1.55533 4.8581 0
M  V30 445 H 45.8957 -0.862651 1.12037 0
M  V30 446 P 47.3197 -7.20834 5.23717 0
M  V30 447 O 47.5397 -8.66189 5.38625 0
M  V30 448 O 48.1097 -6.33615 6.1356 0
M  V30 449 O 47.5697 -6.7751 3.72168 0
M  V30 450 C 46.6297 -7.20732 2.70725 0
M  V30 451 C 47.3597 -7.45864 1.40599 0
M  V30 452 O 47.5697 -6.17651 0.734225 0
M  V30 453 C 48.7597 -8.05808 1.51899 0
M  V30 454 O 49.1497 -8.74358 0.335205 0
M  V30 455 C 49.6397 -6.83093 1.70294 0
M  V30 456 C 48.9297 -5.79992 0.836974 0
M  V30 457 N 48.9797 -4.41769 1.38263 0
M  V30 458 C 49.1297 -3.38591 0.481702 0
M  V30 459 O 49.2197 -3.56839 -0.718452 0
M  V30 460 N 49.1697 -2.1206 1.03569 0
M  V30 461 C 49.0797 -1.80696 2.36966 0
M  V30 462 O 49.1297 -0.630473 2.74862 0
M  V30 463 C 48.9297 -2.94845 3.23898 0
M  V30 464 C 48.8197 -2.65253 4.70362 0
M  V30 465 C 48.8797 -4.19803 2.73435 0
M  V30 466 H 46.1397 -8.13644 3.0377 0
M  V30 467 H 45.8707 -6.42695 2.55448 0
M  V30 468 H 46.7377 -8.12039 0.792769 0
M  V30 469 H 49.3927 -5.79978 -0.160587 0
M  V30 470 H 49.6717 -6.51379 2.75643 0
M  V30 471 H 50.6637 -7.01734 1.34462 0
M  V30 472 H 48.8297 -8.73674 2.38337 0
M  V30 473 H 48.7587 -5.04492 3.4095 0
M  V30 474 H 49.7887 -2.83924 5.1913 0
M  V30 475 H 48.0517 -3.29824 5.15163 0
M  V30 476 H 48.5397 -1.59723 4.84449 0
M  V30 477 H 49.2757 -1.35644 0.399345 0
M  V30 478 P 50.6997 -8.91 3.27348e-15 0
M  V30 479 O 50.9197 -10.1736 -0.733766 0
M  V30 480 O 51.4897 -8.73247 1.2395 0
M  V30 481 O 50.9497 -7.66872 -0.971405 0
M  V30 482 C 50.0097 -7.42309 -2.04641 0
M  V30 483 C 50.7397 -6.86059 -3.24661 0
M  V30 484 O 50.9497 -5.42847 -3.03646 0
M  V30 485 C 52.1397 -7.41196 -3.50753 0
M  V30 486 O 52.5297 -7.27073 -4.86816 0
M  V30 487 C 53.0197 -6.5273 -2.63741 0
M  V30 488 C 52.3097 -5.1842 -2.73198 0
M  V30 489 N 52.3597 -4.38668 -1.47808 0
M  V30 490 C 52.5097 -3.00789 -1.58511 0
M  V30 491 O 52.5997 -2.50116 -2.71298 0
M  V30 492 N 52.5597 -2.29703 -0.253698 0
M  V30 493 C 52.4597 -2.84269 0.750133 0
M  V30 494 N 52.5097 -2.06951 1.82612 0
M  V30 495 C 52.3097 -4.25803 0.889776 0
M  V30 496 C 52.2597 -4.98326 -0.259363 0
M  V30 497 H 49.5197 -8.36707 -2.32466 0
M  V30 498 H 49.2507 -6.701 -1.71105 0
M  V30 499 H 50.1177 -7.03638 -4.13219 0
M  V30 500 H 52.7727 -4.59852 -3.53955 0
M  V30 501 H 53.0517 -6.88995 -1.59871 0
M  V30 502 H 54.0437 -6.46749 -3.03687 0
M  V30 503 H 52.2097 -8.46908 -3.20714 0
M  V30 504 H 52.1377 -6.06349 -0.206238 0
M  V30 505 H 52.2397 -4.73163 1.86796 0
M  V30 506 H 52.6277 -1.05099 1.72271 0
M  V30 507 H 52.4307 -2.48716 2.76361 0
M  V30 508 P 54.0797 -7.20834 -5.23717 0
M  V30 509 O 54.2997 -7.7993 -6.57351 0
M  V30 510 O 54.8697 -7.79328 -4.13004 0
M  V30 511 O 54.3297 -5.63315 -5.29344 0
M  V30 512 C 53.3897 -4.80193 -6.01798 0
M  V30 513 C 54.1197 -3.64202 -6.65911 0
M  V30 514 O 54.3297 -2.60694 -5.64732 0
M  V30 515 C 55.5197 -3.93473 -7.1943 0
M  V30 516 O 55.9097 -3.02071 -8.21205 0
M  V30 517 C 56.3997 -3.73047 -5.97036 0
M  V30 518 C 55.6897 -2.58828 -5.25741 0
M  V30 519 N 55.7397 -2.6801 -3.77422 0
M  V30 520 C 55.8897 -1.50443 -3.07133 0
M  V30 521 O 55.9797 -0.419406 -3.61576 0
M  V30 522 N 55.9297 -1.6403 -1.69677 0
M  V30 523 C 55.8397 -2.81206 -0.986255 0
M  V30 524 O 55.8897 -2.80892 0.249754 0
M  V30 525 C 55.6897 -3.99158 -1.80325 0
M  V30 526 C 55.5797 -5.29309 -1.06921 0
M  V30 527 C 55.6397 -3.89779 -3.1476 0
M  V30 528 H 52.8997 -5.40332 -6.79951 0
M  V30 529 H 52.6307 -4.41549 -5.32301 0
M  V30 530 H 53.4977 -3.26331 -7.47797 0
M  V30 531 H 56.1527 -1.6395 -5.56554 0
M  V30 532 H 56.4317 -4.63439 -5.3432 0
M  V30 533 H 57.4237 -3.44728 -6.25838 0
M  V30 534 H 55.5897 -4.96652 -7.57263 0
M  V30 535 H 55.5187 -4.80159 -3.74441 0
M  V30 536 H 56.5487 -5.81459 -1.09608 0
M  V30 537 H 54.8117 -5.9187 -1.54487 0
M  V30 538 H 55.2997 -5.10095 -0.0220288 0
M  V30 539 H 56.0357 -0.798962 -1.16664 0
M  V30 540 P 57.4597 -2.75334 -8.47391 0
M  V30 541 O 57.6797 -2.44595 -9.90239 0
M  V30 542 O 58.2497 -3.87732 -7.92204 0
M  V30 543 O 57.7097 -1.4459 -7.59357 0
M  V30 544 C 56.7697 -0.347563 -7.69115 0
M  V30 545 C 57.4997 0.96767 -7.52806 0
M  V30 546 O 57.7097 1.21036 -6.1011 0
M  V30 547 C 58.8997 1.04544 -8.13308 0
M  V30 548 O 59.2897 2.38311 -8.41922 0
M  V30 549 C 59.7797 0.491279 -7.02284 0
M  V30 550 C 59.0697 0.996264 -5.77469 0
M  V30 551 N 59.1197 0.0501808 -4.62873 0
M  V30 552 C 59.2697 0.588177 -3.36904 0
M  V30 553 O 59.3597 1.78598 -3.17173 0
M  V30 554 N 59.3097 -0.329694 -2.33686 0
M  V30 555 C 59.2197 -1.6953 -2.45079 0
M  V30 556 O 59.2697 -2.41926 -1.44899 0
M  V30 557 C 59.0697 -2.16933 -3.80505 0
M  V30 558 C 58.9597 -3.65373 -3.97621 0
M  V30 559 C 59.0197 -1.30326 -4.83752 0
M  V30 560 H 56.2797 -0.374722 -8.67691 0
M  V30 561 H 56.0107 -0.443421 -6.90177 0
M  V30 562 H 56.8777 1.75537 -7.96793 0
M  V30 563 H 59.5327 1.94496 -5.46629 0
M  V30 564 H 59.8117 -0.608651 -7.04676 0
M  V30 565 H 60.8037 0.889672 -7.08939 0
M  V30 566 H 58.9697 0.43308 -9.04564 0
M  V30 567 H 58.8987 -1.68366 -5.8516 0
M  V30 568 H 59.9287 -4.05985 -4.30448 0
M  V30 569 H 58.1917 -3.88028 -4.72875 0
M  V30 570 H 58.6797 -4.11381 -3.01609 0
M  V30 571 H 59.4157 0.0393617 -1.41345 0
M  V30 572 P 60.8396 2.75334 -8.47391 0
M  V30 573 O 61.0596 3.84128 -9.44797 0
M  V30 574 O 61.6296 1.51947 -8.68712 0
M  V30 575 O 61.0896 3.29363 -6.99321 0
M  V30 576 C 60.1496 4.24011 -6.4274 0
M  V30 577 C 60.8796 5.20775 -5.52155 0
M  V30 578 O 61.0896 4.56534 -4.22446 0
M  V30 579 C 62.2796 5.62629 -5.96531 0
M  V30 580 O 62.6696 6.87667 -5.41053 0
M  V30 581 C 63.1596 4.52537 -5.39283 0
M  V30 582 C 62.4496 4.20027 -4.08623 0
M  V30 583 N 62.4996 2.76189 -3.71603 0
M  V30 584 C 62.4196 1.64862 -4.52822 0
M  V30 585 N 62.4996 0.512671 -3.88633 0
M  V30 586 C 62.6396 0.888083 -2.54977 0
M  V30 587 C 62.7696 0.094668 -1.38677 0
M  V30 588 O 62.7896 -1.13053 -1.28163 0
M  V30 589 N 62.8896 0.890102 -0.232633 0
M  V30 590 C 62.8896 2.26958 -0.21772 0
M  V30 591 N 63.0196 2.84626 0.97925 0
M  V30 592 N 62.7596 3.0178 -1.31033 0
M  V30 593 C 62.6396 2.26781 -2.43843 0
M  V30 594 H 59.6606 4.797 -7.24003 0
M  V30 595 H 59.3906 3.69856 -5.84513 0
M  V30 596 H 60.2576 6.10356 -5.41441 0
M  V30 597 H 62.9126 4.79061 -3.27488 0
M  V30 598 H 63.1916 3.64906 -6.05785 0
M  V30 599 H 64.1836 4.8868 -5.2125 0
M  V30 600 H 62.3496 5.66726 -7.06352 0
M  V30 601 H 62.3006 1.71169 -5.60966 0
M  V30 602 H 62.9826 0.419134 0.644739 0
M  V30 603 H 63.0196 3.87332 1.06098 0
M  V30 604 H 63.1206 2.26417 1.82483 0
M  V30 605 P 64.2196 7.20834 -5.23717 0
M  V30 606 O 64.4396 8.66189 -5.38625 0
M  V30 607 O 65.0096 6.33615 -6.1356 0
M  V30 608 O 64.4696 6.7751 -3.72168 0
M  V30 609 C 63.5296 7.20825 -2.7076 0
M  V30 610 C 64.2596 7.45864 -1.40599 0
M  V30 611 O 64.4696 6.17651 -0.734225 0
M  V30 612 C 65.6596 8.05808 -1.51899 0
M  V30 613 O 66.0496 8.74358 -0.335205 0
M  V30 614 C 66.5396 6.83093 -1.70294 0
M  V30 615 C 65.8296 5.79992 -0.836974 0
M  V30 616 N 65.8796 4.41769 -1.38263 0
M  V30 617 C 66.0296 3.36514 -0.485617 0
M  V30 618 O 66.1196 3.61814 0.724703 0
M  V30 619 N 66.0796 2.00746 -1.14492 0
M  V30 620 C 65.9796 1.85887 -2.27776 0
M  V30 621 N 66.0296 0.600907 -2.69379 0
M  V30 622 C 65.8296 2.92182 -3.22265 0
M  V30 623 C 65.7796 4.18399 -2.71925 0
M  V30 624 H 63.0396 8.1355 -3.03735 0
M  V30 625 H 62.7706 6.42695 -2.55448 0
M  V30 626 H 63.6376 8.12139 -0.792866 0
M  V30 627 H 66.2926 5.80078 0.160615 0
M  V30 628 H 66.5716 6.51379 -2.75643 0
M  V30 629 H 67.5636 7.01734 -1.34462 0
M  V30 630 H 65.7296 8.73674 -2.38337 0
M  V30 631 H 65.6576 5.02669 -3.39718 0
M  V30 632 H 65.7596 2.73001 -4.29239 0
M  V30 633 H 66.1476 -0.162318 -2.01146 0
M  V30 634 H 65.9506 0.387742 -3.69773 0
M  V30 635 P 67.5996 8.91 -4.36464e-15 0
M  V30 636 O 67.8196 10.1726 0.733694 0
M  V30 637 O 68.3896 8.73148 -1.23936 0
M  V30 638 O 67.8496 7.66872 0.971405 0
M  V30 639 C 66.9096 7.42309 2.04641 0
M  V30 640 C 67.6396 6.86059 3.24661 0
M  V30 641 O 67.8496 5.42847 3.03646 0
M  V30 642 C 69.0396 7.41196 3.50753 0
M  V30 643 O 69.4296 7.27073 4.86816 0
M  V30 644 C 69.9196 6.5273 2.63741 0
M  V30 645 C 69.2096 5.1842 2.73198 0
M  V30 646 N 69.2596 4.38762 1.4784 0
M  V30 647 C 69.1796 4.81605 0.168631 0
M  V30 648 N 69.2596 3.85454 -0.713363 0
M  V30 649 C 69.3996 2.6994 0.0566958 0
M  V30 650 C 69.5296 1.34815 -0.338502 0
M  V30 651 O 69.5496 0.869548 -1.47125 0
M  V30 652 N 69.6496 0.496304 0.77465 0
M  V30 653 C 69.6496 0.908403 2.09122 0
M  V30 654 N 69.7796 -0.0517805 3.00955 0
M  V30 655 N 69.5196 2.17875 2.46519 0
M  V30 656 C 69.3996 3.01988 1.4033 0
M  V30 657 H 66.4206 8.36803 2.32493 0
M  V30 658 H 66.1506 6.70197 1.71129 0
M  V30 659 H 67.0176 7.03551 4.13168 0
M  V30 660 H 69.6726 4.59498 3.54415 0
M  V30 661 H 69.9516 6.88898 1.59848 0
M  V30 662 H 70.9436 6.46749 3.03687 0
M  V30 663 H 69.1096 8.46908 3.20714 0
M  V30 664 H 69.0606 5.86405 -0.105564 0
M  V30 665 H 69.7426 -0.483664 0.597855 0
M  V30 666 H 69.7796 0.187865 4.0116 0
M  V30 667 H 69.8806 -1.03585 2.71726 0
M  V30 668 H 69.2986 6.36132 5.14416 0
M  V30 669 H 73.3206 -9.0732 -2.85239 0
M  V30 670 O 73.2006 -8.67639 -2.00036 0
M  V30 671 P 71.7596 -8.7635 -1.60911 0
M  V30 672 O 71.5396 -10.1388 -1.11561 0
M  V30 673 O 70.9696 -8.36503 -2.79617 0
M  V30 674 O 71.5096 -7.71906 -0.429565 0
M  V30 675 C 72.4496 -7.67148 0.673689 0
M  V30 676 C 71.7196 -7.33666 1.94851 0
M  V30 677 O 71.5096 -5.88816 2.00759 0
M  V30 678 C 70.3196 -7.92526 2.10483 0
M  V30 679 O 69.9296 -8.03063 3.47693 0
M  V30 680 C 69.4396 -6.89602 1.41652 0
M  V30 681 C 70.1496 -5.59201 1.75185 0
M  V30 682 N 70.0996 -4.58235 0.662552 0
M  V30 683 C 69.9496 -3.24451 1.01643 0
M  V30 684 O 69.8596 -2.94958 2.21722 0
M  V30 685 N 69.8996 -2.30408 -0.165238 0
M  V30 686 C 69.9996 -2.66048 -1.25118 0
M  V30 687 N 69.9496 -1.70787 -2.16813 0
M  V30 688 C 70.1496 -4.02732 -1.64413 0
M  V30 689 C 70.1996 -4.9488 -0.63991 0
M  V30 690 H 72.9396 -8.65017 0.777072 0
M  V30 691 H 73.2096 -6.90173 0.474152 0
M  V30 692 H 72.3426 -7.66642 2.79492 0
M  V30 693 H 69.6876 -5.16254 2.65229 0
M  V30 694 H 69.4076 -7.06532 0.329431 0
M  V30 695 H 68.4166 -6.91023 1.82047 0
M  V30 696 H 70.2506 -8.90873 1.62657 0
M  V30 697 H 70.3226 -6.00104 -0.892197 0
M  V30 698 H 70.2206 -4.31733 -2.69229 0
M  V30 699 H 69.8326 -0.724835 -1.8844 0
M  V30 700 H 70.0286 -1.94716 -3.16734 0
M  V30 701 P 68.3796 -8.03563 3.84925 0
M  V30 702 O 68.1596 -8.85821 5.0569 0
M  V30 703 O 67.5896 -8.41101 2.65469 0
M  V30 704 O 68.1296 -6.4965 4.18908 0
M  V30 705 C 69.0696 -5.81037 5.05421 0
M  V30 706 C 68.3396 -4.78366 5.89277 0
M  V30 707 O 68.1296 -3.58302 5.08433 0
M  V30 708 C 66.9396 -5.17448 6.36119 0
M  V30 709 O 66.5496 -4.45271 7.53232 0
M  V30 710 C 66.0596 -4.74639 5.19936 0
M  V30 711 C 66.7696 -3.49432 4.70418 0
M  V30 712 N 66.7196 -3.31776 3.22945 0
M  V30 713 C 66.7996 -4.27147 2.23315 0
M  V30 714 N 66.7196 -3.78447 1.02186 0
M  V30 715 C 66.5796 -2.41001 1.21732 0
M  V30 716 C 66.4496 -1.36111 0.27694 0
M  V30 717 O 66.4296 -1.42065 -0.951767 0
M  V30 718 N 66.3296 -0.113683 0.912949 0
M  V30 719 C 66.3296 0.0846396 2.27943 0
M  V30 720 N 66.1996 1.34737 2.6916 0
M  V30 721 N 66.4596 -0.902521 3.16379 0
M  V30 722 C 66.5796 -2.11937 2.56849 0
M  V30 723 H 69.5586 -6.54213 5.71376 0
M  V30 724 H 69.8306 -5.30492 4.44033 0
M  V30 725 H 68.9626 -4.55889 6.76652 0
M  V30 726 H 66.3076 -2.6176 5.18021 0
M  V30 727 H 66.0276 -5.52233 4.41941 0
M  V30 728 H 65.0366 -4.52045 5.53452 0
M  V30 729 H 66.8706 -6.25193 6.55307 0
M  V30 730 H 66.9196 -5.3351 2.43857 0
M  V30 731 H 66.2376 0.69331 0.330371 0
M  V30 732 H 66.2006 1.56433 3.6988 0
M  V30 733 H 66.0996 2.10701 2.00133 0
M  V30 734 P 64.9996 -4.23843 7.83734 0
M  V30 735 O 64.7796 -4.19407 9.29784 0
M  V30 736 O 64.2096 -5.24426 7.09156 0
M  V30 737 O 64.7496 -2.79386 7.20852 0
M  V30 738 C 65.6896 -1.7299 7.50419 0
M  V30 739 C 64.9596 -0.41401 7.5797 0
M  V30 740 O 64.7496 0.089787 6.22035 0
M  V30 741 C 63.5596 -0.447224 8.1878 0
M  V30 742 O 63.1696 0.825159 8.71201 0
M  V30 743 C 62.6796 -0.783801 6.99623 0
M  V30 744 C 63.3896 -0.0619192 5.85967 0
M  V30 745 N 63.3396 -0.7859 4.56281 0
M  V30 746 C 63.1896 -0.0359258 3.39981 0
M  V30 747 O 63.0996 1.19723 3.49038 0
M  V30 748 N 63.1396 -0.869151 2.14025 0
M  V30 749 C 63.2396 -2.01207 2.14363 0
M  V30 750 N 63.1896 -2.58978 0.954287 0
M  V30 751 C 63.3896 -2.80817 3.32215 0
M  V30 752 C 63.4396 -2.13785 4.50884 0
M  V30 753 H 66.1796 -1.93401 8.46693 0
M  V30 754 H 66.4496 -1.68181 6.71046 0
M  V30 755 H 65.5826 0.289076 8.15488 0
M  V30 756 H 62.9276 0.927166 5.72947 0
M  V30 757 H 62.6476 -1.87 6.82132 0
M  V30 758 H 61.6566 -0.404009 7.13457 0
M  V30 759 H 63.4906 -1.20599 8.97534 0
M  V30 760 H 63.5626 -2.70295 5.43162 0
M  V30 761 H 63.4606 -3.89465 3.27406 0
M  V30 762 H 63.0726 -2.01616 0.107046 0
M  V30 763 H 63.2686 -3.61403 0.873101 0
M  V30 764 P 61.6197 1.17771 8.83182 0
M  V30 765 O 61.3997 2.07206 9.98732 0
M  V30 766 O 60.8297 -0.0743816 8.81969 0
M  V30 767 O 61.3697 1.97652 7.47304 0
M  V30 768 C 62.3097 3.01133 7.08783 0
M  V30 769 C 61.5797 4.12613 6.37049 0
M  V30 770 O 61.3697 3.72827 4.97879 0
M  V30 771 C 60.1797 4.45085 6.88694 0
M  V30 772 O 59.7897 5.7877 6.5624 0
M  V30 773 C 59.2997 3.47817 6.12078 0
M  V30 774 C 60.0097 3.39414 4.77697 0
M  V30 775 N 59.9597 2.04199 4.15538 0
M  V30 776 C 60.0397 0.821545 4.76977 0
M  V30 777 N 59.9697 -0.1794 3.94592 0
M  V30 778 C 59.8197 0.419121 2.70776 0
M  V30 779 C 59.6897 -0.109072 1.40577 0
M  V30 780 N 59.6797 -1.4104 1.1344 0
M  V30 781 N 59.5697 0.764381 0.39411 0
M  V30 782 C 59.5797 2.06587 0.664135 0
M  V30 783 N 59.6997 2.67948 1.82153 0
M  V30 784 C 59.8197 1.77942 2.8147 0
M  V30 785 H 62.7987 3.41248 7.98759 0
M  V30 786 H 63.0707 2.57728 6.42 0
M  V30 787 H 62.2027 5.02657 6.42673 0
M  V30 788 H 59.5477 4.11708 4.08956 0
M  V30 789 H 59.2677 2.49626 6.61679 0
M  V30 790 H 58.2767 3.8662 6.00862 0
M  V30 791 H 60.1107 4.29991 7.97006 0
M  V30 792 H 60.1517 0.702451 5.84696 0
M  V30 793 H 59.7707 -2.09647 1.89651 0
M  V30 794 H 59.5817 -1.73358 0.160575 0
M  V30 795 H 59.4737 2.71695 -0.195838 0
M  V30 796 P 58.2397 6.144 6.45285 0
M  V30 797 O 58.0197 7.54673 6.86199 0
M  V30 798 O 57.4497 5.12391 7.179 0
M  V30 799 O 57.9897 5.99158 4.88404 0
M  V30 800 C 58.9297 6.60234 3.96415 0
M  V30 801 C 58.1997 7.08259 2.72856 0
M  V30 802 O 57.9897 5.9427 1.83651 0
M  V30 803 C 56.7997 7.64886 2.9555 0
M  V30 804 O 56.4097 8.53963 1.90717 0
M  V30 805 C 55.9197 6.4116 2.90739 0
M  V30 806 C 56.6297 5.55375 1.86963 0
M  V30 807 N 56.5797 4.09448 2.16152 0
M  V30 808 C 56.6597 3.46824 3.37593 0
M  V30 809 N 56.5897 2.17422 3.29777 0
M  V30 810 C 56.4397 1.93065 1.94427 0
M  V30 811 C 56.3097 0.738053 1.20141 0
M  V30 812 N 56.2997 -0.474256 1.74676 0
M  V30 813 N 56.1897 0.850049 -0.13045 0
M  V30 814 C 56.1997 2.06169 -0.676992 0
M  V30 815 N 56.3197 3.23842 -0.101312 0
M  V30 816 C 56.4397 3.09402 1.23122 0
M  V30 817 H 59.4187 7.45574 4.45629 0
M  V30 818 H 59.6907 5.85864 3.679 0
M  V30 819 H 58.8227 7.84412 2.24479 0
M  V30 820 H 56.1677 5.73457 0.888562 0
M  V30 821 H 55.8877 5.90877 3.88583 0
M  V30 822 H 54.8967 6.6596 2.58858 0
M  V30 823 H 56.7307 8.16339 3.92049 0
M  V30 824 H 56.7717 4.00505 4.3174 0
M  V30 825 H 56.3907 -0.581337 2.76658 0
M  V30 826 H 56.2017 -1.30811 1.14888 0
M  V30 827 H 56.0937 2.08295 -1.75542 0
M  V30 828 P 54.8597 8.7635 1.60911 0
M  V30 829 O 54.6397 10.1388 1.11561 0
M  V30 830 O 54.0697 8.36503 2.79617 0
M  V30 831 O 54.6097 7.71806 0.42951 0
M  V30 832 C 55.5497 7.67148 -0.673689 0
M  V30 833 C 54.8197 7.33374 -1.95559 0
M  V30 834 O 54.6097 5.88721 -2.00726 0
M  V30 835 C 53.4197 7.92526 -2.10483 0
M  V30 836 O 53.0297 8.02971 -3.47653 0
M  V30 837 C 52.5397 6.89602 -1.41652 0
M  V30 838 C 53.2497 5.59201 -1.75185 0
M  V30 839 N 53.1997 4.58235 -0.662552 0
M  V30 840 C 53.2797 4.7683 0.704049 0
M  V30 841 N 53.1997 3.66233 1.39775 0
M  V30 842 C 53.0597 2.66526 0.431739 0
M  V30 843 C 52.9297 1.26394 0.575992 0
M  V30 844 O 52.9097 0.589894 1.60503 0
M  V30 845 N 52.8097 0.62859 -0.67177 0
M  V30 846 C 52.8097 1.27134 -1.89385 0
M  V30 847 N 52.6797 0.492035 -2.96951 0
M  V30 848 N 52.9397 2.58978 -2.02907 0
M  V30 849 C 53.0597 3.22433 -0.832218 0
M  V30 850 H 56.0387 8.65116 -0.777161 0
M  V30 851 H 56.3107 6.90173 -0.474152 0
M  V30 852 H 55.4427 7.66548 -2.79458 0
M  V30 853 H 52.7877 5.16254 -2.65229 0
M  V30 854 H 52.5077 7.06532 -0.329431 0
M  V30 855 H 51.5167 6.91023 -1.82047 0
M  V30 856 H 53.3507 8.90971 -1.62675 0
M  V30 857 H 53.3997 5.74954 1.16305 0
M  V30 858 H 52.7177 -0.366713 -0.674793 0
M  V30 859 H 52.6807 0.908532 -3.91188 0
M  V30 860 H 52.5797 -0.528253 -2.85758 0
M  V30 861 P 51.4797 8.03563 -3.84925 0
M  V30 862 O 51.2597 8.85821 -5.0569 0
M  V30 863 O 50.6897 8.41101 -2.65469 0
M  V30 864 O 51.2297 6.4965 -4.18908 0
M  V30 865 C 52.1697 5.81037 -5.05421 0
M  V30 866 C 51.4397 4.78366 -5.89277 0
M  V30 867 O 51.2297 3.58302 -5.08433 0
M  V30 868 C 50.0397 5.17448 -6.36119 0
M  V30 869 O 49.6497 4.45271 -7.53232 0
M  V30 870 C 49.1597 4.74639 -5.19936 0
M  V30 871 C 49.8697 3.49432 -4.70418 0
M  V30 872 N 49.8197 3.32099 -3.22613 0
M  V30 873 C 49.8997 4.28245 -2.25527 0
M  V30 874 N 49.8297 3.80823 -1.04874 0
M  V30 875 C 49.6797 2.44571 -1.23535 0
M  V30 876 C 49.5497 1.37068 -0.330675 0
M  V30 877 N 49.5397 1.51472 0.990824 0
M  V30 878 N 49.4297 0.138614 -0.848756 0
M  V30 879 C 49.4397 -0.00675923 -2.16999 0
M  V30 880 N 49.5597 0.904372 -3.11122 0
M  V30 881 C 49.6797 2.12707 -2.56212 0
M  V30 882 H 52.6587 6.54213 -5.71376 0
M  V30 883 H 52.9307 5.30936 -4.43503 0
M  V30 884 H 52.0627 4.55889 -6.76652 0
M  V30 885 H 49.4077 2.61715 -5.17932 0
M  V30 886 H 49.1277 5.52155 -4.41878 0
M  V30 887 H 48.1367 4.51981 -5.53374 0
M  V30 888 H 49.9707 6.25124 -6.55234 0
M  V30 889 H 50.0117 5.34372 -2.47488 0
M  V30 890 H 49.6307 2.45153 1.4078 0
M  V30 891 H 49.4417 0.688422 1.59911 0
M  V30 892 H 49.3337 -1.02584 -2.52346 0
M  V30 893 P 48.0997 4.23843 -7.83734 0
M  V30 894 O 47.8797 4.19407 -9.29784 0
M  V30 895 O 47.3097 5.24426 -7.09156 0
M  V30 896 O 47.8497 2.7935 -7.20758 0
M  V30 897 C 48.7897 1.7299 -7.50419 0
M  V30 898 C 48.0597 0.406376 -7.57911 0
M  V30 899 O 47.8497 -0.0897726 -6.21935 0
M  V30 900 C 46.6597 0.447224 -8.1878 0
M  V30 901 O 46.2697 -0.825065 -8.71101 0
M  V30 902 C 45.7797 0.783801 -6.99623 0
M  V30 903 C 46.4897 0.0619192 -5.85967 0
M  V30 904 N 46.4397 0.790462 -4.56202 0
M  V30 905 C 46.5197 2.13895 -4.34171 0
M  V30 906 N 46.4497 2.46449 -3.08687 0
M  V30 907 C 46.2997 1.2525 -2.43697 0
M  V30 908 C 46.1697 0.914535 -1.07318 0
M  V30 909 N 46.1597 1.80782 -0.0887348 0
M  V30 910 N 46.0497 -0.386745 -0.768133 0
M  V30 911 C 46.0597 -1.28096 -1.75159 0
M  V30 912 N 46.1797 -1.09708 -3.04861 0
M  V30 913 C 46.2997 0.214857 -3.32306 0
M  V30 914 H 49.2787 1.93423 -8.4679 0
M  V30 915 H 49.5507 1.68852 -6.70877 0
M  V30 916 H 48.6827 -0.289041 -8.15388 0
M  V30 917 H 46.0277 -0.927006 -5.72848 0
M  V30 918 H 45.7477 1.86973 -6.82036 0
M  V30 919 H 44.7567 0.403953 -7.13357 0
M  V30 920 H 46.5907 1.20599 -8.97534 0
M  V30 921 H 46.6317 2.86846 -5.14318 0
M  V30 922 H 46.2507 2.81082 -0.302037 0
M  V30 923 H 46.0617 1.49688 0.889064 0
M  V30 924 H 45.9537 -2.31317 -1.43855 0
M  V30 925 P 44.7198 -1.17771 -8.83182 0
M  V30 926 O 44.4998 -2.07206 -9.98732 0
M  V30 927 O 43.9298 0.0743816 -8.81969 0
M  V30 928 O 44.4698 -1.97652 -7.47304 0
M  V30 929 C 45.4098 -3.01133 -7.08783 0
M  V30 930 C 44.6798 -4.12613 -6.37049 0
M  V30 931 O 44.4698 -3.72827 -4.97879 0
M  V30 932 C 43.2798 -4.45085 -6.88694 0
M  V30 933 O 42.8898 -5.7877 -6.5624 0
M  V30 934 C 42.3998 -3.47817 -6.12078 0
M  V30 935 C 43.1098 -3.39414 -4.77697 0
M  V30 936 N 43.0598 -2.04615 -4.15333 0
M  V30 937 C 43.1398 -0.803897 -4.75249 0
M  V30 938 N 43.0598 0.197615 -3.91502 0
M  V30 939 C 42.9198 -0.413002 -2.66823 0
M  V30 940 C 42.7898 0.157221 -1.38007 0
M  V30 941 O 42.7698 1.34419 -1.057 0
M  V30 942 N 42.6698 -0.833136 -0.390236 0
M  V30 943 C 42.6698 -2.19402 -0.623885 0
M  V30 944 N 42.5398 -2.97622 0.449677 0
M  V30 945 N 42.7998 -2.73005 -1.83601 0
M  V30 946 C 42.9198 -1.78786 -2.80935 0
M  V30 947 H 45.8988 -3.41248 -7.98759 0
M  V30 948 H 46.1708 -2.5837 -6.41742 0
M  V30 949 H 45.3028 -5.02657 -6.42673 0
M  V30 950 H 42.6478 -4.11779 -4.09026 0
M  V30 951 H 42.3678 -2.49661 -6.61772 0
M  V30 952 H 41.3768 -3.86674 -6.00946 0
M  V30 953 H 43.2108 -4.30038 -7.97094 0
M  V30 954 H 43.2598 -0.670579 -5.82754 0
M  V30 955 H 42.5778 -0.528446 0.557287 0
M  V30 956 H 42.5408 -4.00117 0.344773 0
M  V30 957 H 42.4398 -2.55448 1.38544 0
M  V30 958 P 41.3398 -6.144 -6.45285 0
M  V30 959 O 41.1198 -7.54673 -6.86199 0
M  V30 960 O 40.5498 -5.12391 -7.179 0
M  V30 961 O 41.0898 -5.99158 -4.88404 0
M  V30 962 C 42.0298 -6.60234 -3.96415 0
M  V30 963 C 41.2998 -7.08259 -2.72856 0
M  V30 964 O 41.0898 -5.9427 -1.83651 0
M  V30 965 C 39.8998 -7.64886 -2.9555 0
M  V30 966 O 39.5098 -8.53963 -1.90717 0
M  V30 967 C 39.0198 -6.4116 -2.90739 0
M  V30 968 C 39.7298 -5.55375 -1.86963 0
M  V30 969 N 39.6798 -4.09448 -2.16152 0
M  V30 970 C 39.7598 -3.46824 -3.37593 0
M  V30 971 N 39.6898 -2.17422 -3.29777 0
M  V30 972 C 39.5398 -1.93065 -1.94427 0
M  V30 973 C 39.4098 -0.738053 -1.20141 0
M  V30 974 N 39.3998 0.474256 -1.74676 0
M  V30 975 N 39.2898 -0.850049 0.13045 0
M  V30 976 C 39.2998 -2.06169 0.676992 0
M  V30 977 N 39.4198 -3.23842 0.101312 0
M  V30 978 C 39.5398 -3.09402 -1.23122 0
M  V30 979 H 42.5188 -7.45574 -4.45629 0
M  V30 980 H 42.7908 -5.85864 -3.679 0
M  V30 981 H 41.9228 -7.84412 -2.24479 0
M  V30 982 H 39.2678 -5.73457 -0.888562 0
M  V30 983 H 38.9878 -5.90877 -3.88583 0
M  V30 984 H 37.9968 -6.6596 -2.58858 0
M  V30 985 H 39.8308 -8.16339 -3.92049 0
M  V30 986 H 39.8718 -4.00505 -4.3174 0
M  V30 987 H 39.4908 0.581337 -2.76658 0
M  V30 988 H 39.3018 1.30811 -1.14888 0
M  V30 989 H 39.1938 -2.08295 1.75542 0
M  V30 990 P 37.9598 -8.7635 -1.60911 0
M  V30 991 O 37.7398 -10.1388 -1.11561 0
M  V30 992 O 37.1698 -8.36503 -2.79617 0
M  V30 993 O 37.7098 -7.71806 -0.42951 0
M  V30 994 C 38.6498 -7.67148 0.673689 0
M  V30 995 C 37.9198 -7.33374 1.95559 0
M  V30 996 O 37.7098 -5.88721 2.00726 0
M  V30 997 C 36.5198 -7.92526 2.10483 0
M  V30 998 O 36.1298 -8.02971 3.47653 0
M  V30 999 C 35.6398 -6.89602 1.41652 0
M  V30 1000 C 36.3498 -5.59201 1.75185 0
M  V30 1001 N 36.2998 -4.58301 0.657969 0
M  V30 1002 C 36.3798 -4.79019 -0.692603 0
M  V30 1003 N 36.3098 -3.69736 -1.38998 0
M  V30 1004 C 36.1598 -2.70474 -0.438135 0
M  V30 1005 C 36.0298 -1.30327 -0.538142 0
M  V30 1006 N 36.0198 -0.64304 -1.69192 0
M  V30 1007 N 35.9098 -0.611027 0.605183 0
M  V30 1008 C 35.9198 -1.27002 1.75953 0
M  V30 1009 N 36.0398 -2.56038 1.98546 0
M  V30 1010 C 36.1598 -3.22681 0.822541 0
M  V30 1011 H 39.1388 -8.65116 0.777161 0
M  V30 1012 H 39.4108 -6.9022 0.46725 0
M  V30 1013 H 38.5428 -7.66548 2.79458 0
M  V30 1014 H 35.8878 -5.16165 2.65183 0
M  V30 1015 H 35.6078 -7.06433 0.329384 0
M  V30 1016 H 34.6168 -6.90926 1.82021 0
M  V30 1017 H 36.4508 -8.90873 1.62657 0
M  V30 1018 H 36.4918 -5.77785 -1.13874 0
M  V30 1019 H 36.1108 -1.15585 -2.57991 0
M  V30 1020 H 35.9218 0.382989 -1.69835 0
M  V30 1021 H 35.8138 -0.653331 2.64449 0
M  V30 1022 P 34.5798 -8.03563 3.84925 0
M  V30 1023 O 34.3598 -8.85821 5.0569 0
M  V30 1024 O 33.7898 -8.41101 2.65469 0
M  V30 1025 O 34.3298 -6.4965 4.18908 0
M  V30 1026 C 35.2698 -5.81037 5.05421 0
M  V30 1027 C 34.5398 -4.78366 5.89277 0
M  V30 1028 O 34.3298 -3.58302 5.08433 0
M  V30 1029 C 33.1398 -5.17448 6.36119 0
M  V30 1030 O 32.7498 -4.45271 7.53232 0
M  V30 1031 C 32.2598 -4.74639 5.19936 0
M  V30 1032 C 32.9698 -3.49432 4.70418 0
M  V30 1033 N 32.9198 -3.31776 3.22945 0
M  V30 1034 C 32.9998 -4.27147 2.23315 0
M  V30 1035 N 32.9198 -3.78447 1.02186 0
M  V30 1036 C 32.7798 -2.41001 1.21732 0
M  V30 1037 C 32.6498 -1.36111 0.27694 0
M  V30 1038 O 32.6298 -1.42065 -0.951767 0
M  V30 1039 N 32.5298 -0.113683 0.912949 0
M  V30 1040 C 32.5298 0.0846396 2.27943 0
M  V30 1041 N 32.3998 1.34737 2.6916 0
M  V30 1042 N 32.6598 -0.902521 3.16379 0
M  V30 1043 C 32.7798 -2.11937 2.56849 0
M  V30 1044 H 35.7588 -6.54213 5.71376 0
M  V30 1045 H 36.0308 -5.30492 4.44033 0
M  V30 1046 H 35.1628 -4.55889 6.76652 0
M  V30 1047 H 32.5078 -2.6176 5.18021 0
M  V30 1048 H 32.2278 -5.52233 4.41941 0
M  V30 1049 H 31.2368 -4.52045 5.53452 0
M  V30 1050 H 33.0708 -6.25193 6.55307 0
M  V30 1051 H 33.1198 -5.3351 2.43857 0
M  V30 1052 H 32.4378 0.69331 0.330371 0
M  V30 1053 H 32.4008 1.56433 3.6988 0
M  V30 1054 H 32.2998 2.10701 2.00133 0
M  V30 1055 P 31.1998 -4.23843 7.83734 0
M  V30 1056 O 30.9798 -4.19407 9.29784 0
M  V30 1057 O 30.4098 -5.24426 7.09156 0
M  V30 1058 O 30.9498 -2.7935 7.20758 0
M  V30 1059 C 31.8898 -1.7299 7.50419 0
M  V30 1060 C 31.1598 -0.406376 7.57911 0
M  V30 1061 O 30.9498 0.0897726 6.21935 0
M  V30 1062 C 29.7598 -0.447224 8.1878 0
M  V30 1063 O 29.3698 0.825065 8.71101 0
M  V30 1064 C 28.8798 -0.783801 6.99623 0
M  V30 1065 C 29.5898 -0.0619192 5.85967 0
M  V30 1066 N 29.5398 -0.790462 4.56202 0
M  V30 1067 C 29.6198 -2.13895 4.34171 0
M  V30 1068 N 29.5498 -2.46449 3.08687 0
M  V30 1069 C 29.3998 -1.2525 2.43697 0
M  V30 1070 C 29.2698 -0.914535 1.07318 0
M  V30 1071 N 29.2598 -1.80782 0.0887348 0
M  V30 1072 N 29.1498 0.386745 0.768133 0
M  V30 1073 C 29.1598 1.28096 1.75159 0
M  V30 1074 N 29.2798 1.09708 3.04861 0
M  V30 1075 C 29.3998 -0.214857 3.32306 0
M  V30 1076 H 32.3788 -1.93423 8.4679 0
M  V30 1077 H 32.6508 -1.68852 6.70877 0
M  V30 1078 H 31.7828 0.289041 8.15388 0
M  V30 1079 H 29.1278 0.927006 5.72848 0
M  V30 1080 H 28.8478 -1.86973 6.82036 0
M  V30 1081 H 27.8568 -0.403953 7.13357 0
M  V30 1082 H 29.6908 -1.20599 8.97534 0
M  V30 1083 H 29.7318 -2.86846 5.14318 0
M  V30 1084 H 29.3508 -2.81082 0.302037 0
M  V30 1085 H 29.1618 -1.49688 -0.889064 0
M  V30 1086 H 29.0538 2.31317 1.43855 0
M  V30 1087 P 27.8199 1.17771 8.83182 0
M  V30 1088 O 27.5999 2.07206 9.98732 0
M  V30 1089 O 27.0299 -0.0743816 8.81969 0
M  V30 1090 O 27.5699 1.97652 7.47304 0
M  V30 1091 C 28.5099 3.01133 7.08783 0
M  V30 1092 C 27.7799 4.12613 6.37049 0
M  V30 1093 O 27.5699 3.72827 4.97879 0
M  V30 1094 C 26.3799 4.45085 6.88694 0
M  V30 1095 O 25.9899 5.7877 6.5624 0
M  V30 1096 C 25.4999 3.47817 6.12078 0
M  V30 1097 C 26.2099 3.39414 4.77697 0
M  V30 1098 N 26.1599 2.04615 4.15333 0
M  V30 1099 C 26.2399 0.803897 4.75249 0
M  V30 1100 N 26.1599 -0.197615 3.91502 0
M  V30 1101 C 26.0199 0.413002 2.66823 0
M  V30 1102 C 25.8899 -0.157221 1.38007 0
M  V30 1103 O 25.8699 -1.34419 1.057 0
M  V30 1104 N 25.7699 0.833136 0.390236 0
M  V30 1105 C 25.7699 2.19402 0.623885 0
M  V30 1106 N 25.6399 2.97622 -0.449677 0
M  V30 1107 N 25.8999 2.73005 1.83601 0
M  V30 1108 C 26.0199 1.78786 2.80935 0
M  V30 1109 H 28.9989 3.41248 7.98759 0
M  V30 1110 H 29.2709 2.5837 6.41742 0
M  V30 1111 H 28.4029 5.02657 6.42673 0
M  V30 1112 H 25.7479 4.11779 4.09026 0
M  V30 1113 H 25.4679 2.49661 6.61772 0
M  V30 1114 H 24.4769 3.86674 6.00946 0
M  V30 1115 H 26.3109 4.30038 7.97094 0
M  V30 1116 H 26.3599 0.670579 5.82754 0
M  V30 1117 H 25.6779 0.528446 -0.557287 0
M  V30 1118 H 25.6409 4.00117 -0.344773 0
M  V30 1119 H 25.5399 2.55448 -1.38544 0
M  V30 1120 P 24.4399 6.144 6.45285 0
M  V30 1121 O 24.2199 7.54673 6.86199 0
M  V30 1122 O 23.6499 5.12391 7.179 0
M  V30 1123 O 24.1899 5.99236 4.88467 0
M  V30 1124 C 25.1299 6.60234 3.96415 0
M  V30 1125 C 24.3999 7.08079 2.736 0
M  V30 1126 O 24.1899 5.94365 1.8368 0
M  V30 1127 C 22.9999 7.64886 2.9555 0
M  V30 1128 O 22.6099 8.5406 1.90739 0
M  V30 1129 C 22.1199 6.4116 2.90739 0
M  V30 1130 C 22.8299 5.55375 1.86963 0
M  V30 1131 N 22.7799 4.09664 2.15742 0
M  V30 1132 C 22.6299 3.22231 1.08477 0
M  V30 1133 O 22.5399 3.68951 -0.0600489 0
M  V30 1134 N 22.5799 1.76692 1.48799 0
M  V30 1135 C 22.6799 1.41695 2.57602 0
M  V30 1136 N 22.6299 0.107296 2.75791 0
M  V30 1137 C 22.8299 2.29178 3.69733 0
M  V30 1138 C 22.8799 3.62753 3.42653 0
M  V30 1139 H 25.6199 7.45488 4.45578 0
M  V30 1140 H 25.8899 5.86232 3.67314 0
M  V30 1141 H 25.0229 7.84508 2.24507 0
M  V30 1142 H 22.3679 5.73556 0.888715 0
M  V30 1143 H 22.0879 5.9096 3.88638 0
M  V30 1144 H 21.0969 6.66053 2.58894 0
M  V30 1145 H 22.9309 8.16339 3.92049 0
M  V30 1146 H 23.0029 4.33052 4.24913 0
M  V30 1147 H 22.9009 1.9103 4.71577 0
M  V30 1148 H 22.5129 -0.521221 1.95056 0
M  V30 1149 H 22.7089 -0.286429 3.70695 0
M  V30 1150 P 21.0599 8.7635 1.60911 0
M  V30 1151 O 20.8399 10.1388 1.11561 0
M  V30 1152 O 20.2699 8.36503 2.79617 0
M  V30 1153 O 20.8099 7.71806 0.42951 0
M  V30 1154 C 21.7499 7.67148 -0.673689 0
M  V30 1155 C 21.0199 7.33374 -1.95559 0
M  V30 1156 O 20.8099 5.88721 -2.00726 0
M  V30 1157 C 19.6199 7.92526 -2.10483 0
M  V30 1158 O 19.2299 8.02971 -3.47653 0
M  V30 1159 C 18.7399 6.89602 -1.41652 0
M  V30 1160 C 19.4499 5.59201 -1.75185 0
M  V30 1161 N 19.3999 4.58301 -0.657969 0
M  V30 1162 C 19.4799 4.79019 0.692603 0
M  V30 1163 N 19.4099 3.69736 1.38998 0
M  V30 1164 C 19.2599 2.70474 0.438135 0
M  V30 1165 C 19.1299 1.30327 0.538142 0
M  V30 1166 N 19.1199 0.64304 1.69192 0
M  V30 1167 N 19.0099 0.611027 -0.605183 0
M  V30 1168 C 19.0199 1.27002 -1.75953 0
M  V30 1169 N 19.1399 2.56038 -1.98546 0
M  V30 1170 C 19.2599 3.22681 -0.822541 0
M  V30 1171 H 22.2389 8.65116 -0.777161 0
M  V30 1172 H 22.5109 6.9022 -0.46725 0
M  V30 1173 H 21.6429 7.66548 -2.79458 0
M  V30 1174 H 18.9879 5.16165 -2.65183 0
M  V30 1175 H 18.7079 7.06433 -0.329384 0
M  V30 1176 H 17.7169 6.90926 -1.82021 0
M  V30 1177 H 19.5509 8.90873 -1.62657 0
M  V30 1178 H 19.5919 5.77785 1.13874 0
M  V30 1179 H 19.2109 1.15585 2.57991 0
M  V30 1180 H 19.0219 -0.382989 1.69835 0
M  V30 1181 H 18.9139 0.653331 -2.64449 0
M  V30 1182 P 17.6799 8.03563 -3.84925 0
M  V30 1183 O 17.4599 8.85821 -5.0569 0
M  V30 1184 O 16.8899 8.41101 -2.65469 0
M  V30 1185 O 17.4299 6.4965 -4.18908 0
M  V30 1186 C 18.3699 5.81037 -5.05421 0
M  V30 1187 C 17.6399 4.78366 -5.89277 0
M  V30 1188 O 17.4299 3.58302 -5.08433 0
M  V30 1189 C 16.2399 5.17448 -6.36119 0
M  V30 1190 O 15.8499 4.45271 -7.53232 0
M  V30 1191 C 15.3599 4.74639 -5.19936 0
M  V30 1192 C 16.0699 3.49432 -4.70418 0
M  V30 1193 N 16.0199 3.32099 -3.22613 0
M  V30 1194 C 16.0999 4.28245 -2.25527 0
M  V30 1195 N 16.0299 3.80823 -1.04874 0
M  V30 1196 C 15.8799 2.44571 -1.23535 0
M  V30 1197 C 15.7499 1.37068 -0.330675 0
M  V30 1198 N 15.7399 1.51472 0.990824 0
M  V30 1199 N 15.6299 0.138614 -0.848756 0
M  V30 1200 C 15.6399 -0.00675923 -2.16999 0
M  V30 1201 N 15.7599 0.904372 -3.11122 0
M  V30 1202 C 15.8799 2.12707 -2.56212 0
M  V30 1203 H 18.8589 6.54213 -5.71376 0
M  V30 1204 H 19.1309 5.30936 -4.43503 0
M  V30 1205 H 18.2629 4.55889 -6.76652 0
M  V30 1206 H 15.6079 2.61715 -5.17932 0
M  V30 1207 H 15.3279 5.52155 -4.41878 0
M  V30 1208 H 14.3369 4.51981 -5.53374 0
M  V30 1209 H 16.1709 6.25124 -6.55234 0
M  V30 1210 H 16.2119 5.34372 -2.47488 0
M  V30 1211 H 15.8309 2.45153 1.4078 0
M  V30 1212 H 15.6419 0.688422 1.59911 0
M  V30 1213 H 15.5339 -1.02584 -2.52346 0
M  V30 1214 P 14.2999 4.23843 -7.83734 0
M  V30 1215 O 14.0799 4.19407 -9.29784 0
M  V30 1216 O 13.5099 5.24426 -7.09156 0
M  V30 1217 O 14.0499 2.7935 -7.20758 0
M  V30 1218 C 14.9899 1.7299 -7.50419 0
M  V30 1219 C 14.2599 0.406376 -7.57911 0
M  V30 1220 O 14.0499 -0.0897726 -6.21935 0
M  V30 1221 C 12.8599 0.447224 -8.1878 0
M  V30 1222 O 12.4699 -0.825065 -8.71101 0
M  V30 1223 C 11.9799 0.783801 -6.99623 0
M  V30 1224 C 12.6899 0.0619192 -5.85967 0
M  V30 1225 N 12.6399 0.790462 -4.56202 0
M  V30 1226 C 12.7199 2.13895 -4.34171 0
M  V30 1227 N 12.6499 2.46449 -3.08687 0
M  V30 1228 C 12.4999 1.2525 -2.43697 0
M  V30 1229 C 12.3699 0.914535 -1.07318 0
M  V30 1230 N 12.3599 1.80782 -0.0887348 0
M  V30 1231 N 12.2499 -0.386745 -0.768133 0
M  V30 1232 C 12.2599 -1.28096 -1.75159 0
M  V30 1233 N 12.3799 -1.09708 -3.04861 0
M  V30 1234 C 12.4999 0.214857 -3.32306 0
M  V30 1235 H 15.4789 1.93423 -8.4679 0
M  V30 1236 H 15.7509 1.68852 -6.70877 0
M  V30 1237 H 14.8829 -0.289041 -8.15388 0
M  V30 1238 H 12.2279 -0.927006 -5.72848 0
M  V30 1239 H 11.9479 1.86973 -6.82036 0
M  V30 1240 H 10.9569 0.403953 -7.13357 0
M  V30 1241 H 12.7909 1.20599 -8.97534 0
M  V30 1242 H 12.8319 2.86846 -5.14318 0
M  V30 1243 H 12.4509 2.81082 -0.302037 0
M  V30 1244 H 12.2619 1.49688 0.889064 0
M  V30 1245 H 12.1539 -2.31317 -1.43855 0
M  V30 1246 P 10.92 -1.17771 -8.83182 0
M  V30 1247 O 10.7 -2.07206 -9.98732 0
M  V30 1248 O 10.13 0.0743816 -8.81969 0
M  V30 1249 O 10.67 -1.97678 -7.474 0
M  V30 1250 C 11.61 -3.01133 -7.08783 0
M  V30 1251 C 10.88 -4.1203 -6.37546 0
M  V30 1252 O 10.67 -3.72887 -4.9796 0
M  V30 1253 C 9.47996 -4.45085 -6.88694 0
M  V30 1254 O 9.08996 -5.78836 -6.56315 0
M  V30 1255 C 8.59996 -3.47817 -6.12078 0
M  V30 1256 C 9.30996 -3.39414 -4.77697 0
M  V30 1257 N 9.25996 -2.04615 -4.15333 0
M  V30 1258 C 9.10996 -1.96929 -2.77162 0
M  V30 1259 O 9.01996 -3.02017 -2.12006 0
M  V30 1260 N 9.05996 -0.55485 -2.24237 0
M  V30 1261 C 9.15996 0.367808 -2.9169 0
M  V30 1262 N 9.10996 1.53426 -2.29427 0
M  V30 1263 C 9.30996 0.319148 -4.33828 0
M  V30 1264 C 9.35996 -0.920672 -4.90433 0
M  V30 1265 H 12.1 -3.41209 -7.98667 0
M  V30 1266 H 12.37 -2.5837 -6.41742 0
M  V30 1267 H 11.503 -5.02718 -6.42752 0
M  V30 1268 H 8.84796 -4.11779 -4.09026 0
M  V30 1269 H 8.56796 -2.49661 -6.61772 0
M  V30 1270 H 7.57696 -3.86674 -6.00946 0
M  V30 1271 H 9.41096 -4.29991 -7.97006 0
M  V30 1272 H 9.48296 -1.00589 -5.98303 0
M  V30 1273 H 9.38096 1.22639 -4.93799 0
M  V30 1274 H 8.99296 1.56819 -1.27167 0
M  V30 1275 H 9.18896 2.41062 -2.83063 0
M  V30 1276 P 7.53998 -6.144 -6.45285 0
M  V30 1277 O 7.31998 -7.54673 -6.86199 0
M  V30 1278 O 6.74998 -5.12391 -7.179 0
M  V30 1279 O 7.28998 -5.99158 -4.88404 0
M  V30 1280 C 8.22998 -6.60234 -3.96415 0
M  V30 1281 C 7.49998 -7.08259 -2.72856 0
M  V30 1282 O 7.28998 -5.9427 -1.83651 0
M  V30 1283 C 6.09998 -7.64886 -2.9555 0
M  V30 1284 O 5.70998 -8.53963 -1.90717 0
M  V30 1285 C 5.21998 -6.4116 -2.90739 0
M  V30 1286 C 5.92998 -5.55375 -1.86963 0
M  V30 1287 N 5.87998 -4.09664 -2.15742 0
M  V30 1288 C 5.95998 -3.44381 -3.37233 0
M  V30 1289 N 5.87998 -2.14131 -3.28347 0
M  V30 1290 C 5.73998 -1.90247 -1.91588 0
M  V30 1291 C 5.60998 -0.683992 -1.20892 0
M  V30 1292 O 5.58998 0.46618 -1.64523 0
M  V30 1293 N 5.48998 -0.903396 0.173998 0
M  V30 1294 C 5.48998 -2.14171 0.784879 0
M  V30 1295 N 5.35998 -2.1435 2.11317 0
M  V30 1296 N 5.61998 -3.28784 0.119316 0
M  V30 1297 C 5.73998 -3.0977 -1.22194 0
M  V30 1298 H 8.71898 -7.45574 -4.45629 0
M  V30 1299 H 8.99098 -5.86232 -3.67314 0
M  V30 1300 H 8.12298 -7.84412 -2.24479 0
M  V30 1301 H 5.46798 -5.73556 -0.888715 0
M  V30 1302 H 5.18798 -5.9096 -3.88638 0
M  V30 1303 H 4.19698 -6.66053 -2.58894 0
M  V30 1304 H 6.03098 -8.16429 -3.92093 0
M  V30 1305 H 6.07998 -3.96785 -4.32043 0
M  V30 1306 H 5.39798 -0.0999567 0.761467 0
M  V30 1307 H 5.36098 -3.03436 2.63076 0
M  V30 1308 H 5.25998 -1.25228 2.62233 0
M  V30 1309 P 4.16 -8.7635 -1.60911 0
M  V30 1310 O 3.94 -10.1388 -1.11561 0
M  V30 1311 O 3.37 -8.36503 -2.79617 0
M  V30 1312 O 3.91 -7.71906 -0.429565 0
M  V30 1313 C 4.85 -7.67148 0.673689 0
M  V30 1314 C 4.12 -7.33666 1.94851 0
M  V30 1315 O 3.91 -5.88816 2.00759 0
M  V30 1316 C 2.72 -7.92526 2.10483 0
M  V30 1317 O 2.33 -8.03063 3.47693 0
M  V30 1318 C 1.84 -6.89602 1.41652 0
M  V30 1319 C 2.55 -5.59201 1.75185 0
M  V30 1320 N 2.5 -4.58235 0.662552 0
M  V30 1321 C 2.35 -3.24451 1.01643 0
M  V30 1322 O 2.26 -2.94958 2.21722 0
M  V30 1323 N 2.3 -2.30408 -0.165238 0
M  V30 1324 C 2.4 -2.66048 -1.25118 0
M  V30 1325 N 2.35 -1.70787 -2.16813 0
M  V30 1326 C 2.55 -4.02732 -1.64413 0
M  V30 1327 C 2.6 -4.9488 -0.63991 0
M  V30 1328 H 5.34 -8.65017 0.777072 0
M  V30 1329 H 5.61 -6.90173 0.474152 0
M  V30 1330 H 4.743 -7.66642 2.79492 0
M  V30 1331 H 2.088 -5.16254 2.65229 0
M  V30 1332 H 1.808 -7.06532 0.329431 0
M  V30 1333 H 0.817 -6.91023 1.82047 0
M  V30 1334 H 2.651 -8.90873 1.62657 0
M  V30 1335 H 2.723 -6.00104 -0.892197 0
M  V30 1336 H 2.621 -4.31733 -2.69229 0
M  V30 1337 H 2.233 -0.724835 -1.8844 0
M  V30 1338 H 2.429 -1.94716 -3.16734 0
M  V30 1339 H 1.613 -8.66322 3.55694 0
M  V30 END ATOM
M  V30 BEGIN BOND
M  V30 END BOND
M  V30 END CTAB
M  END
$$$$
