drugbank_target|P06435 45 kDa immediate-early protein 2 (DB06759)
 OpenBabel12092121123D

  0  0  0     0  0            999 V3000
M  V30 BEGIN CTAB
M  V30 COUNTS 6222 6280 0 0 0
M  V30 BEGIN ATOM
M  V30 1 H -0.908 1.98254 -0.117106 0
M  V30 2 N 0 1.576 0 0
M  V30 3 C 0.933 2.03868 1.02534 0
M  V30 4 C 1.911 0.928543 1.3348 0
M  V30 5 O 3.095 1.19667 1.45644 0
M  V30 6 C 0.222 2.43627 2.35294 0
M  V30 7 C -0.732 3.65373 2.2001 0
M  V30 8 S 0.101 5.13292 1.52614 0
M  V30 9 C 1.257 5.56322 2.86805 0
M  V30 10 H 1.49 2.90518 0.631377 0
M  V30 11 H -0.977 1.52953 0.210867 0
M  V30 12 H 0.981 2.67203 3.11629 0
M  V30 13 H -0.358 1.57376 2.7183 0
M  V30 14 H -1.165 3.90944 3.18086 0
M  V30 15 H -1.563 3.418 1.51819 0
M  V30 16 H 0.729 5.58782 3.83104 0
M  V30 17 H 1.672 6.56266 2.65933 0
M  V30 18 H 2.08 4.83886 2.90714 0
M  V30 19 N 1.4781 -0.272755 1.55222 0
M  V30 20 C 2.4081 -1.34136 1.91127 0
M  V30 21 C 3.3891 -1.51513 0.773168 0
M  V30 22 O 4.5741 -1.64552 1.03132 0
M  V30 23 C 1.7041 -2.70083 2.1834 0
M  V30 24 C 0.6581 -2.67437 3.34158 0
M  V30 25 C -0.0159 -4.06938 3.46851 0
M  V30 26 C 1.2841 -2.26686 4.70543 0
M  V30 27 H 2.9781 -1.04333 2.80633 0
M  V30 28 H 0.5241 -0.500454 1.35024 0
M  V30 29 H 2.4771 -3.44952 2.42046 0
M  V30 30 H 1.2011 -3.01469 1.25634 0
M  V30 31 H -0.1399 -1.95026 3.1042 0
M  V30 32 H -0.4919 -4.35547 2.51611 0
M  V30 33 H -0.7919 -4.06062 4.2472 0
M  V30 34 H 0.7321 -4.83545 3.72849 0
M  V30 35 H 2.1461 -2.91277 4.93792 0
M  V30 36 H 0.5431 -2.36971 5.5133 0
M  V30 37 H 1.6131 -1.21818 4.69349 0
M  V30 38 N 2.9562 -1.48159 -0.537278 0
M  V30 39 C 4.3672 -1.49429 -1.11928 0
M  V30 40 C 4.7182 -0.26 -1.9447 0
M  V30 41 O 3.8432 0.633489 -2.0692 0
M  V30 42 C 4.4382 -2.70758 -2.03656 0
M  V30 43 C 2.9972 -2.74923 -2.57088 0
M  V30 44 C 2.1442 -2.42835 -1.3389 0
M  V30 45 H 5.0952 -1.55381 -0.322886 0
M  V30 46 H 5.1162 -2.48861 -2.87834 0
M  V30 47 H 4.6282 -3.60575 -1.43553 0
M  V30 48 H 2.7292 -1.89296 -3.20933 0
M  V30 49 H 2.8422 -3.76157 -2.9672 0
M  V30 50 H 1.2062 -1.93836 -1.65226 0
M  V30 51 H 1.9892 -3.34884 -0.755504 0
M  V30 52 N 4.4343 0.785586 -1.36625 0
M  V30 53 C 5.3643 1.91259 -1.33949 0
M  V30 54 C 6.3453 1.68795 -0.210325 0
M  V30 55 O 7.5303 1.89854 -0.408561 0
M  V30 56 C 4.6603 3.28339 -1.13186 0
M  V30 57 C 3.6143 3.65335 -2.22967 0
M  V30 58 C 2.9403 5.00806 -1.87342 0
M  V30 59 C 4.2403 3.7352 -3.65075 0
M  V30 60 H 5.9343 1.93755 -2.28253 0
M  V30 61 H 3.4803 0.930788 -1.09874 0
M  V30 62 H 5.4333 4.06804 -1.09948 0
M  V30 63 H 4.1573 3.2624 -0.153332 0
M  V30 64 H 2.8163 2.89169 -2.25337 0
M  V30 65 H 2.4643 4.95233 -0.880545 0
M  V30 66 H 2.1643 5.26529 -2.60846 0
M  V30 67 H 3.6883 5.81687 -1.85667 0
M  V30 68 H 5.1023 4.42168 -3.64911 0
M  V30 69 H 3.4993 4.10731 -4.37516 0
M  V30 70 H 4.5693 2.74527 -3.99703 0
M  V30 71 N 5.9124 1.20967 1.01018 0
M  V30 72 C 7.1614 1.01796 1.74128 0
M  V30 73 C 7.4744 -0.449691 1.90361 0
M  V30 74 O 8.6804 -0.76068 2.60626 0
M  V30 75 C 7.1364 1.7727 3.13215 0
M  V30 76 C 6.7444 3.28171 3.04972 0
M  V30 77 C 8.4884 1.66489 3.90489 0
M  V30 78 C 6.3954 3.96156 4.39107 0
M  V30 79 H 5.3254 0.377276 0.652824 0
M  V30 80 H 7.9764 1.44651 1.12909 0
M  V30 81 H 6.3584 1.27205 3.75013 0
M  V30 82 H 7.5324 3.85499 2.52443 0
M  V30 83 H 5.8474 3.39437 2.41188 0
M  V30 84 H 8.4444 2.14617 4.89738 0
M  V30 85 H 8.7874 0.6222 4.11624 0
M  V30 86 H 9.3204 2.14003 3.35332 0
M  V30 87 H 6.0594 5.00604 4.23174 0
M  V30 88 H 5.5794 3.43617 4.91617 0
M  V30 89 H 7.2584 4.00774 5.07926 0
M  V30 90 N 7.3905 -1.2043 1.01659 0
M  V30 91 C 8.3375 -2.23215 0.586822 0
M  V30 92 C 9.3075 -1.61382 -0.393085 0
M  V30 93 O 10.4925 -1.88544 -0.292525 0
M  V30 94 C 7.6325 -3.45032 -0.0687464 0
M  V30 95 C 6.7455 -4.21296 0.955724 0
M  V30 96 C 5.8805 -5.30507 0.271208 0
M  V30 97 C 4.9195 -5.98515 1.28244 0
M  V30 98 N 4.0565 -6.99316 0.62459 0
M  V30 99 H 8.8965 -2.59336 1.46796 0
M  V30 100 H 6.4335 -1.27431 0.734836 0
M  V30 101 H 8.3915 -4.1459 -0.465965 0
M  V30 102 H 7.0215 -3.09604 -0.913529 0
M  V30 103 H 6.0735 -3.50803 1.4711 0
M  V30 104 H 7.3855 -4.6803 1.72479 0
M  V30 105 H 6.5395 -6.06428 -0.18151 0
M  V30 106 H 5.2785 -4.8481 -0.530163 0
M  V30 107 H 4.2835 -5.21355 1.74554 0
M  V30 108 H 5.5085 -6.46298 2.08509 0
M  V30 109 H 3.4545 -6.55812 -0.156914 0
M  V30 110 H 3.3715 -7.44178 1.33172 0
M  V30 111 H 4.6395 -7.79255 0.195462 0
M  V30 112 N 8.8686 -0.792821 -1.36206 0
M  V30 113 C 9.8006 -0.151469 -2.28699 0
M  V30 114 C 10.8136 0.641262 -1.49638 0
M  V30 115 O 12.0026 0.475885 -1.72039 0
M  V30 116 C 9.1026 0.808424 -3.29117 0
M  V30 117 C 8.2756 0.0650202 -4.37352 0
M  V30 118 C 7.3346 0.941358 -5.17711 0
M  V30 119 O 6.3606 0.397352 -5.67811 0
M  V30 120 N 7.5626 2.2652 -5.3448 0
M  V30 121 H 10.3276 -0.945982 -2.84379 0
M  V30 122 H 7.8886 -0.647032 -1.48409 0
M  V30 123 H 9.8806 1.3986 -3.79765 0
M  V30 124 H 8.4506 1.5038 -2.74052 0
M  V30 125 H 7.6706 -0.706255 -3.87822 0
M  V30 126 H 8.9586 -0.447847 -5.06825 0
M  V30 127 H 8.3566 2.73128 -4.95396 0
M  V30 128 H 6.9136 2.80493 -5.88359 0
M  V30 129 N 10.3467 1.47872 -0.545128 0
M  V30 130 C 11.2567 2.33633 0.212746 0
M  V30 131 C 12.2727 1.4744 0.923983 0
M  V30 132 O 13.4487 1.80393 0.895572 0
M  V30 133 C 10.5137 3.23884 1.23693 0
M  V30 134 C 9.5747 4.25961 0.534417 0
M  V30 135 C 8.8077 5.11899 1.5098 0
M  V30 136 O 9.0307 5.00077 2.7437 0
M  V30 137 O 7.9647 5.92831 1.0409 0
M  V30 138 H 11.7907 2.99714 -0.490416 0
M  V30 139 H 9.3757 1.46235 -0.305871 0
M  V30 140 H 11.2577 3.79666 1.82843 0
M  V30 141 H 9.9327 2.60446 1.92222 0
M  V30 142 H 8.8397 3.73972 -0.0979679 0
M  V30 143 H 10.1727 4.92079 -0.109213 0
M  V30 144 N 11.8248 0.280983 1.55075 0
M  V30 145 C 13.1018 -0.386207 1.91749 0
M  V30 146 C 13.4818 -1.73264 1.20594 0
M  V30 147 O 12.8298 -2.26034 0.334784 0
M  V30 148 C 13.0398 -0.520687 3.45094 0
M  V30 149 C 14.3878 -0.800865 4.16979 0
M  V30 150 O 15.4118 -0.605271 3.5102 0
M  V30 151 O 14.2708 -1.1753 5.33712 0
M  V30 152 H 11.3648 -0.212408 0.799257 0
M  V30 153 H 13.9108 0.327568 1.66509 0
M  V30 154 H 12.6828 0.426633 3.88967 0
M  V30 155 H 12.3058 -1.2837 3.76307 0
M  V30 156 N 13.3029 -1.57598 0.00835791 0
M  V30 157 C 14.5519 -1.90107 -0.673968 0
M  V30 158 C 14.8649 -0.884275 -1.7447 0
M  V30 159 O 16.0709 -1.09987 -2.48224 0
M  V30 160 C 14.5269 -3.37497 -1.24995 0
M  V30 161 C 14.1349 -4.47491 -0.2136 0
M  V30 162 C 15.8789 -3.79104 -1.90999 0
M  V30 163 C 13.7859 -5.85963 -0.80005 0
M  V30 164 H 12.7159 -0.709393 -0.255495 0
M  V30 165 H 15.3669 -1.83365 0.0702693 0
M  V30 166 H 13.7489 -3.39102 -2.04513 0
M  V30 167 H 14.9229 -4.57414 0.557596 0
M  V30 168 H 13.2379 -4.14956 0.346474 0
M  V30 169 H 15.8349 -4.79901 -2.35795 0
M  V30 170 H 16.1779 -3.1306 -2.74407 0
M  V30 171 H 16.7109 -3.79833 -1.18203 0
M  V30 172 H 13.4499 -6.555 -0.00456708 0
M  V30 173 H 12.9699 -5.79687 -1.54021 0
M  V30 174 H 14.6489 -6.33884 -1.29615 0
M  V30 175 N 14.781 0.264519 -1.55364 0
M  V30 176 C 15.728 1.32717 -1.88825 0
M  V30 177 C 16.698 1.48675 -0.740605 0
M  V30 178 O 17.883 1.62945 -0.992657 0
M  V30 179 C 15.023 2.68089 -2.17307 0
M  V30 180 C 14.136 2.60284 -3.44785 0
M  V30 181 C 13.271 3.87892 -3.62924 0
M  V30 182 C 12.31 3.74631 -4.84064 0
M  V30 183 N 11.447 4.94092 -4.98816 0
M  V30 184 H 16.287 1.03481 -2.79456 0
M  V30 185 H 13.824 0.499757 -1.3835 0
M  V30 186 H 15.782 3.46864 -2.31821 0
M  V30 187 H 14.412 2.95509 -1.299 0
M  V30 188 H 13.464 1.73173 -3.38697 0
M  V30 189 H 14.776 2.46388 -4.33698 0
M  V30 190 H 13.93 4.75109 -3.77302 0
M  V30 191 H 12.669 4.04664 -2.7221 0
M  V30 192 H 11.674 2.85797 -4.69681 0
M  V30 193 H 12.899 3.5937 -5.76221 0
M  V30 194 H 10.845 5.11259 -4.11036 0
M  V30 195 H 10.762 4.8276 -5.81789 0
M  V30 196 H 12.03 5.82857 -5.17588 0
M  V30 197 N 16.2591 1.48442 0.529413 0
M  V30 198 C 17.6701 1.5002 1.11134 0
M  V30 199 C 18.0211 0.27031 1.94329 0
M  V30 200 O 17.1461 -0.622507 2.07253 0
M  V30 201 C 17.7411 2.71834 2.02217 0
M  V30 202 C 16.3001 2.76283 2.55627 0
M  V30 203 C 15.4471 2.43542 1.326 0
M  V30 204 H 18.3981 1.5555 0.314641 0
M  V30 205 H 18.4191 2.50384 2.8651 0
M  V30 206 H 17.9311 3.61331 1.41639 0
M  V30 207 H 16.0321 1.90995 3.19924 0
M  V30 208 H 16.1451 3.77725 2.94721 0
M  V30 209 H 14.5091 1.94709 1.64196 0
M  V30 210 H 15.2921 3.3528 0.737734 0
M  V30 211 N 17.7372 -0.778329 1.37039 0
M  V30 212 C 18.6472 -1.92253 1.34446 0
M  V30 213 C 19.6632 -1.72267 0.244991 0
M  V30 214 O 20.8392 -1.95615 0.479258 0
M  V30 215 C 17.9042 -3.27282 1.144 0
M  V30 216 C 16.9652 -3.59969 2.33925 0
M  V30 217 C 16.1982 -4.88555 2.14825 0
M  V30 218 O 16.4212 -5.59113 1.12912 0
M  V30 219 O 15.3552 -5.20153 3.02861 0
M  V30 220 H 19.1812 -1.97392 2.30803 0
M  V30 221 H 16.7662 -0.920154 1.17701 0
M  V30 222 H 18.6482 -4.08062 1.05182 0
M  V30 223 H 17.3232 -3.23011 0.211124 0
M  V30 224 H 16.2302 -2.7945 2.48714 0
M  V30 225 H 17.5632 -3.68976 3.25757 0
M  V30 226 N 19.2153 -1.21501 -1.00376 0
M  V30 227 C 20.6263 -1.03146 -1.55621 0
M  V30 228 C 20.9773 0.408375 -1.91903 0
M  V30 229 O 20.1023 1.29177 -1.73616 0
M  V30 230 C 20.6973 -1.86612 -2.82775 0
M  V30 231 C 19.2563 -1.72586 -3.34501 0
M  V30 232 C 18.4033 -1.83747 -2.07683 0
M  V30 233 H 21.3543 -1.35505 -0.826081 0
M  V30 234 H 21.3753 -1.3771 -3.54706 0
M  V30 235 H 20.8873 -2.91399 -2.56336 0
M  V30 236 H 18.9883 -0.704877 -3.65872 0
M  V30 237 H 19.1013 -2.54623 -4.05837 0
M  V30 238 H 17.4653 -1.27069 -2.20739 0
M  V30 239 H 18.2483 -2.90044 -1.83655 0
M  V30 240 N 20.6934 1.19889 -1.02296 0
M  V30 241 C 21.9704 1.85148 -0.630832 0
M  V30 242 C 22.3504 1.91385 0.890782 0
M  V30 243 O 21.6984 1.42642 1.78509 0
M  V30 244 C 21.9084 3.24442 -1.28602 0
M  V30 245 C 23.2564 4.00663 -1.4055 0
M  V30 246 O 24.2804 3.33818 -1.24273 0
M  V30 247 O 23.1394 5.20387 -1.66913 0
M  V30 248 H 20.2334 0.797613 -0.218499 0
M  V30 249 H 22.7794 1.27427 -1.12074 0
M  V30 250 H 21.5514 3.14704 -2.32545 0
M  V30 251 H 21.1744 3.89802 -0.7836 0
M  V30 252 N 22.1715 0.800033 1.35784 0
M  V30 253 C 23.4185 0.377342 1.98953 0
M  V30 254 C 23.7465 -1.05378 1.6348 0
M  V30 255 O 23.0015 -1.74459 0.886707 0
M  V30 256 C 23.3005 0.500276 3.53881 0
M  V30 257 C 22.9665 1.89375 4.09204 0
M  V30 258 C 21.6285 2.27499 4.24025 0
M  V30 259 C 23.9805 2.8057 4.39238 0
M  V30 260 C 21.3085 3.562 4.66195 0
M  V30 261 C 23.6605 4.0871 4.82844 0
M  V30 262 C 22.3245 4.46843 4.95871 0
M  V30 263 H 21.5945 0.138079 0.728021 0
M  V30 264 H 24.2415 1.01955 1.62103 0
M  V30 265 H 22.5465 -0.225405 3.91151 0
M  V30 266 H 24.2435 0.154097 4.00704 0
M  V30 267 H 20.8335 1.58753 3.98115 0
M  V30 268 H 25.0175 2.52367 4.27346 0
M  V30 269 H 20.2735 3.85602 4.74469 0
M  V30 270 H 24.4475 4.79481 5.05046 0
M  V30 271 H 22.0745 5.46623 5.28306 0
M  V30 272 N 23.6496 -1.47581 0.552962 0
M  V30 273 C 24.8776 -2.06875 0.0320556 0
M  V30 274 C 25.2926 -1.40625 -1.25976 0
M  V30 275 O 24.6496 -0.501349 -1.75479 0
M  V30 276 C 24.7006 -3.61092 -0.17167 0
M  V30 277 O 24.4216 -4.24858 1.06899 0
M  V30 278 C 25.9226 -4.37242 -0.730344 0
M  V30 279 H 23.1426 -0.669561 0.043915 0
M  V30 280 H 25.6866 -1.89646 0.765163 0
M  V30 281 H 23.8416 -3.7785 -0.854894 0
M  V30 282 H 24.2556 -5.17334 0.864059 0
M  V30 283 H 25.7296 -5.45842 -0.822203 0
M  V30 284 H 26.2066 -4.03235 -1.74064 0
M  V30 285 H 26.8126 -4.25219 -0.0829543 0
M  V30 286 N 25.1277 -0.289203 -1.54924 0
M  V30 287 C 26.3767 0.324231 -1.99077 0
M  V30 288 C 26.6897 1.5591 -1.18117 0
M  V30 289 O 27.8957 2.24637 -1.52481 0
M  V30 290 C 26.3517 0.628209 -3.54375 0
M  V30 291 C 25.9597 -0.587647 -4.44129 0
M  V30 292 C 27.7037 1.20349 -4.07083 0
M  V30 293 C 25.6107 -0.257475 -5.90839 0
M  V30 294 H 24.5407 0.124924 -0.743579 0
M  V30 295 H 27.1917 -0.396063 -1.79175 0
M  V30 296 H 25.5737 1.40778 -3.70132 0
M  V30 297 H 26.7477 -1.36418 -4.40144 0
M  V30 298 H 25.0627 -1.08074 -4.0213 0
M  V30 299 H 27.6597 1.46456 -5.14252 0
M  V30 300 H 28.0027 2.14195 -3.56968 0
M  V30 301 H 28.5357 0.485889 -3.94821 0
M  V30 302 H 25.2747 -1.16419 -6.45079 0
M  V30 303 H 24.7947 0.482018 -5.9786 0
M  V30 304 H 26.4737 0.145238 -6.46837 0
M  V30 305 N 26.6058 1.57591 -0.0167156 0
M  V30 306 C 27.5378 2.06343 0.997753 0
M  V30 307 C 28.5508 0.984469 1.29661 0
M  V30 308 O 29.7398 1.26093 1.26344 0
M  V30 309 C 26.8398 2.46255 2.32834 0
M  V30 310 C 26.0128 3.77083 2.21646 0
M  V30 311 C 25.0718 4.0368 3.37534 0
M  V30 312 O 24.0978 4.7411 3.14973 0
M  V30 313 N 25.2998 3.52881 4.60929 0
M  V30 314 H 28.0648 2.93997 0.581875 0
M  V30 315 H 25.6258 1.61002 0.170316 0
M  V30 316 H 27.6178 2.61149 3.09166 0
M  V30 317 H 26.1878 1.64032 2.66106 0
M  V30 318 H 25.4078 3.72106 1.30119 0
M  V30 319 H 26.6958 4.62822 2.11361 0
M  V30 320 H 26.0938 2.95878 4.82154 0
M  V30 321 H 24.6508 3.73076 5.34469 0
M  V30 322 N 28.0839 -0.256276 1.55502 0
M  V30 323 C 29.3139 -1.00196 1.80677 0
M  V30 324 C 29.7219 -1.79805 0.588797 0
M  V30 325 O 29.0649 -1.78055 -0.451883 0
M  V30 326 C 29.1269 -1.99515 2.99055 0
M  V30 327 C 28.7909 -1.38688 4.35448 0
M  V30 328 C 29.7879 -0.794079 5.138 0
M  V30 329 C 27.4729 -1.40906 4.82132 0
M  V30 330 C 29.4669 -0.231562 6.36979 0
M  V30 331 C 27.1539 -0.842684 6.05262 0
M  V30 332 C 28.1519 -0.254953 6.82524 0
M  V30 333 O 27.8399 0.3027 8.0333 0
M  V30 334 H 27.5719 -0.300919 0.60533 0
M  V30 335 H 30.1259 -0.287307 2.03381 0
M  V30 336 H 28.3559 -2.74785 2.72084 0
M  V30 337 H 30.0449 -2.60349 3.11405 0
M  V30 338 H 30.8109 -0.769519 4.78856 0
M  V30 339 H 26.6899 -1.85591 4.21992 0
M  V30 340 H 30.2339 0.227816 6.97228 0
M  V30 341 H 26.1309 -0.86454 6.39684 0
M  V30 342 H 26.8989 0.193662 8.18271 0
M  V30 343 N 29.562 -1.4872 -0.521534 0
M  V30 344 C 30.978 -1.35028 -0.850855 0
M  V30 345 C 31.178 -0.367712 -1.98116 0
M  V30 346 O 30.234 0.208037 -2.51642 0
M  V30 347 C 31.547 -2.75263 -1.21041 0
M  V30 348 C 33.095 -2.83813 -1.31981 0
M  V30 349 C 33.57 -4.24769 -1.71276 0
M  V30 350 N 35.061 -4.27482 -1.78363 0
M  V30 351 C 35.796 -5.33494 -2.1017 0
M  V30 352 N 35.292 -6.49775 -2.40343 0
M  V30 353 N 37.085 -5.20894 -2.11248 0
M  V30 354 H 29.236 -2.11214 0.22413 0
M  V30 355 H 31.499 -0.947252 0.0376439 0
M  V30 356 H 31.205 -3.48765 -0.453415 0
M  V30 357 H 31.079 -3.09327 -2.15863 0
M  V30 358 H 33.466 -2.10561 -2.06756 0
M  V30 359 H 33.547 -2.53358 -0.352596 0
M  V30 360 H 33.191 -4.9854 -0.970588 0
M  V30 361 H 33.121 -4.52673 -2.69062 0
M  V30 362 H 35.612 -3.43611 -1.57288 0
M  V30 363 H 35.925 -7.26402 -2.63743 0
M  V30 364 H 34.27 -6.53035 -2.37844 0
M  V30 365 H 37.461 -4.29065 -1.87139 0
M  V30 366 H 37.634 -6.03612 -2.35704 0
M  V30 367 N 31.0401 0.771051 -1.3745 0
M  V30 368 C 31.9881 1.90574 -1.33358 0
M  V30 369 C 32.9821 1.67936 -0.22224 0
M  V30 370 O 34.1881 1.75717 -0.390304 0
M  V30 371 H 30.5631 0.626714 -0.415612 0
M  V30 372 H 32.5341 1.91142 -2.29144 0
M  V30 373 C 31.2831 3.27845 -1.15813 0
M  V30 374 H 30.6061 3.45842 -2.00583 0
M  V30 375 H 32.0461 4.07538 -1.17 0
M  V30 376 C 30.5051 3.36625 0.136165 0
M  V30 377 O 31.0351 3.85785 1.11949 0
M  V30 378 N 29.2411 2.89997 0.187099 0
M  V30 379 H 28.7881 2.50182 -0.613753 0
M  V30 380 H 28.7461 2.96252 1.05272 0
M  V30 381 N 32.5182 1.22032 0.997298 0
M  V30 382 C 33.4652 0.986467 2.08656 0
M  V30 383 C 34.4352 -0.0902671 1.65855 0
M  V30 384 O 35.6202 0.0584294 1.90711 0
M  V30 385 C 32.7602 0.565569 3.40434 0
M  V30 386 C 31.8732 1.71259 3.96604 0
M  V30 387 C 31.0082 1.24011 5.16522 0
M  V30 388 C 30.0472 2.35896 5.64818 0
M  V30 389 N 29.1842 1.89726 6.7598 0
M  V30 390 H 34.0242 1.91892 2.27994 0
M  V30 391 H 31.5612 0.956199 1.11782 0
M  V30 392 H 33.5192 0.302738 4.161 0
M  V30 393 H 32.1492 -0.329879 3.2111 0
M  V30 394 H 31.2012 2.08986 3.17851 0
M  V30 395 H 32.5132 2.55436 4.28432 0
M  V30 396 H 31.6672 0.934395 5.99461 0
M  V30 397 H 30.4062 0.368487 4.86306 0
M  V30 398 H 29.4112 2.67261 4.8047 0
M  V30 399 H 30.6362 3.23567 5.97061 0
M  V30 400 H 28.5822 1.0492 6.47555 0
M  V30 401 H 28.4992 2.67471 7.07103 0
M  V30 402 H 29.7672 1.62211 7.62435 0
M  V30 403 N 33.9963 -1.19345 1.0293 0
M  V30 404 C 35.2453 -1.88363 0.721256 0
M  V30 405 C 35.5583 -1.80514 -0.753254 0
M  V30 406 O 36.7643 -2.44788 -1.17436 0
M  V30 407 C 35.2203 -3.37872 1.23978 0
M  V30 408 C 34.8283 -3.54278 2.74211 0
M  V30 409 C 36.5723 -4.12365 1.00775 0
M  V30 410 C 34.4793 -4.97682 3.19479 0
M  V30 411 H 33.4093 -0.705484 0.266098 0
M  V30 412 H 36.0603 -1.34928 1.24365 0
M  V30 413 H 34.4423 -3.90707 0.6453 0
M  V30 414 H 35.6163 -3.11769 3.39318 0
M  V30 415 H 33.9313 -2.93174 2.95699 0
M  V30 416 H 36.5283 -5.18119 1.32123 0
M  V30 417 H 36.8713 -4.16263 -0.0554308 0
M  V30 418 H 37.4043 -3.65668 1.56625 0
M  V30 419 H 34.1433 -4.98945 4.25128 0
M  V30 420 H 33.6633 -5.4095 2.591 0
M  V30 421 H 35.3423 -5.66337 3.12845 0
M  V30 422 N 35.4744 -0.807222 -1.35358 0
M  V30 423 C 36.7234 -0.384376 -1.98004 0
M  V30 424 C 37.0364 1.0543 -1.64754 0
M  V30 425 O 38.2424 1.58029 -2.20769 0
M  V30 426 C 36.6984 -0.636326 -3.5423 0
M  V30 427 C 36.3064 -2.08759 -3.96388 0
M  V30 428 C 38.0504 -0.278869 -4.23583 0
M  V30 429 C 35.9574 -2.28525 -5.45463 0
M  V30 430 H 34.8874 -0.139986 -0.740891 0
M  V30 431 H 37.5384 -0.991369 -1.54415 0
M  V30 432 H 35.9204 0.0406256 -3.95979 0
M  V30 433 H 37.0944 -2.8024 -3.6579 0
M  V30 434 H 35.4094 -2.40497 -3.39926 0
M  V30 435 H 38.0064 -0.404599 -5.33167 0
M  V30 436 H 38.3494 0.775012 -4.09022 0
M  V30 437 H 38.8824 -0.909764 -3.87257 0
M  V30 438 H 35.6214 -3.32361 -5.64992 0
M  V30 439 H 35.1414 -1.61569 -5.77629 0
M  V30 440 H 36.8204 -2.10109 -6.11934 0
M  V30 441 N 36.9525 1.47285 -0.560781 0
M  V30 442 C 38.2295 1.9558 0.0277798 0
M  V30 443 C 38.6095 1.5034 1.48192 0
M  V30 444 O 37.9575 0.743882 2.16052 0
M  V30 445 C 38.1675 3.48789 -0.121418 0
M  V30 446 C 39.5155 4.24594 0.0220912 0
M  V30 447 O 40.5395 3.56166 -0.0491439 0
M  V30 448 O 39.3985 5.46217 0.175958 0
M  V30 449 H 36.4925 0.824663 0.0621342 0
M  V30 450 H 39.0385 1.5767 -0.627556 0
M  V30 451 H 37.8105 3.74533 -1.13316 0
M  V30 452 H 37.4335 3.93473 0.571366 0
M  V30 453 N 38.4306 0.297415 1.54768 0
M  V30 454 C 39.6586 -0.315623 2.04478 0
M  V30 455 C 40.0736 -1.47792 1.17486 0
M  V30 456 O 39.4306 -1.81404 0.19971 0
M  V30 457 C 39.4816 -0.7753 3.53088 0
M  V30 458 O 39.2026 0.340732 4.36773 0
M  V30 459 C 40.7036 -1.45386 4.18781 0
M  V30 460 H 37.9236 -0.0690887 0.667434 0
M  V30 461 H 40.4676 0.436003 1.99798 0
M  V30 462 H 38.6226 -1.47696 3.58141 0
M  V30 463 H 39.0366 -0.0165035 5.24497 0
M  V30 464 H 40.5106 -1.72669 5.24299 0
M  V30 465 H 40.9876 -2.39275 3.68299 0
M  V30 466 H 41.5936 -0.795475 4.17795 0
M  V30 467 N 39.9087 -1.5758 0.0250728 0
M  V30 468 C 40.8717 -2.08896 -0.943139 0
M  V30 469 C 41.8717 -1.00321 -1.25668 0
M  V30 470 O 43.0617 -1.26495 -1.19769 0
M  V30 471 C 40.1937 -2.55143 -2.26086 0
M  V30 472 H 41.3867 -2.95723 -0.498775 0
M  V30 473 H 38.9397 -1.54703 -0.222888 0
M  V30 474 H 39.6747 -1.71633 -2.75159 0
M  V30 475 H 39.4597 -3.34461 -2.04641 0
M  V30 476 H 40.9497 -2.95083 -2.95492 0
M  V30 477 N 41.3868 0.248026 -1.55636 0
M  V30 478 C 42.6348 0.974295 -1.77065 0
M  V30 479 C 42.9558 1.85897 -0.588849 0
M  V30 480 O 42.2258 1.91868 0.395407 0
M  V30 481 H 40.8058 0.362733 -0.653019 0
M  V30 482 H 43.4678 0.266244 -1.93073 0
M  V30 483 H 42.5638 1.59667 -2.68166 0
M  V30 484 N 42.8649 1.48995 0.513639 0
M  V30 485 C 44.1049 1.59452 1.27885 0
M  V30 486 C 44.4689 0.269479 1.90099 0
M  V30 487 O 45.6699 0.249139 2.67643 0
M  V30 488 C 43.9409 2.71277 2.32688 0
M  V30 489 S 45.4999 3.01604 3.18717 0
M  V30 490 H 42.3179 0.562565 0.434789 0
M  V30 491 H 44.9199 1.86595 0.583301 0
M  V30 492 H 43.6239 3.66089 1.8549 0
M  V30 493 H 43.1549 2.46086 3.06929 0
M  V30 494 H 45.1699 2.42155 4.331 0
M  V30 495 N 44.343 -0.763751 1.37857 0
M  V30 496 C 45.592 -1.51789 1.32827 0
M  V30 497 C 45.905 -1.95426 -0.0823719 0
M  V30 498 O 47.111 -2.70298 -0.255172 0
M  V30 499 C 45.567 -2.74133 2.33193 0
M  V30 500 C 45.175 -2.37562 3.79827 0
M  V30 501 C 46.919 -3.52054 2.37188 0
M  V30 502 C 44.826 -3.56456 4.71904 0
M  V30 503 H 43.756 -0.569896 0.493695 0
M  V30 504 H 46.407 -0.835822 1.63359 0
M  V30 505 H 44.789 -3.4427 1.9569 0
M  V30 506 H 45.963 -1.75157 4.26212 0
M  V30 507 H 44.278 -1.72798 3.78853 0
M  V30 508 H 46.875 -4.40437 3.03182 0
M  V30 509 H 47.218 -3.92486 1.38782 0
M  V30 510 H 47.751 -2.88921 2.7344 0
M  V30 511 H 44.49 -3.21099 5.71468 0
M  V30 512 H 44.01 -4.17938 4.30218 0
M  V30 513 H 45.689 -4.23168 4.89426 0
M  V30 514 N 45.8211 -1.22559 -0.990812 0
M  V30 515 C 47.0671 -1.05297 -1.73322 0
M  V30 516 C 47.4001 0.410655 -1.89808 0
M  V30 517 O 46.6751 1.30439 -1.44277 0
M  V30 518 C 46.9581 -1.76713 -3.13759 0
M  V30 519 C 46.8111 -3.30684 -3.04907 0
M  V30 520 C 48.1301 -1.52121 -4.12974 0
M  V30 521 H 45.2491 -0.38392 -0.629106 0
M  V30 522 H 47.8911 -1.50926 -1.15418 0
M  V30 523 H 46.0411 -1.37924 -3.63193 0
M  V30 524 H 47.7131 -3.7893 -2.63077 0
M  V30 525 H 45.9561 -3.60253 -2.41661 0
M  V30 526 H 46.6271 -3.75833 -4.04294 0
M  V30 527 H 49.1031 -1.85819 -3.72304 0
M  V30 528 H 47.9791 -2.04582 -5.0935 0
M  V30 529 H 48.2401 -0.454257 -4.3976 0
M  V30 530 N 47.2992 1.18797 -1.03562 0
M  V30 531 C 48.5482 1.87978 -0.731235 0
M  V30 532 C 48.8612 1.80911 0.743671 0
M  V30 533 O 50.0672 2.45407 1.16137 0
M  V30 534 C 48.5232 3.3721 -1.25768 0
M  V30 535 C 48.1312 3.52818 -2.76085 0
M  V30 536 C 49.8752 4.11825 -1.0296 0
M  V30 537 C 47.7822 4.9598 -3.22114 0
M  V30 538 H 46.7122 0.704063 -0.269835 0
M  V30 539 H 49.3632 1.34266 -1.25079 0
M  V30 540 H 47.7452 3.90359 -0.666011 0
M  V30 541 H 48.9192 3.09965 -3.40966 0
M  V30 542 H 47.2342 2.91602 -2.97249 0
M  V30 543 H 49.8312 5.17411 -1.34869 0
M  V30 544 H 50.1742 4.16287 0.0333546 0
M  V30 545 H 50.7072 3.64833 -1.58562 0
M  V30 546 H 47.4462 4.96684 -4.27768 0
M  V30 547 H 46.9662 5.39569 -2.61965 0
M  V30 548 H 48.6452 5.6467 -3.15844 0
M  V30 549 N 48.7773 0.814389 1.34928 0
M  V30 550 C 50.0023 0.410097 2.03305 0
M  V30 551 C 50.4273 -0.973464 1.60951 0
M  V30 552 O 49.7853 -1.63185 0.789964 0
M  V30 553 C 49.8333 0.51049 3.56968 0
M  V30 554 O 48.9373 -0.473035 4.09678 0
M  V30 555 H 48.2783 0.170088 0.641846 0
M  V30 556 H 50.8083 1.10244 1.72358 0
M  V30 557 H 50.8183 0.383135 4.06197 0
M  V30 558 H 49.4933 1.51963 3.87144 0
M  V30 559 H 48.0703 -0.305272 3.71648 0
M  V30 560 N 50.2554 -1.46986 0.568584 0
M  V30 561 C 51.5324 -1.95592 -0.0174074 0
M  V30 562 C 51.9124 -1.51124 -1.47393 0
M  V30 563 O 51.2604 -0.755329 -2.15655 0
M  V30 564 C 51.4704 -3.48719 0.139913 0
M  V30 565 C 52.8184 -4.246 0.000426376 0
M  V30 566 O 53.8424 -3.56135 0.0680316 0
M  V30 567 O 52.7014 -5.46302 -0.146988 0
M  V30 568 H 49.7954 -0.82498 -0.0577599 0
M  V30 569 H 52.3414 -1.57335 0.635909 0
M  V30 570 H 51.1134 -3.73927 1.15301 0
M  V30 571 H 50.7364 -3.93771 -0.550491 0
M  V30 572 N 51.7335 -0.305618 -1.54608 0
M  V30 573 C 52.9585 0.307562 -2.05107 0
M  V30 574 C 53.3835 1.46385 -1.18123 0
M  V30 575 O 52.7415 1.8034 -0.186324 0
M  V30 576 C 52.7895 0.73704 -3.52987 0
M  V30 577 O 51.8935 1.84134 -3.6901 0
M  V30 578 H 51.2345 0.0589143 -0.661381 0
M  V30 579 H 53.7645 -0.448807 -1.99617 0
M  V30 580 H 53.7745 1.02459 -3.94925 0
M  V30 581 H 52.4495 -0.108773 -4.15758 0
M  V30 582 H 51.0265 1.55398 -3.38978 0
M  V30 583 N 53.2116 1.57565 -0.0334293 0
M  V30 584 C 54.1216 2.13943 0.962572 0
M  V30 585 C 55.1376 1.09276 1.35406 0
M  V30 586 O 56.3136 1.41355 1.4346 0
M  V30 587 C 53.3786 2.65887 2.22497 0
M  V30 588 C 52.4396 3.85286 1.8935 0
M  V30 589 C 51.6726 4.34743 3.09571 0
M  V30 590 O 51.8956 3.83352 4.22371 0
M  V30 591 O 50.8296 5.26538 2.91618 0
M  V30 592 H 54.6556 2.99333 0.513169 0
M  V30 593 H 52.2406 1.4822 0.18743 0
M  V30 594 H 54.1226 2.99346 2.96598 0
M  V30 595 H 52.7976 1.83578 2.6661 0
M  V30 596 H 51.7046 3.56746 1.1262 0
M  V30 597 H 53.0376 4.68771 1.5005 0
M  V30 598 N 54.6897 -0.239769 1.55765 0
M  V30 599 C 55.5997 -1.31831 1.94056 0
M  V30 600 C 56.6157 -1.52275 0.841925 0
M  V30 601 O 57.7917 -1.65759 1.14394 0
M  V30 602 C 54.8567 -2.65156 2.23368 0
M  V30 603 C 53.9177 -2.53173 3.46701 0
M  V30 604 C 53.1507 -3.8014 3.74606 0
M  V30 605 O 53.3737 -4.82343 3.04469 0
M  V30 606 O 52.3077 -3.78344 4.68123 0
M  V30 607 H 56.1337 -1.02347 2.85935 0
M  V30 608 H 53.7187 -0.441123 1.42739 0
M  V30 609 H 55.6007 -3.43929 2.43497 0
M  V30 610 H 54.2757 -2.94358 1.34666 0
M  V30 611 H 53.1827 -1.72662 3.31871 0
M  V30 612 H 54.5157 -2.28915 4.35728 0
M  V30 613 N 56.1678 -1.49265 -0.50573 0
M  V30 614 C 57.0778 -1.68312 -1.63427 0
M  V30 615 C 58.0938 -0.565682 -1.64548 0
M  V30 616 O 59.2698 -0.839801 -1.83055 0
M  V30 617 C 56.3348 -1.74107 -2.99813 0
M  V30 618 C 55.3958 -2.97653 -3.09356 0
M  V30 619 C 54.6288 -3.03163 -4.39236 0
M  V30 620 O 54.8518 -2.16396 -5.27758 0
M  V30 621 O 53.7858 -3.9558 -4.53652 0
M  V30 622 H 57.6118 -2.63907 -1.50289 0
M  V30 623 H 55.1968 -1.32951 -0.681502 0
M  V30 624 H 57.0788 -1.803 -3.80881 0
M  V30 625 H 55.7538 -0.816901 -3.13223 0
M  V30 626 H 54.6608 -2.96981 -2.27493 0
M  V30 627 H 55.9938 -3.89535 -3.00871 0
M  V30 628 N 57.6459 0.756429 -1.3826 0
M  V30 629 C 58.5779 1.87971 -1.31147 0
M  V30 630 C 59.5909 1.61248 -0.224239 0
M  V30 631 O 60.7799 1.71881 -0.481581 0
M  V30 632 C 57.8799 3.23545 -1.00857 0
M  V30 633 C 57.0529 3.77794 -2.20432 0
M  V30 634 C 56.1119 4.91877 -1.86931 0
M  V30 635 O 55.1379 5.06659 -2.59395 0
M  V30 636 N 56.3399 5.74643 -0.822568 0
M  V30 637 H 59.1049 1.94585 -2.2794 0
M  V30 638 H 56.6659 0.936234 -1.32084 0
M  V30 639 H 58.6579 3.97403 -0.765021 0
M  V30 640 H 57.2279 3.12335 -0.128687 0
M  V30 641 H 56.4479 2.95534 -2.6087 0
M  V30 642 H 57.7359 4.10771 -3.00241 0
M  V30 643 H 57.1339 5.65266 -0.221575 0
M  V30 644 H 55.6909 6.48661 -0.638899 0
M  V30 645 N 59.124 1.23083 0.984299 0
M  V30 646 C 60.372 1.05848 1.72165 0
M  V30 647 C 60.693 -0.406049 1.90726 0
M  V30 648 O 59.963 -1.29139 1.47309 0
M  V30 649 H 58.543 0.388685 0.637913 0
M  V30 650 H 61.205 1.54736 1.18503 0
M  V30 651 H 60.301 1.54327 2.71274 0
M  V30 652 N 60.6021 -1.18246 1.0419 0
M  V30 653 C 61.5121 -2.25574 0.644476 0
M  V30 654 C 62.5281 -1.70845 -0.329826 0
M  V30 655 O 63.7041 -2.00554 -0.184443 0
M  V30 656 C 60.7691 -3.46697 0.014877 0
M  V30 657 C 59.8301 -4.16554 1.03834 0
M  V30 658 C 59.0631 -5.31894 0.438692 0
M  V30 659 O 59.2861 -5.65385 -0.754752 0
M  V30 660 O 58.2201 -5.90459 1.168 0
M  V30 661 H 62.0461 -2.61836 1.53869 0
M  V30 662 H 59.6311 -1.25352 0.812854 0
M  V30 663 H 61.5131 -4.20062 -0.335538 0
M  V30 664 H 60.1881 -3.12255 -0.853138 0
M  V30 665 H 59.0951 -3.45251 1.44057 0
M  V30 666 H 60.4281 -4.54998 1.87716 0
M  V30 667 N 62.0802 -0.821533 -1.34494 0
M  V30 668 C 62.9902 -0.244355 -2.33324 0
M  V30 669 C 64.0062 0.620527 -1.62559 0
M  V30 670 O 65.1822 0.528754 -1.94335 0
M  V30 671 C 62.2472 0.585368 -3.41723 0
M  V30 672 C 61.3082 -0.301752 -4.28238 0
M  V30 673 C 60.5412 0.488466 -5.3146 0
M  V30 674 O 60.7642 1.72186 -5.4379 0
M  V30 675 O 59.6982 -0.12848 -6.01763 0
M  V30 676 H 63.5242 -1.06231 -2.84515 0
M  V30 677 H 61.1092 -0.583645 -1.37528 0
M  V30 678 H 62.9912 1.05747 -4.07916 0
M  V30 679 H 61.6662 1.38068 -2.92778 0
M  V30 680 H 60.5732 -0.821315 -3.64973 0
M  V30 681 H 61.9062 -1.06138 -4.8062 0
M  V30 682 N 63.5583 1.46682 -0.576371 0
M  V30 683 C 64.8043 2.02712 -0.0596221 0
M  V30 684 C 65.1373 1.44765 1.29448 0
M  V30 685 O 64.4123 0.610355 1.84675 0
M  V30 686 C 64.6953 3.60098 0.0129503 0
M  V30 687 C 64.5483 4.28441 -1.3696 0
M  V30 688 C 65.8673 4.34224 0.71678 0
M  V30 689 H 62.9863 0.736637 -0.0231407 0
M  V30 690 H 65.6283 1.74898 -0.742351 0
M  V30 691 H 63.7783 3.83926 0.594378 0
M  V30 692 H 65.4503 4.15896 -1.9957 0
M  V30 693 H 63.6933 3.8805 -1.93907 0
M  V30 694 H 64.3643 5.3716 -1.27135 0
M  V30 695 H 66.8403 4.15503 0.222908 0
M  V30 696 H 65.7163 5.43936 0.73657 0
M  V30 697 H 65.9773 4.04823 1.77682 0
M  V30 698 N 65.0364 0.313813 1.54444 0
M  V30 699 C 65.9464 -0.565714 2.27677 0
M  V30 700 C 66.9624 -1.13754 1.31666 0
M  V30 701 O 68.1384 -1.15959 1.64668 0
M  V30 702 C 65.2034 -1.71528 3.01296 0
M  V30 703 C 64.2644 -1.17624 4.12872 0
M  V30 704 C 63.4974 -2.27102 4.8297 0
M  V30 705 O 63.7204 -3.47256 4.52514 0
M  V30 706 O 62.6544 -1.9307 5.70094 0
M  V30 707 H 66.4804 0.0287296 3.03686 0
M  V30 708 H 64.0654 0.0798312 1.49187 0
M  V30 709 H 65.9474 -2.38476 3.4743 0
M  V30 710 H 64.6224 -2.29608 2.2817 0
M  V30 711 H 63.5294 -0.472124 3.71109 0
M  V30 712 H 64.8624 -0.640695 4.88012 0
M  V30 713 N 66.5145 -1.57545 0.0417849 0
M  V30 714 C 67.7425 -1.96624 -0.643928 0
M  V30 715 C 68.1575 -0.918897 -1.64929 0
M  V30 716 O 67.5145 0.0979323 -1.82237 0
M  V30 717 C 67.5655 -3.35781 -1.33914 0
M  V30 718 O 67.2865 -4.365 -0.374048 0
M  V30 719 C 68.7875 -3.89566 -2.1155 0
M  V30 720 H 66.0075 -0.647316 -0.176702 0
M  V30 721 H 68.5515 -2.04229 0.105304 0
M  V30 722 H 66.7065 -3.29357 -2.03968 0
M  V30 723 H 67.1205 -5.17248 -0.869179 0
M  V30 724 H 68.5945 -4.89242 -2.55628 0
M  V30 725 H 69.0715 -3.24488 -2.9598 0
M  V30 726 H 69.6775 -3.99298 -1.46427 0
M  V30 727 N 67.9926 0.231505 -1.5589 0
M  V30 728 C 69.4086 0.580748 -1.48659 0
M  V30 729 C 69.6086 1.87617 -0.73498 0
M  V30 730 O 68.6646 2.51046 -0.270586 0
M  V30 731 C 69.9776 0.669202 -2.93159 0
M  V30 732 C 71.5256 0.760499 -3.03621 0
M  V30 733 C 72.0006 0.880383 -4.49459 0
M  V30 734 N 73.4916 0.944861 -4.53461 0
M  V30 735 C 74.2266 1.05716 -5.63571 0
M  V30 736 N 73.7226 1.13403 -6.83456 0
M  V30 737 N 75.5156 1.09152 -5.514 0
M  V30 738 H 67.6666 -0.618695 -2.03189 0
M  V30 739 H 69.9296 -0.215728 -0.923128 0
M  V30 740 H 69.6356 -0.212904 -3.51055 0
M  V30 741 H 69.5096 1.5361 -3.44505 0
M  V30 742 H 71.8966 1.63305 -2.45796 0
M  V30 743 H 71.9776 -0.131864 -2.5546 0
M  V30 744 H 71.6216 0.0123284 -5.07899 0
M  V30 745 H 71.5516 1.78802 -4.95316 0
M  V30 746 H 74.0426 0.896176 -3.6712 0
M  V30 747 H 74.3556 1.21921 -7.63122 0
M  V30 748 H 72.7006 1.10333 -6.86186 0
M  V30 749 H 75.8916 1.02805 -4.56671 0
M  V30 750 H 76.0646 1.17558 -6.37247 0
M  V30 751 N 69.4707 1.49531 0.497807 0
M  V30 752 C 70.7187 1.58865 1.24926 0
M  V30 753 C 71.0397 0.278721 1.92998 0
M  V30 754 O 70.3097 -0.702144 1.82885 0
M  V30 755 H 68.8897 0.585343 0.464094 0
M  V30 756 H 71.5517 1.86174 0.57666 0
M  V30 757 H 70.6477 2.38633 2.01149 0
M  V30 758 N 70.9488 -0.749086 1.3866 0
M  V30 759 C 71.9118 -1.84457 1.36045 0
M  V30 760 C 72.9118 -1.58682 0.260122 0
M  V30 761 O 74.1018 -1.66343 0.517261 0
M  V30 762 C 71.2338 -3.22008 1.11911 0
M  V30 763 H 72.4268 -1.88182 2.33512 0
M  V30 764 H 69.9798 -0.951266 1.24019 0
M  V30 765 H 70.7148 -3.2395 0.150686 0
M  V30 766 H 70.4998 -3.42111 1.91579 0
M  V30 767 H 71.9898 -4.0208 1.12788 0
M  V30 768 N 72.4269 -1.23603 -0.977757 0
M  V30 769 C 73.6549 -1.09646 -1.75458 0
M  V30 770 C 74.0699 0.351859 -1.85492 0
M  V30 771 O 73.4269 1.24327 -1.336 0
M  V30 772 C 73.4779 -1.71895 -3.18016 0
M  V30 773 O 73.1989 -3.11063 -3.08498 0
M  V30 774 C 74.6999 -1.63415 -4.12081 0
M  V30 775 H 71.9199 -0.38359 -0.550545 0
M  V30 776 H 74.4639 -1.63507 -1.22824 0
M  V30 777 H 72.6189 -1.22061 -3.67668 0
M  V30 778 H 73.0329 -3.41305 -3.9826 0
M  V30 779 H 74.5069 -2.11669 -5.09804 0
M  V30 780 H 74.9839 -0.593462 -4.35172 0
M  V30 781 H 75.5899 -2.12628 -3.68334 0
M  V30 782 N 73.905 1.17692 -1.04816 0
M  V30 783 C 74.868 2.19787 -0.650117 0
M  V30 784 C 75.868 1.58044 0.296427 0
M  V30 785 O 77.058 1.74012 0.0808097 0
M  V30 786 C 74.19 3.40869 0.0456987 0
M  V30 787 H 75.383 2.56516 -1.5537 0
M  V30 788 H 72.936 1.31708 -0.841594 0
M  V30 789 H 73.671 3.09681 0.962726 0
M  V30 790 H 73.456 3.86928 -0.634727 0
M  V30 791 H 74.946 4.16445 0.310432 0
M  V30 792 N 75.3831 0.828654 1.34056 0
M  V30 793 C 76.6081 0.431637 2.02859 0
M  V30 794 C 77.0331 -0.956339 1.61975 0
M  V30 795 O 76.3911 -1.62338 0.807228 0
M  V30 796 C 76.4391 0.548323 3.56407 0
M  V30 797 O 75.5431 -0.429556 4.10157 0
M  V30 798 H 74.8841 0.176886 0.640006 0
M  V30 799 H 77.4141 1.12066 1.71179 0
M  V30 800 H 77.4241 0.426196 4.05768 0
M  V30 801 H 76.0991 1.5606 3.8551 0
M  V30 802 H 74.6761 -0.265836 3.71951 0
M  V30 803 N 76.8612 -1.46375 0.584142 0
M  V30 804 C 78.0862 -2.07268 0.0740405 0
M  V30 805 C 78.5112 -1.42979 -1.22223 0
M  V30 806 O 77.8692 -0.514092 -1.73859 0
M  V30 807 C 77.9172 -3.60518 -0.0767769 0
M  V30 808 O 77.0212 -3.96533 -1.13292 0
M  V30 809 H 76.3622 -0.660961 0.0634524 0
M  V30 810 H 78.8922 -1.87991 0.807492 0
M  V30 811 H 78.9022 -4.07021 -0.282489 0
M  V30 812 H 77.5772 -4.06702 0.86986 0
M  V30 813 H 76.1542 -3.61738 -0.905553 0
M  V30 814 N 78.3393 -0.321999 -1.54275 0
M  V30 815 C 79.7503 0.166384 -1.85957 0
M  V30 816 C 80.1013 1.51747 -1.24367 0
M  V30 817 O 79.2263 2.09317 -0.549124 0
M  V30 818 C 79.8213 0.308681 -3.37391 0
M  V30 819 C 78.3803 0.741286 -3.69028 0
M  V30 820 C 77.5273 -0.137937 -2.76957 0
M  V30 821 H 80.4783 -0.542335 -1.49146 0
M  V30 822 H 80.4993 1.13984 -3.63026 0
M  V30 823 H 80.0113 -0.674809 -3.82188 0
M  V30 824 H 78.1123 1.73458 -3.29762 0
M  V30 825 H 78.2253 0.546118 -4.75977 0
M  V30 826 H 76.5893 0.386251 -2.51754 0
M  V30 827 H 77.3723 -1.11816 -3.2458 0
M  V30 828 N 79.8174 1.5752 -0.0501392 0
M  V30 829 C 81.0424 1.97376 0.636997 0
M  V30 830 C 81.4674 0.927466 1.63645 0
M  V30 831 O 80.8254 -0.10941 1.8097 0
M  V30 832 C 80.8734 3.36304 1.30123 0
M  V30 833 O 79.9774 3.34156 2.41689 0
M  V30 834 H 79.3184 0.642998 0.165679 0
M  V30 835 H 81.8484 2.04258 -0.118233 0
M  V30 836 H 81.8584 3.73008 1.65315 0
M  V30 837 H 80.5334 4.11993 0.568746 0
M  V30 838 H 79.1104 3.09196 2.08451 0
M  V30 839 N 81.2955 -0.223234 1.56011 0
M  V30 840 C 82.5235 -0.964812 1.83027 0
M  V30 841 C 82.9385 -1.78013 0.62904 0
M  V30 842 O 82.2955 -1.78008 -0.402414 0
M  V30 843 C 82.3465 -1.88373 3.08542 0
M  V30 844 O 82.0675 -1.10137 4.2403 0
M  V30 845 C 83.5685 -2.73934 3.48533 0
M  V30 846 H 80.7885 -0.282842 0.608475 0
M  V30 847 H 83.3325 -0.238971 2.03099 0
M  V30 848 H 81.4875 -2.56354 2.9045 0
M  V30 849 H 81.9015 -1.72501 4.95322 0
M  V30 850 H 83.3755 -3.34117 4.39397 0
M  V30 851 H 83.8525 -3.46244 2.70207 0
M  V30 852 H 84.4585 -2.11369 3.69057 0
M  V30 853 N 82.7736 -1.49793 -0.48987 0
M  V30 854 C 84.0216 -1.59525 -1.24081 0
M  V30 855 C 84.3426 -0.288953 -1.92847 0
M  V30 856 O 83.6126 0.692436 -1.83254 0
M  V30 857 H 82.1926 -0.587796 -0.460983 0
M  V30 858 H 84.8546 -1.86477 -0.566778 0
M  V30 859 H 83.9506 -2.39696 -1.99881 0
M  V30 860 N 84.2517 0.741722 -1.39055 0
M  V30 861 C 85.4767 1.53607 -1.39354 0
M  V30 862 C 85.9017 1.88096 0.0116905 0
M  V30 863 O 85.2597 1.5143 0.996924 0
M  V30 864 C 85.3077 2.80441 -2.26682 0
M  V30 865 O 84.4117 3.76088 -1.69208 0
M  V30 866 H 83.7527 0.464142 -0.474835 0
M  V30 867 H 86.2827 0.915665 -1.82967 0
M  V30 868 H 86.2927 3.29246 -2.40959 0
M  V30 869 H 84.9677 2.5467 -3.2881 0
M  V30 870 H 83.5447 3.34833 -1.64138 0
M  V30 871 N 85.7298 1.2412 0.971189 0
M  V30 872 C 86.9778 1.07668 1.71032 0
M  V30 873 C 87.2988 -0.385797 1.91146 0
M  V30 874 O 86.5688 -1.27569 1.4867 0
M  V30 875 H 85.1488 0.395429 0.633755 0
M  V30 876 H 87.8108 1.55984 1.16855 0
M  V30 877 H 86.9068 1.57195 2.69622 0
M  V30 878 N 87.2079 -1.17134 1.05439 0
M  V30 879 C 88.4359 -1.91372 0.786414 0
M  V30 880 C 88.8509 -1.76955 -0.658202 0
M  V30 881 O 88.2079 -1.10838 -1.44987 0
M  V30 882 C 88.2589 -3.42356 1.1608 0
M  V30 883 O 87.9799 -3.56332 2.54871 0
M  V30 884 C 89.4809 -4.33663 0.919322 0
M  V30 885 H 86.7009 -0.607118 0.285743 0
M  V30 886 H 89.2449 -1.48525 1.40572 0
M  V30 887 H 87.3999 -3.82939 0.586191 0
M  V30 888 H 87.8139 -4.49896 2.69618 0
M  V30 889 H 89.2879 -5.38099 1.231 0
M  V30 890 H 89.7649 -4.38959 -0.145359 0
M  V30 891 H 90.3709 -3.98796 1.47789 0
M  V30 892 N 88.686 -0.835752 -1.33615 0
M  V30 893 C 90.097 -0.487099 -1.80234 0
M  V30 894 C 90.448 0.993627 -1.69179 0
M  V30 895 O 89.573 1.77403 -1.23924 0
M  V30 896 C 90.168 -0.877385 -3.27242 0
M  V30 897 C 88.727 -0.580915 -3.7189 0
M  V30 898 C 87.874 -1.0874 -2.5509 0
M  V30 899 H 90.825 -1.02474 -1.2118 0
M  V30 900 H 90.846 -0.186195 -3.80044 0
M  V30 901 H 90.358 -1.95512 -3.35256 0
M  V30 902 H 88.459 0.486881 -3.69405 0
M  V30 903 H 88.572 -1.13396 -4.65487 0
M  V30 904 H 86.936 -0.508392 -2.49575 0
M  V30 905 H 87.719 -2.17184 -2.65868 0
M  V30 906 N 90.1641 1.46063 -0.591896 0
M  V30 907 C 91.5801 1.57561 -0.254288 0
M  V30 908 C 91.7801 1.58565 1.24336 0
M  V30 909 O 90.8361 1.50753 2.02558 0
M  V30 910 C 92.1491 2.86549 -0.911611 0
M  V30 911 C 93.6971 3.00197 -0.886059 0
M  V30 912 C 94.1721 4.31933 -1.5231 0
M  V30 913 N 95.6631 4.38654 -1.48786 0
M  V30 914 C 96.3981 5.39222 -1.95006 0
M  V30 915 N 95.8941 6.46414 -2.49241 0
M  V30 916 N 97.6871 5.3048 -1.85868 0
M  V30 917 H 89.8381 1.43655 -1.56451 0
M  V30 918 H 92.1011 0.68583 -0.654478 0
M  V30 919 H 91.8071 2.91651 -1.96551 0
M  V30 920 H 91.6811 3.74794 -0.425368 0
M  V30 921 H 94.0681 2.9467 0.159246 0
M  V30 922 H 94.1491 2.13403 -1.41041 0
M  V30 923 H 93.7931 4.38217 -2.56765 0
M  V30 924 H 93.7231 5.17516 -0.973891 0
M  V30 925 H 96.2141 3.61793 -1.09151 0
M  V30 926 H 96.5271 7.19376 -2.82344 0
M  V30 927 H 94.8721 6.47208 -2.53272 0
M  V30 928 H 98.0631 4.45643 -1.43248 0
M  V30 929 H 98.2361 6.08711 -2.22204 0
M  V30 930 N 91.6422 0.330177 1.54103 0
M  V30 931 C 92.8882 -0.270806 2.00984 0
M  V30 932 C 93.2212 -1.51265 1.21789 0
M  V30 933 O 92.4962 -1.92142 0.301927 0
M  V30 934 C 92.7792 -0.598339 3.55094 0
M  V30 935 C 92.6322 0.654674 4.4501 0
M  V30 936 C 93.9512 -1.41334 4.16789 0
M  V30 937 H 91.0702 -0.0969531 0.730595 0
M  V30 938 H 93.7122 0.448066 1.84641 0
M  V30 939 H 91.8622 -1.21078 3.69151 0
M  V30 940 H 93.5342 1.29285 4.42813 0
M  V30 941 H 91.7772 1.28224 4.14416 0
M  V30 942 H 92.4482 0.380944 5.50684 0
M  V30 943 H 94.9242 -0.895597 4.06347 0
M  V30 944 H 93.8002 -1.61127 5.24718 0
M  V30 945 H 94.0612 -2.41146 3.70541 0
M  V30 946 N 93.1203 -1.57491 0.0584922 0
M  V30 947 C 94.3483 -1.97296 -0.623037 0
M  V30 948 C 94.7633 -0.936338 -1.63946 0
M  V30 949 O 94.1203 0.0785981 -1.82331 0
M  V30 950 C 94.1713 -3.37183 -1.30345 0
M  V30 951 O 93.8923 -4.36872 -0.32773 0
M  V30 952 C 95.3933 -3.91788 -2.07406 0
M  V30 953 H 92.6133 -0.649153 -0.169826 0
M  V30 954 H 95.1573 -2.04106 0.12696 0
M  V30 955 H 93.3123 -3.31502 -2.00463 0
M  V30 956 H 93.7263 -5.18141 -0.814269 0
M  V30 957 H 95.2003 -4.91926 -2.50425 0
M  V30 958 H 95.6773 -3.27609 -2.92521 0
M  V30 959 H 96.2833 -4.00829 -1.42184 0
M  V30 960 N 94.5984 0.214957 -1.56127 0
M  V30 961 C 95.8234 0.95924 -1.83884 0
M  V30 962 C 96.2484 1.7689 -0.639644 0
M  V30 963 O 95.6064 1.76566 0.411601 0
M  V30 964 C 95.6544 1.84723 -3.09693 0
M  V30 965 O 94.7584 2.94346 -2.8885 0
M  V30 966 H 94.0994 0.27125 -0.606069 0
M  V30 967 H 96.6294 0.226276 -2.03345 0
M  V30 968 H 96.6394 2.25576 -3.39969 0
M  V30 969 H 95.3144 1.25218 -3.96602 0
M  V30 970 H 93.8914 2.57391 -2.69823 0
M  V30 971 N 96.0765 1.50051 0.48192 0
M  V30 972 C 97.4875 1.5348 1.06305 0
M  V30 973 C 97.8385 0.331997 1.93371 0
M  V30 974 O 96.9635 -0.556256 2.09129 0
M  V30 975 C 97.5585 2.7813 1.93466 0
M  V30 976 C 96.1175 2.84275 2.46707 0
M  V30 977 C 95.2645 2.47637 1.24785 0
M  V30 978 H 98.2155 1.56472 0.264995 0
M  V30 979 H 98.2365 2.59372 2.78399 0
M  V30 980 H 97.7485 3.65654 1.30072 0
M  V30 981 H 95.8495 2.01077 3.13686 0
M  V30 982 H 95.9625 3.8691 2.82555 0
M  V30 983 H 94.3265 1.99835 1.57918 0
M  V30 984 H 95.1095 3.37457 0.630694 0
M  V30 985 N 97.5546 -0.734337 1.39446 0
M  V30 986 C 98.7826 -1.52358 1.39981 0
M  V30 987 C 99.1976 -1.88799 -0.0054975 0
M  V30 988 O 98.5546 -1.54146 -0.976998 0
M  V30 989 C 98.6056 -2.81072 2.27333 0
M  V30 990 O 98.3266 -2.46178 3.62392 0
M  V30 991 C 99.8276 -3.75096 2.36259 0
M  V30 992 H 97.0476 -0.470806 0.478103 0
M  V30 993 H 99.5916 -0.907339 1.83269 0
M  V30 994 H 97.7466 -3.39026 1.87457 0
M  V30 995 H 98.1606 -3.28866 4.08592 0
M  V30 996 H 99.6346 -4.62305 3.01626 0
M  V30 997 H 100.112 -4.16892 1.38194 0
M  V30 998 H 100.718 -3.23061 2.76608 0
M  V30 999 N 99.0327 -1.24633 -0.964593 0
M  V30 1000 C 99.9827 -1.00841 -2.04487 0
M  V30 1001 C 100.967 0.0512468 -1.60818 0
M  V30 1002 O 102.159 -0.162865 -1.76249 0
M  V30 1003 C 99.2877 -0.618474 -3.37683 0
M  V30 1004 C 98.3737 -1.71437 -3.87905 0
M  V30 1005 N 98.7647 -2.9477 -4.11029 0
M  V30 1006 C 97.0627 -1.5926 -4.16596 0
M  V30 1007 C 97.7637 -3.65834 -4.52261 0
M  V30 1008 N 96.7397 -2.9341 -4.57615 0
M  V30 1009 H 100.542 -1.94487 -2.20345 0
M  V30 1010 H 98.0557 -1.14805 -1.14863 0
M  V30 1011 H 100.053 -0.429247 -4.14684 0
M  V30 1012 H 98.7127 0.310766 -3.23209 0
M  V30 1013 H 99.7237 -3.30917 -3.9839 0
M  V30 1014 H 96.4007 -0.731606 -4.1104 0
M  V30 1015 H 97.7907 -4.71646 -4.78539 0
M  V30 1016 N 100.511 1.16574 -1.06058 0
M  V30 1017 C 101.922 1.68662 -0.800632 0
M  V30 1018 C 102.273 1.84184 0.67608 0
M  V30 1019 O 101.398 1.53568 1.52466 0
M  V30 1020 C 101.993 3.06356 -1.44676 0
M  V30 1021 C 100.552 3.55575 -1.23465 0
M  V30 1022 C 99.6988 2.31616 -1.52477 0
M  V30 1023 H 102.65 1.00969 -1.22438 0
M  V30 1024 H 102.671 3.70636 -0.860788 0
M  V30 1025 H 102.183 2.95027 -2.52152 0
M  V30 1026 H 100.284 3.72167 -0.179527 0
M  V30 1027 H 100.397 4.37812 -1.94571 0
M  V30 1028 H 98.7608 2.36512 -0.945209 0
M  V30 1029 H 99.5438 2.22887 -2.61106 0
M  V30 1030 N 101.989 0.842826 1.3317 0
M  V30 1031 C 102.919 0.294028 2.31641 0
M  V30 1032 C 103.9 -0.600401 1.59151 0
M  V30 1033 O 105.085 -0.523124 1.87022 0
M  V30 1034 C 102.215 -0.528416 3.43257 0
M  V30 1035 C 101.169 0.27056 4.27144 0
M  V30 1036 C 100.495 -0.675881 5.30411 0
M  V30 1037 C 101.795 1.48981 5.00602 0
M  V30 1038 H 103.489 1.11681 2.77791 0
M  V30 1039 H 101.035 0.538478 1.33553 0
M  V30 1040 H 102.988 -0.922674 4.11175 0
M  V30 1041 H 101.712 -1.38445 2.95805 0
M  V30 1042 H 100.371 0.646427 3.60856 0
M  V30 1043 H 100.019 -1.52842 4.79216 0
M  V30 1044 H 99.7189 -0.145374 5.8742 0
M  V30 1045 H 101.243 -1.06757 6.01195 0
M  V30 1046 H 102.657 1.16849 5.61266 0
M  V30 1047 H 101.054 1.95739 5.6728 0
M  V30 1048 H 102.124 2.25746 4.29147 0
M  V30 1049 N 103.467 -1.45747 0.599634 0
M  V30 1050 C 104.692 -2.07178 0.0960198 0
M  V30 1051 C 105.117 -1.44268 -1.207 0
M  V30 1052 O 104.475 -0.532503 -1.73303 0
M  V30 1053 C 104.523 -3.60579 -0.0385348 0
M  V30 1054 O 103.627 -3.97713 -1.0908 0
M  V30 1055 H 102.968 -0.660251 0.0704593 0
M  V30 1056 H 105.498 -1.87124 0.827385 0
M  V30 1057 H 105.508 -4.07298 -0.239304 0
M  V30 1058 H 104.183 -4.05756 0.912947 0
M  V30 1059 H 102.76 -3.62678 -0.867135 0
M  V30 1060 N 104.945 -0.338344 -1.53925 0
M  V30 1061 C 105.877 0.555117 -2.22376 0
M  V30 1062 C 106.89 1.06812 -1.22862 0
M  V30 1063 O 108.079 0.979163 -1.49247 0
M  V30 1064 C 105.179 1.77609 -2.88631 0
M  V30 1065 C 104.352 1.39927 -4.14414 0
M  V30 1066 C 103.411 2.47936 -4.64127 0
M  V30 1067 O 102.437 2.11461 -5.28463 0
M  V30 1068 N 103.639 3.79107 -4.39612 0
M  V30 1069 H 106.404 -0.0310778 -2.99684 0
M  V30 1070 H 103.965 -0.162226 -1.61085 0
M  V30 1071 H 105.957 2.49287 -3.18807 0
M  V30 1072 H 104.527 2.26978 -2.14941 0
M  V30 1073 H 103.747 0.513481 -3.90841 0
M  V30 1074 H 105.035 1.12341 -4.96243 0
M  V30 1075 H 104.433 4.11531 -3.88148 0
M  V30 1076 H 102.99 4.4697 -4.74406 0
M  V30 1077 N 106.423 1.57458 -0.0668435 0
M  V30 1078 C 107.356 2.08033 0.93795 0
M  V30 1079 C 108.334 0.984321 1.29421 0
M  V30 1080 O 109.518 1.25736 1.40437 0
M  V30 1081 C 106.645 2.53388 2.24749 0
M  V30 1082 C 105.691 3.74376 2.04315 0
M  V30 1083 S 106.524 5.19303 1.30706 0
M  V30 1084 C 107.68 5.67986 2.62951 0
M  V30 1085 H 107.913 2.92935 0.50759 0
M  V30 1086 H 105.446 1.5371 0.145804 0
M  V30 1087 H 107.404 2.8018 3.00016 0
M  V30 1088 H 106.065 1.68763 2.64911 0
M  V30 1089 H 105.258 4.04083 3.01218 0
M  V30 1090 H 104.86 3.47931 1.37186 0
M  V30 1091 H 107.152 5.74528 3.5906 0
M  V30 1092 H 108.095 6.66955 2.3786 0
M  V30 1093 H 108.503 4.95781 2.69929 0
M  V30 1094 N 107.901 -0.206675 1.56239 0
M  V30 1095 C 108.849 -1.27571 1.94495 0
M  V30 1096 C 109.843 -1.47737 0.828862 0
M  V30 1097 O 111.049 -1.48735 1.0138 0
M  V30 1098 H 107.424 -0.428029 0.6183 0
M  V30 1099 H 109.395 -0.925961 2.8367 0
M  V30 1100 C 108.144 -2.61568 2.29079 0
M  V30 1101 H 107.467 -2.46863 3.14482 0
M  V30 1102 H 108.907 -3.35144 2.5972 0
M  V30 1103 C 107.366 -3.17695 1.12123 0
M  V30 1104 O 107.896 -3.99801 0.390153 0
M  V30 1105 N 106.102 -2.76276 0.901097 0
M  V30 1106 H 105.649 -2.09613 1.49733 0
M  V30 1107 H 105.607 -3.1417 0.120319 0
M  V30 1108 N 109.379 -1.50304 -0.473955 0
M  V30 1109 C 110.329 -1.65347 -1.56985 0
M  V30 1110 C 111.313 -0.508176 -1.52664 0
M  V30 1111 O 112.505 -0.762446 -1.59737 0
M  V30 1112 C 109.634 -1.74832 -2.95447 0
M  V30 1113 C 108.72 -2.95028 -3.04662 0
M  V30 1114 N 109.111 -4.18747 -2.83698 0
M  V30 1115 C 107.409 -2.93527 -3.35795 0
M  V30 1116 C 108.11 -4.99687 -2.97805 0
M  V30 1117 N 107.086 -4.33585 -3.2788 0
M  V30 1118 H 110.888 -2.58698 -1.39472 0
M  V30 1119 H 108.402 -1.47449 -0.680629 0
M  V30 1120 H 110.399 -1.83712 -3.7424 0
M  V30 1121 H 109.059 -0.826376 -3.14008 0
M  V30 1122 H 110.07 -4.48291 -2.59337 0
M  V30 1123 H 106.747 -2.10821 -3.60362 0
M  V30 1124 H 108.137 -6.08057 -2.85861 0
M  V30 1125 N 110.857 0.726932 -1.39834 0
M  V30 1126 C 112.268 1.30558 -1.3346 0
M  V30 1127 C 112.619 1.962 -0.00273003 0
M  V30 1128 O 111.744 1.96826 0.899371 0
M  V30 1129 C 112.339 2.37404 -2.41713 0
M  V30 1130 C 110.898 2.90921 -2.38835 0
M  V30 1131 C 110.045 1.64578 -2.2318 0
M  V30 1132 H 112.996 0.523862 -1.49804 0
M  V30 1133 H 113.017 3.17984 -2.08966 0
M  V30 1134 H 112.529 1.89599 -3.38635 0
M  V30 1135 H 110.63 3.42985 -1.45575 0
M  V30 1136 H 110.743 3.43487 -3.33997 0
M  V30 1137 H 109.107 1.89219 -1.70494 0
M  V30 1138 H 109.89 1.18814 -3.22084 0
M  V30 1139 N 112.336 1.25143 0.95797 0
M  V30 1140 C 113.747 1.08851 1.51685 0
M  V30 1141 C 114.098 -0.33687 1.93286 0
M  V30 1142 O 113.223 -1.22644 1.7829 0
M  V30 1143 C 113.818 1.96978 2.75654 0
M  V30 1144 C 112.377 1.84881 3.27866 0
M  V30 1145 C 111.524 1.91329 2.0072 0
M  V30 1146 H 114.475 1.38478 0.77522 0
M  V30 1147 H 114.496 1.5078 3.4935 0
M  V30 1148 H 114.008 3.00712 2.45345 0
M  V30 1149 H 112.109 0.840182 3.63004 0
M  V30 1150 H 112.222 2.6951 3.96107 0
M  V30 1151 H 110.586 1.35174 2.15871 0
M  V30 1152 H 111.369 2.96661 1.72764 0
M  V30 1153 N 113.814 -1.1601 1.06675 0
M  V30 1154 C 114.744 -2.22688 0.702307 0
M  V30 1155 C 115.725 -1.67306 -0.307032 0
M  V30 1156 O 116.91 -1.93352 -0.181305 0
M  V30 1157 C 114.04 -3.47178 0.092038 0
M  V30 1158 C 112.994 -4.15477 1.02777 0
M  V30 1159 C 112.32 -5.33963 0.28061 0
M  V30 1160 C 113.62 -4.66019 2.35846 0
M  V30 1161 H 115.314 -2.53429 1.59419 0
M  V30 1162 H 112.86 -1.21813 0.767961 0
M  V30 1163 H 114.813 -4.21037 -0.174814 0
M  V30 1164 H 113.537 -3.15749 -0.834877 0
M  V30 1165 H 112.196 -3.43549 1.27944 0
M  V30 1166 H 111.844 -4.98788 -0.649545 0
M  V30 1167 H 111.544 -5.806 0.904258 0
M  V30 1168 H 113.068 -6.10596 0.021396 0
M  V30 1169 H 114.482 -5.3144 2.15045 0
M  V30 1170 H 112.879 -5.23293 2.93743 0
M  V30 1171 H 113.949 -3.82023 2.98641 0
M  V30 1172 N 115.292 -0.849877 -1.32721 0
M  V30 1173 C 116.703 -0.506188 -1.79707 0
M  V30 1174 C 117.054 0.975627 -1.70223 0
M  V30 1175 O 116.179 1.76078 -1.25799 0
M  V30 1176 C 116.774 -0.912044 -3.26293 0
M  V30 1177 C 115.333 -0.620326 -3.71253 0
M  V30 1178 C 114.48 -1.11439 -2.53922 0
M  V30 1179 H 117.431 -1.03754 -1.20087 0
M  V30 1180 H 117.452 -0.226493 -3.79825 0
M  V30 1181 H 116.964 -1.99057 -3.33164 0
M  V30 1182 H 115.065 0.447674 -3.69901 0
M  V30 1183 H 115.178 -1.18327 -4.64258 0
M  V30 1184 H 113.542 -0.534834 -2.49021 0
M  V30 1185 H 114.325 -2.19992 -2.6355 0
M  V30 1186 N 116.77 1.45427 -0.607355 0
M  V30 1187 C 118.047 1.9557 -0.0344566 0
M  V30 1188 C 118.427 1.54979 1.43334 0
M  V30 1189 O 117.775 0.812241 2.13576 0
M  V30 1190 C 117.985 3.48226 -0.232321 0
M  V30 1191 C 119.333 4.2445 -0.113001 0
M  V30 1192 O 120.357 3.55829 -0.162431 0
M  V30 1193 O 119.216 5.465 0.00209442 0
M  V30 1194 H 116.31 0.826222 0.0358667 0
M  V30 1195 H 118.856 1.55594 -0.6774 0
M  V30 1196 H 117.628 3.70739 -1.25174 0
M  V30 1197 H 117.251 3.95092 0.445896 0
M  V30 1198 N 118.248 0.346503 1.53744 0
M  V30 1199 C 119.659 -0.136779 1.86198 0
M  V30 1200 C 120.01 -1.49749 1.26766 0
M  V30 1201 O 119.135 -2.08417 0.582355 0
M  V30 1202 C 119.73 -0.254966 3.37839 0
M  V30 1203 C 118.289 -0.682482 3.70161 0
M  V30 1204 C 117.436 0.181981 2.76702 0
M  V30 1205 H 120.387 0.565994 1.48264 0
M  V30 1206 H 120.408 -1.08195 3.64793 0
M  V30 1207 H 119.92 0.735526 3.81066 0
M  V30 1208 H 118.021 -1.68189 3.3248 0
M  V30 1209 H 118.134 -0.470326 4.76786 0
M  V30 1210 H 116.498 -0.34615 2.52337 0
M  V30 1211 H 117.281 1.16966 3.2276 0
M  V30 1212 N 119.726 -1.57421 0.075193 0
M  V30 1213 C 120.656 -2.15942 -0.888324 0
M  V30 1214 C 121.637 -1.08737 -1.30806 0
M  V30 1215 O 122.822 -1.36787 -1.37851 0
M  V30 1216 C 119.952 -2.72379 -2.1547 0
M  V30 1217 C 118.906 -3.8478 -1.87425 0
M  V30 1218 C 118.232 -4.27834 -3.20721 0
M  V30 1219 C 119.532 -5.08869 -1.17684 0
M  V30 1220 H 121.226 -2.96705 -0.400799 0
M  V30 1221 H 118.772 -1.42723 -0.191342 0
M  V30 1222 H 120.725 -3.11965 -2.83295 0
M  V30 1223 H 119.449 -1.88841 -2.6647 0
M  V30 1224 H 118.108 -3.45703 -1.22004 0
M  V30 1225 H 117.756 -3.41214 -3.6957 0
M  V30 1226 H 117.456 -5.03605 -3.02746 0
M  V30 1227 H 118.98 -4.70039 -3.89738 0
M  V30 1228 H 120.394 -5.4575 -1.75584 0
M  V30 1229 H 118.791 -5.8994 -1.09956 0
M  V30 1230 H 119.861 -4.84648 -0.156453 0
M  V30 1231 N 121.204 0.198386 -1.56346 0
M  V30 1232 C 122.452 0.91747 -1.80075 0
M  V30 1233 C 122.773 1.83929 -0.647692 0
M  V30 1234 O 122.043 1.93029 0.334166 0
M  V30 1235 H 120.623 0.341774 -0.664228 0
M  V30 1236 H 123.285 0.204684 -1.93822 0
M  V30 1237 H 122.381 1.51055 -2.7311 0
M  V30 1238 N 122.682 1.50554 0.465978 0
M  V30 1239 C 124.098 1.38093 0.800154 0
M  V30 1240 C 124.298 0.440988 1.96615 0
M  V30 1241 O 123.354 -0.114499 2.5224 0
M  V30 1242 C 124.667 2.79565 1.10742 0
M  V30 1243 C 126.215 2.88516 1.21357 0
M  V30 1244 C 126.69 4.30833 1.55393 0
M  V30 1245 N 128.181 4.33807 1.62375 0
M  V30 1246 C 128.916 5.40927 1.90225 0
M  V30 1247 N 128.412 6.58247 2.16062 0
M  V30 1248 N 130.205 5.28376 1.9177 0
M  V30 1249 H 122.356 2.10237 -0.302366 0
M  V30 1250 H 124.619 0.945203 -0.0727746 0
M  V30 1251 H 124.325 3.50208 0.323661 0
M  V30 1252 H 124.199 3.17125 2.04234 0
M  V30 1253 H 126.586 2.1809 1.98799 0
M  V30 1254 H 126.667 2.54492 0.258321 0
M  V30 1255 H 126.311 5.01799 0.784889 0
M  V30 1256 H 126.241 4.62347 2.52076 0
M  V30 1257 H 128.732 3.49212 1.44427 0
M  V30 1258 H 129.045 7.3569 2.36601 0
M  V30 1259 H 127.39 6.61413 2.13444 0
M  V30 1260 H 130.581 4.35715 1.71085 0
M  V30 1261 H 130.754 6.11944 2.13139 0
M  V30 1262 N 124.16 -0.719506 1.40217 0
M  V30 1263 C 125.571 -1.29848 1.34151 0
M  V30 1264 C 125.922 -1.96196 0.0131349 0
M  V30 1265 O 125.047 -1.973 -0.88892 0
M  V30 1266 C 125.642 -2.36118 2.42968 0
M  V30 1267 C 124.201 -2.8965 2.40374 0
M  V30 1268 C 123.348 -1.63393 2.24049 0
M  V30 1269 H 126.299 -0.51591 1.5008 0
M  V30 1270 H 126.32 -3.16871 2.10649 0
M  V30 1271 H 125.832 -1.878 3.39636 0
M  V30 1272 H 123.933 -3.42208 1.47392 0
M  V30 1273 H 124.046 -3.4171 3.35814 0
M  V30 1274 H 122.41 -1.88312 1.71495 0
M  V30 1275 H 123.193 -1.17104 3.2271 0
M  V30 1276 N 125.638 -1.25649 -0.95132 0
M  V30 1277 C 126.915 -1.01361 -1.67288 0
M  V30 1278 C 127.295 0.459135 -2.06046 0
M  V30 1279 O 126.643 1.43723 -1.7764 0
M  V30 1280 C 126.853 -1.95256 -2.89268 0
M  V30 1281 C 128.201 -2.23289 -3.61147 0
M  V30 1282 O 129.225 -1.93041 -2.99355 0
M  V30 1283 O 128.084 -2.74741 -4.72419 0
M  V30 1284 H 125.178 -0.38464 -0.732107 0
M  V30 1285 H 127.724 -1.36817 -1.00395 0
M  V30 1286 H 126.496 -2.94685 -2.57442 0
M  V30 1287 H 126.119 -1.60218 -3.6389 0
M  V30 1288 N 127.117 1.15442 -1.07289 0
M  V30 1289 C 128.027 2.23786 -0.704057 0
M  V30 1290 C 129.043 1.7166 0.284413 0
M  V30 1291 O 130.219 2.00972 0.131205 0
M  V30 1292 C 127.284 3.46535 -0.106792 0
M  V30 1293 C 126.345 4.13654 -1.14842 0
M  V30 1294 C 125.578 5.30544 -0.57956 0
M  V30 1295 O 125.801 5.67187 0.604585 0
M  V30 1296 O 124.735 5.87154 -1.32414 0
M  V30 1297 H 128.561 2.57664 -1.60757 0
M  V30 1298 H 126.146 1.23152 -0.845803 0
M  V30 1299 H 128.028 4.20804 0.224048 0
M  V30 1300 H 126.703 3.14407 0.770049 0
M  V30 1301 H 125.61 3.4131 -1.5316 0
M  V30 1302 H 126.943 4.49861 -1.99714 0
M  V30 1303 N 128.595 0.856903 1.32268 0
M  V30 1304 C 129.872 0.382583 1.91822 0
M  V30 1305 C 130.252 -1.13407 1.78051 0
M  V30 1306 O 129.6 -1.95673 1.18001 0
M  V30 1307 C 129.81 0.849446 3.38505 0
M  V30 1308 C 131.158 0.867936 4.15634 0
M  V30 1309 O 132.182 0.794232 3.47232 0
M  V30 1310 O 131.041 0.972286 5.37781 0
M  V30 1311 H 128.135 0.112014 0.819379 0
M  V30 1312 H 130.681 0.943952 1.41024 0
M  V30 1313 H 129.453 1.89267 3.42482 0
M  V30 1314 H 129.076 0.265652 3.96712 0
M  V30 1315 N 130.073 -1.45103 0.615059 0
M  V30 1316 C 131.298 -2.07064 0.117988 0
M  V30 1317 C 131.723 -1.4554 -1.19163 0
M  V30 1318 O 131.081 -0.550855 -1.72729 0
M  V30 1319 C 131.129 -3.606 -0.000288387 0
M  V30 1320 O 130.233 -3.98847 -1.04856 0
M  V30 1321 H 129.574 -0.659467 0.0774581 0
M  V30 1322 H 132.104 -1.86236 0.847186 0
M  V30 1323 H 132.114 -4.07529 -0.196091 0
M  V30 1324 H 130.789 -4.04765 0.955932 0
M  V30 1325 H 129.366 -3.63577 -0.828619 0
M  V30 1326 N 131.551 -0.354651 -1.53558 0
M  V30 1327 C 132.776 0.242153 -2.05981 0
M  V30 1328 C 133.201 1.42553 -1.2272 0
M  V30 1329 O 132.559 1.79656 -0.243604 0
M  V30 1330 C 132.607 0.624367 -3.55154 0
M  V30 1331 O 131.711 1.72301 -3.74681 0
M  V30 1332 H 131.052 0.0378432 -0.662921 0
M  V30 1333 H 133.582 -0.512087 -1.98088 0
M  V30 1334 H 133.592 0.898433 -3.97985 0
M  V30 1335 H 132.267 -0.240989 -4.15201 0
M  V30 1336 H 130.844 1.44535 -3.4375 0
M  V30 1337 N 133.029 1.57378 -0.0835403 0
M  V30 1338 C 134.254 1.98682 0.594987 0
M  V30 1339 C 134.679 0.961969 1.61641 0
M  V30 1340 O 134.037 -0.0709989 1.81161 0
M  V30 1341 C 134.085 3.38988 1.2296 0
M  V30 1342 O 133.189 3.39208 2.34546 0
M  V30 1343 H 132.53 0.646368 0.152002 0
M  V30 1344 H 135.06 2.03961 -0.161533 0
M  V30 1345 H 135.07 3.76431 1.57366 0
M  V30 1346 H 133.745 4.13107 0.481228 0
M  V30 1347 H 132.322 3.13548 2.01846 0
M  V30 1348 N 134.507 -0.190092 1.56449 0
M  V30 1349 C 135.732 -0.929864 1.85387 0
M  V30 1350 C 136.157 -1.7585 0.667704 0
M  V30 1351 O 135.515 -1.77198 -0.383459 0
M  V30 1352 C 135.563 -1.79773 3.12593 0
M  V30 1353 O 134.667 -2.89713 2.93496 0
M  V30 1354 H 134.008 -0.261574 0.610307 0
M  V30 1355 H 136.538 -0.193896 2.03679 0
M  V30 1356 H 136.548 -2.20139 3.43515 0
M  V30 1357 H 135.223 -1.18892 3.98544 0
M  V30 1358 H 133.8 -2.53065 2.73884 0
M  V30 1359 N 135.985 -1.50799 -0.457987 0
M  V30 1360 C 137.21 -1.66496 -1.23668 0
M  V30 1361 C 137.635 -0.353288 -1.84752 0
M  V30 1362 O 136.993 0.684346 -1.67888 0
M  V30 1363 C 137.041 -2.76763 -2.3116 0
M  V30 1364 O 136.145 -2.38928 -3.36136 0
M  V30 1365 H 135.486 -0.555828 -0.363252 0
M  V30 1366 H 138.016 -1.9725 -0.543474 0
M  V30 1367 H 138.026 -3.00232 -2.76269 0
M  V30 1368 H 136.701 -3.71954 -1.86073 0
M  V30 1369 H 135.278 -2.25953 -2.96647 0
M  V30 1370 N 137.463 0.71206 -1.40597 0
M  V30 1371 C 138.688 1.50617 -1.42581 0
M  V30 1372 C 139.113 1.88079 -0.0282102 0
M  V30 1373 O 138.471 1.53511 0.964579 0
M  V30 1374 C 138.519 2.7557 -2.3258 0
M  V30 1375 O 137.623 3.72414 -1.77148 0
M  V30 1376 H 136.964 0.453966 -0.484573 0
M  V30 1377 H 139.494 0.876649 -1.84868 0
M  V30 1378 H 139.504 3.2406 -2.47889 0
M  V30 1379 H 138.179 2.47639 -3.34138 0
M  V30 1380 H 136.756 3.31276 -1.71204 0
M  V30 1381 N 138.941 1.26152 0.944643 0
M  V30 1382 C 140.166 1.14363 1.7302 0
M  V30 1383 C 140.591 -0.29772 1.85729 0
M  V30 1384 O 139.949 -1.2157 1.34501 0
M  V30 1385 C 139.997 1.81378 3.11664 0
M  V30 1386 O 139.101 1.10022 3.97453 0
M  V30 1387 H 138.442 0.398694 0.53098 0
M  V30 1388 H 140.972 1.66906 1.18337 0
M  V30 1389 H 140.982 1.88064 3.62072 0
M  V30 1390 H 139.657 2.86237 3.0173 0
M  V30 1391 H 138.234 1.11287 3.55907 0
M  V30 1392 N 140.419 -1.14872 1.07899 0
M  V30 1393 C 141.659 -1.8745 0.814965 0
M  V30 1394 C 142.023 -1.80758 -0.64733 0
M  V30 1395 O 143.224 -2.48422 -1.02664 0
M  V30 1396 C 141.495 -3.32286 1.31607 0
M  V30 1397 S 143.054 -4.22537 1.18357 0
M  V30 1398 H 139.872 -0.646833 0.295174 0
M  V30 1399 H 142.474 -1.38555 1.37923 0
M  V30 1400 H 141.178 -3.34703 2.37491 0
M  V30 1401 H 140.709 -3.86238 0.747261 0
M  V30 1402 H 142.724 -4.96044 0.124586 0
M  V30 1403 N 141.898 -0.863906 -1.31812 0
M  V30 1404 C 143.123 -0.48527 -2.01643 0
M  V30 1405 C 143.548 0.913058 -1.64453 0
M  V30 1406 O 142.906 1.6014 -0.849985 0
M  V30 1407 C 142.954 -0.642625 -3.54828 0
M  V30 1408 O 142.058 0.320659 -4.11151 0
M  V30 1409 H 141.399 -0.193793 -0.635091 0
M  V30 1410 H 143.929 -1.16565 -1.68148 0
M  V30 1411 H 143.939 -0.533628 -4.04495 0
M  V30 1412 H 142.614 -1.66227 -3.81237 0
M  V30 1413 H 141.191 0.167126 -3.72525 0
M  V30 1414 N 143.376 1.44774 -0.622745 0
M  V30 1415 C 144.601 2.06999 -0.128968 0
M  V30 1416 C 145.026 1.4617 1.1839 0
M  V30 1417 O 144.384 0.560007 1.72434 0
M  V30 1418 C 144.432 3.60595 -0.0188351 0
M  V30 1419 O 143.536 3.99398 1.02739 0
M  V30 1420 H 142.877 0.659047 -0.0809544 0
M  V30 1421 H 145.407 1.85784 -0.85705 0
M  V30 1422 H 145.417 4.07627 0.174476 0
M  V30 1423 H 144.092 4.04252 -0.977384 0
M  V30 1424 H 142.669 3.64011 0.809326 0
M  V30 1425 N 144.854 0.36279 1.53368 0
M  V30 1426 C 145.817 -0.472679 2.24273 0
M  V30 1427 C 146.817 -1.012 1.24961 0
M  V30 1428 O 148.007 -0.898194 1.49259 0
M  V30 1429 C 145.139 -1.66039 2.97731 0
M  V30 1430 H 146.332 0.14773 2.99536 0
M  V30 1431 H 143.885 0.114434 1.55881 0
M  V30 1432 H 144.62 -2.31896 2.26704 0
M  V30 1433 H 144.405 -1.28066 3.70596 0
M  V30 1434 H 145.895 -2.25252 3.51641 0
M  V30 1435 N 146.332 -1.57332 0.0918853 0
M  V30 1436 C 147.557 -1.98995 -0.584442 0
M  V30 1437 C 147.982 -0.970528 -1.61128 0
M  V30 1438 O 147.34 0.0613904 -1.81196 0
M  V30 1439 C 147.388 -3.39636 -1.21161 0
M  V30 1440 O 146.492 -3.40447 -2.32744 0
M  V30 1441 H 145.833 -0.647165 -0.148572 0
M  V30 1442 H 148.363 -2.03873 0.172347 0
M  V30 1443 H 148.373 -3.7726 -1.55367 0
M  V30 1444 H 147.048 -4.13356 -0.459313 0
M  V30 1445 H 145.625 -3.14614 -2.0018 0
M  V30 1446 N 147.81 0.181792 -1.56548 0
M  V30 1447 C 149.087 0.926765 -1.72251 0
M  V30 1448 C 149.467 2.00831 -0.650386 0
M  V30 1449 O 148.815 2.26008 0.336521 0
M  V30 1450 C 149.025 1.50106 -3.1507 0
M  V30 1451 C 150.373 1.97805 -3.75711 0
M  V30 1452 O 151.397 1.59922 -3.18282 0
M  V30 1453 O 150.256 2.67555 -4.76525 0
M  V30 1454 H 147.35 0.435506 -0.703039 0
M  V30 1455 H 149.896 0.170443 -1.68842 0
M  V30 1456 H 148.668 0.72212 -3.84579 0
M  V30 1457 H 148.291 2.32186 -3.22763 0
M  V30 1458 N 149.288 1.51039 0.449983 0
M  V30 1459 C 150.513 1.6715 1.22783 0
M  V30 1460 C 150.938 0.363081 1.84563 0
M  V30 1461 O 150.296 -0.675433 1.68249 0
M  V30 1462 C 150.344 2.77985 2.29689 0
M  V30 1463 O 149.448 2.40707 3.34864 0
M  V30 1464 H 148.789 0.557746 0.360299 0
M  V30 1465 H 151.319 1.97535 0.533005 0
M  V30 1466 H 151.329 3.01693 2.74673 0
M  V30 1467 H 150.004 3.72935 1.84098 0
M  V30 1468 H 148.581 2.27523 2.95445 0
M  V30 1469 N 150.766 -0.704594 1.40972 0
M  V30 1470 C 151.676 -1.84856 1.44448 0
M  V30 1471 C 152.692 -1.70726 0.335961 0
M  V30 1472 O 153.868 -1.92799 0.582276 0
M  V30 1473 C 150.933 -3.20758 1.31587 0
M  V30 1474 C 149.994 -3.47063 2.52677 0
M  V30 1475 C 149.227 -4.76481 2.4042 0
M  V30 1476 O 149.45 -5.52341 1.42391 0
M  V30 1477 O 148.384 -5.03367 3.30007 0
M  V30 1478 H 152.21 -1.8488 2.40942 0
M  V30 1479 H 149.795 -0.85647 1.22413 0
M  V30 1480 H 151.677 -4.01913 1.26665 0
M  V30 1481 H 150.352 -3.21438 0.382049 0
M  V30 1482 H 149.259 -2.65873 2.63177 0
M  V30 1483 H 150.592 -3.5119 3.44858 0
M  V30 1484 N 152.244 -1.26651 -0.937939 0
M  V30 1485 C 153.469 -1.15279 -1.72411 0
M  V30 1486 C 153.894 0.287866 -1.85884 0
M  V30 1487 O 153.252 1.20855 -1.35143 0
M  V30 1488 C 153.3 -1.83028 -3.10698 0
M  V30 1489 O 152.404 -1.12128 -3.96864 0
M  V30 1490 H 151.745 -0.401504 -0.528858 0
M  V30 1491 H 154.275 -1.67531 -1.1745 0
M  V30 1492 H 154.285 -1.89981 -3.6107 0
M  V30 1493 H 152.96 -2.87833 -3.00208 0
M  V30 1494 H 151.537 -1.13173 -3.55312 0
M  V30 1495 N 153.722 1.14298 -1.08507 0
M  V30 1496 C 154.632 2.23027 -0.727753 0
M  V30 1497 C 155.648 1.71952 0.26619 0
M  V30 1498 O 156.824 2.011 0.109882 0
M  V30 1499 C 153.889 3.46403 -0.143541 0
M  V30 1500 C 152.95 4.12413 -1.19223 0
M  V30 1501 C 152.183 5.29899 -0.635798 0
M  V30 1502 O 152.406 5.67796 0.544393 0
M  V30 1503 O 151.34 5.85717 -1.38634 0
M  V30 1504 H 155.166 2.55945 -1.63481 0
M  V30 1505 H 152.751 1.22248 -0.858817 0
M  V30 1506 H 154.633 4.21018 0.179404 0
M  V30 1507 H 153.308 3.15206 0.736659 0
M  V30 1508 H 152.215 3.39667 -1.56772 0
M  V30 1509 H 153.548 4.47718 -2.04474 0
M  V30 1510 N 155.201 0.870884 1.31352 0
M  V30 1511 C 156.426 0.495957 2.01383 0
M  V30 1512 C 156.851 -0.904324 1.64935 0
M  V30 1513 O 156.209 -1.59687 0.858466 0
M  V30 1514 C 156.257 0.661433 3.54482 0
M  V30 1515 O 155.361 -0.298851 4.11316 0
M  V30 1516 H 154.702 0.197158 0.634054 0
M  V30 1517 H 157.232 1.17455 1.67527 0
M  V30 1518 H 157.242 0.555072 4.04207 0
M  V30 1519 H 155.917 1.68246 3.8035 0
M  V30 1520 H 154.494 -0.147368 3.72609 0
M  V30 1521 N 156.679 -1.44442 0.630414 0
M  V30 1522 C 157.589 -2.34476 -0.0761693 0
M  V30 1523 C 158.605 -1.52576 -0.836449 0
M  V30 1524 O 159.781 -1.85307 -0.788874 0
M  V30 1525 C 156.846 -3.30545 -1.04599 0
M  V30 1526 C 155.907 -4.28352 -0.28516 0
M  V30 1527 C 155.14 -5.19831 -1.20878 0
M  V30 1528 O 155.363 -5.15223 -2.44747 0
M  V30 1529 O 154.297 -5.97892 -0.693491 0
M  V30 1530 H 158.123 -2.96345 0.664324 0
M  V30 1531 H 155.708 -1.44203 0.39061 0
M  V30 1532 H 157.59 -3.89681 -1.60396 0
M  V30 1533 H 156.265 -2.7121 -1.76711 0
M  V30 1534 H 155.172 -3.72764 0.315837 0
M  V30 1535 H 156.505 -4.90605 0.395924 0
M  V30 1536 N 158.157 -0.370918 -1.53173 0
M  V30 1537 C 159.067 0.480823 -2.2962 0
M  V30 1538 C 160.083 1.08789 -1.35798 0
M  V30 1539 O 161.259 1.09768 -1.68858 0
M  V30 1540 C 158.324 1.60227 -3.07454 0
M  V30 1541 C 157.385 1.0222 -4.16953 0
M  V30 1542 C 156.618 2.0902 -4.91066 0
M  V30 1543 O 156.841 3.30222 -4.65091 0
M  V30 1544 O 155.775 1.71778 -5.76867 0
M  V30 1545 H 159.601 -0.141421 -3.03371 0
M  V30 1546 H 157.186 -0.135146 -1.48787 0
M  V30 1547 H 159.068 2.25417 -3.56041 0
M  V30 1548 H 157.743 2.20982 -2.36535 0
M  V30 1549 H 156.65 0.334064 -3.72605 0
M  V30 1550 H 157.983 0.459131 -4.90054 0
M  V30 1551 N 159.635 1.57281 -0.100228 0
M  V30 1552 C 160.568 2.09976 0.893612 0
M  V30 1553 C 161.546 1.01155 1.27304 0
M  V30 1554 O 162.73 1.28687 1.37739 0
M  V30 1555 C 159.857 2.58098 2.19324 0
M  V30 1556 C 158.903 3.78626 1.96328 0
M  V30 1557 S 159.736 5.21959 1.19662 0
M  V30 1558 C 160.892 5.73435 2.50844 0
M  V30 1559 H 161.125 2.93946 0.44534 0
M  V30 1560 H 158.658 1.53985 0.113167 0
M  V30 1561 H 160.616 2.8648 2.94005 0
M  V30 1562 H 159.277 1.74344 2.61272 0
M  V30 1563 H 158.47 4.10382 2.92579 0
M  V30 1564 H 158.072 3.50763 1.29775 0
M  V30 1565 H 160.364 5.82015 3.46792 0
M  V30 1566 H 161.307 6.7185 2.23659 0
M  V30 1567 H 161.715 5.01395 2.59352 0
M  V30 1568 N 161.113 -0.173488 1.56642 0
M  V30 1569 C 162.06 -1.21482 1.96242 0
M  V30 1570 C 163.03 -1.44104 0.826027 0
M  V30 1571 O 164.215 -1.5688 1.08597 0
M  V30 1572 C 161.355 -2.54964 2.32567 0
M  V30 1573 C 160.468 -2.39739 3.59373 0
M  V30 1574 C 159.603 -3.66072 3.84921 0
M  V30 1575 C 158.642 -3.45771 5.05083 0
M  V30 1576 N 157.779 -4.64169 5.26775 0
M  V30 1577 H 162.619 -0.870123 2.85014 0
M  V30 1578 H 160.156 -0.418245 1.41029 0
M  V30 1579 H 162.114 -3.32758 2.5165 0
M  V30 1580 H 160.744 -2.87433 1.46908 0
M  V30 1581 H 159.796 -1.53131 3.48217 0
M  V30 1582 H 161.108 -2.20683 4.47326 0
M  V30 1583 H 160.262 -4.52303 4.0436 0
M  V30 1584 H 159.001 -3.88105 2.9534 0
M  V30 1585 H 158.006 -2.57927 4.85545 0
M  V30 1586 H 159.231 -3.25163 5.96193 0
M  V30 1587 H 157.177 -4.86425 4.40144 0
M  V30 1588 H 157.094 -4.48019 6.08946 0
M  V30 1589 H 158.362 -5.51689 5.5069 0
M  V30 1590 N 162.591 -1.51276 -0.441967 0
M  V30 1591 C 163.831 -1.65372 -1.20132 0
M  V30 1592 C 164.195 -0.359871 -1.88597 0
M  V30 1593 O 165.396 -0.376551 -2.66149 0
M  V30 1594 C 163.667 -2.8207 -2.1948 0
M  V30 1595 S 165.226 -3.16467 -3.03964 0
M  V30 1596 H 162.044 -0.582669 -0.407453 0
M  V30 1597 H 164.646 -1.89166 -0.493609 0
M  V30 1598 H 163.35 -3.74523 -1.67812 0
M  V30 1599 H 162.881 -2.6045 -2.94838 0
M  V30 1600 H 164.896 -2.62543 -4.21053 0
M  V30 1601 N 164.069 0.697108 -1.41344 0
M  V30 1602 C 165.294 1.49096 -1.44171 0
M  V30 1603 C 165.719 1.88038 -0.0481568 0
M  V30 1604 O 165.077 1.54525 0.948243 0
M  V30 1605 C 165.125 2.73088 -2.3549 0
M  V30 1606 O 164.229 3.70514 -1.81088 0
M  V30 1607 H 163.57 0.448801 -0.489361 0
M  V30 1608 H 166.1 0.856992 -1.85787 0
M  V30 1609 H 166.11 3.21413 -2.51312 0
M  V30 1610 H 164.785 2.44081 -3.36745 0
M  V30 1611 H 163.362 3.29441 -1.74708 0
M  V30 1612 N 165.547 1.27147 0.931209 0
M  V30 1613 C 166.772 1.16191 1.71797 0
M  V30 1614 C 167.197 -0.278004 1.86034 0
M  V30 1615 O 166.555 -1.20137 1.35782 0
M  V30 1616 C 166.603 1.84673 3.09723 0
M  V30 1617 O 165.707 1.14231 3.96264 0
M  V30 1618 H 165.048 0.404303 0.526721 0
M  V30 1619 H 167.578 1.68152 1.1656 0
M  V30 1620 H 167.588 1.91893 3.60057 0
M  V30 1621 H 166.263 2.89421 2.98677 0
M  V30 1622 H 164.84 1.15056 3.54706 0
M  V30 1623 N 167.025 -1.13721 1.09112 0
M  V30 1624 C 168.273 -1.84559 0.823562 0
M  V30 1625 C 168.594 -1.83754 -0.652658 0
M  V30 1626 O 167.864 -1.29102 -1.47342 0
M  V30 1627 H 166.444 -0.683376 0.301673 0
M  V30 1628 H 169.106 -1.37771 1.37859 0
M  V30 1629 H 168.202 -2.8917 1.17419 0
M  V30 1630 N 168.503 -0.877838 -1.30888 0
M  V30 1631 C 169.751 -0.491723 -1.96027 0
M  V30 1632 C 170.072 0.960827 -1.69685 0
M  V30 1633 O 169.342 1.67462 -1.01654 0
M  V30 1634 H 167.922 -0.17885 -0.725273 0
M  V30 1635 H 170.584 -1.11935 -1.59551 0
M  V30 1636 H 169.68 -0.656016 -3.05128 0
M  V30 1637 N 169.982 1.44106 -0.638065 0
M  V30 1638 C 171.23 2.01579 -0.145043 0
M  V30 1639 C 171.551 1.50496 1.24 0
M  V30 1640 O 170.821 0.711374 1.82527 0
M  V30 1641 H 169.401 0.745282 -0.05063 0
M  V30 1642 H 172.063 1.76516 -0.826327 0
M  V30 1643 H 171.159 3.11877 -0.118039 0
M  V30 1644 N 171.46 0.379036 1.52974 0
M  V30 1645 C 172.423 -0.448865 2.24762 0
M  V30 1646 C 173.423 -0.998689 1.26027 0
M  V30 1647 O 174.613 -0.882313 1.50203 0
M  V30 1648 C 171.745 -1.62872 2.99476 0
M  V30 1649 H 172.938 0.179491 2.99362 0
M  V30 1650 H 170.491 0.13096 1.5575 0
M  V30 1651 H 171.226 -2.29479 2.29151 0
M  V30 1652 H 171.011 -1.24128 3.71934 0
M  V30 1653 H 172.501 -2.2151 3.5401 0
M  V30 1654 N 172.938 -1.57226 0.108567 0
M  V30 1655 C 174.163 -1.99604 -0.563303 0
M  V30 1656 C 174.588 -0.987563 -1.6009 0
M  V30 1657 O 173.946 0.0421687 -1.81251 0
M  V30 1658 C 173.994 -3.40902 -1.17552 0
M  V30 1659 O 173.098 -3.42896 -2.2912 0
M  V30 1660 H 172.439 -0.648704 -0.1417 0
M  V30 1661 H 174.969 -2.03679 0.193961 0
M  V30 1662 H 174.979 -3.78886 -1.51357 0
M  V30 1663 H 173.654 -4.1382 -0.415445 0
M  V30 1664 H 172.231 -3.1672 -1.96832 0
M  V30 1665 N 174.416 0.165178 -1.56732 0
M  V30 1666 C 175.662 0.882112 -1.82611 0
M  V30 1667 C 175.995 1.81628 -0.687378 0
M  V30 1668 O 175.27 1.92009 0.310267 0
M  V30 1669 C 175.553 1.67245 -3.18906 0
M  V30 1670 C 175.406 0.760987 -4.43316 0
M  V30 1671 C 176.725 2.63884 -3.52212 0
M  V30 1672 H 173.844 0.319242 -0.664269 0
M  V30 1673 H 176.486 0.148052 -1.89422 0
M  V30 1674 H 174.636 2.29824 -3.1323 0
M  V30 1675 H 176.308 0.147596 -4.61064 0
M  V30 1676 H 174.551 0.0694102 -4.33744 0
M  V30 1677 H 175.222 1.34962 -5.35247 0
M  V30 1678 H 177.698 2.11429 -3.58381 0
M  V30 1679 H 176.574 3.16245 -4.48643 0
M  V30 1680 H 176.835 3.44377 -2.77231 0
M  V30 1681 N 175.894 1.51508 0.433938 0
M  V30 1682 C 177.122 1.68157 1.20543 0
M  V30 1683 C 177.537 0.380362 1.84929 0
M  V30 1684 O 176.894 -0.641446 1.70856 0
M  V30 1685 C 176.945 2.79965 2.28696 0
M  V30 1686 O 176.666 4.05045 1.66943 0
M  V30 1687 C 178.167 3.07912 3.18912 0
M  V30 1688 H 175.387 0.56421 0.363191 0
M  V30 1689 H 177.931 1.97941 0.513754 0
M  V30 1690 H 176.086 2.5277 2.93574 0
M  V30 1691 H 176.5 4.67165 2.38448 0
M  V30 1692 H 177.974 3.89719 3.90926 0
M  V30 1693 H 178.451 2.20456 3.79863 0
M  V30 1694 H 179.057 3.36779 2.59731 0
M  V30 1695 N 177.372 -0.689602 1.41712 0
M  V30 1696 C 178.597 -1.48329 1.44959 0
M  V30 1697 C 179.022 -1.8801 0.0581283 0
M  V30 1698 O 178.38 -1.55026 -0.940035 0
M  V30 1699 C 178.428 -2.71835 2.36935 0
M  V30 1700 O 177.532 -3.69549 1.8305 0
M  V30 1701 H 176.873 -0.446199 0.491734 0
M  V30 1702 H 179.403 -0.847127 1.86239 0
M  V30 1703 H 179.413 -3.20076 2.53013 0
M  V30 1704 H 178.088 -2.42291 3.38035 0
M  V30 1705 H 176.665 -3.2851 1.76452 0
M  V30 1706 N 178.85 -1.27639 -0.924453 0
M  V30 1707 C 180.075 -1.17101 -1.71179 0
M  V30 1708 C 180.5 0.268134 -1.86179 0
M  V30 1709 O 179.858 1.19415 -1.36418 0
M  V30 1710 C 179.906 -1.86313 -3.08739 0
M  V30 1711 O 179.01 -1.16331 -3.95652 0
M  V30 1712 H 178.351 -0.407091 -0.524569 0
M  V30 1713 H 180.881 -1.68767 -1.15666 0
M  V30 1714 H 180.891 -1.938 -3.59034 0
M  V30 1715 H 179.566 -2.91001 -2.97138 0
M  V30 1716 H 178.143 -1.16935 -3.54091 0
M  V30 1717 N 180.328 1.1314 -1.09713 0
M  V30 1718 C 181.278 2.16709 -0.708593 0
M  V30 1719 C 182.262 1.58471 0.278523 0
M  V30 1720 O 183.454 1.76779 0.088427 0
M  V30 1721 C 180.583 3.43039 -0.133923 0
M  V30 1722 C 179.669 4.08277 -1.14763 0
M  V30 1723 N 180.06 4.48637 -2.33577 0
M  V30 1724 C 178.358 4.34954 -0.986446 0
M  V30 1725 C 179.059 4.9952 -2.98085 0
M  V30 1726 N 178.035 4.94561 -2.25632 0
M  V30 1727 H 181.837 2.45672 -1.61315 0
M  V30 1728 H 179.351 1.29967 -0.973775 0
M  V30 1729 H 181.348 4.16583 0.162465 0
M  V30 1730 H 180.008 3.15549 0.765447 0
M  V30 1731 H 181.019 4.41246 -2.7115 0
M  V30 1732 H 177.696 4.17258 -0.142008 0
M  V30 1733 H 179.086 5.40521 -3.99108 0
M  V30 1734 N 181.806 0.884767 1.30421 0
M  V30 1735 C 182.756 0.322846 2.25703 0
M  V30 1736 C 183.74 -0.548582 1.51259 0
M  V30 1737 O 184.932 -0.39304 1.72581 0
M  V30 1738 C 182.061 -0.461787 3.4018 0
M  V30 1739 C 181.147 0.423717 4.21978 0
M  V30 1740 N 181.538 1.52408 4.82292 0
M  V30 1741 C 179.836 0.218795 4.45463 0
M  V30 1742 C 180.537 2.07136 5.43571 0
M  V30 1743 N 179.513 1.36635 5.26148 0
M  V30 1744 H 183.315 1.16363 2.69883 0
M  V30 1745 H 180.829 0.73415 1.44859 0
M  V30 1746 H 182.826 -0.880985 4.07485 0
M  V30 1747 H 181.486 -1.30001 2.9754 0
M  V30 1748 H 182.497 1.90693 4.81515 0
M  V30 1749 H 179.174 -0.582275 4.1342 0
M  V30 1750 H 180.564 2.99538 6.01437 0
M  V30 1751 N 183.284 -1.43765 0.645699 0
M  V30 1752 C 184.532 -2.01499 0.155731 0
M  V30 1753 C 184.853 -1.51151 -1.232 0
M  V30 1754 O 184.123 -0.721044 -1.82148 0
M  V30 1755 H 182.703 -0.745003 0.0545817 0
M  V30 1756 H 185.365 -1.76075 0.835677 0
M  V30 1757 H 184.461 -3.1181 0.134577 0
M  V30 1758 N 184.763 -0.387143 -1.52771 0
M  V30 1759 C 186.179 -0.037007 -1.59557 0
M  V30 1760 C 186.379 1.44801 -1.40124 0
M  V30 1761 O 185.435 2.21227 -1.21716 0
M  V30 1762 C 186.748 -0.512256 -2.96305 0
M  V30 1763 C 188.296 -0.468328 -3.09476 0
M  V30 1764 C 188.771 -0.919731 -4.4867 0
M  V30 1765 N 190.262 -0.875656 -4.54848 0
M  V30 1766 C 190.997 -1.19637 -5.6078 0
M  V30 1767 N 190.493 -1.58745 -6.74368 0
M  V30 1768 N 192.286 -1.11776 -5.50874 0
M  V30 1769 H 184.437 -1.35395 -1.63652 0
M  V30 1770 H 186.7 -0.554818 -0.768688 0
M  V30 1771 H 186.406 -1.54935 -3.15734 0
M  V30 1772 H 186.28 0.089805 -3.77093 0
M  V30 1773 H 188.667 0.559671 -2.89744 0
M  V30 1774 H 188.748 -1.10616 -2.30646 0
M  V30 1775 H 188.392 -1.94595 -4.69143 0
M  V30 1776 H 188.322 -0.258927 -5.25963 0
M  V30 1777 H 190.813 -0.587843 -3.733 0
M  V30 1778 H 191.126 -1.81586 -7.51163 0
M  V30 1779 H 189.471 -1.6263 -6.75705 0
M  V30 1780 H 192.662 -0.811264 -4.61016 0
M  V30 1781 H 192.835 -1.37103 -6.3333 0
M  V30 1782 N 186.241 1.57166 -0.116904 0
M  V30 1783 C 187.489 1.94737 0.540533 0
M  V30 1784 C 187.81 1.00096 1.67349 0
M  V30 1785 O 187.08 0.0568854 1.95817 0
M  V30 1786 H 185.66 0.718981 0.202669 0
M  V30 1787 H 188.322 1.94017 -0.185353 0
M  V30 1788 H 187.418 2.97719 0.936483 0
M  V30 1789 N 187.719 -0.156864 1.56817 0
M  V30 1790 C 188.967 -0.869404 1.82444 0
M  V30 1791 C 189.288 -1.82147 0.69623 0
M  V30 1792 O 188.558 -1.93847 -0.28287 0
M  V30 1793 H 187.138 -0.324043 0.673056 0
M  V30 1794 H 189.8 -0.153224 1.94297 0
M  V30 1795 H 188.896 -1.43761 2.77019 0
M  V30 1796 N 189.197 -1.51736 -0.425897 0
M  V30 1797 C 190.444 -1.6497 -1.17436 0
M  V30 1798 C 190.772 -0.371445 -1.9092 0
M  V30 1799 O 190.027 0.644963 -1.84767 0
M  V30 1800 C 190.326 -2.81103 -2.20717 0
M  V30 1801 C 189.992 -4.19954 -1.64162 0
M  V30 1802 C 188.654 -4.57725 -1.48462 0
M  V30 1803 C 191.006 -5.06552 -1.22696 0
M  V30 1804 C 188.334 -5.79789 -0.897873 0
M  V30 1805 C 190.686 -6.29205 -0.654464 0
M  V30 1806 C 189.35 -6.6574 -0.484456 0
M  V30 1807 H 188.62 -0.603668 -0.429727 0
M  V30 1808 H 191.267 -1.85798 -0.463829 0
M  V30 1809 H 189.572 -2.54542 -2.97852 0
M  V30 1810 H 191.269 -2.8854 -2.78471 0
M  V30 1811 H 187.859 -3.90181 -1.77361 0
M  V30 1812 H 192.043 -4.77968 -1.33642 0
M  V30 1813 H 187.299 -6.06733 -0.75402 0
M  V30 1814 H 191.473 -6.95643 -0.324694 0
M  V30 1815 H 189.1 -7.60195 -0.0276833 0
M  V30 1816 N 190.675 0.682077 -1.42076 0
M  V30 1817 C 191.923 1.4393 -1.41876 0
M  V30 1818 C 192.244 1.94971 -0.0335599 0
M  V30 1819 O 191.514 1.72591 0.926773 0
M  V30 1820 H 190.094 0.534085 -0.522267 0
M  V30 1821 H 192.756 0.806427 -1.77434 0
M  V30 1822 H 191.852 2.29588 -2.11414 0
M  V30 1823 N 192.153 1.28127 0.917671 0
M  V30 1824 C 193.401 1.14825 1.66312 0
M  V30 1825 C 193.722 -0.304379 1.9261 0
M  V30 1826 O 192.992 -1.21149 1.53947 0
M  V30 1827 H 191.572 0.421953 0.616413 0
M  V30 1828 H 194.234 1.608 1.10134 0
M  V30 1829 H 193.33 1.68489 2.62712 0
M  V30 1830 N 193.631 -1.12557 1.10312 0
M  V30 1831 C 194.594 -2.16434 0.75424 0
M  V30 1832 C 195.594 -1.59278 -0.220685 0
M  V30 1833 O 196.784 -1.742 0.00230591 0
M  V30 1834 C 193.916 -3.40699 0.116987 0
M  V30 1835 H 195.109 -2.48811 1.67431 0
M  V30 1836 H 192.662 -1.27542 0.903475 0
M  V30 1837 H 193.397 -3.13921 -0.813877 0
M  V30 1838 H 193.182 -3.83459 0.818613 0
M  V30 1839 H 194.672 -4.17451 -0.111387 0
M  V30 1840 N 195.109 -0.891671 -1.2995 0
M  V30 1841 C 196.072 -0.36828 -2.26222 0
M  V30 1842 C 197.072 0.493014 -1.53056 0
M  V30 1843 O 198.262 0.299213 -1.71611 0
M  V30 1844 C 195.394 0.47442 -3.37583 0
M  V30 1845 H 196.587 -1.21844 -2.74033 0
M  V30 1846 H 194.14 -0.669107 -1.41254 0
M  V30 1847 H 194.875 1.34489 -2.95099 0
M  V30 1848 H 194.66 -0.142615 -3.91841 0
M  V30 1849 H 196.15 0.83218 -4.09224 0
M  V30 1850 N 196.587 1.43421 -0.653314 0
M  V30 1851 C 197.812 2.06678 -0.172846 0
M  V30 1852 C 198.237 1.48648 1.15262 0
M  V30 1853 O 197.595 0.596457 1.71208 0
M  V30 1854 C 197.643 3.60474 -0.0953184 0
M  V30 1855 O 196.747 4.01487 0.942442 0
M  V30 1856 H 196.088 0.657181 -0.0949155 0
M  V30 1857 H 198.618 1.83925 -0.896265 0
M  V30 1858 H 198.628 4.07905 0.0879728 0
M  V30 1859 H 197.303 4.02088 -1.06291 0
M  V30 1860 H 195.88 3.65646 0.731932 0
M  V30 1861 N 198.065 0.39524 1.52563 0
M  V30 1862 C 199.29 -0.187456 2.06551 0
M  V30 1863 C 199.715 -1.39249 1.26457 0
M  V30 1864 O 199.073 -1.78947 0.291151 0
M  V30 1865 C 199.121 -0.529985 3.56684 0
M  V30 1866 O 198.225 -1.62307 3.79118 0
M  V30 1867 H 197.566 -0.0202537 0.663691 0
M  V30 1868 H 200.096 0.564426 1.96661 0
M  V30 1869 H 200.106 -0.792598 4.00227 0
M  V30 1870 H 198.781 0.350987 4.14416 0
M  V30 1871 H 197.358 -1.3537 3.47461 0
M  V30 1872 N 199.544 -1.57102 0.125237 0
M  V30 1873 C 200.769 -2.0019 -0.542101 0
M  V30 1874 C 201.194 -1.00449 -1.59034 0
M  V30 1875 O 200.552 0.0229423 -1.81285 0
M  V30 1876 C 200.6 -3.42129 -1.13929 0
M  V30 1877 O 199.704 -3.45307 -2.2547 0
M  V30 1878 H 199.045 -0.650171 -0.134812 0
M  V30 1879 H 201.575 -2.03461 0.215553 0
M  V30 1880 H 201.585 -3.80471 -1.4733 0
M  V30 1881 H 200.26 -4.14237 -0.371531 0
M  V30 1882 H 198.837 -3.1879 -1.93462 0
M  V30 1883 N 201.022 0.148545 -1.56898 0
M  V30 1884 C 201.952 1.18524 -2.01182 0
M  V30 1885 C 202.933 1.4489 -0.891123 0
M  V30 1886 O 204.118 1.55836 -1.15882 0
M  V30 1887 C 201.248 2.51879 -2.39112 0
M  V30 1888 C 200.202 2.40038 -3.54353 0
M  V30 1889 C 199.528 3.78089 -3.78091 0
M  V30 1890 C 200.828 1.88577 -4.87069 0
M  V30 1891 H 202.522 0.817029 -2.88036 0
M  V30 1892 H 200.068 0.391575 -1.38574 0
M  V30 1893 H 202.021 3.24627 -2.68692 0
M  V30 1894 H 200.745 2.90532 -1.49193 0
M  V30 1895 H 199.404 1.69742 -3.24936 0
M  V30 1896 H 199.052 4.14175 -2.85426 0
M  V30 1897 H 198.752 3.71028 -4.55645 0
M  V30 1898 H 200.276 4.52387 -4.10095 0
M  V30 1899 H 201.69 2.51117 -5.15377 0
M  V30 1900 H 200.087 1.9241 -5.68417 0
M  V30 1901 H 201.157 0.84136 -4.77545 0
M  V30 1902 N 202.5 1.5196 0.417844 0
M  V30 1903 C 203.43 1.77634 1.51554 0
M  V30 1904 C 204.411 0.626918 1.58126 0
M  V30 1905 O 205.596 0.871632 1.7354 0
M  V30 1906 C 202.726 1.91911 2.8946 0
M  V30 1907 C 201.68 3.07463 2.97743 0
M  V30 1908 C 201.006 3.06951 4.37819 0
M  V30 1909 C 202.306 4.47082 2.70027 0
M  V30 1910 H 204 2.6955 1.3032 0
M  V30 1911 H 201.546 1.29706 0.625492 0
M  V30 1912 H 203.499 2.08455 3.6623 0
M  V30 1913 H 202.223 0.966598 3.11969 0
M  V30 1914 H 200.882 2.90656 2.23416 0
M  V30 1915 H 200.53 2.09438 4.57323 0
M  V30 1916 H 200.23 3.84556 4.44286 0
M  V30 1917 H 201.754 3.25613 5.16535 0
M  V30 1918 H 203.168 4.6414 3.36522 0
M  V30 1919 H 201.565 5.2654 2.87881 0
M  V30 1920 H 202.635 4.55777 1.65514 0
M  V30 1921 N 203.978 -0.674533 1.42435 0
M  V30 1922 C 205.203 -1.46784 1.46524 0
M  V30 1923 C 205.628 -1.87938 0.078066 0
M  V30 1924 O 204.986 -1.56014 -0.92354 0
M  V30 1925 C 205.034 -2.69307 2.39805 0
M  V30 1926 O 204.138 -3.67587 1.86959 0
M  V30 1927 H 203.479 -0.440959 0.496439 0
M  V30 1928 H 206.009 -0.827326 1.87127 0
M  V30 1929 H 206.019 -3.17374 2.56393 0
M  V30 1930 H 204.694 -2.38692 3.40586 0
M  V30 1931 H 203.271 -3.2662 1.79927 0
M  V30 1932 N 205.456 -1.28612 -0.910864 0
M  V30 1933 C 206.696 -1.1719 -1.67469 0
M  V30 1934 C 207.06 0.274441 -1.90028 0
M  V30 1935 O 208.261 0.511425 -2.6389 0
M  V30 1936 C 206.532 -1.95137 -2.99427 0
M  V30 1937 S 208.091 -2.00122 -3.90508 0
M  V30 1938 H 204.909 -0.41806 -0.575106 0
M  V30 1939 H 207.511 -1.6275 -1.08317 0
M  V30 1940 H 206.215 -2.99381 -2.80712 0
M  V30 1941 H 205.746 -1.50137 -3.63624 0
M  V30 1942 H 207.761 -1.10981 -4.8363 0
M  V30 1943 N 206.934 1.1197 -1.10907 0
M  V30 1944 C 208.182 1.83225 -0.852819 0
M  V30 1945 C 208.503 1.84769 0.623341 0
M  V30 1946 O 207.773 1.3143 1.45269 0
M  V30 1947 H 206.353 0.67849 -0.312507 0
M  V30 1948 H 209.015 1.3556 -1.40033 0
M  V30 1949 H 208.111 2.87265 -1.22005 0
M  V30 1950 N 208.412 0.89855 1.29475 0
M  V30 1951 C 209.362 0.346767 2.25348 0
M  V30 1952 C 210.346 -0.532509 1.51833 0
M  V30 1953 O 211.538 -0.374714 1.72988 0
M  V30 1954 C 208.667 -0.425681 3.40651 0
M  V30 1955 C 207.753 0.46845 4.21505 0
M  V30 1956 N 208.144 1.57514 4.80648 0
M  V30 1957 C 206.442 0.26603 4.45206 0
M  V30 1958 C 207.143 2.12889 5.41344 0
M  V30 1959 N 206.119 1.42208 5.24669 0
M  V30 1960 H 209.921 1.19219 2.68634 0
M  V30 1961 H 207.435 0.749473 1.44072 0
M  V30 1962 H 209.432 -0.837716 4.08397 0
M  V30 1963 H 208.092 -1.26838 2.98902 0
M  V30 1964 H 209.103 1.95789 4.79465 0
M  V30 1965 H 205.78 -0.538394 4.14014 0
M  V30 1966 H 207.17 3.05901 5.98226 0
M  V30 1967 N 209.89 -1.43072 0.660911 0
M  V30 1968 C 210.822 -2.29108 -0.0647641 0
M  V30 1969 C 211.835 -1.42928 -0.779448 0
M  V30 1970 O 213.024 -1.66788 -0.635921 0
M  V30 1971 C 210.124 -3.20032 -1.11503 0
M  V30 1972 C 209.297 -4.34792 -0.476955 0
M  V30 1973 C 208.356 -5.06534 -1.42513 0
M  V30 1974 O 207.382 -5.61538 -0.930771 0
M  V30 1975 N 208.584 -5.1075 -2.75889 0
M  V30 1976 H 211.349 -2.92029 0.673731 0
M  V30 1977 H 208.91 -1.53846 0.50427 0
M  V30 1978 H 210.902 -3.64892 -1.75032 0
M  V30 1979 H 209.472 -2.58658 -1.75541 0
M  V30 1980 H 208.692 -3.92752 0.337572 0
M  V30 1981 H 209.98 -5.0879 -0.0318525 0
M  V30 1982 H 209.378 -4.67447 -3.18606 0
M  V30 1983 H 207.935 -5.59302 -3.347 0
M  V30 1984 N 211.368 -0.403325 -1.52352 0
M  V30 1985 C 212.593 0.176499 -2.06648 0
M  V30 1986 C 213.018 1.38577 -1.27193 0
M  V30 1987 O 212.376 1.7879 -0.300637 0
M  V30 1988 C 212.424 0.511061 -3.5696 0
M  V30 1989 O 211.528 1.60294 -3.79973 0
M  V30 1990 H 210.869 0.0167337 -0.663789 0
M  V30 1991 H 213.399 -0.574848 -1.96359 0
M  V30 1992 H 213.409 0.771362 -4.00642 0
M  V30 1993 H 212.084 -0.37296 -4.14224 0
M  V30 1994 H 210.661 1.33526 -3.48174 0
M  V30 1995 N 212.846 1.57033 -0.133567 0
M  V30 1996 C 214.071 2.00475 0.531477 0
M  V30 1997 C 214.496 1.01291 1.58499 0
M  V30 1998 O 213.854 -0.0133279 1.81295 0
M  V30 1999 C 213.902 3.42729 1.12113 0
M  V30 2000 O 213.006 3.46498 2.23636 0
M  V30 2001 H 212.347 0.650876 0.131362 0
M  V30 2002 H 214.877 2.03344 -0.22634 0
M  V30 2003 H 214.887 3.81246 1.4531 0
M  V30 2004 H 213.562 4.14428 0.349557 0
M  V30 2005 H 212.139 3.19811 1.91769 0
M  V30 2006 N 214.325 -0.140222 1.56975 0
M  V30 2007 C 215.573 -0.850005 1.83356 0
M  V30 2008 C 215.894 -1.81399 0.71551 0
M  V30 2009 O 215.164 -1.94136 -0.262294 0
M  V30 2010 H 213.744 -0.316886 0.676456 0
M  V30 2011 H 216.406 -0.132608 1.94448 0
M  V30 2012 H 215.502 -1.40814 2.78528 0
M  V30 2013 N 215.803 -1.52179 -0.40978 0
M  V30 2014 C 217.051 -1.65878 -1.15451 0
M  V30 2015 C 217.372 -0.390771 -1.91044 0
M  V30 2016 O 216.642 0.594323 -1.86667 0
M  V30 2017 H 215.222 -0.611405 -0.429177 0
M  V30 2018 H 217.884 -1.89219 -0.467134 0
M  V30 2019 H 216.98 -2.49954 -1.86894 0
M  V30 2020 N 217.281 0.66697 -1.42791 0
M  V30 2021 C 218.244 1.76211 -1.46568 0
M  V30 2022 C 219.244 1.56896 -0.352196 0
M  V30 2023 O 220.434 1.63044 -0.613364 0
M  V30 2024 C 217.566 3.14935 -1.30494 0
M  V30 2025 H 218.759 1.74247 -2.44086 0
M  V30 2026 H 216.312 0.877342 -1.29354 0
M  V30 2027 H 217.047 3.2252 -0.339301 0
M  V30 2028 H 216.832 3.30359 -2.11199 0
M  V30 2029 H 218.322 3.94821 -1.36038 0
M  V30 2030 N 218.759 1.29093 0.90403 0
M  V30 2031 C 219.984 1.19809 1.69294 0
M  V30 2032 C 220.409 -0.238481 1.86582 0
M  V30 2033 O 219.767 -1.1723 1.383 0
M  V30 2034 C 219.815 1.91202 3.05736 0
M  V30 2035 O 218.919 1.22611 3.93752 0
M  V30 2036 H 218.26 0.415385 0.518027 0
M  V30 2037 H 220.79 1.70586 1.12967 0
M  V30 2038 H 220.8 1.99487 3.55906 0
M  V30 2039 H 219.475 2.95692 2.92471 0
M  V30 2040 H 218.052 1.22554 3.52186 0
M  V30 2041 N 220.237 -1.11381 1.11499 0
M  V30 2042 C 221.465 -1.86934 0.88675 0
M  V30 2043 C 221.88 -1.80195 -0.563476 0
M  V30 2044 O 221.237 -1.18367 -1.38908 0
M  V30 2045 C 221.288 -3.35722 1.34064 0
M  V30 2046 O 221.009 -3.4232 2.73401 0
M  V30 2047 C 222.51 -4.2818 1.14791 0
M  V30 2048 H 219.73 -0.591117 0.317523 0
M  V30 2049 H 222.274 -1.40865 1.48248 0
M  V30 2050 H 220.429 -3.79294 0.788355 0
M  V30 2051 H 220.843 -4.34971 2.93087 0
M  V30 2052 H 222.317 -5.30817 1.5145 0
M  V30 2053 H 222.794 -4.39113 0.0875279 0
M  V30 2054 H 223.4 -3.90402 1.68721 0
M  V30 2055 N 221.715 -0.905404 -1.28997 0
M  V30 2056 C 222.963 -0.533192 -1.9494 0
M  V30 2057 C 223.284 0.924618 -1.71685 0
M  V30 2058 O 222.554 1.65268 -1.05183 0
M  V30 2059 H 221.134 -0.194194 -0.721317 0
M  V30 2060 H 223.796 -1.15294 -1.57141 0
M  V30 2061 H 222.892 -0.72059 -3.03667 0
M  V30 2062 N 223.193 1.4272 -0.668489 0
M  V30 2063 C 224.604 1.84793 -0.266151 0
M  V30 2064 C 224.955 1.55959 1.19043 0
M  V30 2065 O 224.08 1.01622 1.91055 0
M  V30 2066 C 224.675 3.35436 -0.476271 0
M  V30 2067 C 223.234 3.76182 -0.128113 0
M  V30 2068 C 222.381 2.66344 -0.771777 0
M  V30 2069 H 225.332 1.32656 -0.871098 0
M  V30 2070 H 225.353 3.79515 0.273561 0
M  V30 2071 H 224.865 3.5639 -1.53647 0
M  V30 2072 H 222.966 3.60836 0.928891 0
M  V30 2073 H 223.079 4.75766 -0.564231 0
M  V30 2074 H 221.443 2.53885 -0.203652 0
M  V30 2075 H 222.226 2.90123 -1.83531 0
M  V30 2076 N 224.671 0.411399 1.52136 0
M  V30 2077 C 226.087 0.0623865 1.59478 0
M  V30 2078 C 226.287 -1.42554 1.4241 0
M  V30 2079 O 225.343 -2.19263 1.2522 0
M  V30 2080 C 226.656 0.559331 2.95452 0
M  V30 2081 C 228.204 0.517503 3.08692 0
M  V30 2082 C 228.679 0.990994 4.4715 0
M  V30 2083 N 230.17 0.947908 4.53397 0
M  V30 2084 C 230.905 1.28544 5.58806 0
M  V30 2085 N 230.401 1.69454 6.71757 0
M  V30 2086 N 232.194 1.20526 5.49026 0
M  V30 2087 H 224.345 1.37982 1.61477 0
M  V30 2088 H 226.608 0.566977 0.759764 0
M  V30 2089 H 226.314 1.59938 3.1323 0
M  V30 2090 H 226.188 -0.0298014 3.77188 0
M  V30 2091 H 228.575 -0.513505 2.90598 0
M  V30 2092 H 228.656 1.14272 2.28857 0
M  V30 2093 H 228.3 2.02034 4.65988 0
M  V30 2094 H 228.23 0.34257 5.25485 0
M  V30 2095 H 230.721 0.647157 3.72317 0
M  V30 2096 H 231.034 1.93513 7.48179 0
M  V30 2097 H 229.379 1.73359 6.73032 0
M  V30 2098 H 232.57 0.884505 4.59667 0
M  V30 2099 H 232.743 1.47161 6.31069 0
M  V30 2100 N 226.149 -1.5696 0.141893 0
M  V30 2101 C 227.096 -2.16501 -0.799737 0
M  V30 2102 C 228.066 -1.09643 -1.24771 0
M  V30 2103 O 229.251 -1.3766 -1.32115 0
M  V30 2104 C 226.391 -2.78679 -2.03549 0
M  V30 2105 C 225.504 -3.99914 -1.6338 0
M  V30 2106 C 224.639 -4.50106 -2.82096 0
M  V30 2107 C 223.678 -5.63819 -2.38275 0
M  V30 2108 N 222.815 -6.08651 -3.49983 0
M  V30 2109 H 227.655 -2.96632 -0.285179 0
M  V30 2110 H 225.192 -1.46533 -0.129053 0
M  V30 2111 H 227.15 -3.1287 -2.75986 0
M  V30 2112 H 225.78 -2.012 -2.52425 0
M  V30 2113 H 224.832 -3.71735 -0.807279 0
M  V30 2114 H 226.144 -4.82311 -1.27192 0
M  V30 2115 H 225.298 -4.86325 -3.62729 0
M  V30 2116 H 224.037 -3.66706 -3.21525 0
M  V30 2117 H 223.042 -5.2718 -1.56081 0
M  V30 2118 H 224.267 -6.49 -1.99938 0
M  V30 2119 H 222.213 -5.28188 -3.89042 0
M  V30 2120 H 222.13 -6.85961 -3.17794 0
M  V30 2121 H 223.398 -6.49515 -4.30988 0
M  V30 2122 N 227.627 0.131896 -1.57047 0
M  V30 2123 C 228.574 1.16236 -1.99393 0
M  V30 2124 C 229.544 1.41863 -0.863943 0
M  V30 2125 O 230.729 1.53946 -1.12718 0
M  V30 2126 C 227.869 2.48708 -2.39245 0
M  V30 2127 C 226.982 2.30127 -3.65603 0
M  V30 2128 C 226.117 3.55738 -3.94492 0
M  V30 2129 C 225.156 3.32259 -5.14073 0
M  V30 2130 N 224.293 4.50039 -5.38896 0
M  V30 2131 H 229.133 0.794251 -2.87221 0
M  V30 2132 H 226.67 0.380707 -1.42088 0
M  V30 2133 H 228.628 3.25969 -2.60384 0
M  V30 2134 H 227.258 2.83437 -1.54478 0
M  V30 2135 H 226.31 1.43845 -3.52154 0
M  V30 2136 H 227.622 2.08746 -4.5302 0
M  V30 2137 H 226.776 4.41423 -4.1621 0
M  V30 2138 H 225.515 3.80138 -3.05526 0
M  V30 2139 H 224.52 2.44963 -4.92212 0
M  V30 2140 H 225.745 3.09242 -6.04604 0
M  V30 2141 H 223.691 4.74584 -4.52886 0
M  V30 2142 H 223.608 4.31716 -6.2061 0
M  V30 2143 H 224.876 5.36895 -5.65123 0
M  V30 2144 N 229.106 1.52395 0.401703 0
M  V30 2145 C 230.053 1.76268 1.48991 0
M  V30 2146 C 231.023 0.605386 1.54675 0
M  V30 2147 O 232.208 0.843742 1.7113 0
M  V30 2148 C 229.348 1.92592 2.86361 0
M  V30 2149 C 228.461 3.20259 2.89928 0
M  V30 2150 C 227.596 3.26972 4.18644 0
M  V30 2151 C 226.635 4.48812 4.16214 0
M  V30 2152 N 225.772 4.52877 5.36514 0
M  V30 2153 H 230.612 2.6914 1.27935 0
M  V30 2154 H 228.149 1.33355 0.620871 0
M  V30 2155 H 230.107 2.0004 3.66115 0
M  V30 2156 H 228.737 1.03093 3.05895 0
M  V30 2157 H 227.789 3.21945 2.02621 0
M  V30 2158 H 229.101 4.10056 2.83999 0
M  V30 2159 H 228.255 3.33533 5.06794 0
M  V30 2160 H 226.994 2.35126 4.27278 0
M  V30 2161 H 225.999 4.4239 3.26453 0
M  V30 2162 H 227.224 5.41961 4.09213 0
M  V30 2163 H 225.17 3.63917 5.45802 0
M  V30 2164 H 225.087 5.36529 5.32609 0
M  V30 2165 H 226.355 4.63676 6.26597 0
M  V30 2166 N 230.584 -0.659388 1.43143 0
M  V30 2167 C 231.809 -1.45221 1.48073 0
M  V30 2168 C 232.234 -1.87845 0.097995 0
M  V30 2169 O 231.592 -1.56985 -0.90694 0
M  V30 2170 C 231.64 -2.66748 2.42647 0
M  V30 2171 O 230.744 -3.65583 1.90848 0
M  V30 2172 H 230.085 -0.435669 0.501088 0
M  V30 2173 H 232.615 -0.807432 1.87994 0
M  V30 2174 H 232.625 -3.14637 2.59745 0
M  V30 2175 H 231.3 -2.35067 3.43098 0
M  V30 2176 H 229.877 -3.24693 1.83381 0
M  V30 2177 N 232.062 -1.29571 -0.897171 0
M  V30 2178 C 233.009 -1.14916 -2.00158 0
M  V30 2179 C 233.979 -0.0418149 -1.66047 0
M  V30 2180 O 235.164 -0.209793 -1.89643 0
M  V30 2181 C 232.304 -0.834307 -3.34863 0
M  V30 2182 C 231.417 -2.02234 -3.8174 0
M  V30 2183 C 230.552 -1.64664 -5.05034 0
M  V30 2184 C 229.591 -2.80033 -5.44286 0
M  V30 2185 N 228.728 -2.42843 -6.58765 0
M  V30 2186 H 233.568 -2.09403 -2.12025 0
M  V30 2187 H 231.105 -1.042 -1.0383 0
M  V30 2188 H 233.063 -0.632436 -4.12379 0
M  V30 2189 H 231.693 0.0736656 -3.22716 0
M  V30 2190 H 230.745 -2.33583 -3.00238 0
M  V30 2191 H 232.057 -2.88673 -4.06779 0
M  V30 2192 H 231.211 -1.4078 -5.9014 0
M  V30 2193 H 229.95 -0.753766 -4.8184 0
M  V30 2194 H 228.955 -3.04596 -4.57713 0
M  V30 2195 H 230.18 -3.69989 -5.6946 0
M  V30 2196 H 228.126 -1.56046 -6.3717 0
M  V30 2197 H 228.043 -3.22815 -6.83613 0
M  V30 2198 H 229.311 -2.22285 -7.47134 0
M  V30 2199 N 233.54 1.10788 -1.12088 0
M  V30 2200 C 234.956 1.34691 -0.856186 0
M  V30 2201 C 235.156 1.94791 0.515615 0
M  V30 2202 O 234.212 2.18524 1.26505 0
M  V30 2203 C 235.525 2.27208 -1.9697 0
M  V30 2204 C 237.073 2.40755 -2.00016 0
M  V30 2205 C 237.548 3.36598 -3.1059 0
M  V30 2206 N 239.039 3.44164 -3.10008 0
M  V30 2207 C 239.774 4.18284 -3.92206 0
M  V30 2208 N 239.27 4.95322 -4.84384 0
M  V30 2209 N 241.063 4.13865 -3.80357 0
M  V30 2210 H 233.214 0.70144 -2.00483 0
M  V30 2211 H 235.477 0.371405 -0.872217 0
M  V30 2212 H 235.183 1.90251 -2.958 0
M  V30 2213 H 235.057 3.27485 -1.87172 0
M  V30 2214 H 237.444 2.76982 -1.01808 0
M  V30 2215 H 237.525 1.40305 -2.13888 0
M  V30 2216 H 237.169 3.01096 -4.09028 0
M  V30 2217 H 237.099 4.36918 -2.93956 0
M  V30 2218 H 239.59 2.8922 -2.43228 0
M  V30 2219 H 239.903 5.49267 -5.43623 0
M  V30 2220 H 238.248 4.94459 -4.884 0
M  V30 2221 H 241.439 3.52773 -3.07683 0
M  V30 2222 H 241.612 4.71372 -4.44649 0
M  V30 2223 N 235.018 0.912232 1.28515 0
M  V30 2224 C 236.267 0.540504 1.94323 0
M  V30 2225 C 236.58 -0.920044 1.72611 0
M  V30 2226 O 237.786 -1.39986 2.32629 0
M  V30 2227 C 236.242 0.915803 3.48053 0
M  V30 2228 C 235.85 2.39598 3.78546 0
M  V30 2229 C 237.594 0.614588 4.20027 0
M  V30 2230 C 235.501 2.71148 5.25578 0
M  V30 2231 H 234.431 0.198418 0.727424 0
M  V30 2232 H 237.082 1.11094 1.46049 0
M  V30 2233 H 235.464 0.274168 3.9505 0
M  V30 2234 H 236.638 3.08422 3.42364 0
M  V30 2235 H 234.953 2.66749 3.1974 0
M  V30 2236 H 237.55 0.827002 5.28266 0
M  V30 2237 H 237.893 -0.447531 4.13887 0
M  V30 2238 H 238.426 1.21462 3.78803 0
M  V30 2239 H 235.165 3.76207 5.36794 0
M  V30 2240 H 234.685 2.0696 5.62963 0
M  V30 2241 H 236.364 2.58072 5.93302 0
M  V30 2242 N 236.496 -1.42363 0.676048 0
M  V30 2243 C 237.721 -2.06377 0.205705 0
M  V30 2244 C 238.146 -1.50463 -1.12883 0
M  V30 2245 O 237.504 -0.623619 -1.70237 0
M  V30 2246 C 237.552 -3.60277 0.152655 0
M  V30 2247 O 236.656 -4.02935 -0.87845 0
M  V30 2248 H 235.997 -0.655588 0.105359 0
M  V30 2249 H 238.527 -1.82475 0.925412 0
M  V30 2250 H 238.537 -4.07993 -0.0230675 0
M  V30 2251 H 237.212 -4.00346 1.12675 0
M  V30 2252 H 235.789 -3.66764 -0.673668 0
M  V30 2253 N 237.974 -0.419461 -1.51915 0
M  V30 2254 C 238.884 0.407528 -2.31033 0
M  V30 2255 C 239.9 1.04413 -1.3919 0
M  V30 2256 O 241.076 1.0434 -1.72265 0
M  V30 2257 C 238.141 1.50365 -3.12396 0
M  V30 2258 C 237.202 0.889029 -4.19994 0
M  V30 2259 C 236.435 1.93291 -4.97468 0
M  V30 2260 O 236.658 3.15259 -4.75361 0
M  V30 2261 O 235.592 1.53339 -5.8204 0
M  V30 2262 H 239.418 -0.237865 -3.02767 0
M  V30 2263 H 237.003 -0.182413 -1.48282 0
M  V30 2264 H 238.885 2.13975 -3.63032 0
M  V30 2265 H 237.56 2.13345 -2.43445 0
M  V30 2266 H 236.467 0.215353 -3.7348 0
M  V30 2267 H 237.8 0.302991 -4.91267 0
M  V30 2268 N 239.452 1.56882 -0.150215 0
M  V30 2269 C 240.382 2.19935 0.784284 0
M  V30 2270 C 241.363 1.14854 1.25469 0
M  V30 2271 O 242.548 1.43209 1.31168 0
M  V30 2272 C 239.678 2.82349 2.02229 0
M  V30 2273 C 238.632 3.93285 1.68853 0
M  V30 2274 C 237.958 4.42649 2.99944 0
M  V30 2275 C 239.258 5.13904 0.932714 0
M  V30 2276 H 240.952 2.9828 0.258781 0
M  V30 2277 H 238.498 1.43473 0.123029 0
M  V30 2278 H 240.451 3.25126 2.68088 0
M  V30 2279 H 239.175 2.0134 2.57157 0
M  V30 2280 H 237.834 3.5113 1.05371 0
M  V30 2281 H 237.482 3.58458 3.52869 0
M  V30 2282 H 237.182 5.17476 2.78374 0
M  V30 2283 H 238.706 4.88099 3.66868 0
M  V30 2284 H 240.12 5.53506 1.49345 0
M  V30 2285 H 238.517 5.94515 0.81684 0
M  V30 2286 H 239.587 4.84842 -0.0749568 0
M  V30 2287 N 240.93 -0.123565 1.57115 0
M  V30 2288 C 242.207 -0.862196 1.75572 0
M  V30 2289 C 242.587 -1.98279 0.724475 0
M  V30 2290 O 241.935 -2.27102 -0.252407 0
M  V30 2291 C 242.145 -1.38309 3.20424 0
M  V30 2292 C 243.493 -1.83724 3.82793 0
M  V30 2293 O 244.517 -1.47999 3.23998 0
M  V30 2294 O 243.376 -2.49685 4.86127 0
M  V30 2295 H 240.47 -0.409113 0.718718 0
M  V30 2296 H 243.016 -0.107661 1.69358 0
M  V30 2297 H 241.788 -0.578889 3.86994 0
M  V30 2298 H 241.411 -2.20046 3.31158 0
M  V30 2299 N 242.408 -1.52605 -0.393616 0
M  V30 2300 C 243.356 -1.77688 -1.50099 0
M  V30 2301 C 244.35 -0.644615 -1.56656 0
M  V30 2302 O 245.556 -0.826997 -1.59877 0
M  V30 2303 H 241.931 -0.562159 -0.499481 0
M  V30 2304 H 243.902 -2.7043 -1.26135 0
M  V30 2305 C 242.651 -1.95858 -2.87289 0
M  V30 2306 H 241.974 -2.8241 -2.82992 0
M  V30 2307 H 243.414 -2.174 -3.64024 0
M  V30 2308 C 241.873 -0.729848 -3.28899 0
M  V30 2309 O 242.403 0.0949217 -4.01588 0
M  V30 2310 N 240.609 -0.561283 -2.85128 0
M  V30 2311 H 240.156 -1.23357 -2.26143 0
M  V30 2312 H 240.114 0.2595 -3.13327 0
M  V30 2313 N 243.887 0.651787 -1.4349 0
M  V30 2314 C 244.797 1.79368 -1.5121 0
M  V30 2315 C 245.813 1.69361 -0.399093 0
M  V30 2316 O 246.989 1.90505 -0.653431 0
M  V30 2317 C 244.054 3.15653 -1.43401 0
M  V30 2318 C 243.115 3.37446 -2.65384 0
M  V30 2319 C 242.348 4.67229 -2.57939 0
M  V30 2320 O 242.571 5.46676 -1.62792 0
M  V30 2321 O 241.505 4.90773 -3.48462 0
M  V30 2322 H 245.331 1.7581 -2.47638 0
M  V30 2323 H 242.916 0.810447 -1.25507 0
M  V30 2324 H 244.798 3.96935 -1.41494 0
M  V30 2325 H 243.473 3.19798 -0.501085 0
M  V30 2326 H 242.38 2.55923 -2.72863 0
M  V30 2327 H 243.713 3.38148 -3.57654 0
M  V30 2328 N 245.365 1.30045 0.890287 0
M  V30 2329 C 246.312 1.15976 1.99545 0
M  V30 2330 C 247.282 0.0506202 1.66023 0
M  V30 2331 O 248.467 0.219847 1.89529 0
M  V30 2332 C 245.607 0.852054 3.34416 0
M  V30 2333 C 244.72 2.04255 3.80662 0
M  V30 2334 C 243.855 1.6734 5.04154 0
M  V30 2335 C 242.894 2.82916 5.42794 0
M  V30 2336 N 242.031 2.46333 6.57468 0
M  V30 2337 H 246.871 2.10524 2.10911 0
M  V30 2338 H 244.408 1.04749 1.03276 0
M  V30 2339 H 246.366 0.654296 4.12037 0
M  V30 2340 H 244.996 -0.0565502 3.2275 0
M  V30 2341 H 244.048 2.35172 2.98995 0
M  V30 2342 H 245.36 2.90826 4.05242 0
M  V30 2343 H 244.514 1.43908 5.89386 0
M  V30 2344 H 243.253 0.779308 4.81433 0
M  V30 2345 H 242.258 3.0702 4.56091 0
M  V30 2346 H 243.483 3.73004 5.6749 0
M  V30 2347 H 241.429 1.59423 6.36334 0
M  V30 2348 H 241.346 3.26436 6.81891 0
M  V30 2349 H 242.614 2.26244 7.45945 0
M  V30 2350 N 246.843 -1.10192 1.12674 0
M  V30 2351 C 248.089 -1.82475 0.884915 0
M  V30 2352 C 248.422 -1.85093 -0.58773 0
M  V30 2353 O 247.697 -1.3134 -1.43457 0
M  V30 2354 C 247.98 -3.29018 1.46353 0
M  V30 2355 C 247.833 -3.34718 3.00473 0
M  V30 2356 C 249.152 -4.25473 1.12519 0
M  V30 2357 H 246.271 -0.662492 0.322915 0
M  V30 2358 H 248.913 -1.2913 1.39375 0
M  V30 2359 H 247.063 -3.74576 1.03077 0
M  V30 2360 H 248.735 -2.97622 3.52447 0
M  V30 2361 H 246.978 -2.74541 3.35872 0
M  V30 2362 H 247.649 -4.37918 3.36053 0
M  V30 2363 H 250.125 -3.88161 1.499 0
M  V30 2364 H 249.001 -5.26365 1.55663 0
M  V30 2365 H 249.262 -4.42084 0.0377407 0
M  V30 2366 N 248.321 -0.919034 -1.28029 0
M  V30 2367 C 249.737 -0.617972 -1.4715 0
M  V30 2368 C 249.937 0.835242 -1.83374 0
M  V30 2369 O 248.993 1.61388 -1.94191 0
M  V30 2370 C 250.306 -1.56041 -2.57044 0
M  V30 2371 C 251.854 -1.56769 -2.7091 0
M  V30 2372 C 252.329 -2.49688 -3.83953 0
M  V30 2373 N 253.82 -2.47845 -3.91314 0
M  V30 2374 C 254.555 -3.16437 -4.78179 0
M  V30 2375 N 254.051 -3.94376 -5.69596 0
M  V30 2376 N 255.844 -3.05498 -4.71834 0
M  V30 2377 H 247.995 -1.85866 -1.02798 0
M  V30 2378 H 250.258 -0.797506 -0.512531 0
M  V30 2379 H 249.964 -2.59671 -2.372 0
M  V30 2380 H 249.838 -1.29551 -3.54255 0
M  V30 2381 H 252.225 -0.538745 -2.90141 0
M  V30 2382 H 252.306 -1.87305 -1.74214 0
M  V30 2383 H 251.95 -3.52688 -3.65477 0
M  V30 2384 H 251.88 -2.16453 -4.80058 0
M  V30 2385 H 254.371 -1.91234 -3.25941 0
M  V30 2386 H 254.684 -4.43721 -6.32718 0
M  V30 2387 H 253.029 -3.98481 -5.69419 0
M  V30 2388 H 256.22 -2.44108 -3.99411 0
M  V30 2389 H 256.393 -3.59225 -5.39316 0
M  V30 2390 N 249.799 1.42003 -0.683588 0
M  V30 2391 C 250.747 2.326 0.000815408 0
M  V30 2392 C 251.741 1.50308 0.781278 0
M  V30 2393 O 252.947 1.66322 0.688251 0
M  V30 2394 H 249.322 0.751758 0.0190616 0
M  V30 2395 H 251.293 2.88011 -0.780528 0
M  V30 2396 C 250.042 3.34978 0.93195 0
M  V30 2397 H 249.365 3.98345 0.340817 0
M  V30 2398 H 250.805 4.00936 1.37936 0
M  V30 2399 C 249.264 2.67925 2.04249 0
M  V30 2400 O 249.794 2.51788 3.12995 0
M  V30 2401 N 248 2.2681 1.81675 0
M  V30 2402 H 247.547 2.40135 0.932363 0
M  V30 2403 H 247.505 1.8228 2.56167 0
M  V30 2404 N 251.277 0.427512 1.51691 0
M  V30 2405 C 252.526 -0.143679 2.01188 0
M  V30 2406 C 252.839 -1.44642 1.31674 0
M  V30 2407 O 254.045 -2.09997 1.72086 0
M  V30 2408 C 252.501 -0.306602 3.58592 0
M  V30 2409 C 252.109 0.985125 4.37035 0
M  V30 2410 C 253.853 -0.832091 4.16265 0
M  V30 2411 C 251.76 0.788382 5.86122 0
M  V30 2412 H 250.69 -0.0574701 0.751807 0
M  V30 2413 H 253.341 0.555772 1.74881 0
M  V30 2414 H 251.723 -1.06882 3.81303 0
M  V30 2415 H 252.897 1.75492 4.26074 0
M  V30 2416 H 251.212 1.4384 3.90767 0
M  V30 2417 H 253.809 -0.995617 5.25349 0
M  V30 2418 H 254.152 -1.81186 3.74803 0
M  V30 2419 H 254.685 -0.128444 3.97593 0
M  V30 2420 H 251.424 1.74025 6.31978 0
M  V30 2421 H 250.944 0.0582143 5.99772 0
M  V30 2422 H 252.623 0.437722 6.45518 0
M  V30 2423 N 252.755 -1.56801 0.158532 0
M  V30 2424 C 253.688 -2.13148 -0.815065 0
M  V30 2425 C 254.666 -1.0581 -1.23462 0
M  V30 2426 O 255.85 -1.3371 -1.32868 0
M  V30 2427 C 252.977 -2.6606 -2.09594 0
M  V30 2428 C 252.023 -3.85651 -1.82141 0
M  V30 2429 S 252.856 -5.26041 -1.00207 0
M  V30 2430 C 254.012 -5.8235 -2.29389 0
M  V30 2431 H 254.245 -2.95396 -0.335937 0
M  V30 2432 H 251.778 -1.54299 -0.0559391 0
M  V30 2433 H 253.736 -2.97195 -2.8317 0
M  V30 2434 H 252.397 -1.83921 -2.54621 0
M  V30 2435 H 251.59 -4.20958 -2.77147 0
M  V30 2436 H 251.192 -3.55338 -1.16667 0
M  V30 2437 H 253.484 -5.94485 -3.24952 0
M  V30 2438 H 254.427 -6.79688 -1.9857 0
M  V30 2439 H 254.835 -5.10675 -2.40564 0
M  V30 2440 N 254.233 0.115231 -1.57178 0
M  V30 2441 C 255.18 1.14115 -2.00615 0
M  V30 2442 C 256.15 1.40939 -0.878941 0
M  V30 2443 O 257.335 1.52741 -1.14345 0
M  V30 2444 C 254.475 2.46156 -2.4187 0
M  V30 2445 C 253.588 2.26236 -3.68024 0
M  V30 2446 C 252.723 3.51534 -3.98243 0
M  V30 2447 C 251.762 3.26787 -5.17568 0
M  V30 2448 N 250.899 4.44298 -5.43639 0
M  V30 2449 H 255.739 0.763743 -2.88047 0
M  V30 2450 H 253.276 0.365615 -1.42484 0
M  V30 2451 H 255.234 3.23189 -2.63827 0
M  V30 2452 H 253.864 2.81783 -1.57475 0
M  V30 2453 H 252.916 1.40102 -3.5366 0
M  V30 2454 H 254.228 2.03929 -4.55208 0
M  V30 2455 H 253.382 4.36984 -4.20868 0
M  V30 2456 H 252.121 3.76876 -3.09541 0
M  V30 2457 H 251.126 2.39729 -4.94783 0
M  V30 2458 H 252.351 3.02812 -6.0785 0
M  V30 2459 H 250.297 4.69754 -4.57895 0
M  V30 2460 H 250.214 4.25109 -6.25154 0
M  V30 2461 H 251.482 5.3087 -5.70786 0
M  V30 2462 N 255.711 1.52812 0.385517 0
M  V30 2463 C 256.988 1.5861 1.14465 0
M  V30 2464 C 257.368 0.381402 2.07626 0
M  V30 2465 O 256.716 -0.629999 2.19643 0
M  V30 2466 C 256.926 2.92664 1.90128 0
M  V30 2467 C 258.274 3.46526 2.45367 0
M  V30 2468 O 259.298 2.94562 2.0028 0
M  V30 2469 O 258.157 4.37323 3.27736 0
M  V30 2470 H 255.251 0.639855 0.523941 0
M  V30 2471 H 257.797 1.65149 0.390389 0
M  V30 2472 H 256.569 3.71788 1.22022 0
M  V30 2473 H 256.192 2.89527 2.72507 0
M  V30 2474 N 257.189 -0.644168 1.43834 0
M  V30 2475 C 258.136 -1.75671 1.49694 0
M  V30 2476 C 259.106 -1.6246 0.345809 0
M  V30 2477 O 260.291 -1.82573 0.554234 0
M  V30 2478 C 257.431 -3.13867 1.43463 0
M  V30 2479 C 256.544 -3.38147 2.6885 0
M  V30 2480 C 255.679 -4.66241 2.54544 0
M  V30 2481 C 254.718 -4.83657 3.75157 0
M  V30 2482 N 253.855 -6.03016 3.59605 0
M  V30 2483 H 258.695 -1.69998 2.44754 0
M  V30 2484 H 256.232 -0.829458 1.21484 0
M  V30 2485 H 258.19 -3.9377 1.37843 0
M  V30 2486 H 256.82 -3.18588 0.519783 0
M  V30 2487 H 255.872 -2.52276 2.84712 0
M  V30 2488 H 257.184 -3.46899 3.58417 0
M  V30 2489 H 256.338 -5.54285 2.46683 0
M  V30 2490 H 255.077 -4.59826 1.62516 0
M  V30 2491 H 254.082 -3.94046 3.83416 0
M  V30 2492 H 255.307 -4.91896 4.68204 0
M  V30 2493 H 253.253 -5.97715 2.7032 0
M  V30 2494 H 253.17 -6.12766 4.42779 0
M  V30 2495 H 254.438 -6.93657 3.55613 0
M  V30 2496 N 258.668 -1.30515 -0.883378 0
M  V30 2497 C 259.616 -1.16941 -2.01066 0
M  V30 2498 C 260.61 -0.0809148 -1.69207 0
M  V30 2499 O 261.816 -0.241877 -1.78367 0
M  V30 2500 H 258.191 -0.361705 -0.659298 0
M  V30 2501 H 260.162 -2.12344 -2.09649 0
M  V30 2502 C 258.911 -0.879694 -3.36388 0
M  V30 2503 H 258.234 -1.70936 -3.61415 0
M  V30 2504 H 259.674 -0.82483 -4.159 0
M  V30 2505 C 258.133 0.417409 -3.34304 0
M  V30 2506 O 258.663 1.43843 -3.75063 0
M  V30 2507 N 256.869 0.429141 -2.87414 0
M  V30 2508 H 256.416 -0.402222 -2.5444 0
M  V30 2509 H 256.374 1.29696 -2.86403 0
M  V30 2510 N 260.146 1.09593 -1.13257 0
M  V30 2511 C 261.374 1.855 -0.916378 0
M  V30 2512 C 261.789 1.81069 0.534738 0
M  V30 2513 O 261.146 1.20562 1.37007 0
M  V30 2514 C 261.197 3.33546 -1.39388 0
M  V30 2515 O 260.918 3.37927 -2.78813 0
M  V30 2516 C 262.419 4.26299 -1.21588 0
M  V30 2517 H 259.639 0.585991 -0.326887 0
M  V30 2518 H 262.183 1.38488 -1.5047 0
M  V30 2519 H 260.338 3.77992 -0.848597 0
M  V30 2520 H 260.752 4.30254 -2.9997 0
M  V30 2521 H 262.226 5.28341 -1.59876 0
M  V30 2522 H 262.703 4.38918 -0.157376 0
M  V30 2523 H 263.309 3.87668 -1.7491 0
M  V30 2524 N 261.624 0.925811 1.2754 0
M  V30 2525 C 263.035 0.610102 1.7645 0
M  V30 2526 C 263.386 -0.874723 1.75622 0
M  V30 2527 O 262.511 -1.68444 1.35851 0
M  V30 2528 C 263.106 1.10073 3.20421 0
M  V30 2529 C 261.665 0.835723 3.67005 0
M  V30 2530 C 260.812 1.26054 2.46993 0
M  V30 2531 H 263.763 1.10579 1.13833 0
M  V30 2532 H 263.784 0.447557 3.77859 0
M  V30 2533 H 263.296 2.18143 3.20991 0
M  V30 2534 H 261.397 -0.231249 3.71882 0
M  V30 2535 H 261.51 1.45193 4.56569 0
M  V30 2536 H 259.874 0.679111 2.45479 0
M  V30 2537 H 260.657 2.34984 2.50275 0
M  V30 2538 N 263.102 -1.41638 0.69111 0
M  V30 2539 C 264.349 -2.01299 0.220193 0
M  V30 2540 C 264.677 -1.54715 -1.17871 0
M  V30 2541 O 263.932 -0.747193 -1.80874 0
M  V30 2542 C 264.231 -3.56714 0.221277 0
M  V30 2543 C 263.897 -4.22792 1.56709 0
M  V30 2544 C 262.559 -4.40557 1.93554 0
M  V30 2545 C 264.911 -4.59883 2.45268 0
M  V30 2546 C 262.239 -4.92688 3.18552 0
M  V30 2547 C 264.591 -5.13403 3.69595 0
M  V30 2548 C 263.255 -5.29379 4.06589 0
M  V30 2549 H 262.525 -0.736606 0.0805743 0
M  V30 2550 H 265.172 -1.69598 0.889319 0
M  V30 2551 H 263.477 -3.8818 -0.531391 0
M  V30 2552 H 265.174 -4.00678 -0.160547 0
M  V30 2553 H 261.764 -4.09336 1.2705 0
M  V30 2554 H 265.948 -4.45817 2.18084 0
M  V30 2555 H 261.204 -5.03242 3.47214 0
M  V30 2556 H 265.378 -5.41084 4.38407 0
M  V30 2557 H 263.005 -5.69537 5.03519 0
M  V30 2558 N 264.58 -0.43555 -1.51462 0
M  V30 2559 C 265.82 0.130708 -2.03982 0
M  V30 2560 C 266.184 1.40117 -1.31268 0
M  V30 2561 O 267.385 2.04755 -1.74152 0
M  V30 2562 C 265.656 0.346102 -3.5572 0
M  V30 2563 S 267.215 0.876022 -4.29967 0
M  V30 2564 H 264.033 0.0326881 -0.710248 0
M  V30 2565 H 266.635 -0.594544 -1.8624 0
M  V30 2566 H 265.339 -0.584911 -4.0621 0
M  V30 2567 H 264.87 1.09849 -3.77752 0
M  V30 2568 H 266.885 2.15379 -4.47019 0
M  V30 2569 N 266.058 1.56714 -0.166846 0
M  V30 2570 C 267.286 2.0112 0.485644 0
M  V30 2571 C 267.701 1.04705 1.57106 0
M  V30 2572 O 267.058 0.0471923 1.82439 0
M  V30 2573 C 267.109 3.45361 1.06808 0
M  V30 2574 O 266.83 4.38092 0.0259995 0
M  V30 2575 C 268.331 4.05145 1.79924 0
M  V30 2576 H 265.551 0.65931 0.124704 0
M  V30 2577 H 268.095 2.02746 -0.267262 0
M  V30 2578 H 266.25 3.44524 1.7715 0
M  V30 2579 H 266.664 5.22519 0.455398 0
M  V30 2580 H 268.138 5.08009 2.15942 0
M  V30 2581 H 268.615 3.46982 2.69258 0
M  V30 2582 H 269.221 4.09672 1.14234 0
M  V30 2583 N 267.536 -0.106894 1.57237 0
M  V30 2584 C 268.947 -0.662723 1.74542 0
M  V30 2585 C 269.298 -1.7971 0.787319 0
M  V30 2586 O 268.423 -2.16368 -0.0369636 0
M  V30 2587 C 269.018 -1.20896 3.16496 0
M  V30 2588 C 267.577 -1.71096 3.35266 0
M  V30 2589 C 266.724 -0.615642 2.7038 0
M  V30 2590 H 269.675 0.119106 1.58252 0
M  V30 2591 H 269.696 -2.07847 3.18716 0
M  V30 2592 H 269.208 -0.383122 3.86204 0
M  V30 2593 H 267.309 -2.56119 2.70618 0
M  V30 2594 H 267.422 -1.81208 4.43509 0
M  V30 2595 H 265.786 -1.05222 2.31949 0
M  V30 2596 H 266.569 0.199419 3.4272 0
M  V30 2597 N 269.014 -1.53014 -0.377408 0
M  V30 2598 C 269.962 -1.7927 -1.48206 0
M  V30 2599 C 270.956 -0.661195 -1.55963 0
M  V30 2600 O 272.162 -0.843908 -1.58991 0
M  V30 2601 H 268.537 -0.567425 -0.493491 0
M  V30 2602 H 270.508 -2.71753 -1.2326 0
M  V30 2603 C 269.257 -1.98894 -2.85196 0
M  V30 2604 H 268.58 -2.85395 -2.79981 0
M  V30 2605 H 270.02 -2.21249 -3.61698 0
M  V30 2606 C 268.479 -0.764691 -3.28107 0
M  V30 2607 O 269.009 0.0523226 -4.01666 0
M  V30 2608 N 267.215 -0.591493 -2.84517 0
M  V30 2609 H 266.762 -1.25749 -2.24822 0
M  V30 2610 H 266.72 0.226253 -3.13585 0
M  V30 2611 N 270.492 0.636531 -1.44174 0
M  V30 2612 C 271.738 1.39826 -1.4689 0
M  V30 2613 C 272.071 1.93947 -0.0990585 0
M  V30 2614 O 271.346 1.73325 0.882544 0
M  V30 2615 C 271.629 2.56751 -2.5249 0
M  V30 2616 C 271.482 2.08014 -3.98811 0
M  V30 2617 C 272.801 3.58946 -2.54649 0
M  V30 2618 H 269.92 0.507075 -0.53483 0
M  V30 2619 H 272.562 0.720188 -1.75822 0
M  V30 2620 H 270.712 3.14597 -2.2795 0
M  V30 2621 H 272.384 1.5504 -4.34466 0
M  V30 2622 H 270.627 1.39242 -4.10846 0
M  V30 2623 H 271.298 2.92169 -4.68339 0
M  V30 2624 H 273.774 3.1089 -2.76563 0
M  V30 2625 H 272.65 4.38286 -3.3045 0
M  V30 2626 H 272.911 4.12655 -1.58646 0
M  V30 2627 N 271.97 1.30982 0.876444 0
M  V30 2628 C 272.902 1.13902 1.98894 0
M  V30 2629 C 273.915 0.0798815 1.62604 0
M  V30 2630 O 275.104 0.326743 1.75484 0
M  V30 2631 C 272.204 0.716699 3.31235 0
M  V30 2632 C 271.377 1.85945 3.95908 0
M  V30 2633 C 270.436 1.42426 5.06558 0
M  V30 2634 O 269.462 2.13287 5.27729 0
M  V30 2635 N 270.664 0.308025 5.79682 0
M  V30 2636 H 273.429 2.09724 2.14094 0
M  V30 2637 H 270.99 1.2323 1.05004 0
M  V30 2638 H 272.982 0.408403 4.02634 0
M  V30 2639 H 271.552 -0.149719 3.12241 0
M  V30 2640 H 270.772 2.33541 3.17573 0
M  V30 2641 H 272.06 2.62503 4.35855 0
M  V30 2642 H 271.458 -0.282241 5.64995 0
M  V30 2643 H 270.015 0.0592282 6.51773 0
M  V30 2644 N 273.449 -1.08991 1.13837 0
M  V30 2645 C 274.677 -1.85011 0.926202 0
M  V30 2646 C 275.092 -1.8135 -0.525127 0
M  V30 2647 O 274.449 -1.21287 -1.36366 0
M  V30 2648 C 274.5 -3.32802 1.41155 0
M  V30 2649 O 274.221 -3.36444 2.80601 0
M  V30 2650 C 275.722 -4.25649 1.23847 0
M  V30 2651 H 272.942 -0.584249 0.32999 0
M  V30 2652 H 275.486 -1.37688 1.51202 0
M  V30 2653 H 273.641 -3.77536 0.868631 0
M  V30 2654 H 274.055 -4.28657 3.02248 0
M  V30 2655 H 275.529 -5.27485 1.62675 0
M  V30 2656 H 276.006 -4.38828 0.18065 0
M  V30 2657 H 276.612 -3.86735 1.76964 0
M  V30 2658 N 274.927 -0.932562 -1.27047 0
M  V30 2659 C 276.343 -0.633544 -1.46487 0
M  V30 2660 C 276.543 0.815746 -1.84249 0
M  V30 2661 O 275.599 1.59319 -1.95892 0
M  V30 2662 C 276.912 -1.58758 -2.55375 0
M  V30 2663 C 278.46 -1.59634 -2.69232 0
M  V30 2664 C 278.935 -2.53747 -3.81283 0
M  V30 2665 N 280.426 -2.51982 -3.88664 0
M  V30 2666 C 281.161 -3.21491 -4.74796 0
M  V30 2667 N 280.657 -4.00395 -5.65381 0
M  V30 2668 N 282.45 -3.10485 -4.68568 0
M  V30 2669 H 274.601 -1.86946 -1.00821 0
M  V30 2670 H 276.864 -0.802897 -0.504044 0
M  V30 2671 H 276.57 -2.62172 -2.34432 0
M  V30 2672 H 276.444 -1.33301 -3.52861 0
M  V30 2673 H 278.831 -0.569488 -2.89553 0
M  V30 2674 H 278.912 -1.89142 -1.72218 0
M  V30 2675 H 278.556 -3.56545 -3.61715 0
M  V30 2676 H 278.486 -2.21532 -4.77735 0
M  V30 2677 H 280.977 -1.94681 -3.23895 0
M  V30 2678 H 281.29 -4.50406 -6.27976 0
M  V30 2679 H 279.635 -4.04498 -5.65161 0
M  V30 2680 H 282.826 -2.48331 -3.96799 0
M  V30 2681 H 282.999 -3.64925 -5.35475 0
M  V30 2682 N 276.405 1.4127 -0.698611 0
M  V30 2683 C 277.821 1.55241 -0.370462 0
M  V30 2684 C 278.021 1.67351 1.12231 0
M  V30 2685 O 277.077 1.65363 1.90818 0
M  V30 2686 C 278.39 2.78997 -1.12165 0
M  V30 2687 C 279.938 2.92797 -1.1063 0
M  V30 2688 C 280.413 4.19445 -1.8393 0
M  V30 2689 N 281.904 4.26409 -1.80914 0
M  V30 2690 C 282.639 5.23271 -2.34467 0
M  V30 2691 N 282.135 6.26145 -2.96504 0
M  V30 2692 N 283.928 5.15232 -2.24706 0
M  V30 2693 H 276.079 1.31654 -1.66676 0
M  V30 2694 H 278.342 0.635393 -0.703548 0
M  V30 2695 H 278.048 2.76268 -2.17644 0
M  V30 2696 H 277.922 3.70606 -0.702209 0
M  V30 2697 H 280.309 2.95039 -0.0597713 0
M  V30 2698 H 280.39 2.02353 -1.56483 0
M  V30 2699 H 280.034 4.17964 -2.88563 0
M  V30 2700 H 279.964 5.08866 -1.35509 0
M  V30 2701 H 282.455 3.527 -1.35687 0
M  V30 2702 H 282.768 6.96451 -3.34927 0
M  V30 2703 H 281.113 6.26638 -3.00583 0
M  V30 2704 H 284.304 4.33789 -1.7591 0
M  V30 2705 H 284.477 5.90552 -2.66745 0
M  V30 2706 N 277.883 0.443576 1.51229 0
M  V30 2707 C 279.131 -0.120557 2.0174 0
M  V30 2708 C 279.452 -1.42665 1.32935 0
M  V30 2709 O 278.722 -1.9028 0.465866 0
M  V30 2710 H 277.302 -0.0475426 0.745486 0
M  V30 2711 H 279.964 0.587711 1.85828 0
M  V30 2712 H 279.06 -0.291972 3.10731 0
M  V30 2713 N 279.361 -1.56624 0.175154 0
M  V30 2714 C 280.777 -1.58571 -0.180966 0
M  V30 2715 C 280.977 -1.19065 -1.6256 0
M  V30 2716 O 280.033 -0.904044 -2.35761 0
M  V30 2717 C 281.346 -3.00522 0.103326 0
M  V30 2718 C 282.894 -3.12972 0.0418426 0
M  V30 2719 C 283.369 -4.57022 0.299175 0
M  V30 2720 N 284.86 -4.62541 0.247086 0
M  V30 2721 C 285.595 -5.71857 0.420318 0
M  V30 2722 N 285.091 -6.89717 0.652816 0
M  V30 2723 N 286.884 -5.60972 0.355957 0
M  V30 2724 H 279.035 -1.80589 1.11809 0
M  V30 2725 H 281.298 -0.837178 0.444788 0
M  V30 2726 H 281.004 -3.33916 1.10422 0
M  V30 2727 H 280.878 -3.72344 -0.603299 0
M  V30 2728 H 283.265 -2.79403 -0.949636 0
M  V30 2729 H 283.346 -2.43578 0.781238 0
M  V30 2730 H 282.99 -4.913 1.28788 0
M  V30 2731 H 282.92 -5.24579 -0.460876 0
M  V30 2732 H 285.411 -3.77829 0.0731895 0
M  V30 2733 H 285.724 -7.68911 0.774347 0
M  V30 2734 H 284.069 -6.91572 0.689476 0
M  V30 2735 H 287.26 -4.67773 0.174882 0
M  V30 2736 H 287.433 -6.46111 0.494388 0
M  V30 2737 N 280.839 0.0985539 -1.57292 0
M  V30 2738 C 282.085 0.803867 -1.86188 0
M  V30 2739 C 282.418 1.78549 -0.763794 0
M  V30 2740 O 281.693 1.93153 0.22855 0
M  V30 2741 C 281.976 1.53568 -3.25713 0
M  V30 2742 C 281.829 0.572277 -4.46145 0
M  V30 2743 C 283.148 2.48708 -3.63087 0
M  V30 2744 H 280.267 0.290781 -0.677211 0
M  V30 2745 H 282.909 0.0675783 -1.8988 0
M  V30 2746 H 281.059 2.16332 -3.22696 0
M  V30 2747 H 282.731 -0.0480894 -4.61275 0
M  V30 2748 H 280.974 -0.114618 -4.33649 0
M  V30 2749 H 281.645 1.12139 -5.40489 0
M  V30 2750 H 284.121 1.96039 -3.67026 0
M  V30 2751 H 282.997 2.96932 -4.61652 0
M  V30 2752 H 283.258 3.32309 -2.91588 0
M  V30 2753 N 282.317 1.53212 0.369288 0
M  V30 2754 C 283.264 1.79388 1.45219 0
M  V30 2755 C 284.234 0.638059 1.53356 0
M  V30 2756 O 285.419 0.879852 1.69302 0
M  V30 2757 C 282.559 1.98623 2.82211 0
M  V30 2758 C 281.672 3.26337 2.8307 0
M  V30 2759 C 280.807 3.35779 4.11614 0
M  V30 2760 C 279.846 4.5754 4.06601 0
M  V30 2761 N 278.983 4.64155 5.26787 0
M  V30 2762 H 283.823 2.71794 1.22198 0
M  V30 2763 H 281.36 1.34642 0.592444 0
M  V30 2764 H 283.318 2.07761 3.61789 0
M  V30 2765 H 281.948 1.09558 3.03639 0
M  V30 2766 H 281 3.26171 1.95747 0
M  V30 2767 H 282.312 4.15988 2.75237 0
M  V30 2768 H 281.466 3.44208 4.99606 0
M  V30 2769 H 280.205 2.44137 4.22195 0
M  V30 2770 H 279.21 4.49215 3.16996 0
M  V30 2771 H 280.435 5.50519 3.97625 0
M  V30 2772 H 278.381 3.75413 5.3796 0
M  V30 2773 H 278.298 5.47706 5.21109 0
M  V30 2774 H 279.566 4.76863 6.16621 0
M  V30 2775 N 283.795 -0.628877 1.44509 0
M  V30 2776 C 285.044 -1.38437 1.4669 0
M  V30 2777 C 285.357 -1.95322 0.104272 0
M  V30 2778 O 286.563 -2.715 0.00362163 0
M  V30 2779 C 285.019 -2.50659 2.5826 0
M  V30 2780 C 284.627 -2.00277 4.0074 0
M  V30 2781 C 286.371 -3.27844 2.69664 0
M  V30 2782 C 284.278 -3.09854 5.0373 0
M  V30 2783 H 283.208 -0.520245 0.545766 0
M  V30 2784 H 285.859 -0.676313 1.70582 0
M  V30 2785 H 284.241 -3.2405 2.27612 0
M  V30 2786 H 285.415 -1.33736 4.40966 0
M  V30 2787 H 283.73 -1.35901 3.93599 0
M  V30 2788 H 286.327 -4.09534 3.43781 0
M  V30 2789 H 286.67 -3.77471 1.75559 0
M  V30 2790 H 287.203 -2.61543 2.99733 0
M  V30 2791 H 283.942 -2.65168 5.99472 0
M  V30 2792 H 283.462 -3.7503 4.68095 0
M  V30 2793 H 285.141 -3.74592 5.27532 0
M  V30 2794 N 285.273 -1.31445 -0.869486 0
M  V30 2795 C 286.55 -1.11795 -1.60503 0
M  V30 2796 C 286.93 0.327168 -2.08549 0
M  V30 2797 O 286.278 1.32135 -1.8642 0
M  V30 2798 C 286.488 -2.13258 -2.76265 0
M  V30 2799 C 287.836 -2.45805 -3.46215 0
M  V30 2800 O 288.86 -2.11688 -2.86473 0
M  V30 2801 O 287.719 -3.04228 -4.5399 0
M  V30 2802 H 284.813 -0.430421 -0.706163 0
M  V30 2803 H 287.359 -1.42925 -0.914907 0
M  V30 2804 H 286.131 -3.10461 -2.3818 0
M  V30 2805 H 285.754 -1.83035 -3.52964 0
M  V30 2806 N 286.751 1.08385 -1.14413 0
M  V30 2807 C 287.661 2.18856 -0.844951 0
M  V30 2808 C 288.677 1.73121 0.174668 0
M  V30 2809 O 289.853 2.014 0.00312857 0
M  V30 2810 C 286.918 3.45155 -0.32696 0
M  V30 2811 C 285.979 4.05513 -1.40916 0
M  V30 2812 C 285.212 5.25784 -0.915793 0
M  V30 2813 O 285.435 5.69884 0.242651 0
M  V30 2814 O 284.369 5.77545 -1.69487 0
M  V30 2815 H 288.195 2.46919 -1.76818 0
M  V30 2816 H 285.78 1.17524 -0.922411 0
M  V30 2817 H 287.662 4.21377 -0.0440211 0
M  V30 2818 H 286.337 3.18668 0.568539 0
M  V30 2819 H 285.244 3.30879 -1.74556 0
M  V30 2820 H 286.577 4.3625 -2.27919 0
M  V30 2821 N 288.23 0.939286 1.26551 0
M  V30 2822 C 289.476 0.586715 1.94128 0
M  V30 2823 C 289.809 -0.8717 1.73537 0
M  V30 2824 O 289.084 -1.62339 1.07127 0
M  V30 2825 C 289.367 0.927497 3.4795 0
M  V30 2826 C 289.22 2.44052 3.77834 0
M  V30 2827 C 290.539 0.441569 4.37879 0
M  V30 2828 H 287.658 0.21463 0.705055 0
M  V30 2829 H 290.3 1.17316 1.49455 0
M  V30 2830 H 288.45 0.428431 3.8613 0
M  V30 2831 H 290.122 3.01216 3.4938 0
M  V30 2832 H 288.365 2.8848 3.23978 0
M  V30 2833 H 289.036 2.62947 4.85348 0
M  V30 2834 H 291.512 0.869448 4.06915 0
M  V30 2835 H 290.388 0.708856 5.44304 0
M  V30 2836 H 290.649 -0.658467 4.37169 0
M  V30 2837 N 289.708 -1.40897 0.706093 0
M  V30 2838 C 290.933 -2.05895 0.249435 0
M  V30 2839 C 291.358 -1.52823 -1.09666 0
M  V30 2840 O 290.716 -0.659589 -1.68876 0
M  V30 2841 C 290.764 -3.59872 0.22904 0
M  V30 2842 O 289.868 -4.04708 -0.792784 0
M  V30 2843 H 289.209 -0.653206 0.119241 0
M  V30 2844 H 291.739 -1.80471 0.96391 0
M  V30 2845 H 291.749 -4.07951 0.0634791 0
M  V30 2846 H 290.424 -3.97866 1.21141 0
M  V30 2847 H 289.001 -3.68111 -0.59572 0
M  V30 2848 N 291.186 -0.45159 -1.50991 0
M  V30 2849 C 292.602 -0.104647 -1.59257 0
M  V30 2850 C 292.802 1.38728 -1.4614 0
M  V30 2851 O 291.858 2.15866 -1.30989 0
M  V30 2852 C 293.171 -0.637468 -2.93865 0
M  V30 2853 C 294.719 -0.599166 -3.07212 0
M  V30 2854 C 295.194 -1.1092 -4.44366 0
M  V30 2855 N 296.685 -1.06778 -4.50725 0
M  V30 2856 C 297.42 -1.43314 -5.55201 0
M  V30 2857 N 296.916 -1.87204 -6.67028 0
M  V30 2858 N 298.709 -1.3504 -5.45638 0
M  V30 2859 H 290.86 -1.42214 -1.57762 0
M  V30 2860 H 293.123 -0.586921 -0.744465 0
M  V30 2861 H 292.829 -1.68187 -3.08879 0
M  V30 2862 H 292.703 -0.0702139 -3.77135 0
M  V30 2863 H 295.09 0.436277 -2.91857 0
M  V30 2864 H 295.171 -1.20299 -2.25747 0
M  V30 2865 H 294.815 -2.14318 -4.60467 0
M  V30 2866 H 294.745 -0.481773 -5.24392 0
M  V30 2867 H 297.236 -0.745643 -3.70471 0
M  V30 2868 H 297.549 -2.13282 -7.42786 0
M  V30 2869 H 295.894 -1.91142 -6.68199 0
M  V30 2870 H 299.085 -1.00607 -4.57161 0
M  V30 2871 H 299.258 -1.63841 -6.26945 0
M  V30 2872 N 292.664 1.56529 -0.183458 0
M  V30 2873 C 293.597 2.14417 0.781052 0
M  V30 2874 C 294.575 1.07761 1.21763 0
M  V30 2875 O 295.759 1.35807 1.30724 0
M  V30 2876 C 292.886 2.69361 2.05335 0
M  V30 2877 C 291.932 3.885 1.75982 0
M  V30 2878 S 292.765 5.27568 0.918256 0
M  V30 2879 C 293.921 5.85926 2.20095 0
M  V30 2880 H 294.154 2.95893 0.2889 0
M  V30 2881 H 291.687 1.54368 0.0313844 0
M  V30 2882 H 293.645 3.01662 2.78406 0
M  V30 2883 H 292.306 1.87949 2.51663 0
M  V30 2884 H 291.499 4.25314 2.70415 0
M  V30 2885 H 291.101 3.57149 1.10999 0
M  V30 2886 H 293.393 5.99579 3.15453 0
M  V30 2887 H 294.336 6.82761 1.87731 0
M  V30 2888 H 294.744 5.14438 2.32409 0
M  V30 2889 N 294.142 -0.090211 1.57342 0
M  V30 2890 C 295.389 -0.792807 1.86335 0
M  V30 2891 C 295.717 -1.78494 0.772662 0
M  V30 2892 O 294.972 -1.94305 -0.233258 0
M  V30 2893 C 295.271 -1.55222 3.21933 0
M  V30 2894 C 294.937 -0.701765 4.45406 0
M  V30 2895 C 293.599 -0.467334 4.78925 0
M  V30 2896 C 295.951 -0.11086 5.21082 0
M  V30 2897 C 293.279 0.367785 5.85546 0
M  V30 2898 C 295.631 0.711609 6.28585 0
M  V30 2899 C 294.295 0.956086 6.60617 0
M  V30 2900 H 293.565 -0.290109 0.681849 0
M  V30 2901 H 296.212 -0.0541332 1.91423 0
M  V30 2902 H 294.517 -2.3626 3.12551 0
M  V30 2903 H 296.214 -2.10032 3.41595 0
M  V30 2904 H 292.804 -0.894598 4.1916 0
M  V30 2905 H 296.988 -0.279129 4.95514 0
M  V30 2906 H 292.244 0.566128 6.08773 0
M  V30 2907 H 296.418 1.17632 6.86393 0
M  V30 2908 H 294.045 1.60499 7.43064 0
M  V30 2909 N 295.62 -1.53406 -0.361157 0
M  V30 2910 C 297.036 -1.43277 -0.703124 0
M  V30 2911 C 297.236 -0.575384 -1.9311 0
M  V30 2912 O 296.292 -0.0595362 -2.5243 0
M  V30 2913 C 297.605 -2.8653 -0.9122 0
M  V30 2914 C 299.153 -2.96191 -1.01193 0
M  V30 2915 C 299.628 -4.40514 -1.25345 0
M  V30 2916 N 301.119 -4.43962 -1.32105 0
M  V30 2917 C 301.854 -5.52746 -1.5251 0
M  V30 2918 N 301.35 -6.71567 -1.70203 0
M  V30 2919 N 303.143 -5.40331 -1.54916 0
M  V30 2920 H 295.294 -2.07654 0.446475 0
M  V30 2921 H 297.557 -0.937944 0.137715 0
M  V30 2922 H 297.263 -3.51605 -0.0816414 0
M  V30 2923 H 297.137 -3.30441 -1.81903 0
M  V30 2924 H 299.524 -2.31266 -1.83303 0
M  V30 2925 H 299.605 -2.55667 -0.0823929 0
M  V30 2926 H 299.249 -5.06014 -0.437346 0
M  V30 2927 H 299.179 -4.78614 -2.19627 0
M  V30 2928 H 301.67 -3.58332 -1.20028 0
M  V30 2929 H 301.983 -7.50241 -1.85359 0
M  V30 2930 H 300.328 -6.74545 -1.67373 0
M  V30 2931 H 303.519 -4.46465 -1.40663 0
M  V30 2932 H 303.692 -6.25173 -1.70477 0
M  V30 2933 N 297.098 0.621204 -1.44841 0
M  V30 2934 C 298.046 1.75385 -1.52784 0
M  V30 2935 C 299.04 1.64639 -0.398779 0
M  V30 2936 O 300.246 1.70598 -0.574137 0
M  V30 2937 H 296.621 0.579193 -0.479625 0
M  V30 2938 H 298.592 1.6581 -2.48092 0
M  V30 2939 C 297.341 3.13742 -1.4987 0
M  V30 2940 H 296.664 3.22663 -2.36069 0
M  V30 2941 H 298.104 3.92861 -1.59487 0
M  V30 2942 C 296.563 3.36175 -0.220973 0
M  V30 2943 O 297.093 3.95469 0.704782 0
M  V30 2944 N 295.299 2.90348 -0.120963 0
M  V30 2945 H 294.846 2.42278 -0.875162 0
M  V30 2946 H 294.804 3.05732 0.733168 0
M  V30 2947 N 298.576 1.31904 0.862503 0
M  V30 2948 C 299.804 1.24998 1.64873 0
M  V30 2949 C 300.219 -0.183425 1.87907 0
M  V30 2950 O 299.576 -1.11794 1.44251 0
M  V30 2951 C 299.627 1.99829 3.01248 0
M  V30 2952 O 299.348 3.37575 2.79239 0
M  V30 2953 C 300.849 1.99852 3.95694 0
M  V30 2954 H 298.069 0.431599 0.513773 0
M  V30 2955 H 300.613 1.73901 1.07604 0
M  V30 2956 H 298.768 1.54668 3.55185 0
M  V30 2957 H 299.182 3.75776 3.65914 0
M  V30 2958 H 300.656 2.56709 4.88676 0
M  V30 2959 H 301.133 0.982852 4.28062 0
M  V30 2960 H 301.739 2.44926 3.47694 0
M  V30 2961 N 300.054 -1.07777 1.14986 0
M  V30 2962 C 301.002 -2.16964 0.838406 0
M  V30 2963 C 301.996 -1.68372 -0.186386 0
M  V30 2964 O 303.202 -1.79951 -0.0418465 0
M  V30 2965 H 299.577 -0.708006 0.253439 0
M  V30 2966 H 301.548 -2.40454 1.76704 0
M  V30 2967 C 300.297 -3.4604 0.339335 0
M  V30 2968 H 299.62 -3.83813 1.11927 0
M  V30 2969 H 301.06 -4.23698 0.160021 0
M  V30 2970 C 299.519 -3.23569 -0.938325 0
M  V30 2971 O 300.049 -3.47752 -2.01077 0
M  V30 2972 N 298.255 -2.77079 -0.876117 0
M  V30 2973 H 297.802 -2.576 -0.00322037 0
M  V30 2974 H 297.76 -2.62422 -1.73153 0
M  V30 2975 N 301.532 -0.945985 -1.26051 0
M  V30 2976 C 302.948 -0.649045 -1.45807 0
M  V30 2977 C 303.148 0.796158 -1.85104 0
M  V30 2978 O 302.204 1.57233 -1.97571 0
M  V30 2979 C 303.517 -1.61458 -2.53677 0
M  V30 2980 C 305.065 -1.62481 -2.67524 0
M  V30 2981 C 305.54 -2.57776 -3.7857 0
M  V30 2982 N 307.031 -2.5609 -3.85969 0
M  V30 2983 C 307.766 -3.26508 -4.7136 0
M  V30 2984 N 307.262 -4.0637 -5.61102 0
M  V30 2985 N 309.055 -3.15437 -4.65248 0
M  V30 2986 H 301.206 -1.88005 -0.988328 0
M  V30 2987 H 303.469 -0.808198 -0.4955 0
M  V30 2988 H 303.175 -2.64644 -2.31638 0
M  V30 2989 H 303.049 -1.37036 -3.51427 0
M  V30 2990 H 305.436 -0.600167 -2.88933 0
M  V30 2991 H 305.517 -1.90958 -1.70202 0
M  V30 2992 H 305.161 -3.60361 -3.57913 0
M  V30 2993 H 305.091 -2.26587 -4.75359 0
M  V30 2994 H 307.582 -1.98105 -3.21812 0
M  V30 2995 H 307.895 -4.57042 -6.23164 0
M  V30 2996 H 306.24 -4.10469 -5.60839 0
M  V30 2997 H 309.431 -2.52525 -3.94143 0
M  V30 2998 H 309.604 -3.70584 -5.31575 0
M  V30 2999 N 303.011 1.40521 -0.713556 0
M  V30 3000 C 304.236 2.05759 -0.26035 0
M  V30 3001 C 304.661 1.53403 1.08854 0
M  V30 3002 O 304.019 0.668535 1.68524 0
M  V30 3003 C 304.067 3.59745 -0.248122 0
M  V30 3004 O 303.171 4.05123 0.77131 0
M  V30 3005 H 302.512 0.652564 -0.122703 0
M  V30 3006 H 305.042 1.79958 -0.973467 0
M  V30 3007 H 305.052 4.07911 -0.0851129 0
M  V30 3008 H 303.727 3.97218 -1.2325 0
M  V30 3009 H 302.304 3.68422 0.57619 0
M  V30 3010 N 304.489 0.459591 1.5075 0
M  V30 3011 C 305.419 -0.330644 2.31147 0
M  V30 3012 C 306.4 -1.00087 1.37538 0
M  V30 3013 O 307.585 -1.00025 1.66459 0
M  V30 3014 C 304.715 -1.41958 3.16962 0
M  V30 3015 C 303.669 -0.871608 4.19031 0
M  V30 3016 C 302.995 -2.05797 4.9351 0
M  V30 3017 C 304.295 0.109251 5.22186 0
M  V30 3018 H 305.989 0.340336 2.97459 0
M  V30 3019 H 303.535 0.165119 1.4305 0
M  V30 3020 H 305.488 -1.9798 3.71997 0
M  V30 3021 H 304.212 -2.11917 2.48513 0
M  V30 3022 H 302.871 -0.333442 3.6508 0
M  V30 3023 H 302.519 -2.74427 4.21544 0
M  V30 3024 H 302.219 -1.6976 5.62544 0
M  V30 3025 H 303.743 -2.62331 5.51375 0
M  V30 3026 H 305.157 -0.361405 5.7216 0
M  V30 3027 H 303.554 0.383316 5.98875 0
M  V30 3028 H 304.624 1.03887 4.73641 0
M  V30 3029 N 305.967 -1.56429 0.191757 0
M  V30 3030 C 306.877 -2.22541 -0.742481 0
M  V30 3031 C 307.893 -1.22342 -1.23727 0
M  V30 3032 O 309.069 -1.55069 -1.28513 0
M  V30 3033 C 306.134 -2.8692 -1.94623 0
M  V30 3034 C 305.195 -4.02378 -1.49633 0
M  V30 3035 C 304.428 -4.63678 -2.6427 0
M  V30 3036 O 304.651 -4.23895 -3.81666 0
M  V30 3037 O 303.585 -5.53202 -2.37174 0
M  V30 3038 H 307.411 -3.02977 -0.209462 0
M  V30 3039 H 304.996 -1.49353 -0.0373832 0
M  V30 3040 H 306.878 -3.27663 -2.64982 0
M  V30 3041 H 305.553 -2.09466 -2.46791 0
M  V30 3042 H 304.46 -3.66265 -0.761636 0
M  V30 3043 H 305.793 -4.81487 -1.02134 0
M  V30 3044 N 307.445 0.0818655 -1.57387 0
M  V30 3045 C 308.675 0.794954 -1.90694 0
M  V30 3046 C 309.083 1.72147 -0.784982 0
M  V30 3047 O 308.426 1.81974 0.251196 0
M  V30 3048 C 308.488 1.65042 -3.19376 0
M  V30 3049 C 308.152 0.894337 -4.48164 0
M  V30 3050 C 309.149 0.21813 -5.19442 0
M  V30 3051 C 306.834 0.864495 -4.94805 0
M  V30 3052 C 308.828 -0.477802 -6.35607 0
M  V30 3053 C 306.515 0.164785 -6.10878 0
M  V30 3054 C 307.513 -0.505173 -6.81129 0
M  V30 3055 O 307.201 -1.19363 -7.94989 0
M  V30 3056 H 306.933 0.231779 -0.635023 0
M  V30 3057 H 309.487 0.059493 -2.05314 0
M  V30 3058 H 307.717 2.42844 -3.00938 0
M  V30 3059 H 309.406 2.24127 -3.38411 0
M  V30 3060 H 310.172 0.232558 -4.84442 0
M  V30 3061 H 306.051 1.37542 -4.40004 0
M  V30 3062 H 309.595 -1.00129 -6.90377 0
M  V30 3063 H 305.492 0.148249 -6.4533 0
M  V30 3064 H 306.26 -1.10188 -8.11049 0
M  V30 3065 N 308.923 1.53595 0.353017 0
M  V30 3066 C 309.87 1.80919 1.43308 0
M  V30 3067 C 310.84 0.654288 1.5267 0
M  V30 3068 O 312.025 0.897759 1.6836 0
M  V30 3069 C 309.165 2.01605 2.80089 0
M  V30 3070 C 308.278 3.29321 2.79593 0
M  V30 3071 C 307.413 3.40125 4.0803 0
M  V30 3072 C 306.452 4.61826 4.01725 0
M  V30 3073 N 305.589 4.69716 5.21834 0
M  V30 3074 H 310.429 2.73074 1.19308 0
M  V30 3075 H 307.966 1.35263 0.578131 0
M  V30 3076 H 309.924 2.11586 3.59565 0
M  V30 3077 H 308.554 1.12772 3.0246 0
M  V30 3078 H 307.606 3.28229 1.92276 0
M  V30 3079 H 308.918 4.18884 2.70809 0
M  V30 3080 H 308.072 3.49488 4.95927 0
M  V30 3081 H 306.811 2.48601 4.19582 0
M  V30 3082 H 305.816 4.52552 3.12213 0
M  V30 3083 H 307.041 5.54705 3.91764 0
M  V30 3084 H 304.987 3.81097 5.33948 0
M  V30 3085 H 304.904 5.53202 5.1527 0
M  V30 3086 H 306.172 4.83376 6.11529 0
M  V30 3087 N 310.401 -0.613514 1.45168 0
M  V30 3088 C 311.349 -1.74572 1.53712 0
M  V30 3089 C 312.343 -1.64426 0.407505 0
M  V30 3090 O 313.549 -1.70291 0.583176 0
M  V30 3091 H 309.924 -0.576641 0.48269 0
M  V30 3092 H 311.895 -1.64492 2.48968 0
M  V30 3093 C 310.644 -3.12943 1.51532 0
M  V30 3094 H 309.967 -3.21407 2.37776 0
M  V30 3095 H 311.407 -3.9201 1.61569 0
M  V30 3096 C 309.866 -3.36053 0.238798 0
M  V30 3097 O 310.396 -3.95837 -0.6838 0
M  V30 3098 N 308.602 -2.9028 0.136359 0
M  V30 3099 H 308.149 -2.41811 0.887999 0
M  V30 3100 H 308.107 -3.06116 -0.716944 0
M  V30 3101 N 311.879 -1.3236 -0.855495 0
M  V30 3102 C 312.809 -1.23833 -1.97958 0
M  V30 3103 C 313.79 -0.122361 -1.69659 0
M  V30 3104 O 314.975 -0.30939 -1.9172 0
M  V30 3105 C 312.105 -0.959772 -3.33775 0
M  V30 3106 C 311.059 -2.03689 -3.76424 0
M  V30 3107 C 310.385 -1.61075 -5.09862 0
M  V30 3108 C 311.685 -3.4518 -3.9198 0
M  V30 3109 H 313.379 -2.1788 -2.0535 0
M  V30 3110 H 310.925 -1.04891 -0.986605 0
M  V30 3111 H 312.878 -0.886678 -4.11966 0
M  V30 3112 H 311.602 0.0163404 -3.26596 0
M  V30 3113 H 310.261 -2.10012 -3.00484 0
M  V30 3114 H 309.909 -0.622107 -4.99138 0
M  V30 3115 H 309.609 -2.33143 -5.39368 0
M  V30 3116 H 311.133 -1.55201 -5.90546 0
M  V30 3117 H 312.547 -3.4145 -4.60526 0
M  V30 3118 H 310.944 -4.1559 -4.32903 0
M  V30 3119 H 312.014 -3.84903 -2.94919 0
M  V30 3120 N 313.357 1.07166 -1.15556 0
M  V30 3121 C 314.768 1.6127 -0.940693 0
M  V30 3122 C 315.119 1.89251 0.517551 0
M  V30 3123 O 314.244 1.65937 1.38903 0
M  V30 3124 C 314.839 2.92993 -1.7012 0
M  V30 3125 C 313.398 3.43832 -1.53156 0
M  V30 3126 C 312.545 2.1786 -1.71558 0
M  V30 3127 H 315.496 0.90229 -1.30554 0
M  V30 3128 H 315.517 3.62007 -1.17181 0
M  V30 3129 H 315.029 2.72596 -2.76248 0
M  V30 3130 H 313.13 3.69307 -0.494294 0
M  V30 3131 H 313.243 4.19747 -2.30975 0
M  V30 3132 H 311.607 2.2765 -1.14225 0
M  V30 3133 H 312.39 1.99956 -2.79056 0
M  V30 3134 N 314.835 0.952656 1.25548 0
M  V30 3135 C 316.082 0.606373 1.93208 0
M  V30 3136 C 316.41 -0.85631 1.74636 0
M  V30 3137 O 315.665 -1.62951 1.08376 0
M  V30 3138 C 315.964 0.908818 3.45652 0
M  V30 3139 C 315.63 2.35722 3.84378 0
M  V30 3140 C 314.292 2.75312 3.9466 0
M  V30 3141 C 316.644 3.29793 4.03591 0
M  V30 3142 C 313.972 4.08047 4.21562 0
M  V30 3143 C 316.324 4.62138 4.31985 0
M  V30 3144 C 314.988 5.01528 4.40484 0
M  V30 3145 H 314.258 0.221888 0.706998 0
M  V30 3146 H 316.905 1.20132 1.49133 0
M  V30 3147 H 315.21 0.231456 3.91116 0
M  V30 3148 H 316.907 0.619498 3.96186 0
M  V30 3149 H 313.497 2.04017 3.76928 0
M  V30 3150 H 317.681 3.00397 3.95064 0
M  V30 3151 H 312.937 4.38212 4.26357 0
M  V30 3152 H 317.111 5.35012 4.45797 0
M  V30 3153 H 314.738 6.04406 4.61083 0
M  V30 3154 N 316.313 -1.40141 0.720998 0
M  V30 3155 C 317.541 -2.05096 0.272656 0
M  V30 3156 C 317.956 -1.54334 -1.0875 0
M  V30 3157 O 317.313 -0.702211 -1.6845 0
M  V30 3158 C 317.364 -3.60636 0.249835 0
M  V30 3159 O 317.085 -4.09526 1.55629 0
M  V30 3160 C 318.586 -4.42772 -0.216396 0
M  V30 3161 H 315.806 -0.659897 0.121558 0
M  V30 3162 H 318.35 -1.79449 0.980723 0
M  V30 3163 H 316.505 -3.85232 -0.409237 0
M  V30 3164 H 316.919 -5.03758 1.4604 0
M  V30 3165 H 318.393 -5.51702 -0.181212 0
M  V30 3166 H 318.87 -4.20756 -1.25941 0
M  V30 3167 H 319.476 -4.23294 0.412596 0
M  V30 3168 N 317.792 -0.46758 -1.50504 0
M  V30 3169 C 319.041 0.0902868 -2.01498 0
M  V30 3170 C 319.354 1.411 -1.35463 0
M  V30 3171 O 320.56 2.0536 -1.77594 0
M  V30 3172 C 319.016 0.21142 -3.59278 0
M  V30 3173 C 318.624 -1.10065 -4.34269 0
M  V30 3174 C 320.368 0.721433 -4.18325 0
M  V30 3175 C 318.275 -0.943505 -5.83825 0
M  V30 3176 H 317.205 0.037517 -0.753066 0
M  V30 3177 H 319.856 -0.601943 -1.73346 0
M  V30 3178 H 318.238 0.967352 -3.84003 0
M  V30 3179 H 319.412 -1.86726 -4.21272 0
M  V30 3180 H 317.727 -1.5415 -3.86816 0
M  V30 3181 H 320.324 0.85598 -5.27804 0
M  V30 3182 H 320.667 1.71186 -3.79475 0
M  V30 3183 H 321.2 0.0229843 -3.97793 0
M  V30 3184 H 317.939 -1.90719 -6.27141 0
M  V30 3185 H 317.459 -0.217213 -5.99407 0
M  V30 3186 H 319.138 -0.608715 -6.4413 0
M  V30 3187 N 319.27 1.56325 -0.20005 0
M  V30 3188 C 320.681 1.8408 0.31167 0
M  V30 3189 C 321.032 1.12087 1.61031 0
M  V30 3190 O 320.157 0.38332 2.12978 0
M  V30 3191 C 320.752 3.33932 0.57226 0
M  V30 3192 C 319.311 3.6208 1.02834 0
M  V30 3193 C 318.458 2.77186 0.079634 0
M  V30 3194 H 321.409 1.52939 -0.423729 0
M  V30 3195 H 321.43 3.52971 1.42096 0
M  V30 3196 H 320.942 3.86303 -0.37308 0
M  V30 3197 H 319.043 3.15147 1.98778 0
M  V30 3198 H 319.156 4.7023 0.917624 0
M  V30 3199 H 317.52 2.47951 0.582448 0
M  V30 3200 H 318.303 3.32347 -0.860238 0
M  V30 3201 N 320.748 -0.0735177 1.57428 0
M  V30 3202 C 321.973 -0.789787 1.91774 0
M  V30 3203 C 322.398 -1.70413 0.796306 0
M  V30 3204 O 321.756 -1.79555 -0.250961 0
M  V30 3205 C 321.804 -1.5609 3.25067 0
M  V30 3206 O 320.908 -2.67144 3.14178 0
M  V30 3207 H 320.249 -0.215582 0.628029 0
M  V30 3208 H 322.779 -0.0422781 2.04556 0
M  V30 3209 H 322.789 -1.94052 3.58898 0
M  V30 3210 H 321.464 -0.890015 4.06265 0
M  V30 3211 H 320.041 -2.32052 2.91901 0
M  V30 3212 N 322.226 -1.5378 -0.344866 0
M  V30 3213 C 323.159 -1.7649 -1.4466 0
M  V30 3214 C 324.137 -0.613954 -1.50563 0
M  V30 3215 O 325.321 -0.84896 -1.683 0
M  V30 3216 C 322.448 -1.86235 -2.82903 0
M  V30 3217 C 321.494 -3.08375 -2.94631 0
M  V30 3218 S 322.327 -4.67457 -2.61236 0
M  V30 3219 C 323.483 -4.80079 -4.0159 0
M  V30 3220 H 323.716 -2.69661 -1.2518 0
M  V30 3221 H 321.249 -1.44632 -0.540455 0
M  V30 3222 H 323.207 -1.92535 -3.62547 0
M  V30 3223 H 321.868 -0.940786 -2.9968 0
M  V30 3224 H 321.061 -3.11865 -3.95925 0
M  V30 3225 H 320.663 -3.00294 -2.22934 0
M  V30 3226 H 322.955 -4.61407 -4.96094 0
M  V30 3227 H 323.898 -5.82168 -4.03095 0
M  V30 3228 H 324.306 -4.08544 -3.89554 0
M  V30 3229 N 323.704 0.605807 -1.45491 0
M  V30 3230 C 324.654 1.71074 -1.50724 0
M  V30 3231 C 325.638 1.5658 -0.37033 0
M  V30 3232 O 326.83 1.65887 -0.617299 0
M  V30 3233 C 323.959 3.0983 -1.47852 0
M  V30 3234 C 323.045 3.29704 -2.66751 0
M  V30 3235 N 323.436 3.19831 -3.91844 0
M  V30 3236 C 321.734 3.60579 -2.62486 0
M  V30 3237 C 322.435 3.41083 -4.71208 0
M  V30 3238 N 321.411 3.65157 -4.02693 0
M  V30 3239 H 325.213 1.61937 -2.45263 0
M  V30 3240 H 322.727 0.80912 -1.40808 0
M  V30 3241 H 324.724 3.89101 -1.49686 0
M  V30 3242 H 323.384 3.20115 -0.543714 0
M  V30 3243 H 324.395 2.98194 -4.23439 0
M  V30 3244 H 321.072 3.7769 -1.77922 0
M  V30 3245 H 322.462 3.38828 -5.80211 0
M  V30 3246 N 325.182 1.32811 0.848464 0
M  V30 3247 C 326.114 1.18095 1.96433 0
M  V30 3248 C 327.127 0.114354 1.62398 0
M  V30 3249 O 328.316 0.363892 1.74751 0
M  V30 3250 C 325.416 0.786798 3.2964 0
M  V30 3251 C 324.589 1.943 3.91875 0
M  V30 3252 C 323.648 1.53138 5.03423 0
M  V30 3253 O 322.674 2.24432 5.23086 0
M  V30 3254 N 323.876 0.430915 5.78898 0
M  V30 3255 H 326.641 2.14218 2.09597 0
M  V30 3256 H 324.202 1.2543 1.02367 0
M  V30 3257 H 326.194 0.493715 4.01677 0
M  V30 3258 H 324.764 -0.0834541 3.12489 0
M  V30 3259 H 323.984 2.40224 3.12547 0
M  V30 3260 H 325.272 2.71689 4.30189 0
M  V30 3261 H 324.67 -0.162333 5.65467 0
M  V30 3262 H 323.227 0.197466 6.51501 0
M  V30 3263 N 326.66 -1.06551 1.16123 0
M  V30 3264 C 327.906 -1.79567 0.94252 0
M  V30 3265 C 328.239 -1.86869 -0.528547 0
M  V30 3266 O 327.514 -1.35838 -1.39206 0
M  V30 3267 C 327.797 -3.24195 1.56747 0
M  V30 3268 C 327.65 -3.24989 3.10969 0
M  V30 3269 C 328.969 -4.21678 1.25998 0
M  V30 3270 H 326.088 -0.651883 0.343828 0
M  V30 3271 H 328.73 -1.2463 1.43413 0
M  V30 3272 H 326.88 -3.71107 1.14942 0
M  V30 3273 H 328.552 -2.86258 3.61737 0
M  V30 3274 H 326.795 -2.63716 3.44436 0
M  V30 3275 H 327.466 -4.27005 3.49815 0
M  V30 3276 H 329.942 -3.83196 1.62174 0
M  V30 3277 H 328.818 -5.21146 1.7233 0
M  V30 3278 H 329.079 -4.4174 0.178367 0
M  V30 3279 N 328.138 -0.959301 -1.25041 0
M  V30 3280 C 329.068 -0.501388 -2.28053 0
M  V30 3281 C 330.049 0.454673 -1.63911 0
M  V30 3282 O 331.234 0.352618 -1.90972 0
M  V30 3283 C 328.364 0.217224 -3.4662 0
M  V30 3284 C 327.318 -0.654034 -4.22973 0
M  V30 3285 C 326.644 0.195589 -5.34342 0
M  V30 3286 C 327.944 -1.93447 -4.85155 0
M  V30 3287 H 329.638 -1.36238 -2.66608 0
M  V30 3288 H 327.184 -0.656534 -1.28163 0
M  V30 3289 H 329.137 0.548732 -4.17812 0
M  V30 3290 H 327.861 1.1125 -3.07068 0
M  V30 3291 H 326.52 -0.968693 -3.5357 0
M  V30 3292 H 326.168 1.09076 -4.91031 0
M  V30 3293 H 325.868 -0.384091 -5.86343 0
M  V30 3294 H 327.392 0.521958 -6.08365 0
M  V30 3295 H 328.806 -1.66908 -5.48466 0
M  V30 3296 H 327.203 -2.46018 -5.47353 0
M  V30 3297 H 328.273 -2.63466 -4.07079 0
M  V30 3298 N 329.616 1.39756 -0.72842 0
M  V30 3299 C 330.893 1.94574 -0.200079 0
M  V30 3300 C 331.273 1.66569 1.29684 0
M  V30 3301 O 330.621 0.990326 2.05924 0
M  V30 3302 C 330.831 3.45004 -0.526608 0
M  V30 3303 C 332.179 4.21965 -0.472318 0
M  V30 3304 O 333.203 3.53173 -0.463413 0
M  V30 3305 O 332.062 5.44552 -0.461075 0
M  V30 3306 H 329.156 0.826289 -0.0342851 0
M  V30 3307 H 331.702 1.49293 -0.806829 0
M  V30 3308 H 330.474 3.58796 -1.56144 0
M  V30 3309 H 330.097 3.97449 0.109449 0
M  V30 3310 N 331.094 0.475555 1.50254 0
M  V30 3311 C 332.004 -0.321501 2.32387 0
M  V30 3312 C 333.02 -0.991755 1.42969 0
M  V30 3313 O 334.196 -0.978747 1.76018 0
M  V30 3314 C 331.261 -1.38667 3.17762 0
M  V30 3315 C 330.322 -0.732538 4.23004 0
M  V30 3316 C 329.555 -1.74695 5.04299 0
M  V30 3317 O 329.778 -2.97399 4.86734 0
M  V30 3318 O 328.712 -1.31631 5.8733 0
M  V30 3319 H 332.538 0.350071 3.01676 0
M  V30 3320 H 330.123 0.237321 1.47503 0
M  V30 3321 H 332.005 -2.00354 3.70724 0
M  V30 3322 H 330.68 -2.04163 2.51196 0
M  V30 3323 H 329.587 -0.0765902 3.74022 0
M  V30 3324 H 330.92 -0.120452 4.92053 0
M  V30 3325 N 332.573 -1.56217 0.208337 0
M  V30 3326 C 333.536 -2.18455 -0.693557 0
M  V30 3327 C 334.536 -1.14268 -1.13135 0
M  V30 3328 O 335.726 -1.39577 -1.0423 0
M  V30 3329 C 332.858 -2.79727 -1.94848 0
M  V30 3330 H 334.051 -2.99519 -0.15114 0
M  V30 3331 H 331.604 -1.56245 -0.041287 0
M  V30 3332 H 332.339 -2.02497 -2.53309 0
M  V30 3333 H 332.124 -3.56009 -1.64316 0
M  V30 3334 H 333.614 -3.27475 -2.59133 0
M  V30 3335 N 334.051 0.0651679 -1.57465 0
M  V30 3336 C 335.3 0.761916 -1.86756 0
M  V30 3337 C 335.613 1.78406 -0.801925 0
M  V30 3338 O 336.819 2.53084 -0.982885 0
M  V30 3339 C 335.275 1.40603 -3.31299 0
M  V30 3340 C 334.883 0.422115 -4.46007 0
M  V30 3341 C 336.627 2.08476 -3.69781 0
M  V30 3342 C 334.534 1.07252 -5.81593 0
M  V30 3343 H 333.464 0.288308 -0.696702 0
M  V30 3344 H 336.115 0.015344 -1.83494 0
M  V30 3345 H 334.497 2.20109 -3.29193 0
M  V30 3346 H 335.671 -0.343613 -4.59517 0
M  V30 3347 H 333.986 -0.152527 -4.16121 0
M  V30 3348 H 336.583 2.57925 -4.68379 0
M  V30 3349 H 336.926 2.88712 -2.99919 0
M  V30 3350 H 337.459 1.35792 -3.73905 0
M  V30 3351 H 334.198 0.310342 -6.54765 0
M  V30 3352 H 333.718 1.80895 -5.71872 0
M  V30 3353 H 335.397 1.59043 -6.27148 0
M  V30 3354 N 335.529 1.53961 0.336706 0
M  V30 3355 C 336.476 1.82428 1.41381 0
M  V30 3356 C 337.446 0.670444 1.51968 0
M  V30 3357 O 338.631 0.915565 1.67398 0
M  V30 3358 C 335.771 2.04564 2.77934 0
M  V30 3359 C 334.884 3.32267 2.76084 0
M  V30 3360 C 334.019 3.44434 4.04399 0
M  V30 3361 C 333.058 4.66061 3.96804 0
M  V30 3362 N 332.195 4.75224 5.16823 0
M  V30 3363 H 337.035 2.74324 1.16405 0
M  V30 3364 H 334.572 1.35869 0.563752 0
M  V30 3365 H 336.53 2.15388 3.57301 0
M  V30 3366 H 335.16 1.15974 3.01247 0
M  V30 3367 H 334.212 3.3025 1.88784 0
M  V30 3368 H 335.524 4.21733 2.66351 0
M  V30 3369 H 334.678 3.54728 4.92192 0
M  V30 3370 H 333.417 2.53037 4.16921 0
M  V30 3371 H 332.422 4.55838 3.07396 0
M  V30 3372 H 333.647 5.58829 3.85858 0
M  V30 3373 H 331.593 3.86739 5.29876 0
M  V30 3374 H 331.51 5.58636 5.09374 0
M  V30 3375 H 332.778 4.89835 6.06367 0
M  V30 3376 N 337.007 -0.598083 1.45811 0
M  V30 3377 C 337.97 -1.69018 1.54808 0
M  V30 3378 C 338.97 -1.55037 0.426652 0
M  V30 3379 O 340.16 -1.59932 0.690456 0
M  V30 3380 C 337.292 -3.0835 1.45371 0
M  V30 3381 H 338.485 -1.62403 2.52121 0
M  V30 3382 H 336.038 -0.814626 1.33392 0
M  V30 3383 H 336.773 -3.20534 0.492793 0
M  V30 3384 H 336.558 -3.19907 2.26721 0
M  V30 3385 H 338.048 -3.8788 1.54721 0
M  V30 3386 N 338.485 -1.33259 -0.841409 0
M  V30 3387 C 339.725 -1.25902 -1.61022 0
M  V30 3388 C 340.089 0.173325 -1.91216 0
M  V30 3389 O 341.29 0.370824 -2.6623 0
M  V30 3390 C 339.561 -2.10735 -2.88662 0
M  V30 3391 S 341.12 -2.20541 -3.79351 0
M  V30 3392 H 337.938 -0.447958 -0.552137 0
M  V30 3393 H 340.54 -1.68263 -0.995382 0
M  V30 3394 H 339.244 -3.1384 -2.64448 0
M  V30 3395 H 338.775 -1.69201 -3.55154 0
M  V30 3396 H 340.79 -1.36462 -4.77067 0
M  V30 3397 N 339.963 1.05934 -1.16686 0
M  V30 3398 C 340.91 2.13499 -0.876748 0
M  V30 3399 C 341.88 1.65162 0.176299 0
M  V30 3400 O 343.065 1.90757 0.0407143 0
M  V30 3401 C 340.205 3.42912 -0.387967 0
M  V30 3402 C 339.318 4.04964 -1.50426 0
M  V30 3403 C 338.453 5.22266 -0.970125 0
M  V30 3404 C 337.492 5.76309 -2.06238 0
M  V30 3405 N 336.629 6.84922 -1.54356 0
M  V30 3406 H 341.469 2.37654 -1.7979 0
M  V30 3407 H 339.006 1.16598 -0.896843 0
M  V30 3408 H 340.964 4.17111 -0.086186 0
M  V30 3409 H 339.594 3.18963 0.496235 0
M  V30 3410 H 338.646 3.28277 -1.92193 0
M  V30 3411 H 339.958 4.41122 -2.32836 0
M  V30 3412 H 339.112 6.03506 -0.621743 0
M  V30 3413 H 337.851 4.87564 -0.115377 0
M  V30 3414 H 336.856 4.93704 -2.41942 0
M  V30 3415 H 338.081 6.13062 -2.92115 0
M  V30 3416 H 336.027 6.52131 -0.711406 0
M  V30 3417 H 335.944 7.20043 -2.30379 0
M  V30 3418 H 337.212 7.69832 -1.22387 0
M  V30 3419 N 341.441 0.965919 1.2453 0
M  V30 3420 C 342.669 0.644385 1.96609 0
M  V30 3421 C 343.084 -0.785823 1.71669 0
M  V30 3422 O 342.441 -1.52703 0.999399 0
M  V30 3423 C 342.492 0.907375 3.49927 0
M  V30 3424 O 342.213 2.28136 3.74013 0
M  V30 3425 C 343.714 0.599784 4.39224 0
M  V30 3426 H 340.934 0.240588 0.626385 0
M  V30 3427 H 343.478 1.29337 1.58405 0
M  V30 3428 H 341.633 0.304631 3.862 0
M  V30 3429 H 342.047 2.36002 4.68405 0
M  V30 3430 H 343.521 0.834263 5.45659 0
M  V30 3431 H 343.998 -0.465921 4.36722 0
M  V30 3432 H 344.604 1.18235 4.08535 0
M  V30 3433 N 342.919 -1.39368 0.735821 0
M  V30 3434 C 343.852 -2.28155 0.0451175 0
M  V30 3435 C 344.83 -1.44433 -0.746852 0
M  V30 3436 O 346.014 -1.73823 -0.729237 0
M  V30 3437 C 343.141 -3.253 -0.943266 0
M  V30 3438 C 342.187 -4.25826 -0.239685 0
M  V30 3439 S 343.02 -5.25166 1.04693 0
M  V30 3440 C 344.176 -6.2587 0.0611639 0
M  V30 3441 H 344.409 -2.86388 0.79807 0
M  V30 3442 H 341.942 -1.45104 0.527653 0
M  V30 3443 H 343.9 -3.81789 -1.50824 0
M  V30 3444 H 342.561 -2.66085 -1.66906 0
M  V30 3445 H 341.754 -4.94229 -0.987596 0
M  V30 3446 H 341.356 -3.73141 0.253274 0
M  V30 3447 H 343.648 -6.73007 -0.778941 0
M  V30 3448 H 344.591 -7.04508 0.712362 0
M  V30 3449 H 344.999 -5.63639 -0.311602 0
M  V30 3450 N 344.397 -0.483516 -1.5 0
M  V30 3451 C 345.329 0.340634 -2.26655 0
M  V30 3452 C 346.342 0.946152 -1.32483 0
M  V30 3453 O 347.531 0.832453 -1.579 0
M  V30 3454 C 344.631 1.4929 -3.04246 0
M  V30 3455 C 343.804 0.997903 -4.25865 0
M  V30 3456 C 342.863 2.02569 -4.85646 0
M  V30 3457 O 341.889 1.60128 -5.46212 0
M  V30 3458 N 343.091 3.3548 -4.73744 0
M  V30 3459 H 345.856 -0.316577 -2.98023 0
M  V30 3460 H 343.417 -0.315024 -1.58806 0
M  V30 3461 H 345.409 2.17766 -3.41116 0
M  V30 3462 H 343.979 2.05458 -2.35597 0
M  V30 3463 H 343.199 0.138617 -3.93956 0
M  V30 3464 H 344.487 0.645305 -5.04691 0
M  V30 3465 H 343.885 3.72661 -4.25605 0
M  V30 3466 H 342.442 3.99718 -5.14848 0
M  V30 3467 N 345.875 1.56104 -0.216619 0
M  V30 3468 C 347.121 1.98466 0.417033 0
M  V30 3469 C 347.454 1.10403 1.59765 0
M  V30 3470 O 346.729 0.160632 1.93836 0
M  V30 3471 C 347.012 3.49769 0.85637 0
M  V30 3472 C 346.865 4.48606 -0.327546 0
M  V30 3473 C 348.184 4.05339 1.7143 0
M  V30 3474 H 345.303 0.721551 0.150112 0
M  V30 3475 H 347.945 1.87423 -0.311864 0
M  V30 3476 H 346.095 3.5931 1.47745 0
M  V30 3477 H 347.767 4.5108 -0.965618 0
M  V30 3478 H 346.01 4.22682 -0.975805 0
M  V30 3479 H 346.681 5.51995 0.0227149 0
M  V30 3480 H 349.157 3.98712 1.19031 0
M  V30 3481 H 348.033 5.11533 1.99061 0
M  V30 3482 H 348.294 3.51918 2.67593 0
M  V30 3483 N 347.353 -0.0568162 1.57498 0
M  V30 3484 C 348.301 -1.08452 2.05769 0
M  V30 3485 C 349.295 -1.39164 0.965903 0
M  V30 3486 O 350.501 -1.38395 1.15095 0
M  V30 3487 H 346.876 -0.367148 0.656282 0
M  V30 3488 H 348.847 -0.651368 2.91204 0
M  V30 3489 C 347.596 -2.38543 2.52968 0
M  V30 3490 H 346.919 -2.15765 3.36579 0
M  V30 3491 H 348.359 -3.08863 2.90481 0
M  V30 3492 C 346.818 -3.05562 1.41893 0
M  V30 3493 O 347.348 -3.94262 0.769442 0
M  V30 3494 N 345.554 -2.6643 1.16032 0
M  V30 3495 H 345.101 -1.94387 1.6903 0
M  V30 3496 H 345.059 -3.11593 0.419219 0
M  V30 3497 N 348.832 -1.54138 -0.328536 0
M  V30 3498 C 349.78 -1.83894 -1.42428 0
M  V30 3499 C 350.774 -0.710478 -1.53781 0
M  V30 3500 O 351.98 -0.894062 -1.56226 0
M  V30 3501 H 348.355 -0.582837 -0.475189 0
M  V30 3502 H 350.326 -2.75537 -1.14552 0
M  V30 3503 C 349.075 -2.07866 -2.78724 0
M  V30 3504 H 348.398 -2.94158 -2.7076 0
M  V30 3505 H 349.838 -2.32644 -3.54476 0
M  V30 3506 C 348.297 -0.868689 -3.25508 0
M  V30 3507 O 348.827 -0.0754908 -4.01629 0
M  V30 3508 N 347.033 -0.681711 -2.82491 0
M  V30 3509 H 346.58 -1.32838 -2.20708 0
M  V30 3510 H 346.538 0.126374 -3.14146 0
M  V30 3511 N 350.31 0.590341 -1.46126 0
M  V30 3512 C 351.257 1.69994 -1.56111 0
M  V30 3513 C 352.227 1.61065 -0.405867 0
M  V30 3514 O 353.412 1.8039 -0.621613 0
M  V30 3515 C 350.552 3.08326 -1.55013 0
M  V30 3516 C 349.665 3.27936 -2.81215 0
M  V30 3517 C 348.8 4.56473 -2.71673 0
M  V30 3518 C 347.839 4.694 -3.92849 0
M  V30 3519 N 346.976 5.89254 -3.81738 0
M  V30 3520 H 351.816 1.60797 -2.50895 0
M  V30 3521 H 349.353 0.783799 -1.24479 0
M  V30 3522 H 351.311 3.88383 -1.52362 0
M  V30 3523 H 349.941 3.16439 -0.637667 0
M  V30 3524 H 348.993 2.41536 -2.93879 0
M  V30 3525 H 350.305 3.33357 -3.71045 0
M  V30 3526 H 349.459 5.44748 -2.67085 0
M  V30 3527 H 348.198 4.53477 -1.7947 0
M  V30 3528 H 347.203 3.79544 -3.97777 0
M  V30 3529 H 348.428 4.7418 -4.86138 0
M  V30 3530 H 346.374 5.87271 -2.92317 0
M  V30 3531 H 346.291 5.95911 -4.65217 0
M  V30 3532 H 347.559 6.79981 -3.81112 0
M  V30 3533 N 351.788 1.33704 0.83433 0
M  V30 3534 C 353.036 1.25169 1.58673 0
M  V30 3535 C 353.357 -0.18127 1.94156 0
M  V30 3536 O 352.627 -1.11113 1.6134 0
M  V30 3537 H 351.207 0.4603 0.58833 0
M  V30 3538 H 353.869 1.67478 0.996847 0
M  V30 3539 H 352.965 1.84856 2.51465 0
M  V30 3540 N 353.266 -1.05314 1.17247 0
M  V30 3541 C 354.515 -1.77685 0.954521 0
M  V30 3542 C 354.828 -1.88616 -0.518025 0
M  V30 3543 O 356.034 -2.57714 -0.854144 0
M  V30 3544 C 354.49 -3.19402 1.65863 0
M  V30 3545 C 354.098 -3.16605 3.16963 0
M  V30 3546 C 355.842 -3.96237 1.52303 0
M  V30 3547 C 353.749 -4.53103 3.80068 0
M  V30 3548 H 352.679 -0.666 0.353496 0
M  V30 3549 H 355.33 -1.1805 1.40486 0
M  V30 3550 H 353.712 -3.79355 1.13602 0
M  V30 3551 H 354.886 -2.66176 3.76148 0
M  V30 3552 H 353.201 -2.53268 3.30521 0
M  V30 3553 H 355.798 -4.97157 1.96822 0
M  V30 3554 H 356.141 -4.136 0.473401 0
M  V30 3555 H 356.674 -3.42829 2.01775 0
M  V30 3556 H 353.413 -4.40946 4.85023 0
M  V30 3557 H 352.933 -5.03686 3.2567 0
M  V30 3558 H 354.612 -5.22045 3.82202 0
M  V30 3559 N 354.744 -0.972509 -1.24016 0
M  V30 3560 C 355.676 -0.464375 -2.24446 0
M  V30 3561 C 356.689 0.4295 -1.57032 0
M  V30 3562 O 357.878 0.234902 -1.76948 0
M  V30 3563 C 354.978 0.348385 -3.37105 0
M  V30 3564 C 354.151 -0.53673 -4.34094 0
M  V30 3565 C 353.21 0.220838 -5.25736 0
M  V30 3566 O 352.236 -0.386867 -5.67884 0
M  V30 3567 N 353.438 1.50907 -5.60542 0
M  V30 3568 H 356.203 -1.32788 -2.68677 0
M  V30 3569 H 353.764 -0.844877 -1.38107 0
M  V30 3570 H 355.756 0.863341 -3.95384 0
M  V30 3571 H 354.326 1.11285 -2.92121 0
M  V30 3572 H 353.546 -1.23261 -3.74433 0
M  V30 3573 H 354.834 -1.14022 -4.95859 0
M  V30 3574 H 354.232 2.02444 -5.28236 0
M  V30 3575 H 352.789 1.96962 -6.21329 0
M  V30 3576 N 356.222 1.38976 -0.743202 0
M  V30 3577 C 357.471 1.99581 -0.291592 0
M  V30 3578 C 357.784 1.59656 1.13001 0
M  V30 3579 O 358.99 2.13157 1.68156 0
M  V30 3580 C 357.446 3.56813 -0.470391 0
M  V30 3581 C 357.054 4.05695 -1.90041 0
M  V30 3582 C 358.798 4.24423 -0.0809709 0
M  V30 3583 C 356.705 5.5553 -2.02832 0
M  V30 3584 H 355.635 0.746615 -0.105272 0
M  V30 3585 H 358.286 1.58872 -0.918258 0
M  V30 3586 H 356.668 3.95359 0.225299 0
M  V30 3587 H 357.842 3.78464 -2.62872 0
M  V30 3588 H 356.157 3.50775 -2.24379 0
M  V30 3589 H 358.754 5.34474 -0.155445 0
M  V30 3590 H 359.097 4.04962 0.96497 0
M  V30 3591 H 359.63 3.9108 -0.728124 0
M  V30 3592 H 356.369 5.79881 -3.05643 0
M  V30 3593 H 355.889 5.84537 -1.34448 0
M  V30 3594 H 357.568 6.21069 -1.81335 0
M  V30 3595 N 357.7 0.491464 1.49741 0
M  V30 3596 C 358.949 -0.0582189 2.01616 0
M  V30 3597 C 359.262 -1.38927 1.3769 0
M  V30 3598 O 360.468 -2.02509 1.80838 0
M  V30 3599 C 358.924 -0.154235 3.59569 0
M  V30 3600 C 358.532 1.1696 4.32463 0
M  V30 3601 C 360.276 -0.65479 4.1942 0
M  V30 3602 C 358.183 1.03627 5.8225 0
M  V30 3603 H 357.113 -0.0255317 0.753568 0
M  V30 3604 H 359.764 0.629445 1.72367 0
M  V30 3605 H 358.146 -0.906138 3.85493 0
M  V30 3606 H 359.32 1.93405 4.18248 0
M  V30 3607 H 357.635 1.60285 3.84315 0
M  V30 3608 H 360.232 -0.771903 5.29099 0
M  V30 3609 H 360.575 -1.65127 3.8215 0
M  V30 3610 H 361.108 0.040304 3.9778 0
M  V30 3611 H 357.847 2.00672 6.24028 0
M  V30 3612 H 357.367 0.312546 5.98985 0
M  V30 3613 H 359.046 0.711114 6.4308 0
M  V30 3614 N 359.178 -1.55987 0.224894 0
M  V30 3615 C 360.408 -2.02489 -0.41007 0
M  V30 3616 C 360.816 -1.10391 -1.53657 0
M  V30 3617 O 360.159 -0.106458 -1.83391 0
M  V30 3618 C 360.221 -3.45319 -0.999757 0
M  V30 3619 C 359.885 -4.56999 -0.00827976 0
M  V30 3620 C 360.882 -5.13812 0.793314 0
M  V30 3621 C 358.567 -5.02176 0.111442 0
M  V30 3622 C 360.561 -6.14276 1.7013 0
M  V30 3623 C 358.248 -6.02477 1.02296 0
M  V30 3624 C 359.246 -6.58403 1.81643 0
M  V30 3625 O 358.934 -7.56751 2.71262 0
M  V30 3626 H 358.666 -0.667915 -0.104235 0
M  V30 3627 H 361.22 -2.0257 0.339782 0
M  V30 3628 H 359.45 -3.42318 -1.79876 0
M  V30 3629 H 361.139 -3.7545 -1.54248 0
M  V30 3630 H 361.905 -4.79756 0.711288 0
M  V30 3631 H 357.784 -4.58323 -0.49605 0
M  V30 3632 H 361.328 -6.57854 2.32107 0
M  V30 3633 H 357.225 -6.35954 1.10599 0
M  V30 3634 H 357.993 -7.74286 2.65375 0
M  V30 3635 N 360.656 0.0484629 -1.57525 0
M  V30 3636 C 361.884 0.755421 -1.92616 0
M  V30 3637 C 362.299 1.69919 -0.822984 0
M  V30 3638 O 361.656 1.81378 0.202085 0
M  V30 3639 C 361.707 1.52915 -3.27566 0
M  V30 3640 O 361.428 0.62329 -4.33644 0
M  V30 3641 C 362.929 2.33502 -3.76818 0
M  V30 3642 H 360.149 0.213465 -0.63614 0
M  V30 3643 H 362.693 0.0117698 -2.04497 0
M  V30 3644 H 360.848 2.22486 -3.17142 0
M  V30 3645 H 361.262 1.16383 -5.11425 0
M  V30 3646 H 362.736 2.83214 -4.73808 0
M  V30 3647 H 363.213 3.14068 -3.07014 0
M  V30 3648 H 363.819 1.69043 -3.90262 0
M  V30 3649 N 362.134 1.5431 0.320358 0
M  V30 3650 C 363.55 1.45091 0.664889 0
M  V30 3651 C 363.75 0.626382 1.91517 0
M  V30 3652 O 362.806 0.126443 2.52183 0
M  V30 3653 C 364.119 2.88848 0.83591 0
M  V30 3654 C 365.667 2.9877 0.933046 0
M  V30 3655 C 366.142 4.43683 1.13621 0
M  V30 3656 N 367.633 4.47309 1.20287 0
M  V30 3657 C 368.368 5.56595 1.37801 0
M  V30 3658 N 367.864 6.75844 1.52338 0
M  V30 3659 N 369.657 5.44248 1.40535 0
M  V30 3660 H 361.808 2.06398 -0.501374 0
M  V30 3661 H 364.071 0.933963 -0.162534 0
M  V30 3662 H 363.777 3.51698 -0.0116092 0
M  V30 3663 H 363.651 3.35148 1.73078 0
M  V30 3664 H 366.038 2.36045 1.77107 0
M  V30 3665 H 366.119 2.55796 0.0145782 0
M  V30 3666 H 365.763 5.06995 0.303032 0
M  V30 3667 H 365.693 4.84269 2.0686 0
M  V30 3668 H 368.184 3.61388 1.10485 0
M  V30 3669 H 368.497 7.54892 1.65403 0
M  V30 3670 H 366.842 6.78746 1.4943 0
M  V30 3671 H 370.033 4.50038 1.28777 0
M  V30 3672 H 370.206 6.29473 1.53842 0
M  V30 3673 N 363.613 -0.582584 1.46437 0
M  V30 3674 C 364.561 -1.71272 1.5738 0
M  V30 3675 C 365.555 -1.63524 0.44229 0
M  V30 3676 O 366.761 -1.69016 0.619166 0
M  V30 3677 H 363.136 -0.566273 0.494813 0
M  V30 3678 H 365.107 -1.59174 2.52401 0
M  V30 3679 C 363.856 -3.09658 1.58136 0
M  V30 3680 H 363.179 -3.16291 2.44541 0
M  V30 3681 H 364.619 -3.88494 1.69847 0
M  V30 3682 C 363.078 -3.3547 0.310026 0
M  V30 3683 O 363.608 -3.97199 -0.599683 0
M  V30 3684 N 361.814 -2.89925 0.197901 0
M  V30 3685 H 361.361 -2.39873 0.93909 0
M  V30 3686 H 361.319 -3.07568 -0.65185 0
M  V30 3687 N 365.091 -1.34144 -0.827227 0
M  V30 3688 C 366.041 -1.21923 -1.92663 0
M  V30 3689 C 367.025 -0.119294 -1.60457 0
M  V30 3690 O 368.217 -0.348539 -1.73534 0
M  V30 3691 C 365.346 -0.972492 -3.29238 0
M  V30 3692 C 364.432 -2.1154 -3.67576 0
M  V30 3693 N 364.823 -3.36627 -3.77512 0
M  V30 3694 C 363.121 -2.02468 -3.97395 0
M  V30 3695 C 363.822 -4.11658 -4.1099 0
M  V30 3696 N 362.798 -3.40207 -4.23981 0
M  V30 3697 H 366.6 -2.16721 -1.98517 0
M  V30 3698 H 364.114 -1.2632 -1.02064 0
M  V30 3699 H 366.111 -0.865847 -4.0781 0
M  V30 3700 H 364.771 -0.0331509 -3.24683 0
M  V30 3701 H 365.782 -3.71234 -3.61118 0
M  V30 3702 H 362.459 -1.16265 -4.00985 0
M  V30 3703 H 363.849 -5.19657 -4.25918 0
M  V30 3704 N 366.569 1.04691 -1.17803 0
M  V30 3705 C 367.479 2.16057 -0.914151 0
M  V30 3706 C 368.495 1.73589 0.119503 0
M  V30 3707 O 369.671 2.01308 -0.0609468 0
M  V30 3708 C 366.736 3.4394 -0.436603 0
M  V30 3709 C 365.797 4.00825 -1.53746 0
M  V30 3710 C 365.03 5.22604 -1.0826 0
M  V30 3711 O 365.253 5.70367 0.0612244 0
M  V30 3712 O 364.187 5.7186 -1.87775 0
M  V30 3713 H 368.013 2.41169 -1.84584 0
M  V30 3714 H 365.598 1.1453 -0.959334 0
M  V30 3715 H 367.48 4.21024 -0.178057 0
M  V30 3716 H 366.155 3.20316 0.466869 0
M  V30 3717 H 365.062 3.25158 -1.84995 0
M  V30 3718 H 366.395 4.28778 -2.41683 0
M  V30 3719 N 368.047 0.979072 1.23499 0
M  V30 3720 C 369.293 0.648178 1.92163 0
M  V30 3721 C 369.626 -0.816049 1.76222 0
M  V30 3722 O 368.901 -1.58849 1.12237 0
M  V30 3723 C 369.184 1.03773 3.44824 0
M  V30 3724 C 369.037 2.55948 3.69879 0
M  V30 3725 C 370.356 0.580653 4.36253 0
M  V30 3726 H 367.475 0.236952 0.69787 0
M  V30 3727 H 370.117 1.22012 1.45647 0
M  V30 3728 H 368.267 0.551058 3.84572 0
M  V30 3729 H 369.939 3.12179 3.3962 0
M  V30 3730 H 368.182 2.98641 3.14636 0
M  V30 3731 H 368.853 2.78255 4.76737 0
M  V30 3732 H 371.329 0.998465 4.03943 0
M  V30 3733 H 370.205 0.881663 5.41773 0
M  V30 3734 H 370.466 -0.519052 4.39042 0
M  V30 3735 N 369.525 -1.3858 0.750561 0
M  V30 3736 C 370.472 -2.30483 0.120835 0
M  V30 3737 C 371.442 -1.50022 -0.712923 0
M  V30 3738 O 372.627 -1.78662 -0.669676 0
M  V30 3739 C 369.767 -3.36431 -0.768666 0
M  V30 3740 C 368.88 -4.31927 0.0793922 0
M  V30 3741 C 368.015 -5.24944 -0.81283 0
M  V30 3742 C 367.054 -6.12088 0.0390447 0
M  V30 3743 N 366.191 -6.97412 -0.809969 0
M  V30 3744 H 371.031 -2.83761 0.91015 0
M  V30 3745 H 368.568 -1.39707 0.460463 0
M  V30 3746 H 370.526 -3.96462 -1.29898 0
M  V30 3747 H 369.156 -2.8457 -1.5238 0
M  V30 3748 H 368.208 -3.73382 0.727303 0
M  V30 3749 H 369.52 -4.93319 0.737401 0
M  V30 3750 H 368.674 -5.90078 -1.41042 0
M  V30 3751 H 367.413 -4.63911 -1.50458 0
M  V30 3752 H 366.418 -5.45952 0.649328 0
M  V30 3753 H 367.643 -6.75189 0.727809 0
M  V30 3754 H 365.589 -6.38931 -1.48672 0
M  V30 3755 H 365.506 -7.55712 -0.208789 0
M  V30 3756 H 366.774 -7.66959 -1.39263 0
M  V30 3757 N 371.003 -0.499398 -1.49478 0
M  V30 3758 C 372.228 0.044722 -2.07352 0
M  V30 3759 C 372.653 1.30207 -1.35749 0
M  V30 3760 O 372.011 1.76516 -0.413732 0
M  V30 3761 C 372.059 0.283013 -3.59488 0
M  V30 3762 O 371.163 1.35804 -3.89398 0
M  V30 3763 H 370.504 -0.0255147 -0.66351 0
M  V30 3764 H 373.034 -0.698561 -1.92305 0
M  V30 3765 H 373.044 0.515007 -4.04737 0
M  V30 3766 H 371.719 -0.635636 -4.11014 0
M  V30 3767 H 370.296 1.11113 -3.55961 0
M  V30 3768 N 372.481 1.55866 -0.233164 0
M  V30 3769 C 373.391 2.24431 0.683217 0
M  V30 3770 C 374.407 1.2558 1.2044 0
M  V30 3771 O 375.583 1.58422 1.24356 0
M  V30 3772 C 372.648 2.91979 1.86947 0
M  V30 3773 C 371.709 4.06204 1.38912 0
M  V30 3774 C 370.942 4.70522 2.51883 0
M  V30 3775 O 371.165 4.33865 3.70293 0
M  V30 3776 O 370.099 5.59296 2.22423 0
M  V30 3777 H 373.925 3.03426 0.129059 0
M  V30 3778 H 371.51 1.494 -0.0022283 0
M  V30 3779 H 373.392 3.34573 2.56201 0
M  V30 3780 H 372.067 2.15935 2.41151 0
M  V30 3781 H 370.974 3.68155 0.664259 0
M  V30 3782 H 372.307 4.84025 0.893328 0
M  V30 3783 N 373.959 -0.0401083 1.57549 0
M  V30 3784 C 375.205 -0.734211 1.89043 0
M  V30 3785 C 375.538 -1.75591 0.829535 0
M  V30 3786 O 374.813 -1.93868 -0.156706 0
M  V30 3787 C 375.096 -1.41374 3.31188 0
M  V30 3788 C 374.949 -0.406299 4.47961 0
M  V30 3789 C 376.268 -2.35061 3.72068 0
M  V30 3790 H 373.387 -0.265447 0.687537 0
M  V30 3791 H 376.029 0.00294087 1.9 0
M  V30 3792 H 374.179 -2.04206 3.30503 0
M  V30 3793 H 375.851 0.219255 4.60779 0
M  V30 3794 H 374.094 0.275485 4.32924 0
M  V30 3795 H 374.765 -0.920022 5.44279 0
M  V30 3796 H 377.241 -1.82282 3.74049 0
M  V30 3797 H 376.117 -2.79593 4.72355 0
M  V30 3798 H 376.378 -3.21258 3.0372 0
M  V30 3799 N 375.437 -1.54477 -0.31217 0
M  V30 3800 C 376.714 -1.63891 -1.06767 0
M  V30 3801 C 377.094 -0.480028 -2.0557 0
M  V30 3802 O 376.442 0.524487 -2.22399 0
M  V30 3803 C 376.652 -3.01402 -1.75948 0
M  V30 3804 C 378 -3.57838 -2.28554 0
M  V30 3805 O 379.024 -3.03782 -1.85998 0
M  V30 3806 O 377.883 -4.52462 -3.06497 0
M  V30 3807 H 374.977 -0.664125 -0.492816 0
M  V30 3808 H 377.523 -1.66823 -0.311149 0
M  V30 3809 H 376.295 -3.77187 -1.04144 0
M  V30 3810 H 375.918 -3.02199 -2.58383 0
M  V30 3811 N 376.915 0.57481 -1.46744 0
M  V30 3812 C 377.878 1.66533 -1.57478 0
M  V30 3813 C 378.878 1.54338 -0.451263 0
M  V30 3814 O 380.068 1.58814 -0.715813 0
M  V30 3815 C 377.2 3.05999 -1.50259 0
M  V30 3816 H 378.393 1.58372 -2.54673 0
M  V30 3817 H 375.946 0.793301 -1.34672 0
M  V30 3818 H 376.681 3.19709 -0.543725 0
M  V30 3819 H 376.466 3.16259 -2.31781 0
M  V30 3820 H 377.956 3.8537 -1.60872 0
M  V30 3821 N 378.394 1.34581 0.820102 0
M  V30 3822 C 379.64 1.27285 1.57881 0
M  V30 3823 C 379.973 -0.156137 1.93571 0
M  V30 3824 O 379.248 -1.10222 1.60254 0
M  V30 3825 C 379.531 2.16639 2.87645 0
M  V30 3826 C 379.384 3.68088 2.58517 0
M  V30 3827 C 380.703 2.05378 3.8924 0
M  V30 3828 H 377.822 0.463714 0.572833 0
M  V30 3829 H 380.464 1.64859 0.944539 0
M  V30 3830 H 378.614 1.84725 3.41773 0
M  V30 3831 H 380.286 4.10382 2.10676 0
M  V30 3832 H 378.529 3.89038 1.91917 0
M  V30 3833 H 379.2 4.2598 3.51063 0
M  V30 3834 H 381.676 2.33404 3.44473 0
M  V30 3835 H 380.552 2.7012 4.77835 0
M  V30 3836 H 380.813 1.0316 4.29896 0
M  V30 3837 N 379.872 -1.04064 1.18357 0
M  V30 3838 C 381.288 -1.2947 0.933258 0
M  V30 3839 C 381.488 -1.97466 -0.401169 0
M  V30 3840 O 380.544 -2.25528 -1.13549 0
M  V30 3841 C 381.857 -2.15337 2.09882 0
M  V30 3842 C 383.405 -2.28683 2.13712 0
M  V30 3843 C 383.88 -3.17917 3.29686 0
M  V30 3844 N 385.371 -3.25504 3.29547 0
M  V30 3845 C 386.106 -3.94706 4.15926 0
M  V30 3846 N 385.602 -4.66239 5.12439 0
M  V30 3847 N 387.395 -3.90986 4.0384 0
M  V30 3848 H 379.546 -0.583359 2.04232 0
M  V30 3849 H 381.809 -0.319921 0.892387 0
M  V30 3850 H 381.515 -1.72682 3.06389 0
M  V30 3851 H 381.389 -3.16015 2.05947 0
M  V30 3852 H 383.776 -2.70575 1.17784 0
M  V30 3853 H 383.857 -1.27596 2.21705 0
M  V30 3854 H 383.501 -2.76736 4.25887 0
M  V30 3855 H 383.431 -4.19036 3.1893 0
M  V30 3856 H 385.922 -2.74547 2.59677 0
M  V30 3857 H 386.235 -5.16638 5.74722 0
M  V30 3858 H 384.58 -4.65143 5.16398 0
M  V30 3859 H 387.771 -3.34234 3.27727 0
M  V30 3860 H 387.944 -4.44646 4.71375 0
M  V30 3861 N 381.35 -0.985608 -1.22978 0
M  V30 3862 C 382.59 -0.665487 -1.93263 0
M  V30 3863 C 382.954 0.78706 -1.75127 0
M  V30 3864 O 384.155 1.21826 -2.39608 0
M  V30 3865 C 382.426 -1.0515 -3.41582 0
M  V30 3866 S 383.985 -0.848637 -4.30516 0
M  V30 3867 H 380.803 -0.24355 -0.667985 0
M  V30 3868 H 383.405 -1.26635 -1.48942 0
M  V30 3869 H 382.109 -2.10517 -3.52293 0
M  V30 3870 H 381.64 -0.442134 -3.90908 0
M  V30 3871 H 383.655 0.264717 -4.95493 0
M  V30 3872 N 382.828 1.3818 -0.7579 0
M  V30 3873 C 384.244 1.5353 -0.435972 0
M  V30 3874 C 384.444 1.71961 1.05032 0
M  V30 3875 O 383.5 1.73307 1.83633 0
M  V30 3876 C 384.813 2.73989 -1.23898 0
M  V30 3877 C 386.361 2.87841 -1.22949 0
M  V30 3878 C 386.836 4.11266 -2.01554 0
M  V30 3879 N 388.327 4.18352 -1.98837 0
M  V30 3880 C 389.062 5.12856 -2.5645 0
M  V30 3881 N 388.558 6.13005 -3.22794 0
M  V30 3882 N 390.351 5.05238 -2.46356 0
M  V30 3883 H 382.502 1.24467 -1.7211 0
M  V30 3884 H 384.765 0.604982 -0.729864 0
M  V30 3885 H 384.471 2.66789 -2.29165 0
M  V30 3886 H 384.345 3.67294 -0.858764 0
M  V30 3887 H 386.732 2.9452 -0.184854 0
M  V30 3888 H 386.813 1.95534 -1.64924 0
M  V30 3889 H 386.457 4.05349 -3.06031 0
M  V30 3890 H 386.387 5.02661 -1.5697 0
M  V30 3891 H 388.878 3.46628 -1.50524 0
M  V30 3892 H 389.191 6.81619 -3.64165 0
M  V30 3893 H 387.536 6.13325 -3.2689 0
M  V30 3894 H 390.727 4.25938 -1.9415 0
M  V30 3895 H 390.9 5.78707 -2.91552 0
M  V30 3896 N 384.306 0.507319 1.49211 0
M  V30 3897 C 385.236 -0.256939 2.32082 0
M  V30 3898 C 386.217 -0.956609 1.40652 0
M  V30 3899 O 387.402 -0.946788 1.69557 0
M  V30 3900 C 384.532 -1.31802 3.21318 0
M  V30 3901 C 383.486 -0.737855 4.21592 0
M  V30 3902 C 382.812 -1.89992 4.99807 0
M  V30 3903 C 384.112 0.275325 5.21574 0
M  V30 3904 H 385.806 0.434798 2.96226 0
M  V30 3905 H 383.352 0.210546 1.42452 0
M  V30 3906 H 385.305 -1.86045 3.78107 0
M  V30 3907 H 384.029 -2.03903 2.5513 0
M  V30 3908 H 382.688 -0.217126 3.65956 0
M  V30 3909 H 382.336 -2.60877 4.30061 0
M  V30 3910 H 382.036 -1.51777 5.6766 0
M  V30 3911 H 383.56 -2.44657 5.59442 0
M  V30 3912 H 384.974 -0.179193 5.7302 0
M  V30 3913 H 383.371 0.573649 5.97352 0
M  V30 3914 H 384.441 1.18903 4.70096 0
M  V30 3915 N 385.784 -1.5574 0.241426 0
M  V30 3916 C 387.032 -1.98417 -0.384075 0
M  V30 3917 C 387.353 -1.13078 -1.58866 0
M  V30 3918 O 386.623 -0.212312 -1.94746 0
M  V30 3919 H 385.203 -0.732813 -0.144894 0
M  V30 3920 H 387.865 -1.9193 0.338943 0
M  V30 3921 H 386.961 -3.04219 -0.696939 0
M  V30 3922 N 387.262 0.0317525 -1.57568 0
M  V30 3923 C 388.49 0.734949 -1.93407 0
M  V30 3924 C 388.905 1.69036 -0.84096 0
M  V30 3925 O 388.262 1.81582 0.182836 0
M  V30 3926 C 388.313 1.49432 -3.29169 0
M  V30 3927 O 388.034 0.577261 -4.3428 0
M  V30 3928 C 389.535 2.29492 -3.79273 0
M  V30 3929 H 386.755 0.206706 -0.638368 0
M  V30 3930 H 389.299 -0.00992046 -2.04498 0
M  V30 3931 H 387.454 2.1911 -3.19483 0
M  V30 3932 H 387.868 1.10952 -5.1263 0
M  V30 3933 H 389.342 2.78172 -4.76785 0
M  V30 3934 H 389.819 3.10794 -3.10328 0
M  V30 3935 H 390.425 1.64894 -3.92033 0
M  V30 3936 N 388.74 1.54641 0.303973 0
M  V30 3937 C 389.673 1.80263 1.3993 0
M  V30 3938 C 390.651 0.653657 1.48883 0
M  V30 3939 O 391.835 0.893284 1.6599 0
M  V30 3940 C 388.962 1.9367 2.77866 0
M  V30 3941 C 388.008 3.16078 2.86351 0
M  V30 3942 S 388.841 4.74219 2.4875 0
M  V30 3943 C 389.997 4.90558 3.88721 0
M  V30 3944 H 390.23 2.72886 1.17986 0
M  V30 3945 H 387.763 1.46014 0.501918 0
M  V30 3946 H 389.721 2.0208 3.57315 0
M  V30 3947 H 388.382 1.01991 2.9708 0
M  V30 3948 H 387.575 3.22252 3.87517 0
M  V30 3949 H 387.177 3.06099 2.14893 0
M  V30 3950 H 389.469 4.74398 4.83687 0
M  V30 3951 H 390.412 5.92651 3.87518 0
M  V30 3952 H 390.82 4.18728 3.78585 0
M  V30 3953 N 390.218 -0.567019 1.47046 0
M  V30 3954 C 391.458 -1.3355 1.54738 0
M  V30 3955 C 391.822 -1.90947 0.200772 0
M  V30 3956 O 393.023 -2.68367 0.152489 0
M  V30 3957 C 391.294 -2.42317 2.62712 0
M  V30 3958 S 392.853 -3.29383 2.89918 0
M  V30 3959 H 389.671 -0.454788 0.546525 0
M  V30 3960 H 392.273 -0.650191 1.84371 0
M  V30 3961 H 390.977 -1.98568 3.59164 0
M  V30 3962 H 390.508 -3.15601 2.34861 0
M  V30 3963 H 392.523 -4.41548 2.26384 0
M  V30 3964 N 391.696 -1.35014 -0.812953 0
M  V30 3965 C 392.644 -1.27435 -1.94585 0
M  V30 3966 C 393.638 -0.170494 -1.6854 0
M  V30 3967 O 394.844 -0.336085 -1.76835 0
M  V30 3968 H 391.219 -0.396144 -0.639198 0
M  V30 3969 H 393.19 -2.23158 -1.98098 0
M  V30 3970 C 391.939 -1.05677 -3.31252 0
M  V30 3971 H 391.262 -1.89853 -3.51846 0
M  V30 3972 H 392.702 -1.04413 -4.10943 0
M  V30 3973 C 391.161 0.239615 -3.36047 0
M  V30 3974 O 391.691 1.23759 -3.8216 0
M  V30 3975 N 389.897 0.276186 -2.89285 0
M  V30 3976 H 389.444 -0.53653 -2.51951 0
M  V30 3977 H 389.402 1.14332 -2.92875 0
M  V30 3978 N 393.175 1.03435 -1.18907 0
M  V30 3979 C 394.105 2.13503 -0.945448 0
M  V30 3980 C 395.086 1.69682 0.119189 0
M  V30 3981 O 396.271 1.94169 -0.034707 0
M  V30 3982 C 393.401 3.44004 -0.477316 0
M  V30 3983 C 392.355 4.0148 -1.48316 0
M  V30 3984 C 391.681 5.27537 -0.872311 0
M  V30 3985 C 392.981 4.36921 -2.86177 0
M  V30 3986 H 394.675 2.34141 -1.86597 0
M  V30 3987 H 392.221 1.12523 -0.898584 0
M  V30 3988 H 394.174 4.20372 -0.294204 0
M  V30 3989 H 392.898 3.23072 0.478786 0
M  V30 3990 H 391.557 3.27201 -1.65332 0
M  V30 3991 H 391.205 5.02917 0.0911752 0
M  V30 3992 H 390.905 5.66954 -1.54393 0
M  V30 3993 H 392.429 6.06576 -0.699871 0
M  V30 3994 H 393.843 5.04248 -2.72776 0
M  V30 3995 H 392.24 4.87405 -3.50081 0
M  V30 3996 H 393.31 3.46466 -3.39248 0
M  V30 3997 N 394.653 0.992116 1.22453 0
M  V30 3998 C 395.616 0.546883 2.2258 0
M  V30 3999 C 396.616 -0.369829 1.56489 0
M  V30 4000 O 397.806 -0.161896 1.73446 0
M  V30 4001 C 394.938 -0.204659 3.40285 0
M  V30 4002 H 396.131 1.43234 2.63484 0
M  V30 4003 H 393.684 0.779239 1.3549 0
M  V30 4004 H 394.419 -1.10614 3.04853 0
M  V30 4005 H 394.204 0.45354 3.89468 0
M  V30 4006 H 395.694 -0.504358 4.14543 0
M  V30 4007 N 396.131 -1.37776 0.765217 0
M  V30 4008 C 397.061 -2.32945 0.160953 0
M  V30 4009 C 398.042 -1.55454 -0.690516 0
M  V30 4010 O 399.227 -1.83721 -0.629318 0
M  V30 4011 C 396.357 -3.39669 -0.724031 0
M  V30 4012 C 395.311 -4.27992 0.0256173 0
M  V30 4013 C 394.637 -5.25673 -0.978383 0
M  V30 4014 C 395.937 -5.08309 1.20082 0
M  V30 4015 H 397.631 -2.83728 0.955969 0
M  V30 4016 H 395.177 -1.36416 0.461149 0
M  V30 4017 H 397.13 -4.05219 -1.15652 0
M  V30 4018 H 395.854 -2.87396 -1.5515 0
M  V30 4019 H 394.513 -3.63964 0.438812 0
M  V30 4020 H 394.161 -4.69682 -1.80022 0
M  V30 4021 H 393.861 -5.85625 -0.481378 0
M  V30 4022 H 395.385 -5.94098 -1.40995 0
M  V30 4023 H 396.799 -5.67034 0.845307 0
M  V30 4024 H 395.196 -5.77554 1.62947 0
M  V30 4025 H 396.266 -4.41365 2.00811 0
M  V30 4026 N 397.609 -0.515225 -1.4894 0
M  V30 4027 C 398.834 0.022727 -2.07388 0
M  V30 4028 C 399.259 1.2876 -1.37122 0
M  V30 4029 O 398.617 1.76067 -0.432431 0
M  V30 4030 C 398.665 0.244869 -3.59768 0
M  V30 4031 O 397.769 1.31667 -3.90817 0
M  V30 4032 H 397.11 -0.0325506 -0.663202 0
M  V30 4033 H 399.64 -0.718918 -1.91553 0
M  V30 4034 H 399.65 0.47205 -4.0526 0
M  V30 4035 H 398.325 -0.679194 -4.10317 0
M  V30 4036 H 396.902 1.07331 -3.5712 0
M  V30 4037 N 399.087 1.5561 -0.249682 0
M  V30 4038 C 400.315 2.03411 0.378352 0
M  V30 4039 C 400.73 1.12886 1.51335 0
M  V30 4040 O 400.087 0.143833 1.81932 0
M  V30 4041 C 400.138 3.50537 0.88351 0
M  V30 4042 O 399.859 4.37614 -0.20626 0
M  V30 4043 C 401.36 4.14113 1.58195 0
M  V30 4044 H 398.58 0.664994 0.08958 0
M  V30 4045 H 401.124 2.01044 -0.374357 0
M  V30 4046 H 399.279 3.5343 1.58639 0
M  V30 4047 H 399.693 5.24199 0.177782 0
M  V30 4048 H 401.167 5.18741 1.8871 0
M  V30 4049 H 401.644 3.60767 2.50487 0
M  V30 4050 H 402.25 4.15151 0.923573 0
M  V30 4051 N 400.565 -0.0233959 1.57583 0
M  V30 4052 C 401.976 -0.56927 1.77809 0
M  V30 4053 C 402.327 -1.75284 0.881472 0
M  V30 4054 O 401.452 -2.1626 0.0777805 0
M  V30 4055 C 402.047 -1.03949 3.22459 0
M  V30 4056 C 400.606 -1.53084 3.43864 0
M  V30 4057 C 399.753 -0.471454 2.73263 0
M  V30 4058 H 402.704 0.202825 1.57399 0
M  V30 4059 H 402.725 -1.90661 3.29285 0
M  V30 4060 H 402.237 -0.177865 3.87692 0
M  V30 4061 H 400.338 -2.41414 2.83814 0
M  V30 4062 H 400.451 -1.57443 4.52491 0
M  V30 4063 H 398.815 -0.927788 2.37201 0
M  V30 4064 H 399.598 0.380808 3.41181 0
M  V30 4065 N 402.043 -1.548 -0.295768 0
M  V30 4066 C 403.29 -1.74329 -1.03032 0
M  V30 4067 C 403.618 -0.531915 -1.87085 0
M  V30 4068 O 402.873 0.486052 -1.89568 0
M  V30 4069 C 403.172 -2.98797 -1.961 0
M  V30 4070 C 402.838 -4.32356 -1.2798 0
M  V30 4071 C 401.5 -4.68661 -1.09135 0
M  V30 4072 C 403.852 -5.15128 -0.793243 0
M  V30 4073 C 401.18 -5.85312 -0.403269 0
M  V30 4074 C 403.532 -6.32488 -0.118854 0
M  V30 4075 C 402.196 -6.6745 0.0815043 0
M  V30 4076 H 401.466 -0.637916 -0.37702 0
M  V30 4077 H 404.113 -1.8906 -0.304696 0
M  V30 4078 H 402.418 -2.78869 -2.75207 0
M  V30 4079 H 404.115 -3.11102 -2.53015 0
M  V30 4080 H 400.705 -4.03808 -1.43655 0
M  V30 4081 H 404.889 -4.87575 -0.92653 0
M  V30 4082 H 400.145 -6.1094 -0.237098 0
M  V30 4083 H 404.319 -6.95892 0.266035 0
M  V30 4084 H 401.946 -7.57695 0.616685 0
M  V30 4085 N 403.521 0.559213 -1.47345 0
M  V30 4086 C 404.451 1.67622 -1.62558 0
M  V30 4087 C 405.432 1.63331 -0.475087 0
M  V30 4088 O 406.617 1.80983 -0.704182 0
M  V30 4089 C 403.747 3.0626 -1.63774 0
M  V30 4090 C 402.701 3.25397 -2.7803 0
M  V30 4091 C 402.027 4.64801 -2.64318 0
M  V30 4092 C 403.327 3.10965 -4.19641 0
M  V30 4093 H 405.021 1.55146 -2.56067 0
M  V30 4094 H 402.567 0.744961 -1.23233 0
M  V30 4095 H 404.52 3.84247 -1.73008 0
M  V30 4096 H 403.244 3.1969 -0.66825 0
M  V30 4097 H 401.903 2.49817 -2.68304 0
M  V30 4098 H 401.551 4.75028 -1.65401 0
M  V30 4099 H 401.251 4.78555 -3.40968 0
M  V30 4100 H 402.775 5.44926 -2.75478 0
M  V30 4101 H 404.189 3.78772 -4.30354 0
M  V30 4102 H 402.586 3.36229 -4.97062 0
M  V30 4103 H 403.656 2.07736 -4.38148 0
M  V30 4104 N 404.999 1.35443 0.805782 0
M  V30 4105 C 405.932 1.22783 1.92353 0
M  V30 4106 C 406.91 0.115543 1.62189 0
M  V30 4107 O 408.094 0.283778 1.86352 0
M  V30 4108 C 405.221 0.890746 3.26777 0
M  V30 4109 C 404.267 2.01519 3.75889 0
M  V30 4110 S 405.1 3.63101 3.93596 0
M  V30 4111 C 406.256 3.31472 5.30921 0
M  V30 4112 H 406.489 2.17394 2.02798 0
M  V30 4113 H 404.022 1.20669 0.963245 0
M  V30 4114 H 405.98 0.703068 4.04434 0
M  V30 4115 H 404.641 -0.0373152 3.14078 0
M  V30 4116 H 403.834 1.7335 4.7325 0
M  V30 4117 H 403.436 2.16124 3.05231 0
M  V30 4118 H 405.728 2.8435 6.1494 0
M  V30 4119 H 406.671 4.28036 5.64084 0
M  V30 4120 H 407.079 2.67221 4.97246 0
M  V30 4121 N 406.477 -1.02803 1.19454 0
M  V30 4122 C 407.387 -2.14575 0.948408 0
M  V30 4123 C 408.403 -1.73757 -0.091871 0
M  V30 4124 O 409.579 -2.01185 0.0929654 0
M  V30 4125 C 406.644 -3.43202 0.491265 0
M  V30 4126 C 405.705 -3.98328 1.60103 0
M  V30 4127 C 404.938 -5.20816 1.16561 0
M  V30 4128 O 405.161 -5.70392 0.0295238 0
M  V30 4129 O 404.095 -5.68801 1.96849 0
M  V30 4130 H 407.921 -2.38202 1.88397 0
M  V30 4131 H 405.506 -1.12989 0.977433 0
M  V30 4132 H 407.388 -4.20687 0.245015 0
M  V30 4133 H 406.063 -3.21018 -0.415851 0
M  V30 4134 H 404.97 -3.22174 1.90144 0
M  V30 4135 H 406.303 -4.24879 2.48473 0
M  V30 4136 N 407.956 -0.998596 -1.21925 0
M  V30 4137 C 408.906 -0.524743 -2.21879 0
M  V30 4138 C 409.89 0.41017 -1.55584 0
M  V30 4139 O 411.082 0.236063 -1.75419 0
M  V30 4140 C 408.211 0.153636 -3.42956 0
M  V30 4141 C 407.297 -0.801918 -4.16449 0
M  V30 4142 N 407.688 -1.95211 -4.66611 0
M  V30 4143 C 405.986 -0.618972 -4.41684 0
M  V30 4144 C 406.687 -2.55234 -5.22715 0
M  V30 4145 N 405.663 -1.83451 -5.1171 0
M  V30 4146 H 409.465 -1.40189 -2.58311 0
M  V30 4147 H 406.979 -0.86159 -1.3766 0
M  V30 4148 H 408.976 0.510534 -4.13762 0
M  V30 4149 H 407.636 1.02684 -3.08036 0
M  V30 4150 H 408.647 -2.33271 -4.62391 0
M  V30 4151 H 405.324 0.207694 -4.16983 0
M  V30 4152 H 406.714 -3.52471 -5.72026 0
M  V30 4153 N 409.434 1.37368 -0.772513 0
M  V30 4154 C 410.662 2.03942 -0.348588 0
M  V30 4155 C 411.077 1.58264 1.02947 0
M  V30 4156 O 410.434 0.764246 1.65727 0
M  V30 4157 C 410.485 3.5946 -0.38351 0
M  V30 4158 O 410.206 4.03468 -1.70721 0
M  V30 4159 C 411.707 4.4327 0.0519152 0
M  V30 4160 H 408.927 0.654931 -0.145966 0
M  V30 4161 H 411.471 1.75686 -1.04665 0
M  V30 4162 H 409.626 3.86486 0.265978 0
M  V30 4163 H 410.04 4.97991 -1.64636 0
M  V30 4164 H 411.514 5.51995 -0.0236733 0
M  V30 4165 H 411.991 4.2514 1.10238 0
M  V30 4166 H 412.597 4.21471 -0.569415 0
M  V30 4167 N 410.912 0.523116 1.48665 0
M  V30 4168 C 411.845 -0.290518 2.26343 0
M  V30 4169 C 412.823 -0.950913 1.31895 0
M  V30 4170 O 414.007 -0.976662 1.61225 0
M  V30 4171 C 411.134 -1.41088 3.07915 0
M  V30 4172 C 410.18 -0.862597 4.17686 0
M  V30 4173 S 411.013 0.264135 5.34848 0
M  V30 4174 C 412.169 -0.858864 6.19979 0
M  V30 4175 H 412.402 0.368726 2.95005 0
M  V30 4176 H 409.935 0.30878 1.51281 0
M  V30 4177 H 411.893 -2.0527 3.55492 0
M  V30 4178 H 410.554 -2.04182 2.38681 0
M  V30 4179 H 409.747 -1.70287 4.74361 0
M  V30 4180 H 409.349 -0.297595 3.72814 0
M  V30 4181 H 411.641 -1.7591 6.54264 0
M  V30 4182 H 412.584 -0.330244 7.07329 0
M  V30 4183 H 412.992 -1.13617 5.52948 0
M  V30 4184 N 412.39 -1.55475 0.257931 0
M  V30 4185 C 413.801 -1.8511 -0.243135 0
M  V30 4186 C 414.152 -1.17986 -1.5676 0
M  V30 4187 O 413.277 -0.462102 -2.11409 0
M  V30 4188 C 413.872 -3.35826 -0.447929 0
M  V30 4189 C 412.431 -3.65647 -0.893245 0
M  V30 4190 C 411.578 -2.7729 0.0232965 0
M  V30 4191 H 414.529 -1.51261 0.480199 0
M  V30 4192 H 414.55 -3.58002 -1.28898 0
M  V30 4193 H 414.062 -3.84652 0.516196 0
M  V30 4194 H 412.163 -3.22308 -1.86945 0
M  V30 4195 H 412.276 -4.73312 -0.742469 0
M  V30 4196 H 410.64 -2.49942 -0.490021 0
M  V30 4197 H 411.423 -3.28926 0.982994 0
M  V30 4198 N 413.868 0.0150385 -1.57593 0
M  V30 4199 C 415.114 0.704043 -1.90187 0
M  V30 4200 C 415.447 1.74249 -0.857366 0
M  V30 4201 O 414.722 1.94092 0.125843 0
M  V30 4202 C 415.005 1.36087 -3.33395 0
M  V30 4203 C 414.858 0.334981 -4.48551 0
M  V30 4204 C 416.177 2.29112 -3.7576 0
M  V30 4205 H 413.296 0.254475 -0.691673 0
M  V30 4206 H 415.938 -0.0331678 -1.89971 0
M  V30 4207 H 414.088 1.98922 -3.3371 0
M  V30 4208 H 415.76 -0.292534 -4.60372 0
M  V30 4209 H 414.003 -0.344325 -4.32431 0
M  V30 4210 H 414.674 0.833316 -5.45674 0
M  V30 4211 H 417.15 1.76308 -3.76902 0
M  V30 4212 H 416.026 2.72043 -4.76743 0
M  V30 4213 H 416.287 3.16385 -3.08793 0
M  V30 4214 N 415.346 1.54954 0.287554 0
M  V30 4215 C 416.574 1.78881 1.03967 0
M  V30 4216 C 416.989 0.554894 1.80462 0
M  V30 4217 O 416.346 -0.475676 1.76192 0
M  V30 4218 C 416.397 3.00488 2.0097 0
M  V30 4219 O 416.118 4.19113 1.27577 0
M  V30 4220 C 417.619 3.36907 2.88112 0
M  V30 4221 H 414.839 0.596259 0.307761 0
M  V30 4222 H 417.383 2.01937 0.322749 0
M  V30 4223 H 415.538 2.79601 2.68145 0
M  V30 4224 H 415.952 4.87765 1.92835 0
M  V30 4225 H 417.426 4.25205 3.52001 0
M  V30 4226 H 417.903 2.55659 3.57121 0
M  V30 4227 H 418.509 3.60001 2.26449 0
M  V30 4228 N 416.824 -0.551391 1.4764 0
M  V30 4229 C 417.774 -1.65362 1.56969 0
M  V30 4230 C 418.758 -1.55098 0.428189 0
M  V30 4231 O 419.95 -1.63481 0.678441 0
M  V30 4232 C 417.079 -3.04129 1.59249 0
M  V30 4233 C 416.165 -3.19576 2.78804 0
M  V30 4234 N 416.556 -3.05067 4.03445 0
M  V30 4235 C 414.854 -3.50588 2.75688 0
M  V30 4236 C 415.555 -3.2336 4.83543 0
M  V30 4237 N 414.531 -3.4996 4.15968 0
M  V30 4238 H 418.333 -1.52722 2.51104 0
M  V30 4239 H 415.847 -0.756303 1.43714 0
M  V30 4240 H 417.844 -3.83278 1.64024 0
M  V30 4241 H 416.504 -3.17877 0.662148 0
M  V30 4242 H 417.515 -2.82273 4.34215 0
M  V30 4243 H 414.192 -3.70827 1.91817 0
M  V30 4244 H 415.582 -3.17061 5.92387 0
M  V30 4245 N 418.302 -1.35869 -0.798587 0
M  V30 4246 C 419.713 -1.26498 -1.37314 0
M  V30 4247 C 420.064 0.0991899 -1.95949 0
M  V30 4248 O 419.189 1.0004 -1.91888 0
M  V30 4249 C 419.784 -2.29054 -2.49639 0
M  V30 4250 C 418.343 -2.234 -3.02935 0
M  V30 4251 C 417.49 -2.14329 -1.75949 0
M  V30 4252 H 420.441 -1.46881 -0.600971 0
M  V30 4253 H 420.462 -1.92166 -3.28409 0
M  V30 4254 H 419.974 -3.2833 -2.06933 0
M  V30 4255 H 418.075 -1.27562 -3.50084 0
M  V30 4256 H 418.188 -3.15703 -3.60372 0
M  V30 4257 H 416.552 -1.60435 -1.9782 0
M  V30 4258 H 417.335 -3.15477 -1.35384 0
M  V30 4259 N 419.78 1.02168 -1.19998 0
M  V30 4260 C 421.191 1.57135 -1.00825 0
M  V30 4261 C 421.542 1.91276 0.436818 0
M  V30 4262 O 420.667 1.71679 1.3174 0
M  V30 4263 C 421.262 2.85514 -1.82393 0
M  V30 4264 C 419.821 3.37027 -1.67601 0
M  V30 4265 C 418.968 2.10388 -1.80644 0
M  V30 4266 H 421.919 0.846106 -1.34264 0
M  V30 4267 H 421.94 3.56711 -1.32429 0
M  V30 4268 H 421.452 2.60634 -2.87561 0
M  V30 4269 H 419.553 3.66878 -0.650485 0
M  V30 4270 H 419.666 4.09572 -2.4857 0
M  V30 4271 H 418.03 2.22601 -1.23778 0
M  V30 4272 H 418.813 1.8794 -2.87286 0
M  V30 4273 N 421.258 1.00505 1.21394 0
M  V30 4274 C 422.205 0.565496 2.23765 0
M  V30 4275 C 423.175 -0.408466 1.60999 0
M  V30 4276 O 424.36 -0.310503 1.88257 0
M  V30 4277 C 421.5 -0.101667 3.4495 0
M  V30 4278 C 420.613 0.915479 4.22188 0
M  V30 4279 C 419.748 0.220574 5.30742 0
M  V30 4280 C 418.787 1.22527 5.99711 0
M  V30 4281 N 417.924 0.557831 6.9988 0
M  V30 4282 H 422.764 1.44314 2.60725 0
M  V30 4283 H 420.301 0.722643 1.28126 0
M  V30 4284 H 422.259 -0.505504 4.14126 0
M  V30 4285 H 420.889 -0.94303 3.08718 0
M  V30 4286 H 419.941 1.43756 3.52191 0
M  V30 4287 H 421.253 1.68005 4.69655 0
M  V30 4288 H 420.407 -0.239368 6.06228 0
M  V30 4289 H 419.146 -0.576401 4.84282 0
M  V30 4290 H 418.151 1.69571 5.22997 0
M  V30 4291 H 419.376 2.02332 6.48258 0
M  V30 4292 H 417.322 -0.219486 6.55633 0
M  V30 4293 H 417.239 1.26065 7.45415 0
M  V30 4294 H 418.507 0.121095 7.79406 0
M  V30 4295 N 422.737 -1.36956 0.779787 0
M  V30 4296 C 423.983 -1.99787 0.348281 0
M  V30 4297 C 424.316 -1.61756 -1.07465 0
M  V30 4298 O 423.591 -0.867639 -1.74075 0
M  V30 4299 C 423.874 -3.56597 0.50104 0
M  V30 4300 C 423.727 -4.04513 1.96697 0
M  V30 4301 C 425.046 -4.40008 -0.0898097 0
M  V30 4302 H 422.165 -0.725796 0.128022 0
M  V30 4303 H 424.807 -1.62514 0.984331 0
M  V30 4304 H 422.957 -3.88479 -0.0404347 0
M  V30 4305 H 424.629 -3.83161 2.56876 0
M  V30 4306 H 422.872 -3.56408 2.47297 0
M  V30 4307 H 423.543 -5.1352 2.02486 0
M  V30 4308 H 426.019 -4.14431 0.372293 0
M  V30 4309 H 424.895 -5.4888 0.0471605 0
M  V30 4310 H 425.156 -4.26035 -1.18096 0
M  V30 4311 N 424.215 -0.530993 -1.48385 0
M  V30 4312 C 425.178 0.220497 -2.28137 0
M  V30 4313 C 426.178 0.866851 -1.35434 0
M  V30 4314 O 427.368 0.726746 -1.58316 0
M  V30 4315 C 424.5 1.31921 -3.1434 0
M  V30 4316 H 425.693 -0.479714 -2.96038 0
M  V30 4317 H 423.246 -0.286968 -1.53643 0
M  V30 4318 H 423.981 2.05264 -2.51072 0
M  V30 4319 H 423.766 0.86085 -3.82533 0
M  V30 4320 H 425.256 1.84776 -3.74497 0
M  V30 4321 N 425.693 1.55336 -0.266172 0
M  V30 4322 C 426.625 2.19544 0.658247 0
M  V30 4323 C 427.638 1.17746 1.12427 0
M  V30 4324 O 428.827 1.44517 1.04772 0
M  V30 4325 C 425.927 2.80032 1.9088 0
M  V30 4326 C 425.1 4.07436 1.59106 0
M  V30 4327 C 424.159 4.52056 2.69317 0
M  V30 4328 O 423.185 5.18023 2.35883 0
M  V30 4329 N 424.387 4.21448 3.99201 0
M  V30 4330 H 427.152 2.99503 0.108754 0
M  V30 4331 H 424.713 1.61667 -0.0869059 0
M  V30 4332 H 426.705 3.06831 2.63888 0
M  V30 4333 H 425.275 2.04119 2.36758 0
M  V30 4334 H 424.495 3.88021 0.695243 0
M  V30 4335 H 425.783 4.90462 1.35367 0
M  V30 4336 H 425.181 3.68528 4.29189 0
M  V30 4337 H 423.738 4.53039 4.68614 0
M  V30 4338 N 427.171 -0.0066808 1.57599 0
M  V30 4339 C 428.587 -0.36267 1.55425 0
M  V30 4340 C 428.787 -1.75209 0.995187 0
M  V30 4341 O 427.843 -2.44616 0.626058 0
M  V30 4342 C 429.156 -0.244017 2.99708 0
M  V30 4343 C 430.704 -0.319451 3.11366 0
M  V30 4344 C 431.179 -0.229998 4.57422 0
M  V30 4345 N 432.67 -0.288105 4.62303 0
M  V30 4346 C 433.405 -0.242127 5.72889 0
M  V30 4347 N 432.901 -0.147133 6.92644 0
M  V30 4348 N 434.694 -0.293502 5.61333 0
M  V30 4349 H 426.845 0.902314 1.92281 0
M  V30 4350 H 429.108 0.34525 0.882896 0
M  V30 4351 H 428.814 0.711678 3.44424 0
M  V30 4352 H 428.688 -1.02877 3.629 0
M  V30 4353 H 431.075 -1.26559 2.66584 0
M  V30 4354 H 431.156 0.495055 2.50964 0
M  V30 4355 H 430.8 0.712566 5.02877 0
M  V30 4356 H 430.73 -1.0629 5.15761 0
M  V30 4357 H 433.221 -0.363126 3.76151 0
M  V30 4358 H 433.534 -0.117763 7.7271 0
M  V30 4359 H 431.879 -0.112857 6.94908 0
M  V30 4360 H 435.07 -0.365864 4.66668 0
M  V30 4361 H 435.243 -0.254204 6.47501 0
M  V30 4362 N 428.649 -1.55105 -0.279332 0
M  V30 4363 C 429.877 -1.7943 -1.03017 0
M  V30 4364 C 430.292 -0.564456 -1.80165 0
M  V30 4365 O 429.649 0.466326 -1.76442 0
M  V30 4366 C 429.7 -3.0155 -1.99374 0
M  V30 4367 O 429.421 -4.19784 -1.25352 0
M  V30 4368 C 430.922 -3.3843 -2.86321 0
M  V30 4369 H 428.142 -0.597882 -0.304594 0
M  V30 4370 H 430.686 -2.02105 -0.312035 0
M  V30 4371 H 428.841 -2.81019 -2.66659 0
M  V30 4372 H 429.255 -4.88781 -1.90246 0
M  V30 4373 H 430.729 -4.27066 -3.49741 0
M  V30 4374 H 431.206 -2.57549 -3.5576 0
M  V30 4375 H 431.812 -3.61197 -2.24536 0
M  V30 4376 N 430.127 0.543554 -1.4793 0
M  V30 4377 C 431.09 1.63156 -1.60975 0
M  V30 4378 C 432.09 1.53346 -0.483899 0
M  V30 4379 O 433.28 1.5726 -0.749339 0
M  V30 4380 C 430.412 3.02743 -1.56716 0
M  V30 4381 H 431.605 1.52934 -2.57975 0
M  V30 4382 H 429.158 0.764557 -1.36324 0
M  V30 4383 H 429.893 3.18484 -0.611418 0
M  V30 4384 H 429.678 3.11272 -2.38438 0
M  V30 4385 H 431.168 3.81871 -1.6901 0
M  V30 4386 N 431.605 1.3629 0.791371 0
M  V30 4387 C 432.882 1.20962 1.53712 0
M  V30 4388 C 433.262 -0.205021 2.10102 0
M  V30 4389 O 432.61 -1.21042 1.93807 0
M  V30 4390 C 432.82 2.29002 2.63361 0
M  V30 4391 C 434.168 2.65572 3.31295 0
M  V30 4392 O 435.192 2.2803 2.73643 0
M  V30 4393 O 434.051 3.3018 4.35481 0
M  V30 4394 H 431.145 0.47086 0.679867 0
M  V30 4395 H 433.691 1.48016 0.830021 0
M  V30 4396 H 432.463 3.2382 2.19674 0
M  V30 4397 H 432.086 2.03303 3.41692 0
M  V30 4398 N 433.083 -1.0153 1.20538 0
M  V30 4399 C 434.046 -2.0826 0.957098 0
M  V30 4400 C 435.046 -1.60657 -0.0678655 0
M  V30 4401 O 436.236 -1.73385 0.168332 0
M  V30 4402 C 433.368 -3.38033 0.441188 0
M  V30 4403 H 434.561 -2.31719 1.90384 0
M  V30 4404 H 432.114 -1.1835 1.02093 0
M  V30 4405 H 432.849 -3.20249 -0.510961 0
M  V30 4406 H 432.634 -3.73911 1.18038 0
M  V30 4407 H 434.124 -4.16613 0.287009 0
M  V30 4408 N 434.561 -1.01147 -1.20859 0
M  V30 4409 C 435.801 -0.706331 -1.91808 0
M  V30 4410 C 436.165 0.749736 -1.76757 0
M  V30 4411 O 437.366 1.16716 -2.42138 0
M  V30 4412 C 435.637 -1.12371 -3.39275 0
M  V30 4413 S 437.196 -0.939764 -4.28619 0
M  V30 4414 H 434.014 -0.257665 -0.662669 0
M  V30 4415 H 436.616 -1.29766 -1.46223 0
M  V30 4416 H 435.32 -2.17943 -3.47749 0
M  V30 4417 H 434.851 -0.524952 -3.89882 0
M  V30 4418 H 436.866 0.159556 -4.95943 0
M  V30 4419 N 436.039 1.36541 -0.78704 0
M  V30 4420 C 436.987 2.31965 -0.171724 0
M  V30 4421 C 437.981 1.55689 0.667631 0
M  V30 4422 O 439.187 1.70969 0.562981 0
M  V30 4423 H 435.562 0.751101 -0.0367545 0
M  V30 4424 H 437.533 2.81428 -0.992017 0
M  V30 4425 C 436.282 3.40968 0.680904 0
M  V30 4426 H 435.605 3.99775 0.0443961 0
M  V30 4427 H 437.045 4.10063 1.07815 0
M  V30 4428 C 435.504 2.82338 1.83813 0
M  V30 4429 O 436.034 2.74311 2.93456 0
M  V30 4430 N 434.24 2.39661 1.6435 0
M  V30 4431 H 433.787 2.46389 0.751668 0
M  V30 4432 H 433.745 2.00779 2.4194 0
M  V30 4433 N 437.518 0.538854 1.48102 0
M  V30 4434 C 438.428 -0.222648 2.33541 0
M  V30 4435 C 439.444 -0.930225 1.47047 0
M  V30 4436 O 440.62 -0.903211 1.80011 0
M  V30 4437 C 437.685 -1.25064 3.23357 0
M  V30 4438 C 436.746 -0.552469 4.2573 0
M  V30 4439 C 435.979 -1.53149 5.11254 0
M  V30 4440 O 436.202 -2.76487 4.9891 0
M  V30 4441 O 435.136 -1.06602 5.92385 0
M  V30 4442 H 438.962 0.477707 2.99919 0
M  V30 4443 H 436.547 0.299669 1.46364 0
M  V30 4444 H 438.429 -1.8445 3.78888 0
M  V30 4445 H 437.104 -1.93325 2.59629 0
M  V30 4446 H 436.011 0.082114 3.7401 0
M  V30 4447 H 437.344 0.0883526 4.92121 0
M  V30 4448 N 438.996 -1.55193 0.274407 0
M  V30 4449 C 440.244 -1.99187 -0.341902 0
M  V30 4450 C 440.565 -1.16422 -1.56431 0
M  V30 4451 O 439.835 -0.253573 -1.94252 0
M  V30 4452 H 438.415 -0.735721 -0.129317 0
M  V30 4453 H 441.077 -1.91168 0.379578 0
M  V30 4454 H 440.173 -3.05629 -0.632253 0
M  V30 4455 N 440.474 -0.00167713 -1.576 0
M  V30 4456 C 441.72 0.683832 -1.90923 0
M  V30 4457 C 442.053 1.7333 -0.875799 0
M  V30 4458 O 441.328 1.94215 0.10525 0
M  V30 4459 C 441.611 1.32543 -3.3482 0
M  V30 4460 C 441.464 0.287387 -4.48881 0
M  V30 4461 C 442.783 2.25114 -3.78169 0
M  V30 4462 H 439.902 0.247125 -0.694333 0
M  V30 4463 H 442.544 -0.0533149 -1.89925 0
M  V30 4464 H 440.694 1.95372 -3.35801 0
M  V30 4465 H 442.366 -0.341346 -4.60035 0
M  V30 4466 H 440.609 -0.39017 -4.32042 0
M  V30 4467 H 441.28 0.775393 -5.46527 0
M  V30 4468 H 443.756 1.723 -3.7875 0
M  V30 4469 H 442.632 2.66971 -4.79602 0
M  V30 4470 H 442.893 3.13092 -3.12131 0
M  V30 4471 N 441.952 1.55251 0.271103 0
M  V30 4472 C 442.899 1.88261 1.33516 0
M  V30 4473 C 443.869 0.734296 1.48988 0
M  V30 4474 O 445.054 0.985741 1.63364 0
M  V30 4475 C 442.194 2.16168 2.69008 0
M  V30 4476 C 441.307 3.43678 2.61743 0
M  V30 4477 C 440.442 3.61276 3.89427 0
M  V30 4478 C 439.481 4.82472 3.7668 0
M  V30 4479 N 438.618 4.96717 4.96202 0
M  V30 4480 H 443.458 2.79015 1.04665 0
M  V30 4481 H 440.995 1.38137 0.505618 0
M  V30 4482 H 442.953 2.30349 3.47844 0
M  V30 4483 H 441.583 1.28646 2.96057 0
M  V30 4484 H 440.635 3.37959 1.74607 0
M  V30 4485 H 441.947 4.3265 2.48224 0
M  V30 4486 H 441.101 3.75284 4.76704 0
M  V30 4487 H 439.84 2.70492 4.05814 0
M  V30 4488 H 438.845 4.68465 2.87786 0
M  V30 4489 H 440.07 5.74692 3.61809 0
M  V30 4490 H 438.016 4.08865 5.12997 0
M  V30 4491 H 437.933 5.79738 4.85222 0
M  V30 4492 H 439.201 5.15113 5.85046 0
M  V30 4493 N 443.43 -0.535701 1.48216 0
M  V30 4494 C 444.393 -1.623 1.61838 0
M  V30 4495 C 445.393 -1.53087 0.492024 0
M  V30 4496 O 446.583 -1.5686 0.757668 0
M  V30 4497 C 443.715 -3.01907 1.58319 0
M  V30 4498 H 444.908 -1.51564 2.58783 0
M  V30 4499 H 442.461 -0.757317 1.36727 0
M  V30 4500 H 443.196 -3.18155 0.628299 0
M  V30 4501 H 442.981 -3.10003 2.40085 0
M  V30 4502 H 444.471 -3.80969 1.71033 0
M  V30 4503 N 444.908 -1.36708 -0.784132 0
M  V30 4504 C 445.871 -1.31307 -1.87859 0
M  V30 4505 C 446.871 -0.219654 -1.59293 0
M  V30 4506 O 448.061 -0.47476 -1.67606 0
M  V30 4507 C 445.193 -1.03679 -3.24751 0
M  V30 4508 H 446.386 -2.28647 -1.94064 0
M  V30 4509 H 443.939 -1.21558 -0.98252 0
M  V30 4510 H 444.674 -0.0681936 -3.24228 0
M  V30 4511 H 444.459 -1.82811 -3.46876 0
M  V30 4512 H 445.949 -1.02518 -4.04821 0
M  V30 4513 N 446.386 1.0089 -1.21074 0
M  V30 4514 C 447.632 1.7497 -1.03717 0
M  V30 4515 C 447.987 1.8764 0.425344 0
M  V30 4516 O 447.28 1.39679 1.3115 0
M  V30 4517 C 447.474 3.16335 -1.66334 0
M  V30 4518 C 447.303 3.17449 -3.18522 0
M  V30 4519 C 446.073 3.2425 -3.87543 0
M  V30 4520 C 448.271 3.02877 -4.15656 0
M  V30 4521 N 446.253 3.14949 -5.26954 0
M  V30 4522 C 447.624 3.0143 -5.41793 0
M  V30 4523 C 449.679 2.8715 -4.06755 0
M  V30 4524 C 448.382 2.85869 -6.60054 0
M  V30 4525 C 450.408 2.72944 -5.24648 0
M  V30 4526 C 449.77 2.72171 -6.49694 0
M  V30 4527 H 445.869 0.650627 -0.43383 0
M  V30 4528 H 448.453 1.19944 -1.53367 0
M  V30 4529 H 446.624 3.69638 -1.19256 0
M  V30 4530 H 448.356 3.78888 -1.42219 0
M  V30 4531 H 445.111 3.31288 -3.38446 0
M  V30 4532 H 445.535 3.13651 -5.9996 0
M  V30 4533 H 450.177 2.86557 -3.10878 0
M  V30 4534 H 447.895 2.8521 -7.56096 0
M  V30 4535 H 451.481 2.61782 -5.19578 0
M  V30 4536 H 450.361 2.61307 -7.39384 0
M  V30 4537 N 447.864 1.01787 1.20321 0
M  V30 4538 C 449.089 0.727009 1.9424 0
M  V30 4539 C 449.514 -0.706179 1.74341 0
M  V30 4540 O 448.872 -1.48609 1.03852 0
M  V30 4541 C 448.92 1.06958 3.44372 0
M  V30 4542 O 448.024 0.181983 4.11998 0
M  V30 4543 H 447.365 0.269626 0.606793 0
M  V30 4544 H 449.895 1.36158 1.52716 0
M  V30 4545 H 449.905 1.02182 3.94997 0
M  V30 4546 H 448.58 2.11378 3.58179 0
M  V30 4547 H 447.157 0.287378 3.71791 0
M  V30 4548 N 449.342 -1.36122 0.79427 0
M  V30 4549 C 450.272 -2.32551 0.210328 0
M  V30 4550 C 451.253 -1.56884 -0.657386 0
M  V30 4551 O 452.438 -1.85014 -0.590207 0
M  V30 4552 C 449.568 -3.41128 -0.651819 0
M  V30 4553 C 448.522 -4.27842 0.116395 0
M  V30 4554 C 447.848 -5.2763 -0.86666 0
M  V30 4555 C 449.148 -5.05647 1.30837 0
M  V30 4556 H 450.842 -2.81636 1.01594 0
M  V30 4557 H 448.388 -1.35407 0.489981 0
M  V30 4558 H 450.341 -4.07581 -1.07031 0
M  V30 4559 H 449.065 -2.90622 -1.49019 0
M  V30 4560 H 447.724 -3.62952 0.515915 0
M  V30 4561 H 447.372 -4.73395 -1.70019 0
M  V30 4562 H 447.072 -5.86514 -0.35705 0
M  V30 4563 H 448.596 -5.96955 -1.28361 0
M  V30 4564 H 450.01 -5.65113 0.965393 0
M  V30 4565 H 448.407 -5.73967 1.75161 0
M  V30 4566 H 449.477 -4.37006 2.10128 0
M  V30 4567 N 450.82 -0.546701 -1.47814 0
M  V30 4568 C 451.767 0.206854 -2.29871 0
M  V30 4569 C 452.737 0.918235 -1.38411 0
M  V30 4570 O 453.922 0.915991 -1.67375 0
M  V30 4571 C 451.062 1.23746 -3.22151 0
M  V30 4572 C 450.175 0.533216 -4.28697 0
M  V30 4573 C 449.31 1.5482 -5.08138 0
M  V30 4574 C 448.349 0.828347 -6.06469 0
M  V30 4575 N 447.486 1.78966 -6.78908 0
M  V30 4576 H 452.326 -0.499037 -2.93792 0
M  V30 4577 H 449.863 -0.25793 -1.44821 0
M  V30 4578 H 451.821 1.84746 -3.74065 0
M  V30 4579 H 450.451 1.91151 -2.60117 0
M  V30 4580 H 449.503 -0.191089 -3.7992 0
M  V30 4581 H 450.815 -0.0311987 -4.9879 0
M  V30 4582 H 449.969 2.23202 -5.6415 0
M  V30 4583 H 448.708 2.14652 -4.37922 0
M  V30 4584 H 447.713 0.130539 -5.49645 0
M  V30 4585 H 448.938 0.235907 -6.7869 0
M  V30 4586 H 446.884 2.37675 -6.1143 0
M  V30 4587 H 446.801 1.27712 -7.45135 0
M  V30 4588 H 448.069 2.46496 -7.395 0
M  V30 4589 N 452.299 1.55045 -0.282633 0
M  V30 4590 C 453.209 2.26491 0.61147 0
M  V30 4591 C 454.225 1.29348 1.16384 0
M  V30 4592 O 455.401 1.62298 1.19253 0
M  V30 4593 C 452.466 2.97779 1.77563 0
M  V30 4594 C 451.527 4.10418 1.25919 0
M  V30 4595 C 450.76 4.78297 2.36786 0
M  V30 4596 O 450.983 4.45426 3.56303 0
M  V30 4597 O 449.917 5.66089 2.04517 0
M  V30 4598 H 453.743 3.03683 0.0324615 0
M  V30 4599 H 451.328 1.49317 -0.0497576 0
M  V30 4600 H 453.21 3.42554 2.45427 0
M  V30 4601 H 451.885 2.23498 2.34159 0
M  V30 4602 H 450.792 3.70082 0.546797 0
M  V30 4603 H 452.125 4.86622 0.738887 0
M  V30 4604 N 453.777 0.010035 1.57597 0
M  V30 4605 C 454.707 -0.976857 2.12084 0
M  V30 4606 C 455.688 -1.35191 1.03235 0
M  V30 4607 O 456.873 -1.43389 1.3097 0
M  V30 4608 C 454.003 -2.26548 2.63236 0
M  V30 4609 C 452.957 -2.03175 3.76701 0
M  V30 4610 C 452.283 -3.38138 4.14206 0
M  V30 4611 C 453.583 -1.38625 5.03568 0
M  V30 4612 H 455.277 -0.523145 2.94794 0
M  V30 4613 H 452.823 -0.250195 1.4181 0
M  V30 4614 H 454.776 -2.95952 2.99984 0
M  V30 4615 H 453.5 -2.74051 1.77661 0
M  V30 4616 H 452.159 -1.36195 3.40362 0
M  V30 4617 H 451.807 -3.83363 3.25641 0
M  V30 4618 H 451.507 -3.23312 4.90656 0
M  V30 4619 H 453.031 -4.08841 4.53521 0
M  V30 4620 H 454.445 -1.98 5.38023 0
M  V30 4621 H 452.842 -1.34256 5.84889 0
M  V30 4622 H 453.912 -0.356722 4.83586 0
M  V30 4623 N 455.255 -1.55392 -0.262866 0
M  V30 4624 C 456.205 -1.85355 -1.32768 0
M  V30 4625 C 457.189 -0.713188 -1.44231 0
M  V30 4626 O 458.381 -0.974765 -1.47741 0
M  V30 4627 C 455.51 -2.13781 -2.68612 0
M  V30 4628 C 454.596 -3.34104 -2.61219 0
M  V30 4629 N 454.987 -4.53766 -2.2345 0
M  V30 4630 C 453.285 -3.36895 -2.92263 0
M  V30 4631 C 453.986 -5.35877 -2.26298 0
M  V30 4632 N 452.962 -4.74536 -2.65172 0
M  V30 4633 H 456.764 -2.75413 -1.02591 0
M  V30 4634 H 454.278 -1.55405 -0.471503 0
M  V30 4635 H 456.275 -2.33407 -3.45437 0
M  V30 4636 H 454.935 -1.25013 -2.99669 0
M  V30 4637 H 455.946 -4.79682 -1.95258 0
M  V30 4638 H 452.623 -2.58351 -3.27965 0
M  V30 4639 H 454.013 -6.41577 -1.99572 0
M  V30 4640 N 456.733 0.527833 -1.48498 0
M  V30 4641 C 457.961 1.30823 -1.6029 0
M  V30 4642 C 458.376 1.86945 -0.263974 0
M  V30 4643 O 457.733 1.6651 0.747034 0
M  V30 4644 C 457.784 2.45756 -2.65116 0
M  V30 4645 O 457.505 1.91946 -3.93813 0
M  V30 4646 C 459.006 3.37543 -2.87367 0
M  V30 4647 H 456.226 0.397763 -0.540394 0
M  V30 4648 H 458.77 0.636529 -1.94341 0
M  V30 4649 H 456.925 3.08806 -2.33917 0
M  V30 4650 H 457.339 2.67195 -4.51339 0
M  V30 4651 H 458.813 4.14532 -3.6451 0
M  V30 4652 H 459.29 3.92905 -1.9627 0
M  V30 4653 H 459.896 2.80283 -3.19878 0
M  V30 4654 N 458.211 1.37122 0.776871 0
M  V30 4655 C 459.161 1.28989 1.88005 0
M  V30 4656 C 460.145 0.178765 1.59904 0
M  V30 4657 O 461.337 0.412705 1.72121 0
M  V30 4658 C 458.466 1.09402 3.25402 0
M  V30 4659 C 457.552 2.25036 3.59471 0
M  V30 4660 N 457.943 3.50407 3.64759 0
M  V30 4661 C 456.241 2.17078 3.89607 0
M  V30 4662 C 456.942 4.26628 3.95428 0
M  V30 4663 N 455.918 3.55709 4.11062 0
M  V30 4664 H 459.72 2.2394 1.90337 0
M  V30 4665 H 457.234 1.30021 0.973052 0
M  V30 4666 H 459.231 1.01661 4.04315 0
M  V30 4667 H 457.891 0.153632 3.24336 0
M  V30 4668 H 458.902 3.8438 3.47091 0
M  V30 4669 H 455.579 1.31067 3.96393 0
M  V30 4670 H 456.969 5.35107 4.06338 0
M  V30 4671 N 459.689 -1.00246 1.21608 0
M  V30 4672 C 460.621 -2.09244 0.935401 0
M  V30 4673 C 461.634 -1.62592 -0.0823594 0
M  V30 4674 O 462.823 -1.77865 0.150456 0
M  V30 4675 C 459.923 -3.36724 0.383453 0
M  V30 4676 C 459.096 -4.1245 1.45615 0
M  V30 4677 C 458.155 -5.18219 0.912991 0
M  V30 4678 O 457.181 -5.46337 1.59701 0
M  V30 4679 N 458.383 -5.7987 -0.270478 0
M  V30 4680 H 461.148 -2.33905 1.87373 0
M  V30 4681 H 458.709 -1.16748 1.12167 0
M  V30 4682 H 460.701 -4.047 0.00562157 0
M  V30 4683 H 459.271 -3.09201 -0.459758 0
M  V30 4684 H 458.491 -3.39241 2.00772 0
M  V30 4685 H 459.779 -4.59819 2.17817 0
M  V30 4686 H 459.177 -5.59381 -0.843195 0
M  V30 4687 H 457.734 -6.49126 -0.589794 0
M  V30 4688 N 461.167 -1.02423 -1.1978 0
M  V30 4689 C 462.097 -0.62157 -2.25075 0
M  V30 4690 C 463.078 0.367148 -1.6609 0
M  V30 4691 O 464.263 0.250892 -1.92573 0
M  V30 4692 C 461.393 0.0331826 -3.47284 0
M  V30 4693 C 460.347 -0.877323 -4.18912 0
M  V30 4694 C 459.673 -0.0879296 -5.34628 0
M  V30 4695 C 460.973 -2.18892 -4.74219 0
M  V30 4696 H 462.667 -1.50179 -2.59011 0
M  V30 4697 H 460.213 -0.723547 -1.24502 0
M  V30 4698 H 462.166 0.326488 -4.20133 0
M  V30 4699 H 460.89 0.948164 -3.12534 0
M  V30 4700 H 459.549 -1.15475 -3.47938 0
M  V30 4701 H 459.197 0.828941 -4.96123 0
M  V30 4702 H 458.897 -0.694359 -5.83483 0
M  V30 4703 H 460.421 0.198743 -6.10276 0
M  V30 4704 H 461.835 -1.95746 -5.38847 0
M  V30 4705 H 460.232 -2.74686 -5.33542 0
M  V30 4706 H 461.302 -2.84674 -3.92541 0
M  V30 4707 N 462.645 1.35699 -0.801477 0
M  V30 4708 C 463.885 2.00741 -0.385027 0
M  V30 4709 C 464.249 1.62213 1.02718 0
M  V30 4710 O 465.45 2.19936 1.54537 0
M  V30 4711 C 463.721 3.53032 -0.557057 0
M  V30 4712 S 465.28 4.38195 -0.230272 0
M  V30 4713 H 462.098 0.695748 -0.146477 0
M  V30 4714 H 464.7 1.65378 -1.04261 0
M  V30 4715 H 463.404 3.7856 -1.58494 0
M  V30 4716 H 462.935 3.93229 0.116029 0
M  V30 4717 H 464.95 4.86748 0.963895 0
M  V30 4718 N 464.123 0.554532 1.47522 0
M  V30 4719 C 465.534 0.120446 1.86311 0
M  V30 4720 C 465.885 -1.30904 1.46145 0
M  V30 4721 O 465.01 -1.98434 0.863294 0
M  V30 4722 C 465.605 0.211808 3.38137 0
M  V30 4723 C 464.164 -0.167224 3.76028 0
M  V30 4724 C 463.311 0.560576 2.71575 0
M  V30 4725 H 466.262 0.764408 1.39077 0
M  V30 4726 H 466.283 -0.570275 3.76202 0
M  V30 4727 H 465.795 1.25232 3.6734 0
M  V30 4728 H 463.896 -1.20894 3.52442 0
M  V30 4729 H 464.009 0.189473 4.78725 0
M  V30 4730 H 462.373 0.00396836 2.547 0
M  V30 4731 H 463.156 1.60219 3.0362 0
M  V30 4732 N 465.601 -1.54893 0.290851 0
M  V30 4733 C 467.017 -1.59476 -0.0628432 0
M  V30 4734 C 467.217 -1.30795 -1.5328 0
M  V30 4735 O 466.273 -1.07644 -2.28406 0
M  V30 4736 C 467.586 -2.98928 0.325962 0
M  V30 4737 C 469.134 -3.11799 0.273882 0
M  V30 4738 C 469.609 -4.53544 0.637359 0
M  V30 4739 N 471.1 -4.59433 0.589507 0
M  V30 4740 C 471.835 -5.67164 0.84335 0
M  V30 4741 N 471.331 -6.82975 1.16263 0
M  V30 4742 N 473.124 -5.56786 0.771091 0
M  V30 4743 H 465.275 -1.71798 1.24896 0
M  V30 4744 H 467.538 -0.801879 0.505663 0
M  V30 4745 H 467.244 -3.24805 1.34887 0
M  V30 4746 H 467.118 -3.75793 -0.325441 0
M  V30 4747 H 469.505 -2.85677 -0.739765 0
M  V30 4748 H 469.586 -2.37112 0.959766 0
M  V30 4749 H 469.23 -4.80394 1.64877 0
M  V30 4750 H 469.16 -5.26553 -0.0704866 0
M  V30 4751 H 471.651 -3.76245 0.353252 0
M  V30 4752 H 471.964 -7.61048 1.34257 0
M  V30 4753 H 470.309 -6.84552 1.20057 0
M  V30 4754 H 473.5 -4.65187 0.521383 0
M  V30 4755 H 473.673 -6.40664 0.972295 0
M  V30 4756 N 467.08 -0.0183926 -1.57589 0
M  V30 4757 C 468.305 0.676634 -1.96052 0
M  V30 4758 C 468.73 1.6548 -0.894307 0
M  V30 4759 O 468.088 1.80712 0.145849 0
M  V30 4760 C 468.136 1.36872 -3.33614 0
M  V30 4761 O 467.24 2.48372 -3.29219 0
M  V30 4762 H 466.581 0.1786 -0.63953 0
M  V30 4763 H 469.111 -0.077056 -2.04455 0
M  V30 4764 H 469.121 1.72797 -3.69601 0
M  V30 4765 H 467.796 0.651636 -4.10763 0
M  V30 4766 H 466.373 2.14639 -3.04934 0
M  V30 4767 N 468.558 1.5553 0.254621 0
M  V30 4768 C 469.783 1.81383 1.00573 0
M  V30 4769 C 470.208 0.594419 1.78461 0
M  V30 4770 O 469.566 -0.456403 1.75461 0
M  V30 4771 C 469.614 3.04892 1.92545 0
M  V30 4772 O 468.718 2.81266 3.01601 0
M  V30 4773 H 468.059 0.598969 0.286587 0
M  V30 4774 H 470.589 2.02703 0.277952 0
M  V30 4775 H 470.599 3.34119 2.34155 0
M  V30 4776 H 469.274 3.93287 1.3527 0
M  V30 4777 H 467.851 2.63185 2.64174 0
M  V30 4778 N 470.036 -0.519951 1.48776 0
M  V30 4779 C 471.313 -1.28123 1.47797 0
M  V30 4780 C 471.693 -2.10196 0.195157 0
M  V30 4781 O 471.041 -2.13167 -0.822925 0
M  V30 4782 C 471.251 -2.15413 2.74587 0
M  V30 4783 C 472.599 -2.75225 3.23321 0
M  V30 4784 O 473.623 -2.25694 2.75574 0
M  V30 4785 O 472.482 -3.65346 4.06429 0
M  V30 4786 H 469.576 -0.578793 0.590701 0
M  V30 4787 H 472.122 -0.535779 1.6102 0
M  V30 4788 H 470.894 -1.54617 3.59457 0
M  V30 4789 H 470.517 -2.97186 2.64132 0
M  V30 4790 N 471.514 -1.37532 -0.769588 0
M  V30 4791 C 472.744 -1.35861 -1.55645 0
M  V30 4792 C 473.152 0.0574398 -1.89113 0
M  V30 4793 O 472.495 1.03021 -1.52093 0
M  V30 4794 C 472.557 -2.13431 -2.89288 0
M  V30 4795 C 472.221 -3.62378 -2.78444 0
M  V30 4796 C 473.218 -4.56215 -2.49326 0
M  V30 4797 C 470.903 -4.05529 -2.96398 0
M  V30 4798 C 472.897 -5.91181 -2.38294 0
M  V30 4799 C 470.584 -5.40579 -2.84987 0
M  V30 4800 C 471.582 -6.33218 -2.55975 0
M  V30 4801 O 471.27 -7.65787 -2.44594 0
M  V30 4802 H 471.002 -0.467001 -0.48876 0
M  V30 4803 H 473.556 -1.81505 -0.961515 0
M  V30 4804 H 471.786 -1.62481 -3.50909 0
M  V30 4805 H 473.475 -2.04368 -3.50697 0
M  V30 4806 H 474.241 -4.24187 -2.35139 0
M  V30 4807 H 470.12 -3.33781 -3.1798 0
M  V30 4808 H 473.664 -6.63457 -2.15571 0
M  V30 4809 H 469.561 -5.72209 -2.98743 0
M  V30 4810 H 470.329 -7.76132 -2.59927 0
M  V30 4811 N 472.992 0.995999 -1.22138 0
M  V30 4812 C 474.408 1.25917 -0.980667 0
M  V30 4813 C 474.608 1.98819 0.327604 0
M  V30 4814 O 473.664 2.29587 1.05101 0
M  V30 4815 C 474.977 2.07399 -2.17729 0
M  V30 4816 C 476.525 2.20594 -2.22052 0
M  V30 4817 C 477 3.05462 -3.41258 0
M  V30 4818 N 478.491 3.13049 -3.41401 0
M  V30 4819 C 479.226 3.78997 -4.30289 0
M  V30 4820 N 478.722 4.46899 -5.2939 0
M  V30 4821 N 480.515 3.75728 -4.18073 0
M  V30 4822 H 472.666 0.507158 -2.06256 0
M  V30 4823 H 474.929 0.28658 -0.903646 0
M  V30 4824 H 474.635 1.61191 -3.12586 0
M  V30 4825 H 474.509 3.08154 -2.17534 0
M  V30 4826 H 476.896 2.66017 -1.27745 0
M  V30 4827 H 476.977 1.1928 -2.26287 0
M  V30 4828 H 476.621 2.60739 -4.35864 0
M  V30 4829 H 476.551 4.06911 -3.34262 0
M  V30 4830 H 479.042 2.64721 -2.69688 0
M  V30 4831 H 479.355 4.94952 -5.935 0
M  V30 4832 H 477.7 4.45657 -5.33306 0
M  V30 4833 H 480.891 3.2184 -3.39907 0
M  V30 4834 H 481.064 4.26845 -4.87553 0
M  V30 4835 N 474.47 1.03057 1.19235 0
M  V30 4836 C 475.418 0.606391 2.24557 0
M  V30 4837 C 476.412 -0.361826 1.65491 0
M  V30 4838 O 477.618 -0.23022 1.78522 0
M  V30 4839 H 473.993 0.177838 0.730669 0
M  V30 4840 H 475.964 1.50529 2.5765 0
M  V30 4841 C 474.713 -0.0252127 3.47691 0
M  V30 4842 H 474.036 0.710838 3.9343 0
M  V30 4843 H 475.476 -0.284931 4.23042 0
M  V30 4844 C 473.935 -1.27229 3.11953 0
M  V30 4845 O 474.465 -2.36416 3.24762 0
M  V30 4846 N 472.671 -1.16169 2.6637 0
M  V30 4847 H 472.218 -0.273189 2.56147 0
M  V30 4848 H 472.176 -1.99703 2.42829 0
M  V30 4849 N 475.948 -1.35272 0.808662 0
M  V30 4850 C 476.881 -2.27595 0.165994 0
M  V30 4851 C 477.859 -1.48189 -0.669241 0
M  V30 4852 O 479.043 -1.77444 -0.636073 0
M  V30 4853 C 476.17 -3.29843 -0.769505 0
M  V30 4854 C 475.216 -4.26498 -0.0136267 0
M  V30 4855 S 476.049 -5.18878 1.32384 0
M  V30 4856 C 477.205 -6.24666 0.392838 0
M  V30 4857 H 477.438 -2.81755 0.948756 0
M  V30 4858 H 474.971 -1.42103 0.603828 0
M  V30 4859 H 476.929 -3.89247 -1.30374 0
M  V30 4860 H 475.59 -2.74558 -1.52567 0
M  V30 4861 H 474.783 -4.98769 -0.724227 0
M  V30 4862 H 474.385 -3.71274 0.450713 0
M  V30 4863 H 476.677 -6.7619 -0.4211 0
M  V30 4864 H 477.62 -6.99741 1.0848 0
M  V30 4865 H 478.028 -5.64499 -0.0123908 0
M  V30 4866 N 477.426 -0.562348 -1.47226 0
M  V30 4867 C 478.675 -0.038041 -2.01664 0
M  V30 4868 C 478.988 1.32199 -1.44162 0
M  V30 4869 O 480.194 1.9365 -1.90294 0
M  V30 4870 C 478.65 -0.0174958 -3.59896 0
M  V30 4871 C 478.258 -1.3746 -4.2639 0
M  V30 4872 C 480.002 0.453934 -4.22066 0
M  V30 4873 C 477.909 -1.31289 -5.76643 0
M  V30 4874 H 476.839 -0.0104511 -0.753928 0
M  V30 4875 H 479.49 -0.710966 -1.69167 0
M  V30 4876 H 477.872 0.721182 -3.89378 0
M  V30 4877 H 479.046 -2.1314 -4.08544 0
M  V30 4878 H 477.361 -1.78438 -3.7623 0
M  V30 4879 H 479.958 0.518584 -5.32179 0
M  V30 4880 H 480.301 1.46706 -3.89594 0
M  V30 4881 H 480.834 -0.230044 -3.97134 0
M  V30 4882 H 477.573 -2.30217 -6.13743 0
M  V30 4883 H 477.093 -0.597973 -5.96812 0
M  V30 4884 H 478.772 -1.01713 -6.38955 0
M  V30 4885 N 478.904 1.54736 -0.299062 0
M  V30 4886 C 480.153 1.99279 0.311549 0
M  V30 4887 C 480.466 1.19107 1.55154 0
M  V30 4888 O 481.672 1.53908 2.23662 0
M  V30 4889 C 480.128 3.54768 0.605632 0
M  V30 4890 C 479.736 4.43746 -0.615914 0
M  V30 4891 C 481.48 4.07841 1.17754 0
M  V30 4892 C 479.387 5.90663 -0.29509 0
M  V30 4893 H 478.317 0.744359 0.120187 0
M  V30 4894 H 480.968 1.78919 -0.407464 0
M  V30 4895 H 479.35 3.71021 1.38419 0
M  V30 4896 H 480.524 4.39267 -1.39218 0
M  V30 4897 H 478.839 4.01434 -1.10633 0
M  V30 4898 H 481.436 5.15174 1.43179 0
M  V30 4899 H 481.779 3.58324 2.11918 0
M  V30 4900 H 482.312 3.95123 0.460739 0
M  V30 4901 H 479.051 6.44325 -1.20524 0
M  V30 4902 H 478.571 5.98155 0.44394 0
M  V30 4903 H 480.25 6.46916 0.104048 0
M  V30 4904 N 480.382 0.0267497 1.57577 0
M  V30 4905 C 481.332 -0.965003 2.06571 0
M  V30 4906 C 482.316 -1.28694 0.965746 0
M  V30 4907 O 483.508 -1.27345 1.22932 0
M  V30 4908 C 480.637 -2.24821 2.59443 0
M  V30 4909 C 479.723 -1.95474 3.76365 0
M  V30 4910 N 480.114 -1.36387 4.87065 0
M  V30 4911 C 478.412 -2.25478 3.84806 0
M  V30 4912 C 479.113 -1.24119 5.68304 0
M  V30 4913 N 478.089 -1.7359 5.15138 0
M  V30 4914 H 481.891 -0.503095 2.89562 0
M  V30 4915 H 479.405 -0.178322 1.61418 0
M  V30 4916 H 481.402 -2.9674 2.92833 0
M  V30 4917 H 480.062 -2.7164 1.77881 0
M  V30 4918 H 481.073 -1.03919 5.07367 0
M  V30 4919 H 477.75 -2.74987 3.14147 0
M  V30 4920 H 479.14 -0.784504 6.67304 0
M  V30 4921 N 481.861 -1.55662 -0.24637 0
M  V30 4922 C 482.824 -1.89558 -1.28842 0
M  V30 4923 C 483.824 -0.772082 -1.41052 0
M  V30 4924 O 485.014 -1.04007 -1.39743 0
M  V30 4925 C 482.146 -2.12449 -2.66605 0
M  V30 4926 H 483.339 -2.82735 -1.00004 0
M  V30 4927 H 480.892 -1.48562 -0.485684 0
M  V30 4928 H 481.627 -1.21742 -3.00582 0
M  V30 4929 H 481.412 -2.94273 -2.59125 0
M  V30 4930 H 482.902 -2.39854 -3.41847 0
M  V30 4931 N 483.339 0.512053 -1.4905 0
M  V30 4932 C 484.302 1.59704 -1.64399 0
M  V30 4933 C 485.302 1.52285 -0.516317 0
M  V30 4934 O 486.492 1.55635 -0.782527 0
M  V30 4935 C 483.624 2.9935 -1.63102 0
M  V30 4936 H 484.817 1.47428 -2.61161 0
M  V30 4937 H 482.37 0.735469 -1.37915 0
M  V30 4938 H 483.105 3.17116 -0.678836 0
M  V30 4939 H 482.89 3.06144 -2.44986 0
M  V30 4940 H 484.38 3.782 -1.77072 0
M  V30 4941 N 484.817 1.37938 0.762283 0
M  V30 4942 C 486.045 1.36883 1.55147 0
M  V30 4943 C 486.46 -0.0435348 1.8875 0
M  V30 4944 O 485.817 -1.00786 1.52146 0
M  V30 4945 C 485.868 2.21624 2.85596 0
M  V30 4946 O 485.589 3.57358 2.5343 0
M  V30 4947 C 487.09 2.28653 3.7978 0
M  V30 4948 H 484.31 0.468521 0.480343 0
M  V30 4949 H 486.854 1.81404 0.944079 0
M  V30 4950 H 485.009 1.80588 3.42734 0
M  V30 4951 H 485.423 4.01883 3.37032 0
M  V30 4952 H 486.897 2.9225 4.68288 0
M  V30 4953 H 487.374 1.29767 4.19592 0
M  V30 4954 H 487.98 2.70043 3.28568 0
M  V30 4955 N 486.295 -0.989507 1.22664 0
M  V30 4956 C 487.706 -1.54406 1.04955 0
M  V30 4957 C 488.057 -1.92366 -0.385951 0
M  V30 4958 O 487.182 -1.75111 -1.27142 0
M  V30 4959 C 487.777 -2.80578 1.89899 0
M  V30 4960 C 486.336 -3.32464 1.76478 0
M  V30 4961 C 485.483 -2.05524 1.86159 0
M  V30 4962 H 488.434 -0.810211 1.3646 0
M  V30 4963 H 488.455 -3.53075 1.4184 0
M  V30 4964 H 487.967 -2.52918 2.94371 0
M  V30 4965 H 486.068 -3.65024 0.747528 0
M  V30 4966 H 486.181 -4.02838 2.59342 0
M  V30 4967 H 484.545 -2.19241 1.29636 0
M  V30 4968 H 485.328 -1.80258 2.92168 0
M  V30 4969 N 487.773 -1.03688 -1.18687 0
M  V30 4970 C 489.019 -0.739123 -1.88851 0
M  V30 4971 C 489.352 0.731042 -1.79915 0
M  V30 4972 O 488.627 1.53313 -1.19688 0
M  V30 4973 C 488.91 -1.20106 -3.3948 0
M  V30 4974 C 488.763 -2.73304 -3.57246 0
M  V30 4975 C 490.082 -0.788134 -4.32986 0
M  V30 4976 H 487.201 -0.269978 -0.68577 0
M  V30 4977 H 489.843 -1.28822 -1.3966 0
M  V30 4978 H 487.993 -0.733915 -3.81505 0
M  V30 4979 H 489.665 -3.28027 -3.24339 0
M  V30 4980 H 487.908 -3.13313 -3.00029 0
M  V30 4981 H 488.579 -3.00684 -4.62918 0
M  V30 4982 H 491.055 -1.19005 -3.98719 0
M  V30 4983 H 489.931 -1.13915 -5.36949 0
M  V30 4984 H 490.192 0.308988 -4.41019 0
M  V30 4985 N 489.251 1.34841 -0.815825 0
M  V30 4986 C 490.528 1.92908 -0.323416 0
M  V30 4987 C 490.908 1.74479 1.18828 0
M  V30 4988 O 490.256 1.11928 1.99209 0
M  V30 4989 C 490.466 3.40957 -0.744952 0
M  V30 4990 C 491.814 4.18107 -0.739716 0
M  V30 4991 O 492.838 3.49511 -0.68708 0
M  V30 4992 O 491.697 5.40517 -0.806456 0
M  V30 4993 H 488.791 0.822436 -0.0867646 0
M  V30 4994 H 491.337 1.4386 -0.90014 0
M  V30 4995 H 490.109 3.4814 -1.78646 0
M  V30 4996 H 489.732 3.97341 -0.143535 0
M  V30 4997 N 490.729 0.570148 1.46925 0
M  V30 4998 C 491.659 -0.158274 2.32963 0
M  V30 4999 C 492.64 -0.896093 1.44583 0
M  V30 5000 O 493.825 -0.874022 1.7342 0
M  V30 5001 C 490.955 -1.18055 3.26619 0
M  V30 5002 C 489.909 -0.558379 4.24342 0
M  V30 5003 C 489.235 -1.68623 5.07415 0
M  V30 5004 C 490.535 0.496295 5.19937 0
M  V30 5005 H 492.229 0.560046 2.94115 0
M  V30 5006 H 489.775 0.270775 1.41431 0
M  V30 5007 H 491.728 -1.69841 3.85658 0
M  V30 5008 H 490.452 -1.92899 2.63548 0
M  V30 5009 H 489.111 -0.0617157 3.66548 0
M  V30 5010 H 488.759 -2.42402 4.40738 0
M  V30 5011 H 488.459 -1.27564 5.73586 0
M  V30 5012 H 489.983 -2.20709 5.69315 0
M  V30 5013 H 491.397 0.0640052 5.73264 0
M  V30 5014 H 489.794 0.82649 5.94381 0
M  V30 5015 H 490.864 1.38735 4.6463 0
M  V30 5016 N 492.207 -1.54576 0.307264 0
M  V30 5017 C 493.137 -2.26708 -0.55907 0
M  V30 5018 C 494.118 -1.26893 -1.1328 0
M  V30 5019 O 495.303 -1.55677 -1.16097 0
M  V30 5020 C 492.433 -3.01259 -1.72801 0
M  V30 5021 C 491.387 -4.08275 -1.28435 0
M  V30 5022 C 490.713 -4.70575 -2.53895 0
M  V30 5023 C 492.013 -5.2068 -0.411038 0
M  V30 5024 H 493.707 -2.9937 0.042576 0
M  V30 5025 H 491.253 -1.43983 0.0219173 0
M  V30 5026 H 493.206 -3.50444 -2.34023 0
M  V30 5027 H 491.93 -2.26187 -2.356 0
M  V30 5028 H 490.589 -3.59949 -0.695161 0
M  V30 5029 H 490.237 -3.92136 -3.15021 0
M  V30 5030 H 489.937 -5.42854 -2.24908 0
M  V30 5031 H 491.461 -5.22527 -3.15908 0
M  V30 5032 H 492.875 -5.65721 -0.929097 0
M  V30 5033 H 491.272 -5.99716 -0.214664 0
M  V30 5034 H 492.342 -4.81629 0.562287 0
M  V30 5035 N 493.685 -0.035106 -1.57561 0
M  V30 5036 C 494.933 0.64096 -1.91667 0
M  V30 5037 C 495.254 1.72323 -0.912681 0
M  V30 5038 O 494.524 1.95849 0.0449089 0
M  V30 5039 H 493.104 0.239743 -0.707483 0
M  V30 5040 H 495.766 -0.084321 -1.94718 0
M  V30 5041 H 494.862 1.08987 -2.92452 0
M  V30 5042 N 495.163 1.55791 0.238111 0
M  V30 5043 C 496.126 1.90239 1.27835 0
M  V30 5044 C 497.126 0.779552 1.4064 0
M  V30 5045 O 498.316 1.04747 1.3919 0
M  V30 5046 C 495.448 2.13859 2.65475 0
M  V30 5047 H 496.641 2.83262 0.985034 0
M  V30 5048 H 494.194 1.48818 0.477799 0
M  V30 5049 H 494.929 1.23334 2.99932 0
M  V30 5050 H 494.714 2.95643 2.57561 0
M  V30 5051 H 496.204 2.41664 3.40571 0
M  V30 5052 N 496.642 -0.504142 1.49319 0
M  V30 5053 C 497.572 -1.61473 1.68667 0
M  V30 5054 C 498.553 -1.61455 0.535378 0
M  V30 5055 O 499.738 -1.78245 0.770868 0
M  V30 5056 C 496.868 -2.99971 1.75028 0
M  V30 5057 C 495.822 -3.14854 2.89916 0
M  V30 5058 C 495.148 -4.54671 2.81387 0
M  V30 5059 C 496.448 -2.95176 4.30893 0
M  V30 5060 H 498.142 -1.45535 2.61648 0
M  V30 5061 H 495.688 -0.698711 1.25913 0
M  V30 5062 H 497.641 -3.77562 1.8715 0
M  V30 5063 H 496.365 -3.1699 0.786441 0
M  V30 5064 H 495.024 -2.39687 2.77391 0
M  V30 5065 H 494.672 -4.68562 1.82917 0
M  V30 5066 H 494.372 -4.6557 3.58494 0
M  V30 5067 H 495.896 -5.34327 2.95512 0
M  V30 5068 H 497.31 -3.62538 4.44116 0
M  V30 5069 H 495.707 -3.17549 5.09198 0
M  V30 5070 H 496.777 -1.91332 4.45556 0
M  V30 5071 N 498.12 -1.38341 -0.754957 0
M  V30 5072 C 499.068 -1.35573 -1.89005 0
M  V30 5073 C 500.062 -0.241824 -1.67665 0
M  V30 5074 O 501.268 -0.410785 -1.7525 0
M  V30 5075 H 497.643 -0.422898 -0.621821 0
M  V30 5076 H 499.614 -2.31359 -1.88455 0
M  V30 5077 C 498.363 -1.19631 -3.26471 0
M  V30 5078 H 497.686 -2.04605 -3.43477 0
M  V30 5079 H 499.126 -1.21748 -4.06144 0
M  V30 5080 C 497.585 0.0968705 -3.36761 0
M  V30 5081 O 498.115 1.07439 -3.87066 0
M  V30 5082 N 496.321 0.153242 -2.90196 0
M  V30 5083 H 495.868 -0.642908 -2.49448 0
M  V30 5084 H 495.826 1.01807 -2.9746 0
M  V30 5085 N 499.598 0.982988 -1.23187 0
M  V30 5086 C 500.528 2.09301 -1.03515 0
M  V30 5087 C 501.509 1.70035 0.0471136 0
M  V30 5088 O 502.694 1.93847 -0.117029 0
M  V30 5089 C 499.824 3.4167 -0.622791 0
M  V30 5090 C 498.778 3.94828 -1.65211 0
M  V30 5091 C 498.104 5.23362 -1.09527 0
M  V30 5092 C 499.404 4.2439 -3.04451 0
M  V30 5093 H 501.098 2.26016 -1.96359 0
M  V30 5094 H 498.644 1.08611 -0.945501 0
M  V30 5095 H 500.597 4.18746 -0.472233 0
M  V30 5096 H 499.321 3.24811 0.341329 0
M  V30 5097 H 497.98 3.19895 -1.79061 0
M  V30 5098 H 497.628 5.02852 -0.122211 0
M  V30 5099 H 497.328 5.59895 -1.783 0
M  V30 5100 H 498.852 6.03062 -0.956511 0
M  V30 5101 H 500.266 4.92225 -2.93917 0
M  V30 5102 H 498.663 4.72118 -3.70438 0
M  V30 5103 H 499.733 3.31765 -3.53638 0
M  V30 5104 N 501.076 1.04316 1.18135 0
M  V30 5105 C 502.316 0.756937 1.89868 0
M  V30 5106 C 502.68 -0.702609 1.78682 0
M  V30 5107 O 503.881 -1.10255 2.45148 0
M  V30 5108 C 502.152 1.21327 3.36176 0
M  V30 5109 S 503.711 1.05307 4.25976 0
M  V30 5110 H 500.529 0.275143 0.655604 0
M  V30 5111 H 503.131 1.33597 1.42731 0
M  V30 5112 H 501.835 2.27086 3.41848 0
M  V30 5113 H 501.366 0.628137 3.88353 0
M  V30 5114 H 503.381 -0.0280093 4.96192 0
M  V30 5115 N 502.554 -1.34406 0.822964 0
M  V30 5116 C 503.484 -2.32052 0.259608 0
M  V30 5117 C 504.465 -1.58243 -0.623961 0
M  V30 5118 O 505.65 -1.86224 -0.55083 0
M  V30 5119 C 502.78 -3.42434 -0.579314 0
M  V30 5120 C 501.734 -4.27499 0.20712 0
M  V30 5121 C 501.06 -5.29349 -0.754547 0
M  V30 5122 C 502.36 -5.02758 1.41533 0
M  V30 5123 H 504.054 -2.79418 1.07545 0
M  V30 5124 H 501.6 -1.34338 0.518593 0
M  V30 5125 H 503.553 -4.0976 -0.983612 0
M  V30 5126 H 502.277 -2.93717 -1.4282 0
M  V30 5127 H 500.936 -3.61776 0.592787 0
M  V30 5128 H 500.584 -4.76895 -1.59939 0
M  V30 5129 H 500.284 -5.8714 -0.232561 0
M  V30 5130 H 501.808 -5.99544 -1.1567 0
M  V30 5131 H 503.222 -5.62938 1.08504 0
M  V30 5132 H 501.619 -5.70123 1.87296 0
M  V30 5133 H 502.689 -4.32451 2.1935 0
M  V30 5134 N 504.032 -0.577932 -1.46621 0
M  V30 5135 C 505.443 -0.150071 -1.86096 0
M  V30 5136 C 505.794 1.28563 -1.48209 0
M  V30 5137 O 504.919 1.97036 -0.894754 0
M  V30 5138 C 505.514 -0.265576 -3.37758 0
M  V30 5139 C 504.073 0.10738 -3.76247 0
M  V30 5140 C 503.22 -0.603711 -2.70649 0
M  V30 5141 H 506.171 -0.786438 -1.37844 0
M  V30 5142 H 506.192 0.510352 -3.77062 0
M  V30 5143 H 505.704 -1.3106 -3.65301 0
M  V30 5144 H 503.805 1.15272 -3.54321 0
M  V30 5145 H 503.918 -0.26561 -4.78363 0
M  V30 5146 H 502.282 -0.0444884 -2.54661 0
M  V30 5147 H 503.065 -1.65029 -3.01032 0
M  V30 5148 N 505.51 1.54411 -0.315457 0
M  V30 5149 C 506.44 2.27002 0.547039 0
M  V30 5150 C 507.421 1.27492 1.12605 0
M  V30 5151 O 508.606 1.5629 1.15269 0
M  V30 5152 C 505.736 3.02171 1.71201 0
M  V30 5153 C 504.69 4.0895 1.26268 0
M  V30 5154 C 504.016 4.71915 2.51396 0
M  V30 5155 C 505.316 5.20891 0.383419 0
M  V30 5156 H 507.01 2.99343 -0.0584517 0
M  V30 5157 H 504.556 1.4397 -0.0295527 0
M  V30 5158 H 506.509 3.51681 2.32161 0
M  V30 5159 H 505.233 2.27433 2.34397 0
M  V30 5160 H 503.892 3.60312 0.676062 0
M  V30 5161 H 503.54 3.93801 3.12937 0
M  V30 5162 H 503.24 5.44039 2.22026 0
M  V30 5163 H 504.764 5.24195 3.13133 0
M  V30 5164 H 506.178 5.66206 0.899082 0
M  V30 5165 H 504.575 5.99821 0.182857 0
M  V30 5166 H 505.645 4.81324 -0.587821 0
M  V30 5167 N 506.988 0.0434614 1.5754 0
M  V30 5168 C 507.921 -0.968729 2.06618 0
M  V30 5169 C 508.899 -1.30868 0.965 0
M  V30 5170 O 510.083 -1.42288 1.23638 0
M  V30 5171 C 507.21 -2.28486 2.50023 0
M  V30 5172 C 506.256 -2.09851 3.71302 0
M  V30 5173 S 507.089 -1.38401 5.17306 0
M  V30 5174 C 508.245 -2.71354 5.64019 0
M  V30 5175 H 508.478 -0.551021 2.92149 0
M  V30 5176 H 506.011 -0.168607 1.53477 0
M  V30 5177 H 507.969 -3.04142 2.75695 0
M  V30 5178 H 506.63 -2.67387 1.64812 0
M  V30 5179 H 505.823 -3.07184 3.99567 0
M  V30 5180 H 505.425 -1.42336 3.45856 0
M  V30 5181 H 507.717 -3.67549 5.69134 0
M  V30 5182 H 508.66 -2.47734 6.6335 0
M  V30 5183 H 509.068 -2.77259 4.91719 0
M  V30 5184 N 508.466 -1.55915 -0.229846 0
M  V30 5185 C 509.398 -1.88209 -1.30805 0
M  V30 5186 C 510.411 -0.769672 -1.43457 0
M  V30 5187 O 511.6 -1.04792 -1.44502 0
M  V30 5188 C 508.7 -2.06829 -2.68468 0
M  V30 5189 C 507.873 -3.37798 -2.77869 0
M  V30 5190 C 506.932 -3.45952 -3.96489 0
M  V30 5191 O 505.958 -4.19043 -3.85216 0
M  V30 5192 N 507.16 -2.76488 -5.10426 0
M  V30 5193 H 509.925 -2.81286 -1.03431 0
M  V30 5194 H 507.486 -1.5636 -0.41991 0
M  V30 5195 H 509.478 -2.09608 -3.46189 0
M  V30 5196 H 508.048 -1.20416 -2.88477 0
M  V30 5197 H 507.268 -3.4719 -1.86689 0
M  V30 5198 H 508.556 -4.24091 -2.81113 0
M  V30 5199 H 507.954 -2.16868 -5.2248 0
M  V30 5200 H 506.511 -2.84938 -5.8622 0
M  V30 5201 N 509.944 0.496216 -1.49584 0
M  V30 5202 C 510.891 1.59722 -1.66606 0
M  V30 5203 C 511.861 1.58158 -0.507477 0
M  V30 5204 O 513.046 1.76072 -0.735076 0
M  V30 5205 C 510.186 2.97844 -1.74308 0
M  V30 5206 C 509.299 3.09388 -3.01502 0
M  V30 5207 C 508.434 4.38271 -3.00153 0
M  V30 5208 C 507.473 4.43466 -4.21906 0
M  V30 5209 N 506.61 5.63784 -4.1844 0
M  V30 5210 H 511.45 1.44515 -2.60613 0
M  V30 5211 H 508.987 0.703048 -1.29212 0
M  V30 5212 H 510.945 3.77907 -1.76754 0
M  V30 5213 H 509.575 3.11743 -0.837619 0
M  V30 5214 H 508.627 2.22357 -3.08645 0
M  V30 5215 H 509.939 3.09085 -3.91494 0
M  V30 5216 H 509.093 5.2666 -3.01188 0
M  V30 5217 H 507.832 4.41146 -2.07947 0
M  V30 5218 H 506.837 3.53478 -4.21109 0
M  V30 5219 H 508.062 4.42303 -5.1531 0
M  V30 5220 H 506.008 5.67491 -3.29074 0
M  V30 5221 H 505.925 5.65118 -5.02173 0
M  V30 5222 H 507.193 6.54367 -4.23585 0
M  V30 5223 N 511.423 1.38739 0.74761 0
M  V30 5224 C 512.67 1.35274 1.50689 0
M  V30 5225 C 512.998 -0.0553359 1.94421 0
M  V30 5226 O 512.253 -1.03365 1.66175 0
M  V30 5227 C 512.552 2.25992 2.7688 0
M  V30 5228 C 512.218 3.73854 2.5208 0
M  V30 5229 C 510.88 4.14145 2.45025 0
M  V30 5230 C 513.232 4.67427 2.30568 0
M  V30 5231 C 510.56 5.4609 2.14483 0
M  V30 5232 C 512.912 5.99635 2.01545 0
M  V30 5233 C 511.576 6.39004 1.92951 0
M  V30 5234 H 510.846 0.495003 0.55141 0
M  V30 5235 H 513.493 1.71145 0.859158 0
M  V30 5236 H 511.798 1.83196 3.46333 0
M  V30 5237 H 513.495 2.20611 3.34861 0
M  V30 5238 H 510.085 3.41913 2.58444 0
M  V30 5239 H 514.269 4.3714 2.34994 0
M  V30 5240 H 509.525 5.75528 2.06342 0
M  V30 5241 H 513.699 6.71678 1.83906 0
M  V30 5242 H 511.326 7.41165 1.6905 0
M  V30 5243 N 512.901 -0.976442 1.23707 0
M  V30 5244 C 514.312 -1.53284 1.06587 0
M  V30 5245 C 514.663 -1.92765 -0.365526 0
M  V30 5246 O 513.788 -1.7645 -1.25277 0
M  V30 5247 C 514.383 -2.78548 1.92864 0
M  V30 5248 C 512.942 -3.30574 1.79994 0
M  V30 5249 C 512.089 -2.03538 1.88328 0
M  V30 5250 H 515.04 -0.795692 1.37311 0
M  V30 5251 H 515.061 -3.5155 1.45577 0
M  V30 5252 H 514.573 -2.49782 2.97037 0
M  V30 5253 H 512.674 -3.64211 0.786202 0
M  V30 5254 H 512.787 -4.00065 2.636 0
M  V30 5255 H 511.151 -2.17853 1.31954 0
M  V30 5256 H 511.934 -1.77149 2.94063 0
M  V30 5257 N 514.379 -1.04941 -1.1758 0
M  V30 5258 C 515.326 -0.648155 -2.21512 0
M  V30 5259 C 516.296 0.348431 -1.62404 0
M  V30 5260 O 517.481 0.240419 -1.89279 0
M  V30 5261 C 514.621 -0.0264291 -3.4509 0
M  V30 5262 C 513.734 -1.07154 -4.185 0
M  V30 5263 C 512.869 -0.417403 -5.29558 0
M  V30 5264 C 511.908 -1.447 -5.94751 0
M  V30 5265 N 511.045 -0.817203 -6.97328 0
M  V30 5266 H 515.885 -1.53891 -2.55189 0
M  V30 5267 H 513.422 -0.769699 -1.25356 0
M  V30 5268 H 515.38 0.351456 -4.15717 0
M  V30 5269 H 514.01 0.827802 -3.12005 0
M  V30 5270 H 513.062 -1.56728 -3.46613 0
M  V30 5271 H 514.374 -1.8532 -4.63096 0
M  V30 5272 H 513.528 0.0142061 -6.06698 0
M  V30 5273 H 512.267 0.396265 -4.86087 0
M  V30 5274 H 511.272 -1.88865 -5.16343 0
M  V30 5275 H 512.497 -2.26252 -6.40302 0
M  V30 5276 H 510.443 -0.0239995 -6.55996 0
M  V30 5277 H 510.36 -1.53644 -7.40223 0
M  V30 5278 H 511.628 -0.410283 -7.7842 0
M  V30 5279 N 515.857 1.33968 -0.830081 0
M  V30 5280 C 516.789 2.28194 -0.21448 0
M  V30 5281 C 517.802 1.5135 0.599752 0
M  V30 5282 O 518.991 1.73286 0.42826 0
M  V30 5283 C 516.091 3.31221 0.717356 0
M  V30 5284 C 515.264 4.37365 -0.055613 0
M  V30 5285 C 514.323 5.2011 0.798231 0
M  V30 5286 O 513.349 5.68691 0.240616 0
M  V30 5287 N 514.551 5.40523 2.11695 0
M  V30 5288 H 517.316 2.81662 -1.02405 0
M  V30 5289 H 514.877 1.46568 -0.687713 0
M  V30 5290 H 516.869 3.83477 1.29334 0
M  V30 5291 H 515.439 2.78095 1.42765 0
M  V30 5292 H 514.659 3.85727 -0.812936 0
M  V30 5293 H 515.947 5.05397 -0.587444 0
M  V30 5294 H 515.345 5.0274 2.59363 0
M  V30 5295 H 513.902 5.95871 2.64162 0
M  V30 5296 N 517.335 0.585699 1.46312 0
M  V30 5297 C 518.581 0.0725284 2.0267 0
M  V30 5298 C 518.914 -1.28523 1.45586 0
M  V30 5299 O 518.189 -1.84283 0.622101 0
M  V30 5300 C 518.472 0.0099788 3.60099 0
M  V30 5301 C 518.325 1.39685 4.27561 0
M  V30 5302 C 519.644 -0.689117 4.34671 0
M  V30 5303 H 516.763 0.0278307 0.736474 0
M  V30 5304 H 519.405 0.753472 1.74421 0
M  V30 5305 H 517.555 -0.56992 3.84297 0
M  V30 5306 H 519.227 2.02215 4.14617 0
M  V30 5307 H 517.47 1.96374 3.86807 0
M  V30 5308 H 518.141 1.30553 5.36339 0
M  V30 5309 H 520.617 -0.196446 4.15636 0
M  V30 5310 H 519.493 -0.701921 5.44393 0
M  V30 5311 H 519.754 -1.75101 4.05946 0
M  V30 5312 N 518.813 -1.54241 0.323641 0
M  V30 5313 C 519.746 -2.20579 -0.584833 0
M  V30 5314 C 520.724 -1.18286 -1.11567 0
M  V30 5315 O 521.908 -1.47025 -1.17966 0
M  V30 5316 C 519.035 -2.86754 -1.80249 0
M  V30 5317 C 518.081 -4.02767 -1.4029 0
M  V30 5318 S 518.914 -5.33693 -0.439539 0
M  V30 5319 C 520.07 -6.03362 -1.66448 0
M  V30 5320 H 520.303 -2.97292 -0.0213238 0
M  V30 5321 H 517.836 -1.54024 0.107726 0
M  V30 5322 H 519.794 -3.25503 -2.50116 0
M  V30 5323 H 518.455 -2.09844 -2.33719 0
M  V30 5324 H 517.648 -4.47933 -2.31024 0
M  V30 5325 H 517.25 -3.65692 -0.783928 0
M  V30 5326 H 519.542 -6.25546 -2.6019 0
M  V30 5327 H 520.485 -6.9689 -1.25498 0
M  V30 5328 H 520.893 -5.33273 -1.85149 0
M  V30 5329 N 520.291 -0.0518155 -1.57515 0
M  V30 5330 C 521.537 0.622745 -1.93002 0
M  V30 5331 C 521.87 1.70456 -0.930499 0
M  V30 5332 O 521.145 1.94452 0.0434086 0
M  V30 5333 C 521.428 1.21824 -3.38867 0
M  V30 5334 C 521.281 0.144434 -4.49568 0
M  V30 5335 C 522.6 2.12968 -3.8514 0
M  V30 5336 H 519.719 0.22491 -0.701844 0
M  V30 5337 H 522.361 -0.113711 -1.89659 0
M  V30 5338 H 520.511 1.8459 -3.41846 0
M  V30 5339 H 522.183 -0.48753 -4.58717 0
M  V30 5340 H 520.426 -0.527424 -4.30582 0
M  V30 5341 H 521.097 0.601127 -5.48717 0
M  V30 5342 H 523.573 1.60163 -3.8404 0
M  V30 5343 H 522.449 2.51578 -4.87852 0
M  V30 5344 H 522.71 3.03004 -3.21934 0
M  V30 5345 N 521.769 1.56035 0.221574 0
M  V30 5346 C 523.185 1.49026 0.571271 0
M  V30 5347 C 523.385 0.746912 1.87146 0
M  V30 5348 O 522.441 0.286566 2.50869 0
M  V30 5349 C 523.754 2.93579 0.650522 0
M  V30 5350 C 525.302 3.04099 0.741151 0
M  V30 5351 C 525.777 4.5001 0.851747 0
M  V30 5352 N 527.268 4.54053 0.915968 0
M  V30 5353 C 528.003 5.64232 1.02125 0
M  V30 5354 N 527.499 6.84164 1.09049 0
M  V30 5355 N 529.292 5.52084 1.05639 0
M  V30 5356 H 521.443 2.02791 -0.63162 0
M  V30 5357 H 523.706 0.921736 -0.221602 0
M  V30 5358 H 523.412 3.50912 -0.235253 0
M  V30 5359 H 523.286 3.45476 1.51413 0
M  V30 5360 H 525.673 2.4683 1.61737 0
M  V30 5361 H 525.754 2.55371 -0.148128 0
M  V30 5362 H 525.398 5.07896 -0.0200117 0
M  V30 5363 H 525.328 4.96444 1.75644 0
M  V30 5364 H 527.819 3.67683 0.872782 0
M  V30 5365 H 528.132 7.63883 1.1706 0
M  V30 5366 H 526.477 6.86875 1.05962 0
M  V30 5367 H 529.668 4.57317 0.998953 0
M  V30 5368 H 529.841 6.37983 1.13498 0
M  V30 5369 N 523.247 -0.488276 1.49845 0
M  V30 5370 C 524.496 -1.23826 1.59217 0
M  V30 5371 C 524.809 -1.93439 0.289966 0
M  V30 5372 O 526.015 -2.70229 0.262382 0
M  V30 5373 C 524.471 -2.24902 2.80976 0
M  V30 5374 C 524.079 -1.6117 4.18005 0
M  V30 5375 C 525.823 -3.00648 2.99685 0
M  V30 5376 C 523.73 -2.60431 5.3097 0
M  V30 5377 H 522.66 -0.465858 0.592868 0
M  V30 5378 H 525.311 -0.510645 1.76252 0
M  V30 5379 H 523.693 -3.0088 2.57463 0
M  V30 5380 H 524.867 -0.910968 4.51706 0
M  V30 5381 H 523.182 -0.97767 4.0476 0
M  V30 5382 H 525.779 -3.74903 3.81251 0
M  V30 5383 H 526.122 -3.5902 2.10738 0
M  V30 5384 H 526.655 -2.31784 3.23297 0
M  V30 5385 H 523.394 -2.06823 6.22017 0
M  V30 5386 H 522.914 -3.28707 5.01709 0
M  V30 5387 H 524.593 -3.22606 5.60834 0
M  V30 5388 N 524.725 -1.39134 -0.740242 0
M  V30 5389 C 525.972 -1.36071 -1.49969 0
M  V30 5390 C 526.3 0.0450245 -1.94448 0
M  V30 5391 O 525.555 1.02482 -1.66721 0
M  V30 5392 C 525.854 -2.27457 -2.75678 0
M  V30 5393 C 525.52 -3.75185 -2.50094 0
M  V30 5394 C 524.182 -4.15439 -2.42825 0
M  V30 5395 C 526.534 -4.68643 -2.28086 0
M  V30 5396 C 523.862 -5.4722 -2.11584 0
M  V30 5397 C 526.214 -6.00695 -1.98363 0
M  V30 5398 C 524.878 -6.40018 -1.8956 0
M  V30 5399 H 524.148 -0.497921 -0.548777 0
M  V30 5400 H 526.795 -1.71599 -0.85007 0
M  V30 5401 H 525.1 -1.8503 -3.45356 0
M  V30 5402 H 526.797 -2.22384 -3.33686 0
M  V30 5403 H 523.387 -3.43279 -2.56627 0
M  V30 5404 H 527.571 -4.3838 -2.32672 0
M  V30 5405 H 522.827 -5.76615 -2.03287 0
M  V30 5406 H 527.001 -6.72644 -1.80341 0
M  V30 5407 H 524.628 -7.42051 -1.65117 0
M  V30 5408 N 526.204 0.969867 -1.24223 0
M  V30 5409 C 527.429 1.75289 -1.10853 0
M  V30 5410 C 527.854 1.85091 0.335079 0
M  V30 5411 O 527.212 1.32024 1.24255 0
M  V30 5412 C 527.26 3.15255 -1.75062 0
M  V30 5413 O 526.364 3.99589 -1.01992 0
M  V30 5414 H 525.705 0.538904 -0.387915 0
M  V30 5415 H 528.235 1.21675 -1.64488 0
M  V30 5416 H 528.245 3.65787 -1.80731 0
M  V30 5417 H 526.92 3.07436 -2.801 0
M  V30 5418 H 525.497 3.58077 -1.04094 0
M  V30 5419 N 527.682 1.05563 1.17022 0
M  V30 5420 C 528.91 0.78845 1.91288 0
M  V30 5421 C 529.325 -0.656318 1.77025 0
M  V30 5422 O 528.682 -1.44869 1.10992 0
M  V30 5423 C 528.733 1.16444 3.42232 0
M  V30 5424 O 528.454 2.5525 3.5606 0
M  V30 5425 C 529.955 0.923937 4.33565 0
M  V30 5426 H 527.175 0.286389 0.606813 0
M  V30 5427 H 529.719 1.4073 1.48375 0
M  V30 5428 H 527.874 0.590266 3.82877 0
M  V30 5429 H 528.288 2.70097 4.49609 0
M  V30 5430 H 529.762 1.23672 5.37968 0
M  V30 5431 H 530.239 -0.140688 4.38975 0
M  V30 5432 H 530.845 1.48214 3.98639 0
M  V30 5433 N 529.16 -1.33526 0.837174 0
M  V30 5434 C 530.108 -2.31168 0.257698 0
M  V30 5435 C 531.102 -1.5806 -0.609388 0
M  V30 5436 O 532.308 -1.72941 -0.499139 0
M  V30 5437 H 528.683 -0.74922 0.0646058 0
M  V30 5438 H 530.654 -2.77552 1.09578 0
M  V30 5439 C 529.403 -3.4326 -0.553887 0
M  V30 5440 H 528.726 -3.99665 0.104008 0
M  V30 5441 H 530.166 -4.13782 -0.925219 0
M  V30 5442 C 528.625 -2.88965 -1.73207 0
M  V30 5443 O 529.155 -2.85013 -2.83073 0
M  V30 5444 N 527.361 -2.45596 -1.55342 0
M  V30 5445 H 526.908 -2.49009 -0.659705 0
M  V30 5446 H 526.866 -2.0962 -2.34322 0
M  V30 5447 N 530.638 -0.59345 -1.46 0
M  V30 5448 C 531.57 0.171569 -2.28557 0
M  V30 5449 C 532.583 0.845273 -1.39137 0
M  V30 5450 O 533.772 0.713033 -1.6364 0
M  V30 5451 C 530.872 1.26311 -3.14482 0
M  V30 5452 C 530.045 0.679258 -4.32094 0
M  V30 5453 C 529.104 1.65987 -4.99334 0
M  V30 5454 O 528.13 1.19171 -5.56585 0
M  V30 5455 N 529.332 2.99414 -4.97324 0
M  V30 5456 H 532.097 -0.536771 -2.94854 0
M  V30 5457 H 529.658 -0.431954 -1.56031 0
M  V30 5458 H 531.65 1.91863 -3.5633 0
M  V30 5459 H 530.22 1.87416 -2.50188 0
M  V30 5460 H 529.44 -0.153992 -3.93899 0
M  V30 5461 H 530.728 0.26916 -5.08088 0
M  V30 5462 H 530.126 3.40064 -4.52076 0
M  V30 5463 H 528.683 3.60426 -5.4308 0
M  V30 5464 N 532.116 1.54067 -0.331816 0
M  V30 5465 C 533.364 2.00319 0.267739 0
M  V30 5466 C 533.685 1.22148 1.52003 0
M  V30 5467 O 532.955 0.325494 1.93177 0
M  V30 5468 H 531.535 0.740014 0.101922 0
M  V30 5469 H 534.197 1.89628 -0.450267 0
M  V30 5470 H 533.293 3.07765 0.518385 0
M  V30 5471 N 533.594 0.0601682 1.57485 0
M  V30 5472 C 534.842 -0.610386 1.92662 0
M  V30 5473 C 535.163 -1.70849 0.939981 0
M  V30 5474 O 534.433 -1.95895 -0.0137455 0
M  V30 5475 H 533.013 -0.228457 0.711208 0
M  V30 5476 H 535.675 0.115288 1.94559 0
M  V30 5477 H 534.771 -1.0432 2.94149 0
M  V30 5478 N 535.072 -1.5615 -0.213296 0
M  V30 5479 C 536.319 -1.79546 -0.936462 0
M  V30 5480 C 536.647 -0.630337 -1.84003 0
M  V30 5481 O 535.902 0.384883 -1.91878 0
M  V30 5482 C 536.201 -3.08772 -1.79985 0
M  V30 5483 C 535.867 -4.38532 -1.04882 0
M  V30 5484 C 534.529 -4.73787 -0.841393 0
M  V30 5485 C 536.881 -5.18609 -0.51907 0
M  V30 5486 C 534.209 -5.86627 -0.0924403 0
M  V30 5487 C 536.561 -6.32229 0.216581 0
M  V30 5488 C 535.225 -6.6608 0.435191 0
M  V30 5489 H 534.495 -0.657004 -0.342676 0
M  V30 5490 H 537.142 -1.9041 -0.204051 0
M  V30 5491 H 535.447 -2.93065 -2.60038 0
M  V30 5492 H 537.144 -3.24077 -2.36168 0
M  V30 5493 H 533.734 -4.10855 -1.22048 0
M  V30 5494 H 537.918 -4.91801 -0.666775 0
M  V30 5495 H 533.174 -6.11338 0.087081 0
M  V30 5496 H 537.348 -6.93503 0.634538 0
M  V30 5497 H 534.975 -7.5336 1.01746 0
M  V30 5498 N 536.55 0.480323 -1.50102 0
M  V30 5499 C 537.483 1.59789 -1.62919 0
M  V30 5500 C 538.461 1.55429 -0.477557 0
M  V30 5501 O 539.645 1.75186 -0.695851 0
M  V30 5502 C 536.772 2.98351 -1.60325 0
M  V30 5503 C 535.818 3.20899 -2.80938 0
M  V30 5504 S 536.651 3.01791 -4.4236 0
M  V30 5505 C 537.807 4.42712 -4.42444 0
M  V30 5506 H 538.04 1.48676 -2.57454 0
M  V30 5507 H 535.573 0.666996 -1.3925 0
M  V30 5508 H 537.531 3.7824 -1.59514 0
M  V30 5509 H 536.192 3.06862 -0.670419 0
M  V30 5510 H 535.385 4.22102 -2.75401 0
M  V30 5511 H 534.987 2.48768 -2.79268 0
M  V30 5512 H 537.279 5.3518 -4.15438 0
M  V30 5513 H 538.222 4.53294 -5.43995 0
M  V30 5514 H 538.63 4.24359 -3.72263 0
M  V30 5515 N 538.028 1.39524 0.732853 0
M  V30 5516 C 538.958 1.41153 1.86005 0
M  V30 5517 C 539.939 0.274614 1.67869 0
M  V30 5518 O 541.124 0.480745 1.88155 0
M  V30 5519 C 538.254 1.25638 3.23778 0
M  V30 5520 C 537.208 2.36752 3.56556 0
M  V30 5521 C 536.534 2.06326 4.93289 0
M  V30 5522 C 537.834 3.79069 3.5931 0
M  V30 5523 H 539.528 2.35484 1.84899 0
M  V30 5524 H 537.074 1.13348 0.888162 0
M  V30 5525 H 539.027 1.25398 4.0231 0
M  V30 5526 H 537.751 0.277772 3.25417 0
M  V30 5527 H 536.41 2.36213 2.80355 0
M  V30 5528 H 536.058 1.06897 4.9151 0
M  V30 5529 H 535.758 2.80757 5.16187 0
M  V30 5530 H 537.282 2.07739 5.74175 0
M  V30 5531 H 538.696 3.81526 4.27914 0
M  V30 5532 H 537.093 4.52878 3.93728 0
M  V30 5533 H 538.163 4.09893 2.59068 0
M  V30 5534 N 539.506 -0.963266 1.24736 0
M  V30 5535 C 540.917 -1.52145 1.08207 0
M  V30 5536 C 541.268 -1.93142 -0.345061 0
M  V30 5537 O 540.393 -1.77769 -1.23399 0
M  V30 5538 C 540.988 -2.76486 1.95808 0
M  V30 5539 C 539.547 -3.28646 1.8349 0
M  V30 5540 C 538.694 -2.01529 1.90476 0
M  V30 5541 H 541.645 -0.781083 1.38148 0
M  V30 5542 H 541.666 -3.49986 1.49297 0
M  V30 5543 H 541.178 -2.46617 2.99669 0
M  V30 5544 H 539.279 -3.63357 0.824787 0
M  V30 5545 H 539.392 -3.97246 2.67829 0
M  V30 5546 H 537.756 -2.16442 1.34258 0
M  V30 5547 H 538.539 -1.7402 2.95926 0
M  V30 5548 N 540.985 -1.06182 -1.16461 0
M  V30 5549 C 542.234 -0.772927 -1.86303 0
M  V30 5550 C 542.547 0.703187 -1.82523 0
M  V30 5551 O 543.753 1.10641 -2.47933 0
M  V30 5552 C 542.209 -1.33249 -3.34324 0
M  V30 5553 C 541.817 -2.83876 -3.46581 0
M  V30 5554 C 543.561 -1.12108 -4.09429 0
M  V30 5555 C 541.468 -3.33082 -4.88682 0
M  V30 5556 H 540.398 -0.285452 -0.697878 0
M  V30 5557 H 543.049 -1.28039 -1.31447 0
M  V30 5558 H 541.431 -0.7528 -3.88779 0
M  V30 5559 H 542.605 -3.47786 -3.02293 0
M  V30 5560 H 540.92 -3.03671 -2.84909 0
M  V30 5561 H 543.517 -1.46361 -5.14279 0
M  V30 5562 H 543.86 -0.0593832 -4.16258 0
M  V30 5563 H 544.393 -1.6665 -3.6121 0
M  V30 5564 H 541.132 -4.38726 -4.87032 0
M  V30 5565 H 540.652 -2.73919 -5.33599 0
M  V30 5566 H 542.331 -3.28344 -5.57494 0
M  V30 5567 N 542.463 1.3308 -0.844243 0
M  V30 5568 C 543.693 2.01515 -0.455541 0
M  V30 5569 C 544.101 1.63655 0.949406 0
M  V30 5570 O 543.444 0.84848 1.62931 0
M  V30 5571 C 543.506 3.55967 -0.502801 0
M  V30 5572 C 543.17 4.17222 -1.86481 0
M  V30 5573 C 544.167 4.36205 -2.8288 0
M  V30 5574 C 541.852 4.53528 -2.15911 0
M  V30 5575 C 543.846 4.90649 -4.06869 0
M  V30 5576 C 541.533 5.07679 -3.40155 0
M  V30 5577 C 542.531 5.26186 -4.35451 0
M  V30 5578 O 542.219 5.79183 -5.57496 0
M  V30 5579 H 541.951 0.65199 -0.178565 0
M  V30 5580 H 544.505 1.70867 -1.1399 0
M  V30 5581 H 542.735 3.85965 0.23836 0
M  V30 5582 H 544.424 4.05688 -0.131169 0
M  V30 5583 H 545.19 4.085 -2.61444 0
M  V30 5584 H 541.069 4.38414 -1.42528 0
M  V30 5585 H 544.613 5.0501 -4.81259 0
M  V30 5586 H 540.51 5.34815 -3.61446 0
M  V30 5587 H 541.278 5.97591 -5.5931 0
M  V30 5588 N 543.941 0.601185 1.45683 0
M  V30 5589 C 544.851 -0.123395 2.34275 0
M  V30 5590 C 545.867 -0.86702 1.5086 0
M  V30 5591 O 547.043 -0.826049 1.8368 0
M  V30 5592 C 544.108 -1.11237 3.2837 0
M  V30 5593 C 543.169 -0.371405 4.2769 0
M  V30 5594 C 542.402 -1.31327 5.1729 0
M  V30 5595 O 542.625 -2.55078 5.10188 0
M  V30 5596 O 541.559 -0.813811 5.96373 0
M  V30 5597 H 545.385 0.604483 2.97623 0
M  V30 5598 H 542.97 0.361477 1.44961 0
M  V30 5599 H 544.852 -1.68214 3.8637 0
M  V30 5600 H 543.527 -1.82139 2.67595 0
M  V30 5601 H 542.434 0.24067 3.73325 0
M  V30 5602 H 543.767 0.296998 4.91303 0
M  V30 5603 N 545.419 -1.53889 0.339982 0
M  V30 5604 C 546.647 -2.05271 -0.259114 0
M  V30 5605 C 547.062 -1.21517 -1.44496 0
M  V30 5606 O 546.419 -0.24966 -1.80784 0
M  V30 5607 C 546.47 -3.55092 -0.677634 0
M  V30 5608 O 546.191 -4.35667 0.461051 0
M  V30 5609 C 547.692 -4.22631 -1.33782 0
M  V30 5610 H 544.912 -0.669085 -0.0506566 0
M  V30 5611 H 547.456 -1.9852 0.490935 0
M  V30 5612 H 545.611 -3.62077 -1.37763 0
M  V30 5613 H 546.025 -5.24343 0.128144 0
M  V30 5614 H 547.499 -5.28861 -1.58145 0
M  V30 5615 H 547.976 -3.74758 -2.29027 0
M  V30 5616 H 548.582 -4.19829 -0.679957 0
M  V30 5617 N 546.897 -0.0685191 -1.57451 0
M  V30 5618 C 547.86 0.885173 -2.11417 0
M  V30 5619 C 548.86 1.22853 -1.03748 0
M  V30 5620 O 550.05 1.16235 -1.2975 0
M  V30 5621 C 547.182 2.18964 -2.61281 0
M  V30 5622 H 548.375 0.417034 -2.96986 0
M  V30 5623 H 545.928 0.18014 -1.55258 0
M  V30 5624 H 546.663 2.70321 -1.79156 0
M  V30 5625 H 546.448 1.9534 -3.39977 0
M  V30 5626 H 547.938 2.87242 -3.0312 0
M  V30 5627 N 548.375 1.56261 0.205012 0
M  V30 5628 C 549.603 1.84141 0.943386 0
M  V30 5629 C 550.018 0.649772 1.77266 0
M  V30 5630 O 549.375 -0.381612 1.78466 0
M  V30 5631 C 549.426 3.10719 1.84759 0
M  V30 5632 O 549.147 4.25286 1.05181 0
M  V30 5633 C 550.648 3.51706 2.69848 0
M  V30 5634 H 547.868 0.611734 0.275721 0
M  V30 5635 H 550.412 2.03364 0.215253 0
M  V30 5636 H 548.567 2.93422 2.52947 0
M  V30 5637 H 548.981 4.97301 1.66709 0
M  V30 5638 H 550.455 4.43266 3.28967 0
M  V30 5639 H 550.932 2.7423 3.43067 0
M  V30 5640 H 551.538 3.71499 2.07047 0
M  V30 5641 N 549.853 -0.472356 1.50355 0
M  V30 5642 C 550.8 -1.57051 1.69126 0
M  V30 5643 C 551.77 -1.5733 0.532574 0
M  V30 5644 O 552.955 -1.7488 0.762994 0
M  V30 5645 C 550.095 -2.95033 1.79024 0
M  V30 5646 C 549.208 -3.04552 3.06386 0
M  V30 5647 C 548.343 -4.33441 3.07087 0
M  V30 5648 C 547.382 -4.36697 4.28908 0
M  V30 5649 N 546.519 -5.57056 4.27356 0
M  V30 5650 H 551.359 -1.40351 2.62879 0
M  V30 5651 H 548.896 -0.682403 1.30314 0
M  V30 5652 H 550.854 -3.75048 1.82744 0
M  V30 5653 H 549.484 -3.10371 0.887109 0
M  V30 5654 H 548.536 -2.17419 3.12143 0
M  V30 5655 H 549.848 -3.02818 3.96362 0
M  V30 5656 H 549.002 -5.21801 3.09529 0
M  V30 5657 H 547.741 -4.37782 2.14939 0
M  V30 5658 H 546.746 -3.46734 4.2668 0
M  V30 5659 H 547.971 -4.34049 5.22282 0
M  V30 5660 H 545.917 -5.62184 3.3806 0
M  V30 5661 H 545.834 -5.57058 5.111 0
M  V30 5662 H 547.102 -6.47545 4.33942 0
M  V30 5663 N 551.331 -1.39911 -0.725443 0
M  V30 5664 C 552.294 -1.39156 -1.82121 0
M  V30 5665 C 553.294 -0.287018 -1.58218 0
M  V30 5666 O 554.484 -0.545421 -1.65441 0
M  V30 5667 C 551.616 -1.1736 -3.20062 0
M  V30 5668 H 552.809 -2.36672 -1.84191 0
M  V30 5669 H 550.362 -1.25615 -0.930079 0
M  V30 5670 H 551.097 -0.205648 -3.23647 0
M  V30 5671 H 550.882 -1.97358 -3.3881 0
M  V30 5672 H 552.372 -1.19596 -4.00108 0
M  V30 5673 N 552.809 0.956637 -1.25245 0
M  V30 5674 C 554.039 1.7332 -1.12445 0
M  V30 5675 C 554.447 1.86392 0.324732 0
M  V30 5676 O 553.79 1.35967 1.23526 0
M  V30 5677 C 553.852 3.16603 -1.70303 0
M  V30 5678 C 553.516 3.26966 -3.19284 0
M  V30 5679 C 554.513 3.11434 -4.16299 0
M  V30 5680 C 552.198 3.50851 -3.59456 0
M  V30 5681 C 554.192 3.1963 -5.51467 0
M  V30 5682 C 551.879 3.58684 -4.94761 0
M  V30 5683 C 552.877 3.43087 -5.90576 0
M  V30 5684 O 552.565 3.50598 -7.2342 0
M  V30 5685 H 552.297 0.549981 -0.393061 0
M  V30 5686 H 554.851 1.20892 -1.66055 0
M  V30 5687 H 553.081 3.70385 -1.11138 0
M  V30 5688 H 554.77 3.76109 -1.52632 0
M  V30 5689 H 555.536 2.92853 -3.86604 0
M  V30 5690 H 551.415 3.62053 -2.85375 0
M  V30 5691 H 554.959 3.07373 -6.26233 0
M  V30 5692 H 550.856 3.76782 -5.24124 0
M  V30 5693 H 551.624 3.67242 -7.31489 0
M  V30 5694 N 554.287 1.06798 1.15896 0
M  V30 5695 C 555.25 0.687328 2.18651 0
M  V30 5696 C 556.25 -0.269559 1.58524 0
M  V30 5697 O 557.44 -0.0512627 1.74125 0
M  V30 5698 C 554.572 0.0121642 3.40898 0
M  V30 5699 H 555.765 1.59701 2.53842 0
M  V30 5700 H 553.318 0.863828 1.3026 0
M  V30 5701 H 554.053 -0.910025 3.1127 0
M  V30 5702 H 553.838 0.700309 3.85795 0
M  V30 5703 H 555.328 -0.239703 4.16911 0
M  V30 5704 N 555.766 -1.3263 0.851289 0
M  V30 5705 C 557.012 -1.9766 0.453694 0
M  V30 5706 C 557.345 -1.67225 -0.987396 0
M  V30 5707 O 556.62 -0.958693 -1.69232 0
M  V30 5708 C 556.903 -3.5344 0.68936 0
M  V30 5709 C 556.756 -3.93517 2.17862 0
M  V30 5710 C 558.075 -4.39866 0.143555 0
M  V30 5711 H 555.194 -0.717989 0.166314 0
M  V30 5712 H 557.836 -1.57068 1.06909 0
M  V30 5713 H 555.986 -3.88147 0.165546 0
M  V30 5714 H 557.658 -3.69006 2.76826 0
M  V30 5715 H 555.901 -3.42798 2.65841 0
M  V30 5716 H 556.572 -5.02065 2.29422 0
M  V30 5717 H 559.048 -4.11875 0.591451 0
M  V30 5718 H 557.924 -5.47858 0.338043 0
M  V30 5719 H 558.185 -4.31696 -0.953466 0
M  V30 5720 N 557.244 -0.608902 -1.45362 0
M  V30 5721 C 558.492 -0.104401 -2.0183 0
M  V30 5722 C 558.813 1.27007 -1.47967 0
M  V30 5723 O 558.083 1.83924 -0.674455 0
M  V30 5724 H 556.663 -0.0356042 -0.746151 0
M  V30 5725 H 559.325 -0.790596 -1.78145 0
M  V30 5726 H 558.421 -0.0551793 -3.12051 0
M  V30 5727 N 558.722 1.53707 -0.348139 0
M  V30 5728 C 559.654 2.22725 0.540946 0
M  V30 5729 C 560.667 1.2354 1.06027 0
M  V30 5730 O 561.856 1.49867 0.96964 0
M  V30 5731 C 558.956 2.89756 1.75768 0
M  V30 5732 C 558.129 4.15297 1.37285 0
M  V30 5733 C 557.188 4.65697 2.44976 0
M  V30 5734 O 556.214 5.29798 2.08092 0
M  V30 5735 N 557.416 4.42017 3.763 0
M  V30 5736 H 560.181 2.99658 -0.0501592 0
M  V30 5737 H 557.742 1.60979 -0.17248 0
M  V30 5738 H 559.734 3.20388 2.47252 0
M  V30 5739 H 558.304 2.16382 2.25605 0
M  V30 5740 H 557.524 3.9116 0.488584 0
M  V30 5741 H 558.812 4.96948 1.09179 0
M  V30 5742 H 558.21 3.9076 4.09051 0
M  V30 5743 H 556.767 4.77242 4.4394 0
M  V30 5744 N 560.2 0.0768682 1.57412 0
M  V30 5745 C 561.447 -0.591085 1.93681 0
M  V30 5746 C 561.775 -1.69311 0.957286 0
M  V30 5747 O 561.03 -1.95682 -0.0262428 0
M  V30 5748 C 561.329 -1.20268 3.36557 0
M  V30 5749 C 560.995 -0.226286 4.50332 0
M  V30 5750 C 559.657 0.0423142 4.81181 0
M  V30 5751 C 562.009 0.441415 5.19327 0
M  V30 5752 C 559.337 0.985616 5.78362 0
M  V30 5753 C 561.689 1.37307 6.17519 0
M  V30 5754 C 560.353 1.65009 6.46783 0
M  V30 5755 H 559.623 -0.216293 0.70873 0
M  V30 5756 H 562.27 0.148824 1.90921 0
M  V30 5757 H 560.575 -2.01844 3.35807 0
M  V30 5758 H 562.272 -1.72688 3.61911 0
M  V30 5759 H 558.862 -0.445821 4.26275 0
M  V30 5760 H 563.046 0.247023 4.95685 0
M  V30 5761 H 558.302 1.20743 5.99359 0
M  V30 5762 H 562.476 1.89637 6.70083 0
M  V30 5763 H 560.103 2.38263 7.21897 0
M  V30 5764 N 561.678 -1.56367 -0.196722 0
M  V30 5765 C 562.588 -1.97617 -1.2643 0
M  V30 5766 C 563.604 -0.883598 -1.49895 0
M  V30 5767 O 564.78 -1.18921 -1.62541 0
M  V30 5768 C 561.845 -2.30595 -2.58895 0
M  V30 5769 C 560.906 -3.53551 -2.43516 0
M  V30 5770 C 560.139 -3.84946 -3.69665 0
M  V30 5771 O 560.362 -3.17655 -4.73763 0
M  V30 5772 O 559.296 -4.78379 -3.65291 0
M  V30 5773 H 563.122 -2.88648 -0.944233 0
M  V30 5774 H 560.707 -1.43901 -0.401592 0
M  V30 5775 H 562.589 -2.52889 -3.37083 0
M  V30 5776 H 561.264 -1.42732 -2.90533 0
M  V30 5777 H 560.171 -3.36507 -1.63445 0
M  V30 5778 H 561.504 -4.41875 -2.16812 0
M  V30 5779 N 563.156 0.464375 -1.50603 0
M  V30 5780 C 564.088 1.57916 -1.66118 0
M  V30 5781 C 565.101 1.53497 -0.54246 0
M  V30 5782 O 566.29 1.58763 -0.815877 0
M  V30 5783 C 563.39 2.96809 -1.63577 0
M  V30 5784 C 562.563 3.26026 -2.91592 0
M  V30 5785 C 561.622 4.44506 -2.81604 0
M  V30 5786 O 560.648 4.44484 -3.55559 0
M  V30 5787 N 561.85 5.46549 -1.95614 0
M  V30 5788 H 564.615 1.45022 -2.62276 0
M  V30 5789 H 562.176 0.652903 -1.48151 0
M  V30 5790 H 564.168 3.74048 -1.54499 0
M  V30 5791 H 562.738 3.03438 -0.751262 0
M  V30 5792 H 561.958 2.37337 -3.14746 0
M  V30 5793 H 563.246 3.42361 -3.76386 0
M  V30 5794 H 562.644 5.49391 -1.34854 0
M  V30 5795 H 561.201 6.22746 -1.92435 0
M  V30 5796 N 564.634 1.40294 0.718013 0
M  V30 5797 C 566.045 1.34289 1.29705 0
M  V30 5798 C 566.396 0.0152228 1.96194 0
M  V30 5799 O 565.521 -0.88682 1.97394 0
M  V30 5800 C 566.116 2.43219 2.3586 0
M  V30 5801 C 564.675 2.40682 2.89394 0
M  V30 5802 C 563.822 2.24223 1.63154 0
M  V30 5803 H 566.773 1.50135 0.514312 0
M  V30 5804 H 566.794 2.10986 3.16647 0
M  V30 5805 H 566.306 3.39836 1.87439 0
M  V30 5806 H 564.407 1.47756 3.42051 0
M  V30 5807 H 564.52 3.36177 3.41353 0
M  V30 5808 H 562.884 1.71696 1.88129 0
M  V30 5809 H 563.667 3.22834 1.16761 0
M  V30 5810 N 566.112 -0.949982 1.2575 0
M  V30 5811 C 567.34 -1.72972 1.13527 0
M  V30 5812 C 567.755 -1.8623 -0.310453 0
M  V30 5813 O 567.112 -1.36336 -1.2132 0
M  V30 5814 C 567.163 -3.14108 1.78936 0
M  V30 5815 O 566.884 -3.01493 3.17858 0
M  V30 5816 C 568.385 -4.08338 1.72554 0
M  V30 5817 H 565.605 -0.541864 0.395758 0
M  V30 5818 H 568.149 -1.19151 1.66202 0
M  V30 5819 H 566.304 -3.64858 1.30221 0
M  V30 5820 H 566.718 -3.90559 3.50092 0
M  V30 5821 H 568.192 -5.04963 2.22973 0
M  V30 5822 H 568.669 -4.33742 0.690251 0
M  V30 5823 H 569.275 -3.63506 2.2078 0
M  V30 5824 N 567.59 -1.07411 -1.15328 0
M  V30 5825 C 568.5 -0.706438 -2.23711 0
M  V30 5826 C 569.516 0.282586 -1.7169 0
M  V30 5827 O 570.692 0.129066 -2.00986 0
M  V30 5828 C 567.757 -0.11048 -3.46524 0
M  V30 5829 C 566.818 -1.15282 -4.13532 0
M  V30 5830 C 566.051 -0.585205 -5.30482 0
M  V30 5831 O 566.274 0.598549 -5.67251 0
M  V30 5832 O 565.208 -1.33039 -5.87013 0
M  V30 5833 H 569.034 -1.61031 -2.57493 0
M  V30 5834 H 566.619 -0.847113 -1.23062 0
M  V30 5835 H 568.501 0.21957 -4.20828 0
M  V30 5836 H 567.176 0.766703 -3.14489 0
M  V30 5837 H 566.083 -1.53523 -3.41147 0
M  V30 5838 H 567.416 -2.00192 -4.49649 0
M  V30 5839 N 569.068 1.32177 -0.85831 0
M  V30 5840 C 570.296 2.01313 -0.477582 0
M  V30 5841 C 570.711 1.6449 0.926736 0
M  V30 5842 O 570.068 0.868096 1.60531 0
M  V30 5843 C 570.119 3.56293 -0.611337 0
M  V30 5844 O 569.84 3.91794 -1.96034 0
M  V30 5845 C 571.341 4.42702 -0.230093 0
M  V30 5846 H 568.561 0.644323 -0.187322 0
M  V30 5847 H 571.105 1.68674 -1.15626 0
M  V30 5848 H 569.26 3.87395 0.0196494 0
M  V30 5849 H 569.674 4.86513 -1.95973 0
M  V30 5850 H 571.148 5.50727 -0.374674 0
M  V30 5851 H 571.625 4.3129 0.829779 0
M  V30 5852 H 572.231 4.16997 -0.836302 0
M  V30 5853 N 570.547 0.616602 1.45037 0
M  V30 5854 C 571.958 0.199359 1.85633 0
M  V30 5855 C 572.309 -1.24588 1.51566 0
M  V30 5856 O 571.434 -1.94594 0.94668 0
M  V30 5857 C 572.029 0.355033 3.36935 0
M  V30 5858 C 570.588 -0.00758748 3.76399 0
M  V30 5859 C 569.735 0.675256 2.68953 0
M  V30 5860 H 572.686 0.822708 1.3571 0
M  V30 5861 H 572.707 -0.410201 3.78282 0
M  V30 5862 H 572.219 1.40699 3.61698 0
M  V30 5863 H 570.32 -1.05837 3.57252 0
M  V30 5864 H 570.433 0.392346 4.77491 0
M  V30 5865 H 568.797 0.111992 2.54454 0
M  V30 5866 H 569.58 1.72952 2.96551 0
M  V30 5867 N 572.025 -1.5352 0.356285 0
M  V30 5868 C 573.436 -1.86282 -0.12492 0
M  V30 5869 C 573.787 -1.27717 -1.48939 0
M  V30 5870 O 572.912 -0.595614 -2.08042 0
M  V30 5871 C 573.507 -3.37995 -0.23345 0
M  V30 5872 C 572.066 -3.70588 -0.658899 0
M  V30 5873 C 571.213 -2.76581 0.199596 0
M  V30 5874 H 574.164 -1.47901 0.575423 0
M  V30 5875 H 574.185 -3.65475 -1.0587 0
M  V30 5876 H 573.697 -3.8059 0.759776 0
M  V30 5877 H 571.798 -3.33544 -1.66069 0
M  V30 5878 H 571.911 -4.77076 -0.439957 0
M  V30 5879 H 570.275 -2.52552 -0.330076 0
M  V30 5880 H 571.058 -3.22008 1.19019 0
M  V30 5881 N 573.503 -0.0852151 -1.57369 0
M  V30 5882 C 574.413 0.891712 -2.16992 0
M  V30 5883 C 575.429 1.3174 -1.13669 0
M  V30 5884 O 576.605 1.38735 -1.45995 0
M  V30 5885 C 573.67 2.13635 -2.73059 0
M  V30 5886 C 572.731 1.7658 -3.91303 0
M  V30 5887 C 571.964 2.95111 -4.44686 0
M  V30 5888 O 572.187 4.09539 -3.97032 0
M  V30 5889 O 571.121 2.74149 -5.35841 0
M  V30 5890 H 574.947 0.414477 -3.00858 0
M  V30 5891 H 572.532 0.138598 -1.48756 0
M  V30 5892 H 574.414 2.86595 -3.08935 0
M  V30 5893 H 573.089 2.6043 -1.92244 0
M  V30 5894 H 571.996 1.00831 -3.60255 0
M  V30 5895 H 573.329 1.34557 -4.7345 0
M  V30 5896 N 574.981 1.5647 0.188427 0
M  V30 5897 C 576.258 1.71857 0.934058 0
M  V30 5898 C 576.638 0.641867 2.01105 0
M  V30 5899 O 575.986 -0.346098 2.25864 0
M  V30 5900 C 576.196 3.14431 1.5144 0
M  V30 5901 C 577.544 3.74869 1.99396 0
M  V30 5902 O 578.568 3.17601 1.61269 0
M  V30 5903 O 577.427 4.75387 2.69573 0
M  V30 5904 H 574.521 0.701186 0.438483 0
M  V30 5905 H 577.067 1.68768 0.177599 0
M  V30 5906 H 575.839 3.8427 0.738416 0
M  V30 5907 H 575.462 3.21775 2.33552 0
M  V30 5908 N 576.459 -0.456382 1.50847 0
M  V30 5909 C 577.389 -1.56025 1.73719 0
M  V30 5910 C 578.37 -1.5967 0.586473 0
M  V30 5911 O 579.555 -1.75702 0.827185 0
M  V30 5912 C 576.685 -2.94251 1.84483 0
M  V30 5913 C 575.639 -3.05471 2.99786 0
M  V30 5914 C 574.965 -4.45489 2.95709 0
M  V30 5915 C 576.265 -2.81318 4.40065 0
M  V30 5916 H 577.959 -1.37138 2.66146 0
M  V30 5917 H 575.505 -0.658299 1.28072 0
M  V30 5918 H 577.458 -3.71417 1.99067 0
M  V30 5919 H 576.182 -3.14328 0.886891 0
M  V30 5920 H 574.841 -2.30741 2.84876 0
M  V30 5921 H 574.489 -4.62505 1.97732 0
M  V30 5922 H 574.189 -4.53929 3.73125 0
M  V30 5923 H 575.713 -5.24655 3.12362 0
M  V30 5924 H 577.127 -3.48226 4.55425 0
M  V30 5925 H 575.524 -3.01188 5.19043 0
M  V30 5926 H 576.594 -1.7706 4.51418 0
M  V30 5927 N 577.937 -1.40673 -0.710563 0
M  V30 5928 C 579.214 -1.29718 -1.46398 0
M  V30 5929 C 579.594 0.082177 -2.1094 0
M  V30 5930 O 578.942 1.09536 -2.00534 0
M  V30 5931 C 579.152 -2.43967 -2.49562 0
M  V30 5932 C 580.5 -2.84436 -3.15248 0
M  V30 5933 O 581.524 -2.43597 -2.59883 0
M  V30 5934 O 580.383 -3.55008 -4.1549 0
M  V30 5935 H 577.477 -0.509697 -0.651258 0
M  V30 5936 H 580.023 -1.52603 -0.742312 0
M  V30 5937 H 578.795 -3.36076 -2.0042 0
M  V30 5938 H 578.418 -2.22879 -3.29258 0
M  V30 5939 N 579.415 0.9433 -1.26252 0
M  V30 5940 C 580.643 1.72367 -1.14443 0
M  V30 5941 C 581.058 1.86392 0.300572 0
M  V30 5942 O 580.415 1.36978 1.20596 0
M  V30 5943 C 580.466 3.13155 -1.806 0
M  V30 5944 O 580.187 2.99803 -3.19452 0
M  V30 5945 C 581.688 4.07417 -1.74717 0
M  V30 5946 H 578.908 0.539758 -0.398626 0
M  V30 5947 H 581.452 1.18268 -1.66832 0
M  V30 5948 H 579.607 3.64162 -1.32154 0
M  V30 5949 H 580.021 3.88697 -3.52158 0
M  V30 5950 H 581.495 5.03773 -2.25647 0
M  V30 5951 H 581.972 4.3337 -0.713244 0
M  V30 5952 H 582.578 3.6233 -2.22704 0
M  V30 5953 N 580.893 1.08022 1.14757 0
M  V30 5954 C 581.823 0.728248 2.21853 0
M  V30 5955 C 582.804 -0.287486 1.67653 0
M  V30 5956 O 583.989 -0.158727 1.9355 0
M  V30 5957 C 581.119 0.132549 3.47047 0
M  V30 5958 C 580.073 1.07619 4.14249 0
M  V30 5959 C 579.399 0.342907 5.33599 0
M  V30 5960 C 580.699 2.41268 4.63235 0
M  V30 5961 H 582.393 1.62365 2.51551 0
M  V30 5962 H 579.939 0.782125 1.20908 0
M  V30 5963 H 581.892 -0.125665 4.21213 0
M  V30 5964 H 580.616 -0.797971 3.16702 0
M  V30 5965 H 579.275 1.31944 3.42033 0
M  V30 5966 H 578.923 -0.59129 4.99513 0
M  V30 5967 H 578.623 0.971955 5.79506 0
M  V30 5968 H 580.147 0.0926538 6.1053 0
M  V30 5969 H 581.561 2.21232 5.28894 0
M  V30 5970 H 579.958 2.9983 5.19829 0
M  V30 5971 H 581.028 3.03079 3.78512 0
M  V30 5972 N 582.371 -1.3172 0.865308 0
M  V30 5973 C 583.596 -2.01591 0.487415 0
M  V30 5974 C 584.021 -1.6455 -0.911307 0
M  V30 5975 O 583.379 -0.851689 -1.6005 0
M  V30 5976 C 583.427 -3.54759 0.646401 0
M  V30 5977 O 582.531 -4.11185 -0.316284 0
M  V30 5978 H 581.872 -0.634884 0.194468 0
M  V30 5979 H 584.402 -1.68024 1.16744 0
M  V30 5980 H 584.412 -4.04438 0.537932 0
M  V30 5981 H 583.087 -3.8106 1.66632 0
M  V30 5982 H 581.664 -3.72543 -0.163162 0
M  V30 5983 N 583.85 -0.624285 -1.44708 0
M  V30 5984 C 584.779 0.0717025 -2.3339 0
M  V30 5985 C 585.76 0.841814 -1.47809 0
M  V30 5986 O 586.946 0.809056 -1.76544 0
M  V30 5987 C 584.076 1.05852 -3.30776 0
M  V30 5988 C 583.029 0.400503 -4.26122 0
M  V30 5989 C 582.356 1.49674 -5.13324 0
M  V30 5990 C 583.656 -0.688924 -5.17737 0
M  V30 5991 H 585.35 -0.668819 -2.91834 0
M  V30 5992 H 582.896 -0.32308 -1.40329 0
M  V30 5993 H 584.849 1.5541 -3.91696 0
M  V30 5994 H 583.572 1.82984 -2.70526 0
M  V30 5995 H 582.231 -0.0743687 -3.66525 0
M  V30 5996 H 581.88 2.25877 -4.49431 0
M  V30 5997 H 581.58 1.06188 -5.77926 0
M  V30 5998 H 583.104 1.99427 -5.77115 0
M  V30 5999 H 584.518 -0.276724 -5.72632 0
M  V30 6000 H 582.915 -1.04652 -5.90904 0
M  V30 6001 H 583.985 -1.55884 -4.5916 0
M  V30 6002 N 585.328 1.53329 -0.364422 0
M  V30 6003 C 586.291 2.24323 0.470292 0
M  V30 6004 C 587.291 1.25068 1.01067 0
M  V30 6005 O 588.481 1.49354 0.896605 0
M  V30 6006 C 585.613 2.97908 1.65722 0
M  V30 6007 H 586.806 2.9952 -0.150917 0
M  V30 6008 H 584.359 1.55868 -0.116092 0
M  V30 6009 H 585.094 2.2695 2.31655 0
M  V30 6010 H 584.879 3.70732 1.27671 0
M  V30 6011 H 586.369 3.5188 2.24878 0
M  V30 6012 N 586.806 0.0935595 1.57322 0
M  V30 6013 C 588.055 -0.570191 1.93473 0
M  V30 6014 C 588.368 -1.69434 0.977318 0
M  V30 6015 O 589.574 -2.41914 1.23248 0
M  V30 6016 C 588.03 -1.06564 3.43762 0
M  V30 6017 C 587.638 0.0286723 4.47991 0
M  V30 6018 C 589.382 -1.70221 3.88877 0
M  V30 6019 C 587.289 -0.482046 5.89432 0
M  V30 6020 H 586.219 -0.216764 0.72217 0
M  V30 6021 H 588.87 0.169313 1.82717 0
M  V30 6022 H 587.252 -1.85878 3.49664 0
M  V30 6023 H 588.426 0.804106 4.5373 0
M  V30 6024 H 586.741 0.570336 4.12476 0
M  V30 6025 H 589.338 -2.09502 4.91948 0
M  V30 6026 H 589.681 -2.57078 3.27439 0
M  V30 6027 H 590.214 -0.974919 3.85668 0
M  V30 6028 H 586.953 0.349871 6.54566 0
M  V30 6029 H 586.473 -1.22452 5.87167 0
M  V30 6030 H 588.152 -0.951508 6.39965 0
M  V30 6031 N 588.284 -1.56567 -0.180126 0
M  V30 6032 C 589.194 -1.98947 -1.24327 0
M  V30 6033 C 590.21 -0.899446 -1.4895 0
M  V30 6034 O 591.386 -1.20639 -1.61271 0
M  V30 6035 C 588.451 -2.33328 -2.56435 0
M  V30 6036 C 587.512 -3.56114 -2.39752 0
M  V30 6037 C 586.745 -3.88845 -3.65561 0
M  V30 6038 O 586.968 -3.22662 -4.70368 0
M  V30 6039 O 585.902 -4.82226 -3.60197 0
M  V30 6040 H 589.728 -2.89634 -0.913565 0
M  V30 6041 H 587.313 -1.44319 -0.386306 0
M  V30 6042 H 589.195 -2.5645 -3.34382 0
M  V30 6043 H 587.87 -1.45806 -2.89002 0
M  V30 6044 H 586.777 -3.38221 -1.59866 0
M  V30 6045 H 588.11 -4.4415 -2.12113 0
M  V30 6046 N 589.762 0.448376 -1.51087 0
M  V30 6047 C 590.725 1.52588 -1.71025 0
M  V30 6048 C 591.725 1.49958 -0.580442 0
M  V30 6049 O 592.915 1.52176 -0.847833 0
M  V30 6050 C 590.047 2.92163 -1.75652 0
M  V30 6051 H 591.24 1.36218 -2.67179 0
M  V30 6052 H 588.793 0.676313 -1.4091 0
M  V30 6053 H 589.528 3.13951 -0.812724 0
M  V30 6054 H 589.313 2.95478 -2.57751 0
M  V30 6055 H 590.803 3.70349 -1.92953 0
M  V30 6056 N 591.24 1.41047 0.703093 0
M  V30 6057 C 592.203 1.42036 1.79884 0
M  V30 6058 C 593.203 0.312153 1.57741 0
M  V30 6059 O 594.393 0.571672 1.64553 0
M  V30 6060 C 591.525 1.22437 3.18154 0
M  V30 6061 H 592.718 2.39572 1.80403 0
M  V30 6062 H 590.271 1.27079 0.909977 0
M  V30 6063 H 591.006 0.257112 3.23279 0
M  V30 6064 H 590.791 2.02723 3.35627 0
M  V30 6065 H 592.281 1.25946 3.98155 0
M  V30 6066 N 592.718 -0.936591 1.26751 0
M  V30 6067 C 593.967 -1.67778 1.11953 0
M  V30 6068 C 594.28 -1.92694 -0.33589 0
M  V30 6069 O 595.486 -2.64682 -0.604618 0
M  V30 6070 C 593.942 -3.02138 1.95551 0
M  V30 6071 C 593.55 -2.84953 3.45696 0
M  V30 6072 C 595.294 -3.79917 1.89377 0
M  V30 6073 C 593.201 -4.14814 4.21525 0
M  V30 6074 H 592.131 -0.629275 0.415366 0
M  V30 6075 H 594.782 -1.04122 1.51099 0
M  V30 6076 H 593.164 -3.668 1.49243 0
M  V30 6077 H 594.338 -2.29112 3.99805 0
M  V30 6078 H 592.653 -2.20612 3.53156 0
M  V30 6079 H 595.25 -4.76134 2.43312 0
M  V30 6080 H 595.593 -4.07204 0.865464 0
M  V30 6081 H 596.126 -3.22037 2.33532 0
M  V30 6082 H 592.865 -3.92709 5.24843 0
M  V30 6083 H 592.385 -4.70352 3.72195 0
M  V30 6084 H 594.064 -4.83239 4.3022 0
M  V30 6085 N 594.196 -1.08629 -1.14182 0
M  V30 6086 C 595.128 -0.676189 -2.18998 0
M  V30 6087 C 596.141 0.277871 -1.60411 0
M  V30 6088 O 597.33 0.0651771 -1.78381 0
M  V30 6089 C 594.43 0.0254916 -3.3889 0
M  V30 6090 C 593.603 -0.948039 -4.27002 0
M  V30 6091 C 592.662 -0.281268 -5.25448 0
M  V30 6092 O 591.688 -0.926378 -5.61611 0
M  V30 6093 N 592.89 0.967923 -5.72374 0
M  V30 6094 H 595.655 -1.57792 -2.54798 0
M  V30 6095 H 593.216 -0.972665 -1.29425 0
M  V30 6096 H 595.208 0.482554 -4.01813 0
M  V30 6097 H 593.778 0.829348 -3.01398 0
M  V30 6098 H 592.998 -1.58388 -3.6098 0
M  V30 6099 H 594.286 -1.60765 -4.82734 0
M  V30 6100 H 593.684 1.51175 -5.45126 0
M  V30 6101 H 592.241 1.36844 -6.37273 0
M  V30 6102 N 595.674 1.31259 -0.872281 0
M  V30 6103 C 596.951 1.91362 -0.404943 0
M  V30 6104 C 597.331 1.79362 1.11321 0
M  V30 6105 O 596.679 1.20277 1.94283 0
M  V30 6106 C 596.889 3.3749 -0.888893 0
M  V30 6107 C 598.237 4.14593 -0.916384 0
M  V30 6108 O 599.261 3.46282 -0.834701 0
M  V30 6109 O 598.12 5.3661 -1.03498 0
M  V30 6110 H 595.214 0.818016 -0.121569 0
M  V30 6111 H 597.76 1.39912 -0.960346 0
M  V30 6112 H 596.532 3.40249 -1.93251 0
M  V30 6113 H 596.155 3.96375 -0.311932 0
M  V30 6114 N 597.152 0.631951 1.44375 0
M  V30 6115 C 598.082 -0.0593243 2.33425 0
M  V30 6116 C 599.063 -0.833964 1.48253 0
M  V30 6117 O 600.248 -0.799682 1.76971 0
M  V30 6118 C 597.378 -1.04096 3.31333 0
M  V30 6119 C 596.332 -0.377899 4.26328 0
M  V30 6120 C 595.658 -1.4695 5.14111 0
M  V30 6121 C 596.958 0.716371 5.17364 0
M  V30 6122 H 598.652 0.684287 2.91475 0
M  V30 6123 H 596.198 0.330518 1.40156 0
M  V30 6124 H 598.151 -1.53331 3.92514 0
M  V30 6125 H 596.875 -1.81547 2.71493 0
M  V30 6126 H 595.534 0.0938054 3.6648 0
M  V30 6127 H 595.182 -2.2349 4.50623 0
M  V30 6128 H 594.882 -1.03121 5.78481 0
M  V30 6129 H 596.406 -1.96363 5.78164 0
M  V30 6130 H 597.82 0.307089 5.72477 0
M  V30 6131 H 596.217 1.07784 5.90341 0
M  V30 6132 H 597.287 1.58316 4.58327 0
M  V30 6133 N 598.631 -1.53133 0.372548 0
M  V30 6134 C 600.047 -1.59585 0.02178 0
M  V30 6135 C 600.247 -1.38736 -1.46132 0
M  V30 6136 O 599.303 -1.19599 -2.22379 0
M  V30 6137 C 600.616 -2.9678 0.483959 0
M  V30 6138 C 602.164 -3.09909 0.438775 0
M  V30 6139 C 602.639 -4.49527 0.876876 0
M  V30 6140 N 604.13 -4.55663 0.832214 0
M  V30 6141 C 604.865 -5.61896 1.14281 0
M  V30 6142 N 604.361 -6.75852 1.52303 0
M  V30 6143 N 606.154 -5.51916 1.06515 0
M  V30 6144 H 598.305 -1.64936 1.33827 0
M  V30 6145 H 600.568 -0.773947 0.547458 0
M  V30 6146 H 600.274 -3.17198 1.51915 0
M  V30 6147 H 600.148 -3.7699 -0.125784 0
M  V30 6148 H 602.535 -2.89197 -0.587294 0
M  V30 6149 H 602.616 -2.31691 1.0841 0
M  V30 6150 H 602.26 -4.70979 1.90109 0
M  V30 6151 H 602.19 -5.26186 0.208727 0
M  V30 6152 H 604.681 -3.73844 0.552195 0
M  V30 6153 H 604.994 -7.52862 1.7441 0
M  V30 6154 H 603.339 -6.77226 1.56175 0
M  V30 6155 H 606.53 -4.6177 0.767235 0
M  V30 6156 H 606.703 -6.34609 1.31053 0
M  V30 6157 N 600.109 -0.101901 -1.5727 0
M  V30 6158 C 601.057 0.872034 -2.15635 0
M  V30 6159 C 602.051 1.28742 -1.10099 0
M  V30 6160 O 603.257 1.26116 -1.28432 0
M  V30 6161 H 599.632 0.299269 -0.689886 0
M  V30 6162 H 601.603 0.355137 -2.96279 0
M  V30 6163 C 600.352 2.11886 -2.7568 0
M  V30 6164 H 599.675 1.80813 -3.56576 0
M  V30 6165 H 601.115 2.78077 -3.20077 0
M  V30 6166 C 599.574 2.89739 -1.7191 0
M  V30 6167 O 600.104 3.84522 -1.16213 0
M  V30 6168 N 598.31 2.53407 -1.42245 0
M  V30 6169 H 597.857 1.76398 -1.87727 0
M  V30 6170 H 597.815 3.05795 -0.730529 0
M  V30 6171 N 601.587 1.56661 0.17182 0
M  V30 6172 C 602.534 1.96371 1.21273 0
M  V30 6173 C 603.504 0.82756 1.44016 0
M  V30 6174 O 604.689 1.08764 1.56764 0
M  V30 6175 C 601.829 2.32838 2.54716 0
M  V30 6176 C 600.942 3.59628 2.39356 0
M  V30 6177 C 600.077 3.85311 3.65662 0
M  V30 6178 C 599.116 5.0545 3.45234 0
M  V30 6179 N 598.253 5.27268 4.63608 0
M  V30 6180 H 603.093 2.85106 0.86709 0
M  V30 6181 H 600.63 1.41073 0.416744 0
M  V30 6182 H 602.588 2.52004 3.3249 0
M  V30 6183 H 601.218 1.47214 2.87277 0
M  V30 6184 H 600.27 3.4838 1.52761 0
M  V30 6185 H 601.582 4.4756 2.20207 0
M  V30 6186 H 600.736 4.04841 4.51872 0
M  V30 6187 H 599.475 2.95753 3.8779 0
M  V30 6188 H 598.48 4.85819 2.5741 0
M  V30 6189 H 599.705 5.96538 3.24529 0
M  V30 6190 H 597.651 4.40662 4.85956 0
M  V30 6191 H 597.568 6.09422 4.4737 0
M  V30 6192 H 598.836 5.51277 5.51103 0
M  V30 6193 N 603.065 -0.440357 1.51323 0
M  V30 6194 C 604.29 -1.21716 1.67928 0
M  V30 6195 C 604.715 -1.84328 0.374826 0
M  V30 6196 O 604.073 -1.68675 -0.664706 0
M  V30 6197 C 604.121 -2.27914 2.79442 0
M  V30 6198 O 603.225 -3.33325 2.42834 0
M  V30 6199 H 602.566 -0.35674 0.560029 0
M  V30 6200 H 605.096 -0.520417 1.97871 0
M  V30 6201 H 605.106 -2.72746 3.03436 0
M  V30 6202 H 603.781 -1.8172 3.741 0
M  V30 6203 H 602.358 -2.9399 2.294 0
M  V30 6204 N 604.543 -1.41418 -0.695603 0
M  V30 6205 C 605.475 -1.39195 -1.82092 0
M  V30 6206 C 606.488 -0.294132 -1.60121 0
M  V30 6207 O 607.677 -0.555854 -1.69625 0
M  V30 6208 C 604.777 -1.14828 -3.18854 0
M  V30 6209 C 603.95 -2.36649 -3.67853 0
M  V30 6210 C 603.009 -2.08139 -4.83285 0
M  V30 6211 O 602.035 -2.81177 -4.94902 0
M  V30 6212 N 603.237 -1.07162 -5.70523 0
M  V30 6213 H 606.002 -2.36185 -1.84491 0
M  V30 6214 H 603.563 -1.3603 -0.877923 0
M  V30 6215 H 605.555 -0.937075 -3.93702 0
M  V30 6216 H 604.125 -0.264358 -3.1148 0
M  V30 6217 H 603.345 -2.73472 -2.83913 0
M  V30 6218 H 604.633 -3.17816 -3.97329 0
M  V30 6219 H 604.031 -0.467124 -5.63768 0
M  V30 6220 H 602.588 -0.920311 -6.4527 0
M  V30 6221 O 606.06 0.837703 -1.38075 0
M  V30 6222 H 606.751 1.47967 -1.25002 0
M  V30 END ATOM
M  V30 BEGIN BOND
M  V30 END BOND
M  V30 END CTAB
M  END
$$$$
